data_PCOD8135375
_publ_section_title
;
Structure prediction by ZEFSAII (Michael W. Deem and Ramdas Pophale) SiO2 
 PCOD8135375
Probable space group: C 2/C
;
_chemical_formula_sum "Si O2"
_cell_formula_units_Z 40
_cell_length_a 29.278656
_cell_length_b 9.268418
_cell_length_c 14.100826
_cell_angle_alpha 90.000000
_cell_angle_beta 147.919218
_cell_angle_gamma 90.000000
_cell_volume 2032.307349
_symmetry_space_group_name_H-M "C 2/C"
_symmetry_group_IT_number 15
_symmetry_cell_setting 'monoclinic'
loop_
_space_group_symop_operation_xyz
x,y,z
-x,y,1/2-z
-x,-y,-z
x,-y,1/2+z
1/2+x,1/2+y,z
1/2-x,1/2+y,1/2-z
1/2-x,1/2-y,-z
1/2+x,1/2-y,1/2+z
loop_
_atom_site_type_symbol
_atom_site_label
_atom_site_fract_x
_atom_site_fract_y
_atom_site_fract_z
Si Si1 0.141466 0.373448 0.843103
Si Si2 0.189536 0.456806 0.731353
Si Si3 0.223383 0.148355 0.755893
Si Si4 0.995814 0.596505 0.632657
Si Si5 0.558517 0.363530 0.077804
O O1 0.206618 0.418896 0.872126
O O2 0.094970 0.221357 0.734830
O O3 0.074396 0.501487 0.736336
O O4 0.193481 0.359331 0.030903
O O5 0.204267 0.312848 0.695159
O O6 0.254818 0.575586 0.806692
O O7 0.089349 0.497328 0.541909
O O8 0.139465 0.078566 0.658035
O O9 0.997246 0.749097 0.580380
O O10 0.000000 0.632199 0.750000
O O11 0.500000 0.500000 0.000000
#
# Coordination Sequence:
#
# PCOD8135375 Si02
#       5
#     8   8   8   8   8
#     4  10  20  40  63  81 111 158 194 227 280 348
#     4  10  20  36  58  85 115 146 189 236 281 334
#     4  10  21  39  58  84 116 149 191 234 282 338
#     4  10  19  38  61  83 114 152 194 228 278 346
#     4  10  22  40  57  85 121 146 186 242 292 327
#
# _framework density 19.682062999999999
#
# number of rings (size 3 to 8) (size 9 to 14) (size 15 to 20)
#    0.000    2.400    2.000    4.800    0.000    3.200 
#   14.400    2.000    0.000    0.000    0.000    0.000 
#    0.000    0.000    0.000    0.000    0.000    0.000 
#
# Total GULP energy -247892.039664 kJ/mol
# GULP energy per Si atom -12394.601983 kJ/mol
# Density = 1.963727 g / cm^3
# Si number density = 19.682063 Si / 1000 Ang^3
#
#
#
# Elastic Constant Matrix: (Units=GPa)
#
#
# Indices 1 2 3 4 5 6 
#
# 1 73.7046 53.7124 6.4665 0.0000 14.3493 0.0000
# 2 53.7124 89.4536 17.5229 0.0000 24.4200 0.0000
# 3 6.4665 17.5229 50.8145 0.0000 9.6066 0.0000
# 4 0.0000 0.0000 0.0000 21.1857 0.0000 10.7735
# 5 14.3493 24.4200 9.6066 0.0000 32.5070 0.0000
# 6 0.0000 0.0000 0.0000 10.7735 0.0000 37.5625
#
#
#
# Elastic Compliance Matrix: (Units=1/GPa)
#
#
# Indices 1 2 3 4 5 6 
#
# 1 0.024328 -0.014991 0.002092 0.000000 -0.000095 0.000000
# 2 -0.014991 0.023753 -0.004407 0.000000 -0.009924 0.000000
# 3 0.002092 -0.004407 0.021694 0.000000 -0.004024 0.000000
# 4 0.000000 0.000000 0.000000 0.055262 0.000000 -0.015850
# 5 -0.000095 -0.009924 -0.004024 0.000000 0.039449 0.000000
# 6 0.000000 0.000000 0.000000 -0.015850 0.000000 0.031168
#
#
# Mechanical properties :
#
#
# Convention : Reuss Voigt Hill
#
# Bulk Modulus (GPa) = 28.44072 41.04181 34.74127
# Shear Modulus (GPa) = 20.66233 27.33578 23.99906
#
# Velocity S-wave (km/s) = 3.24358 3.73079 3.49569
# Velocity P-wave (km/s) = 5.33940 6.28141 5.82947
#
# Compressibility (1/GPa) = 0.03516085
#
# Stress axis : x y z
#
# Youngs Moduli (GPa) = 41.10557 42.10010 46.09638
#
# Poissons Ratio (x) = 0.63114 -0.09642
# Poissons Ratio (y) = 0.61623 0.20315
# Poissons Ratio (z) = -0.08598 0.18554
#
# Static dielectric constant tensor:
#      x y z
#    x 3.675380 0.000000 0.056540 
#    y 0.000000 3.416000 0.000000 
#    z 0.056540 0.000000 3.634030 
# 
# 
# High freq. dielectric constant tensor:
#      x y z
#    x 1.769510 0.000000 0.003710 
#    y 0.000000 1.750270 0.000000 
#    z 0.003710 0.000000 1.766220 
# 
# From -- ./inp_files/181261.got.cif
#   From: 2010.06.25/outbox.cif.g09.slc.cpg/sg15_91_cif.got.tgz:181261.got - 2010.06.28 07:06:18.
