data_PCOD8135465
_publ_section_title
;
Structure prediction by ZEFSAII (Michael W. Deem and Ramdas Pophale) SiO2 
 PCOD8135465
Probable space group: C 2/C
;
_chemical_formula_sum "Si O2"
_cell_formula_units_Z 64
_cell_length_a 30.286509
_cell_length_b 18.809091
_cell_length_c 14.998322
_cell_angle_alpha 90.000000
_cell_angle_beta 21.709099
_cell_angle_gamma 90.000000
_cell_volume 3160.365729
_symmetry_space_group_name_H-M "C 2/C"
_symmetry_group_IT_number 15
_symmetry_cell_setting 'monoclinic'
loop_
_space_group_symop_operation_xyz
x,y,z
-x,y,1/2-z
-x,-y,-z
x,-y,1/2+z
1/2+x,1/2+y,z
1/2-x,1/2+y,1/2-z
1/2-x,1/2-y,-z
1/2+x,1/2-y,1/2+z
loop_
_atom_site_type_symbol
_atom_site_label
_atom_site_fract_x
_atom_site_fract_y
_atom_site_fract_z
Si Si1 0.811567 0.141065 0.365651
Si Si2 0.579393 0.222841 0.243676
Si Si3 0.380574 0.909252 0.578554
Si Si4 0.314682 0.784723 0.252047
Si Si5 0.805471 0.417571 0.910508
Si Si6 0.574928 0.347757 0.390827
Si Si7 0.857135 0.547091 0.928601
Si Si8 0.703422 0.748372 0.784288
O O1 0.726286 0.147648 0.612142
O O2 0.824485 0.216806 0.296029
O O3 0.758206 0.083851 0.398082
O O4 0.944415 0.117277 0.146478
O O5 0.445724 0.201073 0.464358
O O6 0.633929 0.159683 0.200470
O O7 0.580389 0.293610 0.299229
O O8 0.662570 0.238478 0.003591
O O9 0.321978 0.944307 0.777248
O O10 0.523951 0.908884 0.318306
O O11 0.340909 0.955895 0.566574
O O12 0.339688 0.828642 0.643493
O O13 0.212607 0.771623 0.370556
O O14 0.868422 0.468757 0.864736
O O15 0.666319 0.411723 0.197756
O O16 0.610526 0.305761 0.413850
#
# Coordination Sequence:
#
# PCOD8135465 Si02
#       8
#     8   8   8   8   8   8   8   8
#     4  10  22  38  55  89 122 160 196 245 300 370
#     4  10  19  38  63  94 113 151 202 261 313 349
#     4  11  22  40  63  88 116 162 208 251 302 369
#     4  10  21  34  59  89 126 152 195 255 305 354
#     4  11  21  43  63  85 123 162 199 261 305 364
#     4  10  21  37  66  88 118 154 201 253 314 352
#     4  11  25  40  60  89 123 164 209 241 309 377
#     4  11  19  36  62  89 121 152 204 254 302 363
#
# _framework density 20.250820999999998
#
# number of rings (size 3 to 8) (size 9 to 14) (size 15 to 20)
#    0.000    1.500    3.750    2.250    3.500    1.000 
#   13.500    0.625    0.000    0.000    0.000    0.000 
#    0.000    0.000    0.000    0.000    0.000    0.000 
#
# Total GULP energy -396794.455654 kJ/mol
# GULP energy per Si atom -12399.826739 kJ/mol
# Density = 2.020473 g / cm^3
# Si number density = 20.250821 Si / 1000 Ang^3
#
#
#
# Elastic Constant Matrix: (Units=GPa)
#
#
# Indices 1 2 3 4 5 6 
#
# 1 121.2351 28.6564 48.0236 0.0000 -2.6545 0.0000
# 2 28.6564 44.8345 28.8754 0.0000 6.5230 0.0000
# 3 48.0236 28.8754 101.2660 0.0001 -14.6229 0.0001
# 4 0.0000 0.0000 0.0001 12.7021 0.0000 -1.7756
# 5 -2.6545 6.5230 -14.6229 0.0000 33.1664 0.0000
# 6 0.0000 0.0000 0.0001 -1.7756 0.0000 28.0051
#
#
#
# Elastic Compliance Matrix: (Units=1/GPa)
#
#
# Indices 1 2 3 4 5 6 
#
# 1 0.010829 -0.004437 -0.003865 0.000000 0.000035 0.000000
# 2 -0.004437 0.032196 -0.008589 0.000000 -0.010474 0.000000
# 3 -0.003865 -0.008589 0.015332 0.000000 0.008140 0.000000
# 4 0.000000 0.000000 0.000000 0.079431 0.000000 0.005036
# 5 0.000035 -0.010474 0.008140 0.000000 0.035803 0.000000
# 6 0.000000 0.000000 0.000000 0.005036 0.000000 0.036027
#
#
# Mechanical properties :
#
#
# Convention : Reuss Voigt Hill
#
# Bulk Modulus (GPa) = 40.69162 53.16074 46.92618
# Shear Modulus (GPa) = 19.87348 25.56006 22.71677
#
# Velocity S-wave (km/s) = 3.13608 3.55656 3.35292
# Velocity P-wave (km/s) = 5.76634 6.57067 6.18160
#
# Compressibility (1/GPa) = 0.02457509
#
# Stress axis : x y z
#
# Youngs Moduli (GPa) = 92.34358 31.06007 65.22170
#
# Poissons Ratio (x) = 0.13782 0.25209
# Poissons Ratio (y) = 0.40976 0.56016
# Poissons Ratio (z) = 0.35692 0.26676
#
# Static dielectric constant tensor:
#      x y z
#    x 3.737200 0.000000 -0.025290 
#    y 0.000000 3.352340 0.000000 
#    z -0.025290 0.000000 4.062460 
# 
# 
# High freq. dielectric constant tensor:
#      x y z
#    x 1.797630 0.000000 -0.003120 
#    y 0.000000 1.759960 0.000000 
#    z -0.003120 0.000000 1.797000 
# 
# From -- ./inp_files/146099.got.cif
#   From: 2010.06.25/outbox.cif.g09.slc.cpg/sg15_74_cif.got.tgz:146099.got - 2010.06.28 07:06:18.
