data_PCOD8135582
_publ_section_title
;
Structure prediction by ZEFSAII (Michael W. Deem and Ramdas Pophale) SiO2 
 PCOD8135582
Probable space group: C 2/C
;
_chemical_formula_sum "Si O2"
_cell_formula_units_Z 44
_cell_length_a 11.298729
_cell_length_b 9.877739
_cell_length_c 17.219389
_cell_angle_alpha 90.000000
_cell_angle_beta 60.914095
_cell_angle_gamma 90.000000
_cell_volume 1679.432521
_symmetry_space_group_name_H-M "C 2/C"
_symmetry_group_IT_number 15
_symmetry_cell_setting 'monoclinic'
loop_
_space_group_symop_operation_xyz
x,y,z
-x,y,1/2-z
-x,-y,-z
x,-y,1/2+z
1/2+x,1/2+y,z
1/2-x,1/2+y,1/2-z
1/2-x,1/2-y,-z
1/2+x,1/2-y,1/2+z
loop_
_atom_site_type_symbol
_atom_site_label
_atom_site_fract_x
_atom_site_fract_y
_atom_site_fract_z
Si Si1 0.342059 0.532370 0.979663
Si Si2 0.474095 0.674875 0.169690
Si Si3 0.126577 0.650006 0.515036
Si Si4 0.794474 0.028955 0.666997
Si Si5 0.500000 0.958716 0.750000
Si Si6 0.522399 0.233954 0.385630
O O1 0.427369 0.443208 0.892010
O O2 0.383784 0.688083 0.954379
O O3 0.181513 0.503660 0.012553
O O4 0.368960 0.485003 0.059578
O O5 0.500000 0.709451 0.250000
O O6 0.499719 0.812924 0.111845
O O7 0.323501 0.610684 0.205682
O O8 0.250000 0.750000 0.500000
O O9 0.084626 0.655833 0.439218
O O10 0.862786 0.161348 0.683197
O O11 0.633490 0.052890 0.713690
O O12 0.518162 0.867416 0.668688
#
# Coordination Sequence:
#
# PCOD8135582 Si02
#       6
#     8   8   8   8   4   8
#     4  10  21  42  72  97 135 184 231 279 356 413
#     4  10  20  36  73 105 133 185 233 281 352 412
#     4  10  19  38  72 103 128 184 231 279 347 422
#     4  11  23  48  65 100 145 180 233 293 342 417
#     4  12  32  42  68 110 142 184 242 292 336 422
#     4  11  23  48  70  95 143 188 227 290 355 406
#
# _framework density 26.199327
#
# number of rings (size 3 to 8) (size 9 to 14) (size 15 to 20)
#    0.000    1.455    5.455    1.091   10.182    0.727 
#    4.909    0.909    0.000    0.000    0.000    0.000 
#    0.000    0.000    0.000    0.000    0.000    0.000 
#
# Total GULP energy -272754.780610 kJ/mol
# GULP energy per Si atom -12397.944573 kJ/mol
# Density = 2.613970 g / cm^3
# Si number density = 26.199327 Si / 1000 Ang^3
#
#
#
# Elastic Constant Matrix: (Units=GPa)
#
#
# Indices 1 2 3 4 5 6 
#
# 1 122.8333 28.9660 18.6334 0.0000 2.6206 0.0000
# 2 28.9660 53.6094 9.8225 0.0000 4.8862 0.0000
# 3 18.6334 9.8225 92.8969 0.0000 18.8273 0.0000
# 4 0.0000 0.0000 0.0000 22.5565 0.0000 -8.1525
# 5 2.6206 4.8862 18.8273 0.0000 50.2099 0.0000
# 6 0.0000 0.0000 0.0000 -8.1525 0.0000 41.6322
#
#
#
# Elastic Compliance Matrix: (Units=1/GPa)
#
#
# Indices 1 2 3 4 5 6 
#
# 1 0.009516 -0.004917 -0.001499 0.000000 0.000544 0.000000
# 2 -0.004917 0.021628 -0.001002 0.000000 -0.001472 0.000000
# 3 -0.001499 -0.001002 0.012052 0.000000 -0.004343 0.000000
# 4 0.000000 0.000000 0.000000 0.047710 0.000000 0.009343
# 5 0.000544 -0.001472 -0.004343 0.000000 0.021660 0.000000
# 6 0.000000 0.000000 0.000000 0.009343 0.000000 0.025849
#
#
# Mechanical properties :
#
#
# Convention : Reuss Voigt Hill
#
# Bulk Modulus (GPa) = 35.26159 42.68703 38.97431
# Shear Modulus (GPa) = 30.73062 37.00757 33.86910
#
# Velocity S-wave (km/s) = 3.42856 3.76245 3.59938
# Velocity P-wave (km/s) = 5.40014 5.93324 5.67295
#
# Compressibility (1/GPa) = 0.02835947
#
# Stress axis : x y z
#
# Youngs Moduli (GPa) = 105.08205 46.23668 82.97706
#
# Poissons Ratio (x) = 0.22733 0.12440
# Poissons Ratio (y) = 0.51666 0.08316
# Poissons Ratio (z) = 0.15754 0.04634
#
# Static dielectric constant tensor:
#      x y z
#    x 5.377870 0.000000 -0.255630 
#    y 0.000000 5.012160 0.000000 
#    z -0.255630 0.000000 4.625770 
# 
# 
# High freq. dielectric constant tensor:
#      x y z
#    x 2.052550 0.000000 -0.004960 
#    y 0.000000 2.042720 0.000000 
#    z -0.004960 0.000000 2.045640 
# 
# From -- ./inp_files/195956.got.cif
#   From: 2010.06.25/outbox.cif.g09.slc.cpg/sg15_98_cif.got.tgz:195956.got - 2010.06.28 07:06:18.
