data_PCOD8135123
_publ_section_title
;
Structure prediction by ZEFSAII (Michael W. Deem and Ramdas Pophale) SiO2 
 PCOD8135123
Probable space group: C 2/C
;
_chemical_formula_sum "Si O2"
_cell_formula_units_Z 56
_cell_length_a 13.962360
_cell_length_b 13.468932
_cell_length_c 26.645677
_cell_angle_alpha 90.000000
_cell_angle_beta 31.621682
_cell_angle_gamma 90.000000
_cell_volume 2627.274103
_symmetry_space_group_name_H-M "C 2/C"
_symmetry_group_IT_number 15
_symmetry_cell_setting 'monoclinic'
loop_
_space_group_symop_operation_xyz
x,y,z
-x,y,1/2-z
-x,-y,-z
x,-y,1/2+z
1/2+x,1/2+y,z
1/2-x,1/2+y,1/2-z
1/2-x,1/2-y,-z
1/2+x,1/2-y,1/2+z
loop_
_atom_site_type_symbol
_atom_site_label
_atom_site_fract_x
_atom_site_fract_y
_atom_site_fract_z
Si Si1 0.101336 0.944967 0.047431
Si Si2 0.702690 0.358605 0.904484
Si Si3 0.000000 0.509097 0.750000
Si Si4 0.500000 0.472194 0.250000
Si Si5 0.186776 0.941270 0.760193
Si Si6 0.966382 0.559563 0.874392
Si Si7 0.159041 0.254850 0.328668
Si Si8 0.924060 0.811438 0.355023
O O1 0.143502 0.844260 0.059804
O O2 0.066811 0.912280 0.004759
O O3 0.920676 0.994578 0.150180
O O4 0.264615 0.024177 0.979088
O O5 0.822802 0.439485 0.821784
O O6 0.597010 0.295532 0.909348
O O7 0.838925 0.292505 0.877428
O O8 0.018802 0.576591 0.692215
O O9 0.384113 0.541934 0.264641
O O10 0.367331 0.400257 0.342069
O O11 0.167004 0.825094 0.780569
O O12 0.397730 0.972576 0.668600
O O13 0.007656 0.663063 0.883442
O O14 0.355725 0.305876 0.246284
#
# Coordination Sequence:
#
# PCOD8135123 Si02
#       8
#     8   8   4   4   8   8   8   8
#     4  10  24  38  62  95 134 158 213 269 313 375
#     4  11  18  36  63  94 118 166 217 269 303 360
#     4  10  19  37  62  90 124 162 212 264 310 360
#     4  10  19  39  66  84 134 170 198 264 326 362
#     4  11  23  42  63  95 130 168 211 265 317 371
#     4  11  22  42  64  93 128 172 209 262 319 377
#     4  12  21  37  69  87 127 172 209 252 329 374
#     4  11  18  39  65  95 122 163 220 271 306 367
#
# _framework density 21.314868000000001
#
# number of rings (size 3 to 8) (size 9 to 14) (size 15 to 20)
#    0.000    1.143    7.143    1.286    0.000    1.714 
#    0.000    9.286    0.000    0.000    0.000    0.000 
#    0.000    0.000    0.000    0.000    0.000    0.000 
#
# Total GULP energy -347185.936662 kJ/mol
# GULP energy per Si atom -12399.497738 kJ/mol
# Density = 2.126635 g / cm^3
# Si number density = 21.314868 Si / 1000 Ang^3
#
#
#
# Elastic Constant Matrix: (Units=GPa)
#
#
# Indices 1 2 3 4 5 6 
#
# 1 106.4084 39.5156 23.5105 -0.0004 16.7631 -0.0003
# 2 39.5156 89.9620 11.3513 -0.0012 4.6559 -0.0001
# 3 23.5105 11.3513 47.4786 -0.0036 17.0049 0.0004
# 4 -0.0004 -0.0012 -0.0036 14.2949 -0.0008 4.4670
# 5 16.7631 4.6559 17.0049 -0.0008 28.9020 0.0002
# 6 -0.0003 -0.0001 0.0004 4.4670 0.0002 51.5207
#
#
#
# Elastic Compliance Matrix: (Units=1/GPa)
#
#
# Indices 1 2 3 4 5 6 
#
# 1 0.012704 -0.004905 -0.003500 -0.000001 -0.004519 0.000000
# 2 -0.004905 0.013357 -0.001283 0.000001 0.001448 0.000000
# 3 -0.003500 -0.001283 0.028255 0.000006 -0.014388 -0.000001
# 4 -0.000001 0.000001 0.000006 0.071903 -0.000001 -0.006234
# 5 -0.004519 0.001448 -0.014388 -0.000001 0.045453 0.000000
# 6 0.000000 0.000000 -0.000001 -0.006234 0.000000 0.019950
#
#
# Mechanical properties :
#
#
# Convention : Reuss Voigt Hill
#
# Bulk Modulus (GPa) = 28.61983 43.62267 36.12125
# Shear Modulus (GPa) = 22.45723 30.24163 26.34943
#
# Velocity S-wave (km/s) = 3.24943 3.77079 3.51978
# Velocity P-wave (km/s) = 5.24736 6.28241 5.78807
#
# Compressibility (1/GPa) = 0.03494081
#
# Stress axis : x y z
#
# Youngs Moduli (GPa) = 78.71276 74.86566 35.39195
#
# Poissons Ratio (x) = 0.36721 0.12386
# Poissons Ratio (y) = 0.38608 0.04542
# Poissons Ratio (z) = 0.27547 0.09608
#
# Static dielectric constant tensor:
#      x y z
#    x 4.013660 0.000000 0.268060 
#    y 0.000000 3.882800 0.000000 
#    z 0.268060 0.000000 3.604470 
# 
# 
# High freq. dielectric constant tensor:
#      x y z
#    x 1.843100 0.000000 0.018370 
#    y 0.000000 1.834650 0.000000 
#    z 0.018370 0.000000 1.811000 
# 
# From -- ./inp_files/313877.got.cif
#   From: 2010.06.25/outbox.cif.g09.slc.cpg/sg15_157_cif.got.tgz:313877.got - 2010.06.28 07:06:18.
