data_PCOD8135369
_publ_section_title
;
Structure prediction by ZEFSAII (Michael W. Deem and Ramdas Pophale) SiO2 
 PCOD8135369
Probable space group: C 2/C
;
_chemical_formula_sum "Si O2"
_cell_formula_units_Z 60
_cell_length_a 20.843580
_cell_length_b 14.666688
_cell_length_c 15.511465
_cell_angle_alpha 90.000000
_cell_angle_beta 141.086482
_cell_angle_gamma 90.000000
_cell_volume 2978.641492
_symmetry_space_group_name_H-M "C 2/C"
_symmetry_group_IT_number 15
_symmetry_cell_setting 'monoclinic'
loop_
_space_group_symop_operation_xyz
x,y,z
-x,y,1/2-z
-x,-y,-z
x,-y,1/2+z
1/2+x,1/2+y,z
1/2-x,1/2+y,1/2-z
1/2-x,1/2-y,-z
1/2+x,1/2-y,1/2+z
loop_
_atom_site_type_symbol
_atom_site_label
_atom_site_fract_x
_atom_site_fract_y
_atom_site_fract_z
Si Si1 0.844824 0.912672 0.243277
Si Si2 0.846843 0.481467 0.993046
Si Si3 0.333047 0.776464 0.658384
Si Si4 0.722247 0.849270 0.714358
Si Si5 0.920739 0.897788 0.827663
Si Si6 0.724239 0.645955 0.472909
Si Si7 0.000000 0.595195 0.250000
Si Si8 0.649046 0.660558 0.574716
O O1 0.885917 0.818437 0.244487
O O2 0.803869 0.894157 0.296656
O O3 0.932368 0.991089 0.338037
O O4 0.744764 0.946312 0.088528
O O5 0.824209 0.406420 0.043135
O O6 0.953043 0.531527 0.125093
O O7 0.842484 0.435832 0.892456
O O8 0.250000 0.750000 0.500000
O O9 0.288104 0.830931 0.694405
O O10 0.416521 0.841303 0.705363
O O11 0.841914 0.867096 0.820411
O O12 0.681587 0.765589 0.614540
O O13 0.875860 0.869153 0.689039
O O14 0.026430 0.847024 0.952795
O O15 0.750000 0.750000 0.500000
O O16 0.694463 0.613158 0.537468
#
# Coordination Sequence:
#
# PCOD8135369 Si02
#       8
#     8   8   8   8   8   8   4   8
#     4   9  21  42  58  88 126 159 211 278 303 379
#     4  10  22  43  62  95 136 158 218 267 322 388
#     4  11  23  44  68  88 129 172 220 263 327 380
#     4   9  22  41  63  94 130 164 207 279 322 378
#     4  10  21  38  62  93 129 159 217 265 312 394
#     4  10  19  38  60  91 129 168 198 256 319 380
#     4  12  26  42  68  98 126 180 216 274 322 402
#     4  11  19  37  65  92 122 172 208 250 332 382
#
# _framework density 20.143412000000001
#
# number of rings (size 3 to 8) (size 9 to 14) (size 15 to 20)
#    0.000    2.133    4.000    0.800    0.000    5.867 
#    4.800    0.000    0.000    0.000    0.000    0.000 
#    0.000    0.000    0.000    0.000    0.000    0.000 
#
# Total GULP energy -371762.072946 kJ/mol
# GULP energy per Si atom -12392.069098 kJ/mol
# Density = 2.009756 g / cm^3
# Si number density = 20.143412 Si / 1000 Ang^3
#
#
#
# Elastic Constant Matrix: (Units=GPa)
#
#
# Indices 1 2 3 4 5 6 
#
# 1 115.7632 46.3610 50.9174 0.0000 -19.3212 0.0000
# 2 46.3610 121.2761 42.8081 0.0000 -0.7127 0.0000
# 3 50.9174 42.8081 74.0081 0.0000 -5.9161 0.0000
# 4 0.0000 0.0000 0.0000 29.9195 0.0000 1.4316
# 5 -19.3212 -0.7127 -5.9161 0.0000 37.1711 0.0000
# 6 0.0000 0.0000 0.0000 1.4316 0.0000 32.4633
#
#
#
# Elastic Compliance Matrix: (Units=1/GPa)
#
#
# Indices 1 2 3 4 5 6 
#
# 1 0.014081 -0.002637 -0.007679 0.000000 0.006046 0.000000
# 2 -0.002637 0.010876 -0.004629 0.000000 -0.001899 0.000000
# 3 -0.007679 -0.004629 0.021419 0.000000 -0.000671 0.000000
# 4 0.000000 0.000000 0.000000 0.033494 0.000000 -0.001477
# 5 0.006046 -0.001899 -0.000671 0.000000 0.029902 0.000000
# 6 0.000000 0.000000 0.000000 -0.001477 0.000000 0.030869
#
#
# Mechanical properties :
#
#
# Convention : Reuss Voigt Hill
#
# Bulk Modulus (GPa) = 60.65435 65.69114 63.17274
# Shear Modulus (GPa) = 28.40474 31.30820 29.85647
#
# Velocity S-wave (km/s) = 3.75924 3.94669 3.85411
# Velocity P-wave (km/s) = 7.00137 7.31102 7.15787
#
# Compressibility (1/GPa) = 0.01648686
#
# Stress axis : x y z
#
# Youngs Moduli (GPa) = 71.01710 91.94264 46.68721
#
# Poissons Ratio (x) = 0.24243 0.35852
# Poissons Ratio (y) = 0.18725 0.21611
# Poissons Ratio (z) = 0.54536 0.42559
#
# Static dielectric constant tensor:
#      x y z
#    x 3.565730 0.000000 -0.065010 
#    y 0.000000 2.268690 0.000000 
#    z -0.065010 0.000000 3.347950 
# 
# 
# High freq. dielectric constant tensor:
#      x y z
#    x 1.768430 0.000000 -0.019950 
#    y 0.000000 1.802840 0.000000 
#    z -0.019950 0.000000 1.783670 
# 
# From -- ./inp_files/168652.got.cif
#   From: 2010.06.25/outbox.cif.g09.slc.cpg/sg15_85_cif.got.tgz:168652.got - 2010.06.28 07:06:18.
