data_PCOD8135694
_publ_section_title
;
Structure prediction by ZEFSAII (Michael W. Deem and Ramdas Pophale) SiO2 
 PCOD8135694
Probable space group: C 2/C
;
_chemical_formula_sum "Si O2"
_cell_formula_units_Z 56
_cell_length_a 14.041874
_cell_length_b 15.015415
_cell_length_c 17.159998
_cell_angle_alpha 90.000000
_cell_angle_beta 132.438262
_cell_angle_gamma 90.000000
_cell_volume 2670.169784
_symmetry_space_group_name_H-M "C 2/C"
_symmetry_group_IT_number 15
_symmetry_cell_setting 'monoclinic'
loop_
_space_group_symop_operation_xyz
x,y,z
-x,y,1/2-z
-x,-y,-z
x,-y,1/2+z
1/2+x,1/2+y,z
1/2-x,1/2+y,1/2-z
1/2-x,1/2-y,-z
1/2+x,1/2-y,1/2+z
loop_
_atom_site_type_symbol
_atom_site_label
_atom_site_fract_x
_atom_site_fract_y
_atom_site_fract_z
Si Si1 0.829506 0.920379 0.765049
Si Si2 0.999953 0.184808 0.021714
Si Si3 0.000000 0.478365 0.250000
Si Si4 0.500000 0.526805 0.750000
Si Si5 0.782019 0.050133 0.875841
Si Si6 0.143803 0.898177 0.468859
Si Si7 0.403757 0.124688 0.458423
Si Si8 0.100354 0.546893 0.454077
O O1 0.707938 0.862234 0.668117
O O2 0.886893 0.963376 0.718444
O O3 0.779319 0.999853 0.792026
O O4 0.932850 0.857603 0.865378
O O5 0.100216 0.181935 0.003111
O O6 0.870734 0.136202 0.920753
O O7 0.950127 0.281730 0.019709
O O8 0.865531 0.422731 0.181904
O O9 0.994957 0.542357 0.172224
O O10 0.458600 0.590596 0.656508
O O11 0.850700 0.988211 0.977695
O O12 0.283197 0.886790 0.505892
O O13 0.358436 0.055279 0.500569
O O14 0.534098 0.088851 0.491733
#
# Coordination Sequence:
#
# PCOD8135694 Si02
#       8
#     8   8   4   4   8   8   8   8
#     4  11  21  41  63  89 127 168 207 258 319 382
#     4  11  23  41  62  93 129 164 208 266 319 365
#     4  10  20  36  68  90 114 166 210 240 302 390
#     4  12  18  36  68  94 112 166 212 258 306 382
#     4  10  19  39  64  87 122 167 207 246 315 385
#     4  10  20  37  65  89 118 161 216 257 306 380
#     4  11  24  41  62  92 132 163 209 265 317 374
#     4  10  22  41  64  90 123 172 210 252 318 388
#
# _framework density 20.972448
#
# number of rings (size 3 to 8) (size 9 to 14) (size 15 to 20)
#    0.000    1.429    5.714    0.857    0.000    1.714 
#    2.571    8.571    0.000    0.000    0.000    0.000 
#    0.000    0.000    0.000    0.000    0.000    0.000 
#
# Total GULP energy -347014.373924 kJ/mol
# GULP energy per Si atom -12393.370497 kJ/mol
# Density = 2.092471 g / cm^3
# Si number density = 20.972448 Si / 1000 Ang^3
#
#
#
# Elastic Constant Matrix: (Units=GPa)
#
#
# Indices 1 2 3 4 5 6 
#
# 1 78.4070 -2.9774 7.4544 0.0000 5.0584 0.0000
# 2 -2.9774 52.6541 14.6743 0.0000 6.7927 0.0000
# 3 7.4544 14.6743 93.1588 0.0000 2.8199 0.0000
# 4 0.0000 0.0000 0.0000 18.1702 0.0000 0.9868
# 5 5.0584 6.7927 2.8199 0.0000 36.4978 0.0000
# 6 0.0000 0.0000 0.0000 0.9868 0.0000 14.9833
#
#
#
# Elastic Compliance Matrix: (Units=1/GPa)
#
#
# Indices 1 2 3 4 5 6 
#
# 1 0.013044 0.001323 -0.001193 0.000000 -0.001962 0.000000
# 2 0.001323 0.020445 -0.003213 0.000000 -0.003740 0.000000
# 3 -0.001193 -0.003213 0.011339 0.000000 -0.000113 0.000000
# 4 0.000000 0.000000 0.000000 0.055233 0.000000 -0.003637
# 5 -0.001962 -0.003740 -0.000113 0.000000 0.028376 0.000000
# 6 0.000000 0.000000 0.000000 -0.003637 0.000000 0.066980
#
#
# Mechanical properties :
#
#
# Convention : Reuss Voigt Hill
#
# Bulk Modulus (GPa) = 25.86473 29.16917 27.51695
# Shear Modulus (GPa) = 23.31327 27.60149 25.45738
#
# Velocity S-wave (km/s) = 3.33770 3.63172 3.48781
# Velocity P-wave (km/s) = 5.21663 5.61466 5.41930
#
# Compressibility (1/GPa) = 0.03866269
#
# Stress axis : x y z
#
# Youngs Moduli (GPa) = 76.66245 48.91247 88.18853
#
# Poissons Ratio (x) = -0.06472 0.10519
# Poissons Ratio (y) = -0.10144 0.28336
# Poissons Ratio (z) = 0.09144 0.15716
#
# Static dielectric constant tensor:
#      x y z
#    x 4.130160 0.000000 0.022980 
#    y 0.000000 3.343960 0.000000 
#    z 0.022980 0.000000 3.801580 
# 
# 
# High freq. dielectric constant tensor:
#      x y z
#    x 1.838230 0.000000 0.001480 
#    y 0.000000 1.766330 0.000000 
#    z 0.001480 0.000000 1.834350 
# 
# From -- ./inp_files/205516.got.cif
#   From: 2010.06.25/outbox.cif.g09.slc.cpg/sg15_103_cif.got.tgz:205516.got - 2010.06.28 07:06:18.
