data_PCOD8135908
_publ_section_title
;
Structure prediction by ZEFSAII (Michael W. Deem and Ramdas Pophale) SiO2 
 PCOD8135908
Probable space group: C 2/C
;
_chemical_formula_sum "Si O2"
_cell_formula_units_Z 52
_cell_length_a 8.277037
_cell_length_b 20.765965
_cell_length_c 14.123730
_cell_angle_alpha 90.000000
_cell_angle_beta 88.153617
_cell_angle_gamma 90.000000
_cell_volume 2426.335647
_symmetry_space_group_name_H-M "C 2/C"
_symmetry_group_IT_number 15
_symmetry_cell_setting 'monoclinic'
loop_
_space_group_symop_operation_xyz
x,y,z
-x,y,1/2-z
-x,-y,-z
x,-y,1/2+z
1/2+x,1/2+y,z
1/2-x,1/2+y,1/2-z
1/2-x,1/2-y,-z
1/2+x,1/2-y,1/2+z
loop_
_atom_site_type_symbol
_atom_site_label
_atom_site_fract_x
_atom_site_fract_y
_atom_site_fract_z
Si Si1 0.163094 0.245118 0.300132
Si Si2 0.336736 0.586909 0.492693
Si Si3 0.476769 0.712096 0.006132
Si Si4 0.254587 0.862924 0.110042
Si Si5 0.039639 0.021916 0.643608
Si Si6 0.000000 0.683937 0.250000
Si Si7 0.514862 0.855130 0.956122
O O1 0.155761 0.217006 0.407102
O O2 0.152941 0.323694 0.308737
O O3 0.331497 0.224626 0.246912
O O4 0.000000 0.221903 0.250000
O O5 0.389431 0.659897 0.469097
O O6 0.392248 0.558996 0.593592
O O7 0.414044 0.542711 0.410816
O O8 0.144280 0.592042 0.489544
O O9 0.390736 0.686342 0.913233
O O10 0.558349 0.781295 0.984077
O O11 0.192405 0.930715 0.148575
O O12 0.353718 0.877367 0.012739
O O13 0.000000 0.000535 0.750000
O O14 0.006802 0.639095 0.156787
#
# Coordination Sequence:
#
# PCOD8135908 Si02
#       7
#     8   8   8   8   8   4   8
#     4  11  22  35  59  97 130 167 218 271 330 405
#     4  10  23  41  66  95 125 173 226 275 323 405
#     4  10  19  41  60  87 134 167 196 270 343 384
#     4  10  21  41  61  83 136 168 210 272 329 384
#     4  10  24  44  66  89 128 182 224 273 332 387
#     4  12  22  36  62 104 136 174 218 268 348 404
#     4  11  21  38  64  96 132 168 214 271 344 394
#
# _framework density 21.431495000000002
#
# number of rings (size 3 to 8) (size 9 to 14) (size 15 to 20)
#    0.000    1.538    3.077    2.308    1.077    6.154 
#    2.769    0.000    1.692    0.000    0.000    0.000 
#    0.000    0.000    0.000    0.000    0.000    0.000 
#
# Total GULP energy -322253.916119 kJ/mol
# GULP energy per Si atom -12394.381389 kJ/mol
# Density = 2.138272 g / cm^3
# Si number density = 21.431495 Si / 1000 Ang^3
#
#
#
# Elastic Constant Matrix: (Units=GPa)
#
#
# Indices 1 2 3 4 5 6 
#
# 1 102.9558 18.3367 26.0987 0.0000 -0.6773 0.0000
# 2 18.3367 54.3959 15.0215 0.0000 11.4026 0.0000
# 3 26.0987 15.0215 90.8786 0.0000 -5.6230 0.0000
# 4 0.0000 0.0000 0.0000 14.5167 0.0000 -2.0234
# 5 -0.6773 11.4026 -5.6230 0.0000 19.7890 0.0000
# 6 0.0000 0.0000 0.0000 -2.0234 0.0000 27.9527
#
#
#
# Elastic Compliance Matrix: (Units=1/GPa)
#
#
# Indices 1 2 3 4 5 6 
#
# 1 0.010950 -0.003335 -0.002495 0.000000 0.001587 0.000000
# 2 -0.003335 0.023696 -0.003879 0.000000 -0.014870 0.000000
# 3 -0.002495 -0.003879 0.012718 0.000000 0.005764 0.000000
# 4 0.000000 0.000000 0.000000 0.069588 0.000000 0.005037
# 5 0.001587 -0.014870 0.005764 0.000000 0.060794 0.000000
# 6 0.000000 0.000000 0.000000 0.005037 0.000000 0.036139
#
#
# Mechanical properties :
#
#
# Convention : Reuss Voigt Hill
#
# Bulk Modulus (GPa) = 35.78355 40.79378 38.28867
# Shear Modulus (GPa) = 20.60842 25.03657 22.82249
#
# Velocity S-wave (km/s) = 3.10432 3.42162 3.26683
# Velocity P-wave (km/s) = 5.43894 5.88947 5.66868
#
# Compressibility (1/GPa) = 0.02794580
#
# Stress axis : x y z
#
# Youngs Moduli (GPa) = 91.32587 42.20067 78.62835
#
# Poissons Ratio (x) = 0.14073 0.19619
# Poissons Ratio (y) = 0.30456 0.30501
# Poissons Ratio (z) = 0.22787 0.16370
#
# Static dielectric constant tensor:
#      x y z
#    x 3.873060 0.000000 0.070300 
#    y 0.000000 3.705480 0.000000 
#    z 0.070300 0.000000 3.840280 
# 
# 
# High freq. dielectric constant tensor:
#      x y z
#    x 1.838420 0.000000 -0.001880 
#    y 0.000000 1.822450 0.000000 
#    z -0.001880 0.000000 1.838610 
# 
# From -- ./inp_files/135977.got.cif
#   From: 2010.06.25/outbox.cif.g09.slc.cpg/sg15_68_cif.got.tgz:135977.got - 2010.06.28 07:06:18.
