data_PCOD8135075
_publ_section_title
;
Structure prediction by ZEFSAII (Michael W. Deem and Ramdas Pophale) SiO2 
 PCOD8135075
Probable space group: C 2/C
;
_chemical_formula_sum "Si O2"
_cell_formula_units_Z 60
_cell_length_a 10.957949
_cell_length_b 18.724603
_cell_length_c 16.345115
_cell_angle_alpha 90.000000
_cell_angle_beta 73.122917
_cell_angle_gamma 90.000000
_cell_volume 3209.297257
_symmetry_space_group_name_H-M "C 2/C"
_symmetry_group_IT_number 15
_symmetry_cell_setting 'monoclinic'
loop_
_space_group_symop_operation_xyz
x,y,z
-x,y,1/2-z
-x,-y,-z
x,-y,1/2+z
1/2+x,1/2+y,z
1/2-x,1/2+y,1/2-z
1/2-x,1/2-y,-z
1/2+x,1/2-y,1/2+z
loop_
_atom_site_type_symbol
_atom_site_label
_atom_site_fract_x
_atom_site_fract_y
_atom_site_fract_z
Si Si1 0.231430 0.285998 0.296096
Si Si2 0.356823 0.855668 0.762973
Si Si3 0.197799 0.176210 0.547601
Si Si4 0.335630 0.066242 0.422833
Si Si5 0.500000 0.843697 0.250000
Si Si6 0.906002 0.190106 0.612704
Si Si7 0.687011 0.099124 0.577676
Si Si8 0.088330 0.354442 0.924664
O O1 0.255783 0.203186 0.313603
O O2 0.233147 0.333220 0.377880
O O3 0.093704 0.292373 0.281635
O O4 0.343556 0.310013 0.213987
O O5 0.500000 0.824360 0.750000
O O6 0.341522 0.924657 0.823343
O O7 0.331680 0.876118 0.672838
O O8 0.250000 0.250000 0.500000
O O9 0.220896 0.110492 0.483203
O O10 0.049365 0.165266 0.592914
O O11 0.458815 0.099673 0.444579
O O12 0.305699 0.984274 0.443210
O O13 0.419901 0.890520 0.330800
O O14 0.821523 0.135807 0.574402
O O15 0.921924 0.269071 0.572484
O O16 0.655012 0.131551 0.496599
#
# Coordination Sequence:
#
# PCOD8135075 Si02
#       8
#     8   8   8   8   4   8   8   8
#     4  10  19  38  59  91 114 149 199 245 301 348
#     4   9  18  34  58  84 116 151 196 250 294 346
#     4  12  20  36  64  87 112 152 207 250 282 363
#     4  11  22  35  58  90 117 156 202 251 303 352
#     4  10  24  36  60  84 128 152 188 252 302 358
#     4  10  22  39  61  85 120 158 196 254 304 350
#     4  11  24  39  54  90 124 161 193 249 317 359
#     4  10  19  37  61  83 117 161 204 238 295 375
#
# _framework density 18.695682000000001
#
# number of rings (size 3 to 8) (size 9 to 14) (size 15 to 20)
#    0.000    1.600    2.667    3.600    2.800    0.533 
#    2.400    0.000    0.000    0.000    0.000    0.000 
#    0.000    0.000    0.000    0.000    0.000    0.000 
#
# Total GULP energy -371710.299545 kJ/mol
# GULP energy per Si atom -12390.343318 kJ/mol
# Density = 1.865313 g / cm^3
# Si number density = 18.695682 Si / 1000 Ang^3
#
#
#
# Elastic Constant Matrix: (Units=GPa)
#
#
# Indices 1 2 3 4 5 6 
#
# 1 106.2731 30.3063 41.5526 0.0000 3.4269 0.0000
# 2 30.3063 97.9316 22.6673 0.0000 5.5700 0.0000
# 3 41.5526 22.6673 100.3056 0.0000 21.9585 0.0000
# 4 0.0000 0.0000 0.0000 17.3409 0.0000 -0.6731
# 5 3.4269 5.5700 21.9585 0.0000 26.2092 0.0000
# 6 0.0000 0.0000 0.0000 -0.6731 0.0000 26.6131
#
#
#
# Elastic Compliance Matrix: (Units=1/GPa)
#
#
# Indices 1 2 3 4 5 6 
#
# 1 0.012082 -0.002744 -0.005103 0.000000 0.003278 0.000000
# 2 -0.002744 0.011400 -0.001209 0.000000 -0.001051 0.000000
# 3 -0.005103 -0.001209 0.014884 0.000000 -0.011546 0.000000
# 4 0.000000 0.000000 0.000000 0.057724 0.000000 0.001460
# 5 0.003278 -0.001051 -0.011546 0.000000 0.047623 0.000000
# 6 0.000000 0.000000 0.000000 0.001460 0.000000 0.037612
#
#
# Mechanical properties :
#
#
# Convention : Reuss Voigt Hill
#
# Bulk Modulus (GPa) = 49.37365 54.84030 52.10698
# Shear Modulus (GPa) = 24.24969 28.03159 26.14064
#
# Velocity S-wave (km/s) = 3.60540 3.87636 3.74333
# Velocity P-wave (km/s) = 6.61803 7.03077 6.82752
#
# Compressibility (1/GPa) = 0.02025372
#
# Stress axis : x y z
#
# Youngs Moduli (GPa) = 82.77004 87.71818 67.18534
#
# Poissons Ratio (x) = 0.24072 0.34281
# Poissons Ratio (y) = 0.22714 0.08125
# Poissons Ratio (z) = 0.42233 0.10608
#
# Static dielectric constant tensor:
#      x y z
#    x 3.444930 0.000000 0.011760 
#    y 0.000000 3.253100 0.000000 
#    z 0.011760 0.000000 3.741240 
# 
# 
# High freq. dielectric constant tensor:
#      x y z
#    x 1.713370 0.000000 0.002950 
#    y 0.000000 1.703520 0.000000 
#    z 0.002950 0.000000 1.750540 
# 
# From -- ./inp_files/145616.got.cif
#   From: 2010.06.25/outbox.cif.g09.slc.cpg/sg15_73_cif.got.tgz:145616.got - 2010.06.28 07:06:18.
