data_PCOD8135107
_publ_section_title
;
Structure prediction by ZEFSAII (Michael W. Deem and Ramdas Pophale) SiO2 
 PCOD8135107
Probable space group: C 2/C
;
_chemical_formula_sum "Si O2"
_cell_formula_units_Z 48
_cell_length_a 11.121724
_cell_length_b 13.951018
_cell_length_c 27.550957
_cell_angle_alpha 90.000000
_cell_angle_beta 144.832842
_cell_angle_gamma 90.000000
_cell_volume 2462.123961
_symmetry_space_group_name_H-M "C 2/C"
_symmetry_group_IT_number 15
_symmetry_cell_setting 'monoclinic'
loop_
_space_group_symop_operation_xyz
x,y,z
-x,y,1/2-z
-x,-y,-z
x,-y,1/2+z
1/2+x,1/2+y,z
1/2-x,1/2+y,1/2-z
1/2-x,1/2-y,-z
1/2+x,1/2-y,1/2+z
loop_
_atom_site_type_symbol
_atom_site_label
_atom_site_fract_x
_atom_site_fract_y
_atom_site_fract_z
Si Si1 0.740111 0.833536 0.845506
Si Si2 0.954462 0.360752 0.435562
Si Si3 0.685186 0.534964 0.345549
Si Si4 0.479890 0.806256 0.937078
Si Si5 0.323111 0.380227 0.981929
Si Si6 0.113684 0.060087 0.430881
O O1 0.500000 0.840351 0.750000
O O2 0.819373 0.724077 0.867550
O O3 0.777230 0.884309 0.909598
O O4 0.887652 0.890709 0.857225
O O5 0.873177 0.464741 0.392271
O O6 0.921150 0.353361 0.482258
O O7 0.199890 0.360938 0.501293
O O8 0.500000 0.505504 0.250000
O O9 0.750516 0.645882 0.356381
O O10 0.627662 0.513491 0.382350
O O11 0.616978 0.832708 0.936022
O O12 0.477364 0.690568 0.942152
O O13 0.371804 0.482992 0.020816
#
# Coordination Sequence:
#
# PCOD8135107 Si02
#       6
#     8   8   8   8   8   8
#     4  11  25  37  55  88 122 148 183 238 295 335
#     4  10  19  40  60  83 110 150 199 232 277 343
#     4  11  21  35  59  89 117 141 193 253 284 313
#     4   9  18  35  60  83 105 151 194 228 276 345
#     4  10  19  37  62  78 114 155 192 221 279 353
#     4  11  21  39  61  85 109 158 196 230 276 351
#
# _framework density 19.495363000000001
#
# number of rings (size 3 to 8) (size 9 to 14) (size 15 to 20)
#    0.000    1.667    3.333    2.500    2.333    0.000 
#    0.000    0.833    0.000    0.000    0.000    0.000 
#    0.000    0.000    0.000    0.000    0.000    0.000 
#
# Total GULP energy -297431.902362 kJ/mol
# GULP energy per Si atom -12392.995932 kJ/mol
# Density = 1.945099 g / cm^3
# Si number density = 19.495363 Si / 1000 Ang^3
#
#
#
# Elastic Constant Matrix: (Units=GPa)
#
#
# Indices 1 2 3 4 5 6 
#
# 1 70.9229 44.3848 34.1651 0.0000 13.8959 0.0000
# 2 44.3848 85.3111 46.8373 0.0000 4.4917 0.0000
# 3 34.1651 46.8373 101.7036 0.0001 18.7679 0.0000
# 4 0.0000 0.0000 0.0001 20.5841 0.0000 7.1976
# 5 13.8959 4.4917 18.7679 0.0000 27.7406 0.0000
# 6 0.0000 0.0000 0.0000 7.1976 0.0000 29.1450
#
#
#
# Elastic Compliance Matrix: (Units=1/GPa)
#
#
# Indices 1 2 3 4 5 6 
#
# 1 0.023341 -0.011091 -0.001037 0.000000 -0.009195 0.000000
# 2 -0.011091 0.021135 -0.007314 0.000000 0.007082 0.000000
# 3 -0.001037 -0.007314 0.015123 0.000000 -0.008528 0.000000
# 4 0.000000 0.000000 0.000000 0.053173 0.000000 -0.013131
# 5 -0.009195 0.007082 -0.008528 0.000000 0.045277 0.000000
# 6 0.000000 0.000000 0.000000 -0.013131 0.000000 0.037554
#
#
# Mechanical properties :
#
#
# Convention : Reuss Voigt Hill
#
# Bulk Modulus (GPa) = 48.27237 56.52357 52.39797
# Shear Modulus (GPa) = 20.71323 24.33064 22.52194
#
# Velocity S-wave (km/s) = 3.26309 3.53657 3.40258
# Velocity P-wave (km/s) = 6.24594 6.76260 6.50939
#
# Compressibility (1/GPa) = 0.02071578
#
# Stress axis : x y z
#
# Youngs Moduli (GPa) = 42.84221 47.31550 66.12495
#
# Poissons Ratio (x) = 0.52475 0.06855
# Poissons Ratio (y) = 0.47514 0.48366
# Poissons Ratio (z) = 0.04442 0.34608
#
# Static dielectric constant tensor:
#      x y z
#    x 3.565790 0.000000 0.059110 
#    y 0.000000 3.691840 0.000000 
#    z 0.059110 0.000000 3.303700 
# 
# 
# High freq. dielectric constant tensor:
#      x y z
#    x 1.764840 0.000000 0.003120 
#    y 0.000000 1.759490 0.000000 
#    z 0.003120 0.000000 1.732250 
# 
# From -- ./inp_files/143533.got.cif
#   From: 2010.06.25/outbox.cif.g09.slc.cpg/sg15_72_cif.got.tgz:143533.got - 2010.06.28 07:06:18.
