data_PCOD8135581
_publ_section_title
;
Structure prediction by ZEFSAII (Michael W. Deem and Ramdas Pophale) SiO2 
 PCOD8135581
Probable space group: C 2/C
;
_chemical_formula_sum "Si O2"
_cell_formula_units_Z 56
_cell_length_a 11.269808
_cell_length_b 25.577718
_cell_length_c 13.978165
_cell_angle_alpha 90.000000
_cell_angle_beta 138.533647
_cell_angle_gamma 90.000000
_cell_volume 2668.115376
_symmetry_space_group_name_H-M "C 2/C"
_symmetry_group_IT_number 15
_symmetry_cell_setting 'monoclinic'
loop_
_space_group_symop_operation_xyz
x,y,z
-x,y,1/2-z
-x,-y,-z
x,-y,1/2+z
1/2+x,1/2+y,z
1/2-x,1/2+y,1/2-z
1/2-x,1/2-y,-z
1/2+x,1/2-y,1/2+z
loop_
_atom_site_type_symbol
_atom_site_label
_atom_site_fract_x
_atom_site_fract_y
_atom_site_fract_z
Si Si1 0.342846 0.653998 0.577471
Si Si2 0.977707 0.666674 0.464620
Si Si3 0.917258 0.137525 0.305614
Si Si4 0.935457 0.961889 0.104250
Si Si5 0.626207 0.850675 0.249434
Si Si6 0.029094 0.788484 0.029145
Si Si7 0.149363 0.057157 0.552786
O O1 0.500000 0.663294 0.750000
O O2 0.142422 0.663484 0.491724
O O3 0.342561 0.594319 0.542039
O O4 0.371582 0.694132 0.506966
O O5 0.023350 0.636615 0.589946
O O6 0.941175 0.727353 0.461765
O O7 0.798570 0.638525 0.319704
O O8 0.990415 0.190194 0.399771
O O9 0.000000 0.135669 0.250000
O O10 0.979583 0.087165 0.403302
O O11 0.000000 0.975064 0.250000
O O12 0.801939 0.007850 0.986313
O O13 0.102777 0.962122 0.131933
O O14 0.500000 0.821182 0.250000
O O15 0.683188 0.904228 0.337020
O O16 0.791134 0.814128 0.319914
#
# Coordination Sequence:
#
# PCOD8135581 Si02
#       7
#     8   8   8   8   8   8   8
#     4  11  21  42  66  91 130 168 219 269 320 396
#     4  12  24  38  67  94 131 172 216 268 327 384
#     4  11  24  41  61  94 136 167 221 272 318 391
#     4  10  19  38  71  93 122 174 216 264 336 384
#     4  11  22  40  63  90 129 172 223 263 322 391
#     4  11  23  42  60  93 129 176 215 265 330 382
#     4  10  21  42  65  93 129 170 212 272 331 383
#
# _framework density 20.988598
#
# number of rings (size 3 to 8) (size 9 to 14) (size 15 to 20)
#    0.000    1.143    4.286    4.286    0.000    4.000 
#    0.000    2.857    0.000    7.714    0.000    0.000 
#    0.000    0.000    0.000    0.000    0.000    0.000 
#
# Total GULP energy -347169.615758 kJ/mol
# GULP energy per Si atom -12398.914849 kJ/mol
# Density = 2.094083 g / cm^3
# Si number density = 20.988598 Si / 1000 Ang^3
#
#
#
# Elastic Constant Matrix: (Units=GPa)
#
#
# Indices 1 2 3 4 5 6 
#
# 1 113.4877 6.4543 26.3589 0.0000 -11.2614 0.0000
# 2 6.4543 83.1197 32.0023 0.0000 -8.0568 0.0000
# 3 26.3589 32.0023 99.0796 0.0000 -6.2337 0.0000
# 4 0.0000 0.0000 0.0000 12.8057 0.0000 -12.3434
# 5 -11.2614 -8.0568 -6.2337 0.0000 40.2023 0.0000
# 6 0.0000 0.0000 0.0000 -12.3434 0.0000 21.1755
#
#
#
# Elastic Compliance Matrix: (Units=1/GPa)
#
#
# Indices 1 2 3 4 5 6 
#
# 1 0.009617 0.000471 -0.002560 0.000000 0.002391 0.000000
# 2 0.000471 0.013938 -0.004487 0.000000 0.002229 0.000000
# 3 -0.002560 -0.004487 0.012241 0.000000 0.000282 0.000000
# 4 0.000000 0.000000 0.000000 0.178235 0.000000 0.103895
# 5 0.002391 0.002229 0.000282 0.000000 0.026034 0.000000
# 6 0.000000 0.000000 0.000000 0.103895 0.000000 0.107786
#
#
# Mechanical properties :
#
#
# Convention : Reuss Voigt Hill
#
# Bulk Modulus (GPa) = 44.16349 47.25756 45.71052
# Shear Modulus (GPa) = 13.56667 30.22813 21.89740
#
# Velocity S-wave (km/s) = 2.54516 3.79914 3.23352
# Velocity P-wave (km/s) = 5.45202 6.46601 5.98054
#
# Compressibility (1/GPa) = 0.02264314
#
# Stress axis : x y z
#
# Youngs Moduli (GPa) = 103.98665 71.74688 81.69337
#
# Poissons Ratio (x) = -0.03377 0.20913
# Poissons Ratio (y) = -0.04894 0.36654
# Poissons Ratio (z) = 0.26620 0.32192
#
# Static dielectric constant tensor:
#      x y z
#    x 3.835160 0.000000 -0.151880 
#    y 0.000000 3.885280 0.000000 
#    z -0.151880 0.000000 3.823340 
# 
# 
# High freq. dielectric constant tensor:
#      x y z
#    x 1.827490 0.000000 -0.016850 
#    y 0.000000 1.819860 0.000000 
#    z -0.016850 0.000000 1.817020 
# 
# From -- ./inp_files/148586.got.cif
#   From: 2010.06.25/outbox.cif.g09.slc.cpg/sg15_75_cif.got.tgz:148586.got - 2010.06.28 07:06:18.
