data_PCOD8135648
_publ_section_title
;
Structure prediction by ZEFSAII (Michael W. Deem and Ramdas Pophale) SiO2 
 PCOD8135648
Probable space group: C 2/C
;
_chemical_formula_sum "Si O2"
_cell_formula_units_Z 56
_cell_length_a 17.759894
_cell_length_b 16.275610
_cell_length_c 19.746705
_cell_angle_alpha 90.000000
_cell_angle_beta 28.921012
_cell_angle_gamma 90.000000
_cell_volume 2760.334004
_symmetry_space_group_name_H-M "C 2/C"
_symmetry_group_IT_number 15
_symmetry_cell_setting 'monoclinic'
loop_
_space_group_symop_operation_xyz
x,y,z
-x,y,1/2-z
-x,-y,-z
x,-y,1/2+z
1/2+x,1/2+y,z
1/2-x,1/2+y,1/2-z
1/2-x,1/2-y,-z
1/2+x,1/2-y,1/2+z
loop_
_atom_site_type_symbol
_atom_site_label
_atom_site_fract_x
_atom_site_fract_y
_atom_site_fract_z
Si Si1 0.582723 0.260360 0.498731
Si Si2 0.999426 0.907307 0.474494
Si Si3 0.936132 0.611217 0.076921
Si Si4 0.250711 0.162922 0.418837
Si Si5 0.824134 0.453849 0.212160
Si Si6 0.931070 0.675592 0.402310
Si Si7 0.402890 0.836204 0.258210
O O1 0.483304 0.335925 0.544200
O O2 0.626784 0.197489 0.402553
O O3 0.487357 0.218205 0.634155
O O4 0.743355 0.291405 0.404429
O O5 0.174476 0.901210 0.304395
O O6 0.862392 0.903150 0.527098
O O7 0.000000 0.000000 0.500000
O O8 0.801084 0.552994 0.217950
O O9 0.068667 0.623274 0.029628
O O10 0.018256 0.565976 0.950773
O O11 0.141505 0.237061 0.525708
O O12 0.330957 0.127215 0.424087
O O13 0.389337 0.191487 0.260377
O O14 0.860919 0.426802 0.261030
O O15 0.500000 0.847255 0.250000
#
# Coordination Sequence:
#
# PCOD8135648 Si02
#       7
#     8   8   8   8   8   8   8
#     4  10  22  35  65  87 112 163 199 245 299 359
#     4  11  22  37  58  89 125 152 205 255 302 360
#     4  10  19  39  62  83 121 152 208 238 302 369
#     4  10  22  36  56  90 120 155 202 241 303 354
#     4   9  22  37  59  90 111 159 195 254 298 357
#     4  10  21  36  59  86 117 162 192 249 292 362
#     4  10  21  40  59  89 119 153 199 247 301 358
#
# _framework density 20.287400000000002
#
# number of rings (size 3 to 8) (size 9 to 14) (size 15 to 20)
#    0.000    2.000    1.429    1.286    6.000    0.000 
#    7.714    0.000    0.000    0.000    0.000    0.000 
#    0.000    0.000    0.000    0.000    0.000    0.000 
#
# Total GULP energy -346872.441920 kJ/mol
# GULP energy per Si atom -12388.301497 kJ/mol
# Density = 2.024122 g / cm^3
# Si number density = 20.287400 Si / 1000 Ang^3
#
#
#
# Elastic Constant Matrix: (Units=GPa)
#
#
# Indices 1 2 3 4 5 6 
#
# 1 149.4280 47.7261 34.5748 0.0000 -14.5887 0.0011
# 2 47.7261 100.3006 22.2372 0.0042 -0.1497 0.0003
# 3 34.5748 22.2372 52.8662 0.0152 -9.3756 -0.0023
# 4 0.0000 0.0042 0.0152 30.8284 -0.0028 -2.3584
# 5 -14.5887 -0.1497 -9.3756 -0.0028 31.0124 -0.0003
# 6 0.0011 0.0003 -0.0023 -2.3584 -0.0003 26.7396
#
#
#
# Elastic Compliance Matrix: (Units=1/GPa)
#
#
# Indices 1 2 3 4 5 6 
#
# 1 0.008977 -0.003402 -0.003904 0.000003 0.003027 0.000000
# 2 -0.003402 0.012344 -0.003424 0.000000 -0.002576 0.000000
# 3 -0.003904 -0.003424 0.023860 -0.000011 0.005360 0.000001
# 4 0.000003 0.000000 -0.000011 0.032658 0.000001 0.002880
# 5 0.003027 -0.002576 0.005360 0.000001 0.035277 0.000001
# 6 0.000000 0.000000 0.000001 0.002880 0.000001 0.037652
#
#
# Mechanical properties :
#
#
# Convention : Reuss Voigt Hill
#
# Bulk Modulus (GPa) = 42.15559 56.85234 49.50397
# Shear Modulus (GPa) = 27.75704 30.91986 29.33845
#
# Velocity S-wave (km/s) = 3.70292 3.90820 3.80694
# Velocity P-wave (km/s) = 6.25352 6.96058 6.61650
#
# Compressibility (1/GPa) = 0.02372165
#
# Stress axis : x y z
#
# Youngs Moduli (GPa) = 111.39104 81.01074 41.91168
#
# Poissons Ratio (x) = 0.27558 0.16361
# Poissons Ratio (y) = 0.37892 0.14352
# Poissons Ratio (z) = 0.43483 0.27741
#
# Static dielectric constant tensor:
#      x y z
#    x 4.030540 0.000000 -0.322750 
#    y 0.000000 3.901090 0.000010 
#    z -0.322750 0.000010 4.140900 
# 
# 
# High freq. dielectric constant tensor:
#      x y z
#    x 1.788200 0.000000 -0.007800 
#    y 0.000000 1.787080 0.000000 
#    z -0.007800 0.000000 1.800450 
# 
# From -- ./inp_files/206239.got.cif
#   From: 2010.06.25/outbox.cif.g09.slc.cpg/sg15_104_cif.got.tgz:206239.got - 2010.06.28 07:06:18.
