data_PCOD8135750
_publ_section_title
;
Structure prediction by ZEFSAII (Michael W. Deem and Ramdas Pophale) SiO2 
 PCOD8135750
Probable space group: C 2/C
;
_chemical_formula_sum "Si O2"
_cell_formula_units_Z 60
_cell_length_a 14.421413
_cell_length_b 17.735337
_cell_length_c 11.309045
_cell_angle_alpha 90.000000
_cell_angle_beta 93.033545
_cell_angle_gamma 90.000000
_cell_volume 2888.445635
_symmetry_space_group_name_H-M "C 2/C"
_symmetry_group_IT_number 15
_symmetry_cell_setting 'monoclinic'
loop_
_space_group_symop_operation_xyz
x,y,z
-x,y,1/2-z
-x,-y,-z
x,-y,1/2+z
1/2+x,1/2+y,z
1/2-x,1/2+y,1/2-z
1/2-x,1/2-y,-z
1/2+x,1/2-y,1/2+z
loop_
_atom_site_type_symbol
_atom_site_label
_atom_site_fract_x
_atom_site_fract_y
_atom_site_fract_z
Si Si1 0.595449 0.366930 0.205413
Si Si2 0.630922 0.322248 0.952004
Si Si3 0.145406 0.283822 0.109391
Si Si4 0.000000 0.204165 0.250000
Si Si5 0.837985 0.277808 0.662175
Si Si6 0.161690 0.350385 0.490099
Si Si7 0.705907 0.922617 0.245114
Si Si8 0.399847 0.925917 0.789640
O O1 0.500000 0.402054 0.250000
O O2 0.606869 0.281990 0.254573
O O3 0.681856 0.419053 0.250736
O O4 0.589024 0.363913 0.063295
O O5 0.570737 0.346983 0.832722
O O6 0.737696 0.345412 0.940188
O O7 0.621908 0.232265 0.964804
O O8 0.051195 0.259004 0.162921
O O9 0.228355 0.234781 0.172643
O O10 0.165275 0.371858 0.135788
O O11 0.134300 0.266196 0.971339
O O12 0.864099 0.361118 0.701249
O O13 0.166646 0.393426 0.366874
O O14 0.094237 0.395500 0.575026
O O15 0.674130 0.007126 0.220981
O O16 0.500000 0.953710 0.750000
#
# Coordination Sequence:
#
# PCOD8135750 Si02
#       8
#     8   8   8   4   8   8   8   8
#     4  10  19  39  67  87 114 156 210 249 301 360
#     4  10  20  35  64  92 117 154 203 257 303 352
#     4  10  22  36  58  85 124 155 198 253 298 344
#     4  12  20  30  60  94 118 148 196 254 298 352
#     4  10  21  39  58  90 118 154 200 253 301 350
#     4  10  21  42  59  82 125 165 199 243 306 366
#     4  10  24  40  56  87 123 170 196 242 304 368
#     4  12  26  37  61  89 123 162 201 247 299 369
#
# _framework density 20.772417000000001
#
# number of rings (size 3 to 8) (size 9 to 14) (size 15 to 20)
#    0.000    1.600    2.667    2.000    4.667    0.533 
#    0.000    0.000    5.867    1.600    0.000    0.000 
#    0.000    0.000    0.000    0.000    0.000    0.000 
#
# Total GULP energy -372081.935717 kJ/mol
# GULP energy per Si atom -12402.731191 kJ/mol
# Density = 2.072514 g / cm^3
# Si number density = 20.772417 Si / 1000 Ang^3
#
#
#
# Elastic Constant Matrix: (Units=GPa)
#
#
# Indices 1 2 3 4 5 6 
#
# 1 93.6981 17.9815 20.9851 0.0000 -11.3809 0.0000
# 2 17.9815 70.1950 -0.8432 0.0000 3.3791 0.0000
# 3 20.9851 -0.8432 71.0908 0.0000 6.0303 0.0000
# 4 0.0000 0.0000 0.0000 14.5398 0.0000 -0.9395
# 5 -11.3809 3.3791 6.0303 0.0000 39.3929 0.0000
# 6 0.0000 0.0000 0.0000 -0.9395 0.0000 17.4693
#
#
#
# Elastic Compliance Matrix: (Units=1/GPa)
#
#
# Indices 1 2 3 4 5 6 
#
# 1 0.012876 -0.003574 -0.004240 0.000000 0.004676 0.000000
# 2 -0.003574 0.015303 0.001454 0.000000 -0.002568 0.000000
# 3 -0.004240 0.001454 0.015653 0.000000 -0.003746 0.000000
# 4 0.000000 0.000000 0.000000 0.069016 0.000000 0.003712
# 5 0.004676 -0.002568 -0.003746 0.000000 0.027530 0.000000
# 6 0.000000 0.000000 0.000000 0.003712 0.000000 0.057443
#
#
# Mechanical properties :
#
#
# Convention : Reuss Voigt Hill
#
# Bulk Modulus (GPa) = 32.14166 34.58117 33.36142
# Shear Modulus (GPa) = 22.63351 27.40443 25.01897
#
# Velocity S-wave (km/s) = 3.30448 3.63612 3.47426
# Velocity P-wave (km/s) = 5.48327 5.85766 5.67356
#
# Compressibility (1/GPa) = 0.03111227
#
# Stress axis : x y z
#
# Youngs Moduli (GPa) = 77.66373 65.34768 63.88527
#
# Poissons Ratio (x) = 0.23358 0.27086
# Poissons Ratio (y) = 0.27760 -0.09292
# Poissons Ratio (z) = 0.32928 -0.09504
#
# Static dielectric constant tensor:
#      x y z
#    x 3.968680 0.000000 -0.033730 
#    y 0.000000 3.339420 0.000000 
#    z -0.033730 0.000000 3.968020 
# 
# 
# High freq. dielectric constant tensor:
#      x y z
#    x 1.823750 0.000000 -0.004530 
#    y 0.000000 1.770830 0.000000 
#    z -0.004530 0.000000 1.828670 
# 
# From -- ./inp_files/98313.got.cif
#   From: 2010.06.25/outbox.cif.g09.slc.cpg/sg15_50_cif.got.tgz:98313.got - 2010.06.28 07:06:18.
