data_PCOD8135405
_publ_section_title
;
Structure prediction by ZEFSAII (Michael W. Deem and Ramdas Pophale) SiO2 
 PCOD8135405
Probable space group: C 2/C
;
_chemical_formula_sum "Si O2"
_cell_formula_units_Z 64
_cell_length_a 11.534622
_cell_length_b 14.328024
_cell_length_c 28.939510
_cell_angle_alpha 90.000000
_cell_angle_beta 137.804638
_cell_angle_gamma 90.000000
_cell_volume 3212.408207
_symmetry_space_group_name_H-M "C 2/C"
_symmetry_group_IT_number 15
_symmetry_cell_setting 'monoclinic'
loop_
_space_group_symop_operation_xyz
x,y,z
-x,y,1/2-z
-x,-y,-z
x,-y,1/2+z
1/2+x,1/2+y,z
1/2-x,1/2+y,1/2-z
1/2-x,1/2-y,-z
1/2+x,1/2-y,1/2+z
loop_
_atom_site_type_symbol
_atom_site_label
_atom_site_fract_x
_atom_site_fract_y
_atom_site_fract_z
Si Si1 0.297161 0.793346 0.683404
Si Si2 0.070006 0.150224 0.033760
Si Si3 0.520304 0.408863 0.138269
Si Si4 0.170371 0.986366 0.994525
Si Si5 0.037504 0.463260 0.616607
Si Si6 0.852127 0.529647 0.245953
Si Si7 0.454882 0.240341 0.057932
Si Si8 0.668732 0.407951 0.324377
O O1 0.500000 0.798816 0.750000
O O2 0.230478 0.820087 0.612907
O O3 0.249313 0.684232 0.677352
O O4 0.240172 0.874759 0.702598
O O5 0.907769 0.113797 0.015135
O O6 0.000668 0.236698 0.982529
O O7 0.138490 0.066758 0.022511
O O8 0.415344 0.486023 0.078902
O O9 0.711559 0.446544 0.207164
O O10 0.551011 0.314533 0.118811
O O11 0.395236 0.381371 0.143472
O O12 0.375475 0.974666 0.052437
O O13 0.055719 0.463265 0.677350
O O14 0.197221 0.508502 0.637207
O O15 0.021365 0.359904 0.591887
O O16 0.000000 0.511011 0.250000
O O17 0.250000 0.250000 0.000000
O O18 0.500000 0.447689 0.250000
#
# Coordination Sequence:
#
# PCOD8135405 Si02
#       8
#     8   8   8   8   8   8   8   8
#     4  10  21  36  66  93 119 165 215 259 301 380
#     4  10  19  38  61  96 126 154 207 268 316 357
#     4  11  22  42  65  96 129 166 208 264 320 369
#     4  10  21  36  64  91 129 160 201 267 318 364
#     4  12  25  43  63  93 128 171 214 257 318 380
#     4  11  24  38  70  97 124 162 216 266 317 374
#     4  11  23  38  66  98 122 169 217 261 310 381
#     4  11  25  43  62  91 130 168 209 257 310 382
#
# _framework density 19.922747999999999
#
# number of rings (size 3 to 8) (size 9 to 14) (size 15 to 20)
#    0.000    1.250    5.000    2.250    8.750    0.500 
#    0.000    2.500    0.000    0.000    0.000    0.000 
#    0.000    0.000    0.000    0.000    0.000    0.000 
#
# Total GULP energy -396515.711439 kJ/mol
# GULP energy per Si atom -12391.115982 kJ/mol
# Density = 1.987740 g / cm^3
# Si number density = 19.922748 Si / 1000 Ang^3
#
#
#
# Elastic Constant Matrix: (Units=GPa)
#
#
# Indices 1 2 3 4 5 6 
#
# 1 59.7684 32.4430 30.4697 0.0000 4.5805 0.0000
# 2 32.4430 109.5413 49.4717 0.0000 15.8804 0.0000
# 3 30.4697 49.4717 130.7168 0.0000 -0.5541 0.0000
# 4 0.0000 0.0000 0.0000 35.1957 0.0000 -0.3479
# 5 4.5805 15.8804 -0.5541 0.0000 26.9730 0.0000
# 6 0.0000 0.0000 0.0000 -0.3479 0.0000 24.7152
#
#
#
# Elastic Compliance Matrix: (Units=1/GPa)
#
#
# Indices 1 2 3 4 5 6 
#
# 1 0.020916 -0.004662 -0.003115 0.000000 -0.000871 0.000000
# 2 -0.004662 0.013351 -0.003997 0.000000 -0.007151 0.000000
# 3 -0.003115 -0.003997 0.009902 0.000000 0.003085 0.000000
# 4 0.000000 0.000000 0.000000 0.028416 0.000000 0.000400
# 5 -0.000871 -0.007151 0.003085 0.000000 0.041496 0.000000
# 6 0.000000 0.000000 0.000000 0.000400 0.000000 0.040466
#
#
# Mechanical properties :
#
#
# Convention : Reuss Voigt Hill
#
# Bulk Modulus (GPa) = 48.48964 58.31058 53.40011
# Shear Modulus (GPa) = 27.03147 29.88626 28.45887
#
# Velocity S-wave (km/s) = 3.68749 3.87732 3.78360
# Velocity P-wave (km/s) = 6.52087 7.02686 6.77859
#
# Compressibility (1/GPa) = 0.02062296
#
# Stress axis : x y z
#
# Youngs Moduli (GPa) = 47.80925 74.89865 100.99071
#
# Poissons Ratio (x) = 0.34916 0.31458
# Poissons Ratio (y) = 0.22287 0.40363
# Poissons Ratio (z) = 0.14892 0.29935
#
# Static dielectric constant tensor:
#      x y z
#    x 3.631950 0.000000 -0.162000 
#    y 0.000000 4.810620 0.000000 
#    z -0.162000 0.000000 3.934660 
# 
# 
# High freq. dielectric constant tensor:
#      x y z
#    x 1.743390 0.000000 -0.012580 
#    y 0.000000 1.776520 0.000000 
#    z -0.012580 0.000000 1.799700 
# 
# From -- ./inp_files/311208.got.cif
#   From: 2010.06.25/outbox.cif.g09.slc.cpg/sg15_156_cif.got.tgz:311208.got - 2010.06.28 07:06:18.
