data_PCOD8135056
_publ_section_title
;
Structure prediction by ZEFSAII (Michael W. Deem and Ramdas Pophale) SiO2 
 PCOD8135056
Probable space group: C 2/C
;
_chemical_formula_sum "Si O2"
_cell_formula_units_Z 64
_cell_length_a 18.055415
_cell_length_b 9.728303
_cell_length_c 28.839955
_cell_angle_alpha 90.000000
_cell_angle_beta 141.178414
_cell_angle_gamma 90.000000
_cell_volume 3175.671686
_symmetry_space_group_name_H-M "C 2/C"
_symmetry_group_IT_number 15
_symmetry_cell_setting 'monoclinic'
loop_
_space_group_symop_operation_xyz
x,y,z
-x,y,1/2-z
-x,-y,-z
x,-y,1/2+z
1/2+x,1/2+y,z
1/2-x,1/2+y,1/2-z
1/2-x,1/2-y,-z
1/2+x,1/2-y,1/2+z
loop_
_atom_site_type_symbol
_atom_site_label
_atom_site_fract_x
_atom_site_fract_y
_atom_site_fract_z
Si Si1 0.085057 0.762513 0.433830
Si Si2 0.488384 0.987373 0.549052
Si Si3 0.844205 0.232041 0.772317
Si Si4 0.282748 0.908469 0.571604
Si Si5 0.876502 0.446269 0.713063
Si Si6 0.624621 0.827864 0.432288
Si Si7 0.934342 0.733158 0.766318
Si Si8 0.751154 0.934455 0.708162
O O1 0.097039 0.637148 0.476691
O O2 0.148191 0.895757 0.487472
O O3 0.147587 0.723654 0.415285
O O4 0.950352 0.801931 0.359129
O O5 0.435646 0.125862 0.547993
O O6 0.500000 0.000000 0.500000
O O7 0.617428 0.943449 0.627364
O O8 0.890576 0.309429 0.749722
O O9 0.746193 0.335927 0.745349
O O10 0.786990 0.089263 0.732992
O O11 0.278932 0.917296 0.625680
O O12 0.350205 0.040877 0.586621
O O13 0.858791 0.588505 0.733970
O O14 0.000000 0.472341 0.750000
O O15 0.750000 0.750000 0.500000
O O16 0.526635 0.744737 0.354301
O O17 0.841758 0.859476 0.717749
O O18 0.000000 0.740830 0.750000
#
# Coordination Sequence:
#
# PCOD8135056 Si02
#       8
#     8   8   8   8   8   8   8   8
#     4   9  20  37  58  87 124 160 206 251 316 377
#     4  10  23  41  61  89 133 170 208 263 334 391
#     4  11  22  40  63  89 121 168 210 264 320 394
#     4  10  19  37  60  89 124 165 199 262 313 386
#     4  11  19  37  66  90 125 165 214 255 324 382
#     4  11  23  40  67  95 128 170 215 272 339 400
#     4  11  23  43  66  94 127 169 220 275 332 400
#     4  11  25  42  65  88 130 166 218 269 331 393
#
# _framework density 20.153216
#
# number of rings (size 3 to 8) (size 9 to 14) (size 15 to 20)
#    0.000    1.500    3.750    3.000    5.250    0.500 
#    0.000    0.000    0.000    3.000    0.000    0.000 
#    0.000    0.000    0.000    0.000    0.000    0.000 
#
# Total GULP energy -396509.703802 kJ/mol
# GULP energy per Si atom -12390.928244 kJ/mol
# Density = 2.010735 g / cm^3
# Si number density = 20.153216 Si / 1000 Ang^3
#
#
#
# Elastic Constant Matrix: (Units=GPa)
#
#
# Indices 1 2 3 4 5 6 
#
# 1 83.4829 29.5333 31.4446 0.0000 -5.4458 0.0000
# 2 29.5333 93.7842 26.7920 0.0000 3.2053 0.0000
# 3 31.4446 26.7920 86.7310 0.0000 -2.8783 0.0000
# 4 0.0000 0.0000 0.0000 33.3637 0.0000 15.8140
# 5 -5.4458 3.2053 -2.8783 0.0000 31.9522 0.0000
# 6 0.0000 0.0000 0.0000 15.8140 0.0000 -58.8793
#
#
#
# Elastic Compliance Matrix: (Units=1/GPa)
#
#
# Indices 1 2 3 4 5 6 
#
# 1 0.015019 -0.003603 -0.004248 0.000000 0.002538 0.000000
# 2 -0.003603 0.012631 -0.002666 0.000000 -0.002121 0.000000
# 3 -0.004248 -0.002666 0.013920 0.000000 0.000797 0.000000
# 4 0.000000 0.000000 0.000000 0.026588 0.000000 0.007141
# 5 0.002538 -0.002121 0.000797 0.000000 0.032014 0.000000
# 6 0.000000 0.000000 0.000000 0.007141 0.000000 -0.015066
#
#
# Mechanical properties :
#
#
# Convention : Reuss Voigt Hill
#
# Bulk Modulus (GPa) = 48.69367 48.83753 48.76560
# Shear Modulus (GPa) = 44.25357 13.03587 28.64472
#
# Velocity S-wave (km/s) = 4.69108 2.54606 3.77417
# Velocity P-wave (km/s) = 7.31819 5.73838 6.57590
#
# Compressibility (1/GPa) = 0.02053655
#
# Stress axis : x y z
#
# Youngs Moduli (GPa) = 66.58410 79.16740 71.83874
#
# Poissons Ratio (x) = 0.28522 0.30516
# Poissons Ratio (y) = 0.23988 0.19154
# Poissons Ratio (z) = 0.28284 0.21108
#
# Static dielectric constant tensor:
#      x y z
#    x 3.414250 0.000000 0.389170 
#    y 0.000000 3.288480 0.000000 
#    z 0.389170 0.000000 3.510970 
# 
# 
# High freq. dielectric constant tensor:
#      x y z
#    x 1.783650 0.000000 0.003700 
#    y 0.000000 1.779280 0.000000 
#    z 0.003700 0.000000 1.784370 
# 
# From -- ./inp_files/315713.got.cif
#   From: 2010.06.25/outbox.cif.g09.slc.cpg/sg15_158_cif.got.tgz:315713.got - 2010.06.28 07:06:18.
