data_PCOD8135809
_publ_section_title
;
Structure prediction by ZEFSAII (Michael W. Deem and Ramdas Pophale) SiO2 
 PCOD8135809
Probable space group: C 2/C
;
_chemical_formula_sum "Si O2"
_cell_formula_units_Z 48
_cell_length_a 12.697801
_cell_length_b 12.794537
_cell_length_c 14.437204
_cell_angle_alpha 90.000000
_cell_angle_beta 64.550899
_cell_angle_gamma 90.000000
_cell_volume 2117.913621
_symmetry_space_group_name_H-M "C 2/C"
_symmetry_group_IT_number 15
_symmetry_cell_setting 'monoclinic'
loop_
_space_group_symop_operation_xyz
x,y,z
-x,y,1/2-z
-x,-y,-z
x,-y,1/2+z
1/2+x,1/2+y,z
1/2-x,1/2+y,1/2-z
1/2-x,1/2-y,-z
1/2+x,1/2-y,1/2+z
loop_
_atom_site_type_symbol
_atom_site_label
_atom_site_fract_x
_atom_site_fract_y
_atom_site_fract_z
Si Si1 0.136602 0.432387 0.107958
Si Si2 0.947680 0.785617 0.863113
Si Si3 0.634703 0.252464 0.926791
Si Si4 0.619825 0.040914 0.821864
Si Si5 0.389268 0.713742 0.853336
Si Si6 0.795899 0.984515 0.890434
O O1 0.130152 0.312116 0.070902
O O2 0.175348 0.433411 0.200740
O O3 0.014379 0.494504 0.139328
O O4 0.234127 0.493981 0.013757
O O5 0.881549 0.888001 0.858485
O O6 0.000000 0.733521 0.750000
O O7 0.049819 0.823102 0.895049
O O8 0.619938 0.136708 0.893310
O O9 0.773184 0.280595 0.868447
O O10 0.585246 0.261825 0.049301
O O11 0.702561 0.958286 0.843689
O O12 0.500000 0.749791 0.750000
O O13 0.366977 0.590602 0.845534
#
# Coordination Sequence:
#
# PCOD8135809 Si02
#       6
#     8   8   8   8   8   8
#     4  10  19  40  62  86 126 178 215 263 323 388
#     4  11  21  39  61  91 127 170 220 263 325 389
#     4   9  20  41  66  87 127 174 215 260 321 396
#     4   9  19  40  63  86 129 167 219 271 313 386
#     4  10  22  42  65  92 132 172 212 273 329 383
#     4  11  23  34  63  98 129 162 219 274 333 376
#
# _framework density 22.663813999999999
#
# number of rings (size 3 to 8) (size 9 to 14) (size 15 to 20)
#    0.000    2.000    3.333    1.500    0.000    4.667 
#    6.000    0.000   33.000    0.000    0.000    0.000 
#    0.000    0.000    0.000    0.000    0.000    0.000 
#
# Total GULP energy -297430.372258 kJ/mol
# GULP energy per Si atom -12392.932177 kJ/mol
# Density = 2.261223 g / cm^3
# Si number density = 22.663814 Si / 1000 Ang^3
#
#
#
# Elastic Constant Matrix: (Units=GPa)
#
#
# Indices 1 2 3 4 5 6 
#
# 1 125.2560 46.2390 53.7052 0.0000 20.7897 0.0000
# 2 46.2390 44.6651 9.9980 0.0000 4.0579 0.0000
# 3 53.7052 9.9980 135.3383 0.0000 3.7134 0.0000
# 4 0.0000 0.0000 0.0000 25.8719 0.0000 0.1759
# 5 20.7897 4.0579 3.7134 0.0000 37.3220 0.0000
# 6 0.0000 0.0000 0.0000 0.1759 0.0000 25.3243
#
#
#
# Elastic Compliance Matrix: (Units=1/GPa)
#
#
# Indices 1 2 3 4 5 6 
#
# 1 0.017666 -0.016354 -0.005596 0.000000 -0.007506 0.000000
# 2 -0.016354 0.038106 0.003548 0.000000 0.004614 0.000000
# 3 -0.005596 0.003548 0.009298 0.000000 0.001806 0.000000
# 4 0.000000 0.000000 0.000000 0.038654 0.000000 -0.000268
# 5 -0.007506 0.004614 0.001806 0.000000 0.030293 0.000000
# 6 0.000000 0.000000 0.000000 -0.000268 0.000000 0.039490
#
#
# Mechanical properties :
#
#
# Convention : Reuss Voigt Hill
#
# Bulk Modulus (GPa) = 35.37899 58.34932 46.86415
# Shear Modulus (GPa) = 22.75492 30.72479 26.73986
#
# Velocity S-wave (km/s) = 3.17207 3.68595 3.43862
# Velocity P-wave (km/s) = 5.39075 6.62695 6.04056
#
# Compressibility (1/GPa) = 0.02826537
#
# Stress axis : x y z
#
# Youngs Moduli (GPa) = 56.60577 26.24275 107.55098
#
# Poissons Ratio (x) = 0.42917 0.60188
# Poissons Ratio (y) = 0.92573 -0.38159
# Poissons Ratio (z) = 0.31678 -0.09311
#
# Static dielectric constant tensor:
#      x y z
#    x 5.029160 0.000000 0.310010 
#    y 0.000000 3.696000 0.000000 
#    z 0.310010 0.000000 4.055460 
# 
# 
# High freq. dielectric constant tensor:
#      x y z
#    x 1.906000 0.000000 0.013170 
#    y 0.000000 1.867070 0.000000 
#    z 0.013170 0.000000 1.890740 
# 
# From -- ./inp_files/144074.got.cif
#   From: 2010.06.25/outbox.cif.g09.slc.cpg/sg15_73_cif.got.tgz:144074.got - 2010.06.28 07:06:18.
