data_PCOD8135457
_publ_section_title
;
Structure prediction by ZEFSAII (Michael W. Deem and Ramdas Pophale) SiO2 
 PCOD8135457
Probable space group: C 2/C
;
_chemical_formula_sum "Si O2"
_cell_formula_units_Z 56
_cell_length_a 9.593210
_cell_length_b 14.032917
_cell_length_c 26.069556
_cell_angle_alpha 90.000000
_cell_angle_beta 54.639364
_cell_angle_gamma 90.000000
_cell_volume 2862.089000
_symmetry_space_group_name_H-M "C 2/C"
_symmetry_group_IT_number 15
_symmetry_cell_setting 'monoclinic'
loop_
_space_group_symop_operation_xyz
x,y,z
-x,y,1/2-z
-x,-y,-z
x,-y,1/2+z
1/2+x,1/2+y,z
1/2-x,1/2+y,1/2-z
1/2-x,1/2-y,-z
1/2+x,1/2-y,1/2+z
loop_
_atom_site_type_symbol
_atom_site_label
_atom_site_fract_x
_atom_site_fract_y
_atom_site_fract_z
Si Si1 0.533409 0.921317 0.797755
Si Si2 0.093844 0.226910 0.177295
Si Si3 0.077503 0.966473 0.787835
Si Si4 0.488307 0.582821 0.905288
Si Si5 0.507605 0.797732 0.895261
Si Si6 0.336500 0.081698 0.886484
Si Si7 0.127946 0.470501 0.517324
O O1 0.500000 0.875034 0.750000
O O2 0.728022 0.946279 0.766756
O O3 0.455273 0.844154 0.852736
O O4 0.425810 0.018171 0.824301
O O5 0.289133 0.202919 0.146106
O O6 0.088270 0.311496 0.136462
O O7 0.000000 0.258049 0.250000
O O8 0.006535 0.131723 0.173585
O O9 0.000000 0.000949 0.750000
O O10 0.055903 0.046886 0.835716
O O11 0.430411 0.692420 0.913416
O O12 0.633411 0.575584 0.918380
O O13 0.322758 0.523120 0.956735
O O14 0.424262 0.862868 0.957098
O O15 0.386696 0.044342 0.932211
O O16 0.000000 0.500000 0.500000
#
# Coordination Sequence:
#
# PCOD8135457 Si02
#       7
#     8   8   8   8   8   8   8
#     4  11  20  37  59  93 127 157 196 254 306 368
#     4  10  19  38  63  90 122 162 199 247 305 370
#     4  11  22  37  63  92 129 159 202 249 308 366
#     4  11  23  42  64  89 119 172 202 248 305 369
#     4  10  22  40  62  90 124 159 202 254 305 356
#     4  10  23  39  64  87 120 163 208 245 307 368
#     4  11  24  44  64  88 123 158 211 262 305 356
#
# _framework density 19.566127999999999
#
# number of rings (size 3 to 8) (size 9 to 14) (size 15 to 20)
#    0.000    1.429    4.286    2.143    4.000    0.571 
#    2.571    7.857    0.000    0.000    0.000    0.000 
#    0.000    0.000    0.000    0.000    0.000    0.000 
#
# Total GULP energy -347163.381363 kJ/mol
# GULP energy per Si atom -12398.692192 kJ/mol
# Density = 1.952159 g / cm^3
# Si number density = 19.566128 Si / 1000 Ang^3
#
#
#
# Elastic Constant Matrix: (Units=GPa)
#
#
# Indices 1 2 3 4 5 6 
#
# 1 88.7105 21.5319 28.9719 0.0000 13.6866 0.0000
# 2 21.5319 108.6330 24.9688 0.0000 19.4786 0.0000
# 3 28.9719 24.9688 79.1393 0.0001 10.8237 -0.0001
# 4 0.0000 0.0000 0.0001 62.7502 -0.0001 -27.8213
# 5 13.6866 19.4786 10.8237 -0.0001 40.3247 0.0001
# 6 0.0000 0.0000 -0.0001 -27.8213 0.0001 39.8117
#
#
#
# Elastic Compliance Matrix: (Units=1/GPa)
#
#
# Indices 1 2 3 4 5 6 
#
# 1 0.013347 -0.001187 -0.004122 0.000000 -0.002850 0.000000
# 2 -0.001187 0.010731 -0.002385 0.000000 -0.004141 0.000000
# 3 -0.004122 -0.002385 0.015103 0.000000 -0.001503 0.000000
# 4 0.000000 0.000000 0.000000 0.023090 0.000000 0.016136
# 5 -0.002850 -0.004141 -0.001503 0.000000 0.028170 0.000000
# 6 0.000000 0.000000 0.000000 0.016136 0.000000 0.036394
#
#
# Mechanical properties :
#
#
# Convention : Reuss Voigt Hill
#
# Bulk Modulus (GPa) = 42.02834 47.49201 44.76017
# Shear Modulus (GPa) = 33.29929 41.97800 37.63865
#
# Velocity S-wave (km/s) = 4.12987 4.63692 4.39072
# Velocity P-wave (km/s) = 6.65341 7.27965 6.97356
#
# Compressibility (1/GPa) = 0.02379347
#
# Stress axis : x y z
#
# Youngs Moduli (GPa) = 74.92554 93.18652 66.21273
#
# Poissons Ratio (x) = 0.11061 0.27291
# Poissons Ratio (y) = 0.08893 0.15791
# Poissons Ratio (z) = 0.30882 0.22224
#
# Static dielectric constant tensor:
#      x y z
#    x 3.559160 0.000000 -0.063040 
#    y 0.000000 3.763430 0.000000 
#    z -0.063040 0.000000 3.589730 
# 
# 
# High freq. dielectric constant tensor:
#      x y z
#    x 1.761550 0.000000 -0.011020 
#    y 0.000000 1.762610 0.000000 
#    z -0.011020 0.000000 1.766730 
# 
# From -- ./inp_files/264614.got.cif
#   From: 2010.06.25/outbox.cif.g09.slc.cpg/sg15_133_cif.got.tgz:264614.got - 2010.06.28 07:06:18.
