data_PCOD8135994
_publ_section_title
;
Structure prediction by ZEFSAII (Michael W. Deem and Ramdas Pophale) SiO2 
 PCOD8135994
Probable space group: C 2/C
;
_chemical_formula_sum "Si O2"
_cell_formula_units_Z 40
_cell_length_a 24.704829
_cell_length_b 11.554441
_cell_length_c 15.183316
_cell_angle_alpha 90.000000
_cell_angle_beta 149.305925
_cell_angle_gamma 90.000000
_cell_volume 2212.351001
_symmetry_space_group_name_H-M "C 2/C"
_symmetry_group_IT_number 15
_symmetry_cell_setting 'monoclinic'
loop_
_space_group_symop_operation_xyz
x,y,z
-x,y,1/2-z
-x,-y,-z
x,-y,1/2+z
1/2+x,1/2+y,z
1/2-x,1/2+y,1/2-z
1/2-x,1/2-y,-z
1/2+x,1/2-y,1/2+z
loop_
_atom_site_type_symbol
_atom_site_label
_atom_site_fract_x
_atom_site_fract_y
_atom_site_fract_z
Si Si1 0.700160 0.764272 0.835446
Si Si2 0.004323 0.138961 0.006409
Si Si3 0.700868 0.782700 0.208935
Si Si4 0.111044 0.529422 0.118622
Si Si5 0.071478 0.728488 0.935047
O O1 0.594007 0.686712 0.687749
O O2 0.780076 0.728902 0.869066
O O3 0.673343 0.898513 0.780465
O O4 0.750000 0.750000 0.000000
O O5 0.113995 0.188658 0.119232
O O6 0.991084 0.185188 0.087230
O O7 0.000000 0.000000 0.000000
O O8 0.809078 0.771544 0.417119
O O9 0.671164 0.913985 0.180964
O O10 0.090708 0.602436 0.002412
O O11 0.000000 0.500000 0.000000
O O12 0.000000 0.716988 0.750000
#
# Coordination Sequence:
#
# PCOD8135994 Si02
#       5
#     8   8   8   8   8
#     4  10  24  38  60  94 115 153 210 242 294 357
#     4  10  22  42  58  86 127 158 193 245 307 357
#     4  10  21  41  65  80 127 164 188 252 307 342
#     4  10  19  42  61  82 122 158 198 244 293 356
#     4  10  24  38  60  94 115 153 210 242 293 359
#
# _framework density 18.080313
#
# number of rings (size 3 to 8) (size 9 to 14) (size 15 to 20)
#    0.000    2.400    4.000    0.000   11.200    4.800 
#    0.000    0.000    0.000    0.000    0.000    0.000 
#    0.000    0.000    0.000    0.000    0.000    0.000 
#
# Total GULP energy -247838.829502 kJ/mol
# GULP energy per Si atom -12391.941475 kJ/mol
# Density = 1.803916 g / cm^3
# Si number density = 18.080313 Si / 1000 Ang^3
#
#
#
# Elastic Constant Matrix: (Units=GPa)
#
#
# Indices 1 2 3 4 5 6 
#
# 1 114.2107 64.7587 78.1034 0.0000 24.9601 0.0000
# 2 64.7587 177.8008 66.8036 0.0000 10.3217 0.0000
# 3 78.1034 66.8036 168.5188 0.0000 -13.6201 0.0000
# 4 0.0000 0.0000 0.0000 13.9615 0.0000 17.5363
# 5 24.9601 10.3217 -13.6201 0.0000 34.5008 0.0000
# 6 0.0000 0.0000 0.0000 17.5363 0.0000 31.5537
#
#
#
# Elastic Compliance Matrix: (Units=1/GPa)
#
#
# Indices 1 2 3 4 5 6 
#
# 1 0.021644 -0.002869 -0.010423 0.000000 -0.018915 0.000000
# 2 -0.002869 0.007329 -0.001637 0.000000 -0.000763 0.000000
# 3 -0.010423 -0.001637 0.012460 0.000000 0.012949 0.000000
# 4 0.000000 0.000000 0.000000 0.237217 0.000000 -0.131835
# 5 -0.018915 -0.000763 0.012949 0.000000 0.048010 0.000000
# 6 0.000000 0.000000 0.000000 -0.131835 0.000000 0.104961
#
#
# Mechanical properties :
#
#
# Convention : Reuss Voigt Hill
#
# Bulk Modulus (GPa) = 86.39342 97.76242 92.07792
# Shear Modulus (GPa) = 10.74493 32.72751 21.73622
#
# Velocity S-wave (km/s) = 2.44045 4.25916 3.47104
# Velocity P-wave (km/s) = 7.47181 8.85302 8.19158
#
# Compressibility (1/GPa) = 0.01157496
#
# Stress axis : x y z
#
# Youngs Moduli (GPa) = 46.20249 136.45047 80.25525
#
# Poissons Ratio (x) = 0.39149 0.83647
# Poissons Ratio (y) = 0.13256 0.13139
# Poissons Ratio (z) = 0.48155 0.22339
#
# Static dielectric constant tensor:
#      x y z
#    x 3.519610 0.000000 0.250320 
#    y 0.000000 3.429680 0.000000 
#    z 0.250320 0.000000 3.276720 
# 
# 
# High freq. dielectric constant tensor:
#      x y z
#    x 1.708990 0.000000 0.018440 
#    y 0.000000 1.715910 0.000000 
#    z 0.018440 0.000000 1.693160 
# 
# From -- ./inp_files/111884.got.cif
#   From: 2010.06.25/outbox.cif.g09.slc.cpg/sg15_56_cif.got.tgz:111884.got - 2010.06.28 07:06:18.
