data_PCOD8135048
_publ_section_title
;
Structure prediction by ZEFSAII (Michael W. Deem and Ramdas Pophale) SiO2 
 PCOD8135048
Probable space group: C 2/C
;
_chemical_formula_sum "Si O2"
_cell_formula_units_Z 60
_cell_length_a 17.982159
_cell_length_b 12.199646
_cell_length_c 14.378206
_cell_angle_alpha 90.000000
_cell_angle_beta 96.538022
_cell_angle_gamma 90.000000
_cell_volume 3133.719438
_symmetry_space_group_name_H-M "C 2/C"
_symmetry_group_IT_number 15
_symmetry_cell_setting 'monoclinic'
loop_
_space_group_symop_operation_xyz
x,y,z
-x,y,1/2-z
-x,-y,-z
x,-y,1/2+z
1/2+x,1/2+y,z
1/2-x,1/2+y,1/2-z
1/2-x,1/2-y,-z
1/2+x,1/2-y,1/2+z
loop_
_atom_site_type_symbol
_atom_site_label
_atom_site_fract_x
_atom_site_fract_y
_atom_site_fract_z
Si Si1 0.850822 0.751611 0.439482
Si Si2 0.500000 0.689148 0.750000
Si Si3 0.113726 0.374275 0.725038
Si Si4 0.079611 0.618242 0.723443
Si Si5 0.720758 0.885364 0.905030
Si Si6 0.207609 0.367175 0.392039
Si Si7 0.865581 0.255004 0.450481
Si Si8 0.498526 0.617159 0.952104
O O1 0.868872 0.645883 0.380246
O O2 0.823516 0.711674 0.534049
O O3 0.788546 0.820952 0.373689
O O4 0.922278 0.825529 0.470649
O O5 0.570534 0.769828 0.759759
O O6 0.503207 0.609991 0.840275
O O7 0.067660 0.487314 0.716324
O O8 0.188281 0.382352 0.796544
O O9 0.148959 0.641557 0.800557
O O10 0.101823 0.671249 0.628279
O O11 0.000000 0.666481 0.750000
O O12 0.801868 0.829795 0.908813
O O13 0.723970 0.012183 0.934491
O O14 0.667337 0.830976 0.973553
O O15 0.932910 0.187310 0.501945
O O16 0.500000 0.500000 0.000000
#
# Coordination Sequence:
#
# PCOD8135048 Si02
#       8
#     8   4   8   8   8   8   8   8
#     4  10  21  37  61  81 120 154 204 243 297 354
#     4  10  20  40  60  86 114 156 198 236 298 358
#     4  10  19  37  60  87 115 158 195 242 293 364
#     4  11  22  36  59  91 124 153 199 250 306 352
#     4  10  21  37  61  86 120 158 199 246 303 363
#     4  10  21  38  56  86 117 161 196 244 299 359
#     4  11  22  38  60  89 122 155 201 253 303 352
#     4  11  23  41  62  87 118 160 202 250 297 359
#
# _framework density 19.146578000000002
#
# number of rings (size 3 to 8) (size 9 to 14) (size 15 to 20)
#    0.000    1.600    2.000    3.200    0.000    0.000 
#    3.600    4.000    8.800    0.000    0.000    0.000 
#    0.000    0.000    0.000    0.000    0.000    0.000 
#
# Total GULP energy -371911.592397 kJ/mol
# GULP energy per Si atom -12397.053080 kJ/mol
# Density = 1.910300 g / cm^3
# Si number density = 19.146578 Si / 1000 Ang^3
#
#
#
# Elastic Constant Matrix: (Units=GPa)
#
#
# Indices 1 2 3 4 5 6 
#
# 1 121.0769 44.3832 38.4167 0.0000 5.0736 0.0000
# 2 44.3832 99.8498 54.3776 0.0000 4.0110 0.0000
# 3 38.4167 54.3776 92.3220 0.0000 0.2800 0.0000
# 4 0.0000 0.0000 0.0000 27.6078 0.0000 -4.5045
# 5 5.0736 4.0110 0.2800 0.0000 26.8260 0.0000
# 6 0.0000 0.0000 0.0000 -4.5045 0.0000 7.1691
#
#
#
# Elastic Compliance Matrix: (Units=1/GPa)
#
#
# Indices 1 2 3 4 5 6 
#
# 1 0.010247 -0.003206 -0.002371 0.000000 -0.001434 0.000000
# 2 -0.003206 0.015868 -0.008007 0.000000 -0.001683 0.000000
# 3 -0.002371 -0.008007 0.016530 0.000000 0.001473 0.000000
# 4 0.000000 0.000000 0.000000 0.040359 0.000000 0.025359
# 5 -0.001434 -0.001683 0.001473 0.000000 0.037785 0.000000
# 6 0.000000 0.000000 0.000000 0.025359 0.000000 0.155422
#
#
# Mechanical properties :
#
#
# Convention : Reuss Voigt Hill
#
# Bulk Modulus (GPa) = 64.61385 65.28931 64.95158
# Shear Modulus (GPa) = 16.20538 24.05864 20.13201
#
# Velocity S-wave (km/s) = 2.91243 3.54863 3.24615
# Velocity P-wave (km/s) = 6.71787 7.13892 6.93159
#
# Compressibility (1/GPa) = 0.01547656
#
# Stress axis : x y z
#
# Youngs Moduli (GPa) = 97.59116 63.01849 60.49483
#
# Poissons Ratio (x) = 0.20202 0.14346
# Poissons Ratio (y) = 0.31284 0.48441
# Poissons Ratio (z) = 0.23143 0.50462
#
# Static dielectric constant tensor:
#      x y z
#    x 4.206920 0.000000 -0.236220 
#    y 0.000000 3.460420 0.000000 
#    z -0.236220 0.000000 3.686440 
# 
# 
# High freq. dielectric constant tensor:
#      x y z
#    x 1.759690 0.000000 0.005210 
#    y 0.000000 1.744680 0.000000 
#    z 0.005210 0.000000 1.748620 
# 
# From -- ./inp_files/160935.got.cif
#   From: 2010.06.25/outbox.cif.g09.slc.cpg/sg15_81_cif.got.tgz:160935.got - 2010.06.28 07:06:18.
