data_PCOD8135477
_publ_section_title
;
Structure prediction by ZEFSAII (Michael W. Deem and Ramdas Pophale) SiO2 
 PCOD8135477
Probable space group: C 2/C
;
_chemical_formula_sum "Si O2"
_cell_formula_units_Z 44
_cell_length_a 7.895530
_cell_length_b 17.290743
_cell_length_c 15.989734
_cell_angle_alpha 90.000000
_cell_angle_beta 82.512096
_cell_angle_gamma 90.000000
_cell_volume 2164.296763
_symmetry_space_group_name_H-M "C 2/C"
_symmetry_group_IT_number 15
_symmetry_cell_setting 'monoclinic'
loop_
_space_group_symop_operation_xyz
x,y,z
-x,y,1/2-z
-x,-y,-z
x,-y,1/2+z
1/2+x,1/2+y,z
1/2-x,1/2+y,1/2-z
1/2-x,1/2-y,-z
1/2+x,1/2-y,1/2+z
loop_
_atom_site_type_symbol
_atom_site_label
_atom_site_fract_x
_atom_site_fract_y
_atom_site_fract_z
Si Si1 0.467703 0.631911 0.579940
Si Si2 0.645781 0.792521 0.155609
Si Si3 0.909240 0.157812 0.109173
Si Si4 0.160000 0.232545 0.690046
Si Si5 0.645656 0.498664 0.303698
Si Si6 0.000000 0.425509 0.250000
O O1 0.314861 0.695261 0.588589
O O2 0.554595 0.624953 0.484633
O O3 0.605977 0.656931 0.641123
O O4 0.385535 0.549737 0.609392
O O5 0.561205 0.714046 0.128953
O O6 0.693820 0.786640 0.251479
O O7 0.527203 0.870327 0.165059
O O8 0.732051 0.205232 0.119296
O O9 0.881191 0.088728 0.175942
O O10 0.000000 0.268695 0.750000
O O11 0.500000 0.470941 0.250000
O O12 0.832621 0.480598 0.252231
#
# Coordination Sequence:
#
# PCOD8135477 Si02
#       6
#     8   8   8   8   8   4
#     4  10  22  39  61  88 125 160 196 251 316 363
#     4  10  19  38  64  85 115 160 209 242 296 372
#     4  12  22  37  61  94 123 150 201 267 306 346
#     4  10  20  36  62  88 114 159 206 243 294 372
#     4  11  24  40  63  88 124 168 206 248 310 373
#     4  10  20  40  62  86 114 162 212 248 292 370
#
# _framework density 20.329929
#
# number of rings (size 3 to 8) (size 9 to 14) (size 15 to 20)
#    0.000    1.455    1.818    5.455    1.273    0.000 
#    0.000    0.000    0.000    4.364    0.000    0.000 
#    0.000    0.000    0.000    0.000    0.000    0.000 
#
# Total GULP energy -272636.097329 kJ/mol
# GULP energy per Si atom -12392.549879 kJ/mol
# Density = 2.028366 g / cm^3
# Si number density = 20.329929 Si / 1000 Ang^3
#
#
#
# Elastic Constant Matrix: (Units=GPa)
#
#
# Indices 1 2 3 4 5 6 
#
# 1 106.0963 41.4848 37.2886 0.0000 -6.6433 0.0000
# 2 41.4848 103.9177 13.8741 0.0000 -0.5910 0.0000
# 3 37.2886 13.8741 75.6309 0.0000 -12.2386 0.0000
# 4 0.0000 0.0000 0.0000 28.1429 0.0000 -1.7548
# 5 -6.6433 -0.5910 -12.2386 0.0000 29.3217 0.0000
# 6 0.0000 0.0000 0.0000 -1.7548 0.0000 26.8503
#
#
#
# Elastic Compliance Matrix: (Units=1/GPa)
#
#
# Indices 1 2 3 4 5 6 
#
# 1 0.013189 -0.004517 -0.005582 0.000000 0.000567 0.000000
# 2 -0.004517 0.011421 0.000004 0.000000 -0.000792 0.000000
# 3 -0.005582 0.000004 0.016911 0.000000 0.005794 0.000000
# 4 0.000000 0.000000 0.000000 0.035678 0.000000 0.002332
# 5 0.000567 -0.000792 0.005794 0.000000 0.036635 0.000000
# 6 0.000000 0.000000 0.000000 0.002332 0.000000 0.037396
#
#
# Mechanical properties :
#
#
# Convention : Reuss Voigt Hill
#
# Bulk Modulus (GPa) = 46.88069 52.32666 49.60367
# Shear Modulus (GPa) = 28.00625 29.72947 28.86786
#
# Velocity S-wave (km/s) = 3.71561 3.82822 3.77234
# Velocity P-wave (km/s) = 6.44342 6.73312 6.58986
#
# Compressibility (1/GPa) = 0.02133075
#
# Stress axis : x y z
#
# Youngs Moduli (GPa) = 75.82145 87.55746 59.13219
#
# Poissons Ratio (x) = 0.39546 0.33009
# Poissons Ratio (y) = 0.34245 -0.00021
# Poissons Ratio (z) = 0.42325 -0.00032
#
# Static dielectric constant tensor:
#      x y z
#    x 3.915920 0.000000 -0.239580 
#    y 0.000000 3.624540 0.000000 
#    z -0.239580 0.000000 3.419590 
# 
# 
# High freq. dielectric constant tensor:
#      x y z
#    x 1.808760 0.000000 -0.023790 
#    y 0.000000 1.788600 0.000000 
#    z -0.023790 0.000000 1.769700 
# 
# From -- ./inp_files/134440.got.cif
#   From: 2010.06.25/outbox.cif.g09.slc.cpg/sg15_68_cif.got.tgz:134440.got - 2010.06.28 07:06:18.
