data_PCOD8135990
_publ_section_title
;
Structure prediction by ZEFSAII (Michael W. Deem and Ramdas Pophale) SiO2 
 PCOD8135990
Probable space group: C 2/C
;
_chemical_formula_sum "Si O2"
_cell_formula_units_Z 56
_cell_length_a 9.877890
_cell_length_b 28.368498
_cell_length_c 10.877685
_cell_angle_alpha 90.000000
_cell_angle_beta 62.197385
_cell_angle_gamma 90.000000
_cell_volume 2696.274780
_symmetry_space_group_name_H-M "C 2/C"
_symmetry_group_IT_number 15
_symmetry_cell_setting 'monoclinic'
loop_
_space_group_symop_operation_xyz
x,y,z
-x,y,1/2-z
-x,-y,-z
x,-y,1/2+z
1/2+x,1/2+y,z
1/2-x,1/2+y,1/2-z
1/2-x,1/2-y,-z
1/2+x,1/2-y,1/2+z
loop_
_atom_site_type_symbol
_atom_site_label
_atom_site_fract_x
_atom_site_fract_y
_atom_site_fract_z
Si Si1 0.150908 0.416423 0.744124
Si Si2 0.192404 0.835183 0.967795
Si Si3 0.205694 0.335090 0.303439
Si Si4 0.118763 0.342439 0.955382
Si Si5 0.846205 0.739854 0.252043
Si Si6 0.124480 0.129782 0.982618
Si Si7 0.534807 0.465282 0.872818
O O1 0.198276 0.374682 0.633628
O O2 0.108676 0.392884 0.891937
O O3 0.284824 0.454498 0.699947
O O4 0.000000 0.441275 0.750000
O O5 0.246531 0.783936 0.901980
O O6 0.204460 0.841364 0.107594
O O7 0.020327 0.839443 0.993803
O O8 0.250776 0.283017 0.233466
O O9 0.266786 0.375279 0.183628
O O10 0.023032 0.339768 0.390877
O O11 0.110566 0.297972 0.869606
O O12 0.281245 0.341272 0.955483
O O13 0.000000 0.759758 0.250000
O O14 0.071384 0.080191 0.061038
O O15 0.500000 0.485915 0.750000
O O16 0.500000 0.500000 0.000000
#
# Coordination Sequence:
#
# PCOD8135990 Si02
#       7
#     8   8   8   8   8   8   8
#     4  10  19  41  71  95 124 174 216 259 328 403
#     4  10  20  37  63  87 124 179 229 274 326 382
#     4  12  23  38  60  91 132 177 232 281 320 389
#     4  11  22  42  60  88 134 178 223 269 336 382
#     4  11  22  37  61  87 129 182 239 287 318 371
#     4  11  25  41  64  94 129 173 214 274 340 393
#     4  11  25  48  77 104 136 167 212 276 343 421
#
# _framework density 20.769397000000001
#
# number of rings (size 3 to 8) (size 9 to 14) (size 15 to 20)
#    0.000    1.143    4.286    3.000    2.000    2.857 
#    2.571    2.143    0.000    0.000    0.000    0.000 
#    0.000    0.000    0.000    0.000    0.000    0.000 
#
# Total GULP energy -347180.220103 kJ/mol
# GULP energy per Si atom -12399.293575 kJ/mol
# Density = 2.072212 g / cm^3
# Si number density = 20.769397 Si / 1000 Ang^3
#
#
#
# Elastic Constant Matrix: (Units=GPa)
#
#
# Indices 1 2 3 4 5 6 
#
# 1 142.2126 25.8905 30.9610 0.0000 -16.8954 0.0000
# 2 25.8905 47.2358 21.1478 0.0000 -9.3429 0.0000
# 3 30.9610 21.1478 102.6121 0.0000 -5.1343 0.0000
# 4 0.0000 0.0000 0.0000 20.3043 0.0000 3.4860
# 5 -16.8954 -9.3429 -5.1343 0.0000 39.5144 0.0000
# 6 0.0000 0.0000 0.0000 3.4860 0.0000 21.1125
#
#
#
# Elastic Compliance Matrix: (Units=1/GPa)
#
#
# Indices 1 2 3 4 5 6 
#
# 1 0.008303 -0.003285 -0.001701 0.000000 0.002553 0.000000
# 2 -0.003285 0.025613 -0.004081 0.000000 0.004121 0.000000
# 3 -0.001701 -0.004081 0.011087 0.000000 -0.000252 0.000000
# 4 0.000000 0.000000 0.000000 0.050687 0.000000 -0.008369
# 5 0.002553 0.004121 -0.000252 0.000000 0.027340 0.000000
# 6 0.000000 0.000000 0.000000 -0.008369 0.000000 0.048747
#
#
# Mechanical properties :
#
#
# Convention : Reuss Voigt Hill
#
# Bulk Modulus (GPa) = 37.21636 49.78435 43.50035
# Shear Modulus (GPa) = 25.14217 30.45700 27.79958
#
# Velocity S-wave (km/s) = 3.48305 3.83356 3.66250
# Velocity P-wave (km/s) = 5.84237 6.60432 6.23499
#
# Compressibility (1/GPa) = 0.02686991
#
# Stress axis : x y z
#
# Youngs Moduli (GPa) = 120.43489 39.04228 90.19464
#
# Poissons Ratio (x) = 0.12825 0.15339
# Poissons Ratio (y) = 0.39561 0.36812
# Poissons Ratio (z) = 0.20481 0.15935
#
# Static dielectric constant tensor:
#      x y z
#    x 3.900400 0.000000 -0.092710 
#    y 0.000000 3.409620 0.000000 
#    z -0.092710 0.000000 4.049370 
# 
# 
# High freq. dielectric constant tensor:
#      x y z
#    x 1.828950 0.000000 -0.005820 
#    y 0.000000 1.771690 0.000000 
#    z -0.005820 0.000000 1.827910 
# 
# From -- ./inp_files/82453.got.cif
#   From: 2010.06.25/outbox.cif.g09.slc.cpg/sg15_42_cif.got.tgz:82453.got - 2010.06.28 07:06:18.
