data_PCOD8135934
_publ_section_title
;
Structure prediction by ZEFSAII (Michael W. Deem and Ramdas Pophale) SiO2 
 PCOD8135934
Probable space group: C 2/C
;
_chemical_formula_sum "Si O2"
_cell_formula_units_Z 52
_cell_length_a 17.094904
_cell_length_b 13.908998
_cell_length_c 13.707138
_cell_angle_alpha 90.000000
_cell_angle_beta 45.900607
_cell_angle_gamma 90.000000
_cell_volume 2340.532013
_symmetry_space_group_name_H-M "C 2/C"
_symmetry_group_IT_number 15
_symmetry_cell_setting 'monoclinic'
loop_
_space_group_symop_operation_xyz
x,y,z
-x,y,1/2-z
-x,-y,-z
x,-y,1/2+z
1/2+x,1/2+y,z
1/2-x,1/2+y,1/2-z
1/2-x,1/2-y,-z
1/2+x,1/2-y,1/2+z
loop_
_atom_site_type_symbol
_atom_site_label
_atom_site_fract_x
_atom_site_fract_y
_atom_site_fract_z
Si Si1 0.410235 0.564880 0.527844
Si Si2 0.325560 0.629760 0.872926
Si Si3 0.461679 0.963954 0.183758
Si Si4 0.500000 0.525710 0.250000
Si Si5 0.396632 0.889195 0.045566
Si Si6 0.268693 0.088942 0.346233
Si Si7 0.593515 0.243642 0.345414
O O1 0.500000 0.500000 0.500000
O O2 0.448110 0.587447 0.383483
O O3 0.301899 0.499811 0.632067
O O4 0.390957 0.668219 0.593324
O O5 0.400603 0.536569 0.792711
O O6 0.224446 0.626820 0.886477
O O7 0.396538 0.720124 0.775189
O O8 0.294106 0.645137 0.012989
O O9 0.500000 0.909077 0.250000
O O10 0.398257 0.895957 0.162712
O O11 0.380129 0.046274 0.294418
O O12 0.562341 0.011553 0.038430
O O13 0.473071 0.798425 0.957064
O O14 0.308914 0.163341 0.225946
#
# Coordination Sequence:
#
# PCOD8135934 Si02
#       7
#     8   8   8   4   8   8   8
#     4  11  23  45  65  94 139 178 220 276 336 404
#     4  11  21  40  65  96 132 166 220 286 330 392
#     4  10  19  41  64  93 128 168 217 276 332 395
#     4  10  24  42  68  98 128 184 230 266 332 406
#     4  10  23  38  64  96 129 171 219 273 338 391
#     4  10  23  40  67  99 126 171 224 278 336 393
#     4  11  24  40  65  99 134 173 221 274 341 396
#
# _framework density 22.217171
#
# number of rings (size 3 to 8) (size 9 to 14) (size 15 to 20)
#    0.000    1.538    3.077    1.385    2.154    1.231 
#    1.385    0.000    0.000    2.769    0.000    0.000 
#    0.000    0.000    0.000    0.000    0.000    0.000 
#
# Total GULP energy -322149.245993 kJ/mol
# GULP energy per Si atom -12390.355615 kJ/mol
# Density = 2.216660 g / cm^3
# Si number density = 22.217171 Si / 1000 Ang^3
#
#
#
# Elastic Constant Matrix: (Units=GPa)
#
#
# Indices 1 2 3 4 5 6 
#
# 1 128.2945 50.1312 50.0338 0.0000 1.7762 0.0000
# 2 50.1312 97.1596 60.0147 0.0000 1.2043 0.0000
# 3 50.0338 60.0147 118.8988 0.0000 -2.0733 0.0000
# 4 0.0000 0.0000 0.0000 35.8554 0.0000 5.8305
# 5 1.7762 1.2043 -2.0733 0.0000 20.9709 0.0000
# 6 0.0000 0.0000 0.0000 5.8305 0.0000 26.1442
#
#
#
# Elastic Compliance Matrix: (Units=1/GPa)
#
#
# Indices 1 2 3 4 5 6 
#
# 1 0.010222 -0.003773 -0.002413 0.000000 -0.000888 0.000000
# 2 -0.003773 0.016402 -0.006714 0.000000 -0.001286 0.000000
# 3 -0.002413 -0.006714 0.012847 0.000000 0.001860 0.000000
# 4 0.000000 0.000000 0.000000 0.028939 0.000000 -0.006454
# 5 -0.000888 -0.001286 0.001860 0.000000 0.048018 0.000000
# 6 0.000000 0.000000 0.000000 -0.006454 0.000000 0.039689
#
#
# Mechanical properties :
#
#
# Convention : Reuss Voigt Hill
#
# Bulk Modulus (GPa) = 73.13974 73.85691 73.49833
# Shear Modulus (GPa) = 26.81350 28.87231 27.84291
#
# Velocity S-wave (km/s) = 3.47779 3.60884 3.54392
# Velocity P-wave (km/s) = 7.00846 7.11901 7.06395
#
# Compressibility (1/GPa) = 0.01367246
#
# Stress axis : x y z
#
# Youngs Moduli (GPa) = 97.82773 60.96798 77.83945
#
# Poissons Ratio (x) = 0.23003 0.18779
# Poissons Ratio (y) = 0.36911 0.52259
# Poissons Ratio (z) = 0.23602 0.40932
#
# Static dielectric constant tensor:
#      x y z
#    x 3.654010 0.000000 0.324930 
#    y 0.000000 3.870890 0.000000 
#    z 0.324930 0.000000 3.987730 
# 
# 
# High freq. dielectric constant tensor:
#      x y z
#    x 1.861390 0.000000 -0.009120 
#    y 0.000000 1.844190 0.000000 
#    z -0.009120 0.000000 1.902920 
# 
# From -- ./inp_files/162468.got.cif
#   From: 2010.06.25/outbox.cif.g09.slc.cpg/sg15_82_cif.got.tgz:162468.got - 2010.06.28 07:06:18.
