data_PCOD8135273
_publ_section_title
;
Structure prediction by ZEFSAII (Michael W. Deem and Ramdas Pophale) SiO2 
 PCOD8135273
Probable space group: C 2/C
;
_chemical_formula_sum "Si O2"
_cell_formula_units_Z 56
_cell_length_a 29.669246
_cell_length_b 11.993290
_cell_length_c 8.997088
_cell_angle_alpha 90.000000
_cell_angle_beta 62.275448
_cell_angle_gamma 90.000000
_cell_volume 2833.906047
_symmetry_space_group_name_H-M "C 2/C"
_symmetry_group_IT_number 15
_symmetry_cell_setting 'monoclinic'
loop_
_space_group_symop_operation_xyz
x,y,z
-x,y,1/2-z
-x,-y,-z
x,-y,1/2+z
1/2+x,1/2+y,z
1/2-x,1/2+y,1/2-z
1/2-x,1/2-y,-z
1/2+x,1/2-y,1/2+z
loop_
_atom_site_type_symbol
_atom_site_label
_atom_site_fract_x
_atom_site_fract_y
_atom_site_fract_z
Si Si1 0.606549 0.296911 0.946503
Si Si2 0.177750 0.603796 0.800617
Si Si3 0.481304 0.659472 0.126704
Si Si4 0.803223 0.384070 0.571211
Si Si5 0.208313 0.141937 0.826770
Si Si6 0.453212 0.585598 0.722504
Si Si7 0.691177 0.554803 0.168649
O O1 0.632818 0.178454 0.939170
O O2 0.556825 0.270734 0.919705
O O3 0.643589 0.376605 0.798442
O O4 0.595106 0.357454 0.122386
O O5 0.170445 0.477014 0.866435
O O6 0.174226 0.608475 0.628238
O O7 0.230801 0.653668 0.778758
O O8 0.500000 0.721159 0.250000
O O9 0.449445 0.548092 0.220352
O O10 0.534649 0.631203 0.961157
O O11 0.816742 0.263700 0.620545
O O12 0.742388 0.396855 0.664236
O O13 0.185907 0.076691 0.718052
O O14 0.194377 0.063529 0.987308
O O15 0.500000 0.623301 0.750000
#
# Coordination Sequence:
#
# PCOD8135273 Si02
#       7
#     8   8   8   8   8   8   8
#     4  11  19  32  54  84 113 144 191 233 272 348
#     4  10  20  36  57  78 108 160 201 236 274 334
#     4   9  18  35  53  78 114 147 171 228 305 348
#     4  10  19  39  53  73 122 162 193 238 285 314
#     4  10  19  38  53  77 122 155 191 237 293 319
#     4   8  17  32  51  77 115 144 172 228 302 353
#     4  10  20  33  54  83 114 156 192 236 283 334
#
# _framework density 19.760712000000002
#
# number of rings (size 3 to 8) (size 9 to 14) (size 15 to 20)
#    0.000    2.286    2.857    1.714    2.000    0.000 
#    2.571    4.286    0.000    0.000    0.000   13.000 
#    0.000    1.143    0.000    0.000    0.000    0.000 
#
# Total GULP energy -347050.819136 kJ/mol
# GULP energy per Si atom -12394.672112 kJ/mol
# Density = 1.971574 g / cm^3
# Si number density = 19.760712 Si / 1000 Ang^3
#
#
#
# Elastic Constant Matrix: (Units=GPa)
#
#
# Indices 1 2 3 4 5 6 
#
# 1 46.3750 27.0367 23.8169 0.0000 -2.2547 0.0000
# 2 27.0367 118.9310 35.7907 0.0000 3.5051 0.0000
# 3 23.8169 35.7907 85.4458 0.0000 -5.9234 0.0000
# 4 0.0000 0.0000 0.0000 31.4300 0.0000 -2.9661
# 5 -2.2547 3.5051 -5.9234 0.0000 19.2237 0.0000
# 6 0.0000 0.0000 0.0000 -2.9661 0.0000 21.2266
#
#
#
# Elastic Compliance Matrix: (Units=1/GPa)
#
#
# Indices 1 2 3 4 5 6 
#
# 1 0.027174 -0.004595 -0.005488 0.000000 0.002334 0.000000
# 2 -0.004595 0.010578 -0.003393 0.000000 -0.003513 0.000000
# 3 -0.005488 -0.003393 0.014973 0.000000 0.004589 0.000000
# 4 0.000000 0.000000 0.000000 0.032242 0.000000 0.004505
# 5 0.002334 -0.003513 0.004589 0.000000 0.054347 0.000000
# 6 0.000000 0.000000 0.000000 0.004505 0.000000 0.047740
#
#
# Mechanical properties :
#
#
# Convention : Reuss Voigt Hill
#
# Bulk Modulus (GPa) = 38.80217 47.11559 42.95888
# Shear Modulus (GPa) = 22.46215 25.31654 23.88934
#
# Velocity S-wave (km/s) = 3.37517 3.58321 3.48074
# Velocity P-wave (km/s) = 5.90488 6.40422 6.15961
#
# Compressibility (1/GPa) = 0.02577176
#
# Stress axis : x y z
#
# Youngs Moduli (GPa) = 36.79979 94.54017 66.78891
#
# Poissons Ratio (x) = 0.43439 0.36654
# Poissons Ratio (y) = 0.16909 0.22664
# Poissons Ratio (z) = 0.20196 0.32082
#
# Static dielectric constant tensor:
#      x y z
#    x 3.390070 0.000000 0.002160 
#    y 0.000000 3.524850 0.000000 
#    z 0.002160 0.000000 3.949300 
# 
# 
# High freq. dielectric constant tensor:
#      x y z
#    x 1.741340 0.000000 0.004360 
#    y 0.000000 1.738770 0.000000 
#    z 0.004360 0.000000 1.779790 
# 
# From -- ./inp_files/69296.got.cif
#   From: 2010.06.25/outbox.cif.g09.slc.cpg/sg15_35_cif.got.tgz:69296.got - 2010.06.28 07:06:18.
