data_PCOD8135491
_publ_section_title
;
Structure prediction by ZEFSAII (Michael W. Deem and Ramdas Pophale) SiO2 
 PCOD8135491
Probable space group: C 2/C
;
_chemical_formula_sum "Si O2"
_cell_formula_units_Z 52
_cell_length_a 33.451854
_cell_length_b 13.453401
_cell_length_c 19.241403
_cell_angle_alpha 90.000000
_cell_angle_beta 18.085884
_cell_angle_gamma 90.000000
_cell_volume 2688.251058
_symmetry_space_group_name_H-M "C 2/C"
_symmetry_group_IT_number 15
_symmetry_cell_setting 'monoclinic'
loop_
_space_group_symop_operation_xyz
x,y,z
-x,y,1/2-z
-x,-y,-z
x,-y,1/2+z
1/2+x,1/2+y,z
1/2-x,1/2+y,1/2-z
1/2-x,1/2-y,-z
1/2+x,1/2-y,1/2+z
loop_
_atom_site_type_symbol
_atom_site_label
_atom_site_fract_x
_atom_site_fract_y
_atom_site_fract_z
Si Si1 0.355367 0.499549 0.956482
Si Si2 0.291490 0.285916 0.008040
Si Si3 0.120308 0.774249 0.906064
Si Si4 0.224043 0.456373 0.814892
Si Si5 0.000000 0.338484 0.250000
Si Si6 0.835567 0.205249 0.917097
Si Si7 0.349642 0.843846 0.014294
O O1 0.500000 0.502734 0.750000
O O2 0.331126 0.401562 0.949839
O O3 0.331529 0.588606 0.941095
O O4 0.249609 0.510666 0.192824
O O5 0.407734 0.225089 0.851888
O O6 0.250000 0.250000 0.000000
O O7 0.158754 0.265478 0.267461
O O8 0.159674 0.888501 0.851579
O O9 0.188319 0.702839 0.849155
O O10 0.971981 0.763267 0.163222
O O11 0.085919 0.402519 0.053956
O O12 0.223543 0.551328 0.867037
O O13 0.791599 0.265073 0.057372
O O14 0.750000 0.250000 0.000000
O O15 0.500000 0.859173 0.750000
#
# Coordination Sequence:
#
# PCOD8135491 Si02
#       7
#     8   8   8   8   4   8   8
#     4  12  22  44  70  96 127 183 226 264 337 400
#     4  11  25  44  67  99 139 167 226 283 337 404
#     4  10  21  41  63  91 129 174 220 272 323 396
#     4  11  20  38  69  93 124 175 228 263 327 406
#     4  10  24  42  66  98 132 186 218 270 346 394
#     4  11  24  41  62  98 133 168 224 275 328 394
#     4  10  19  38  64  89 124 170 219 264 321 400
#
# _framework density 19.343432
#
# number of rings (size 3 to 8) (size 9 to 14) (size 15 to 20)
#    0.000    1.231    6.154    0.462    0.000    3.692 
#    2.769    3.077    0.000    0.000    0.000    0.000 
#    0.000    0.000    0.000    0.000    0.000    0.000 
#
# Total GULP energy -322132.353770 kJ/mol
# GULP energy per Si atom -12389.705914 kJ/mol
# Density = 1.929941 g / cm^3
# Si number density = 19.343432 Si / 1000 Ang^3
#
#
#
# Elastic Constant Matrix: (Units=GPa)
#
#
# Indices 1 2 3 4 5 6 
#
# 1 136.0591 67.9504 53.4098 -0.0001 7.7548 0.0000
# 2 67.9504 162.7306 39.1528 -0.0001 -3.5947 0.0001
# 3 53.4098 39.1528 70.4176 -0.0001 14.5983 0.0001
# 4 -0.0001 -0.0001 -0.0001 28.5014 0.0000 5.7471
# 5 7.7548 -3.5947 14.5983 0.0000 30.7758 0.0000
# 6 0.0000 0.0001 0.0001 5.7471 0.0000 36.4066
#
#
#
# Elastic Compliance Matrix: (Units=1/GPa)
#
#
# Indices 1 2 3 4 5 6 
#
# 1 0.011742 -0.003181 -0.007149 0.000000 0.000061 0.000000
# 2 -0.003181 0.008214 -0.002794 0.000000 0.003086 0.000000
# 3 -0.007149 -0.002794 0.023147 0.000000 -0.009505 0.000000
# 4 0.000000 0.000000 0.000000 0.036239 0.000000 -0.005721
# 5 0.000061 0.003086 -0.009505 0.000000 0.037347 0.000000
# 6 0.000000 0.000000 0.000000 -0.005721 0.000000 0.028371
#
#
# Mechanical properties :
#
#
# Convention : Reuss Voigt Hill
#
# Bulk Modulus (GPa) = 59.33442 76.69259 68.01350
# Shear Modulus (GPa) = 28.26024 33.04974 30.65499
#
# Velocity S-wave (km/s) = 3.82642 4.13798 3.98524
# Velocity P-wave (km/s) = 7.08962 7.90977 7.51090
#
# Compressibility (1/GPa) = 0.01685362
#
# Stress axis : x y z
#
# Youngs Moduli (GPa) = 85.16716 121.74455 43.20123
#
# Poissons Ratio (x) = 0.38731 0.30887
# Poissons Ratio (y) = 0.27095 0.12070
# Poissons Ratio (z) = 0.60890 0.34014
#
# Static dielectric constant tensor:
#      x y z
#    x 3.195350 0.000000 0.331210 
#    y 0.000000 3.857640 0.000000 
#    z 0.331210 0.000000 3.628230 
# 
# 
# High freq. dielectric constant tensor:
#      x y z
#    x 1.730220 0.000000 0.025180 
#    y 0.000000 1.774290 0.000000 
#    z 0.025180 0.000000 1.760730 
# 
# From -- ./inp_files/225449.got.cif
#   From: 2010.06.25/outbox.cif.g09.slc.cpg/sg15_113_cif.got.tgz:225449.got - 2010.06.28 07:06:18.
