data_PCOD8135602
_publ_section_title
;
Structure prediction by ZEFSAII (Michael W. Deem and Ramdas Pophale) SiO2 
 PCOD8135602
Probable space group: C 2/C
;
_chemical_formula_sum "Si O2"
_cell_formula_units_Z 64
_cell_length_a 21.251150
_cell_length_b 19.133708
_cell_length_c 17.595475
_cell_angle_alpha 90.000000
_cell_angle_beta 26.378484
_cell_angle_gamma 90.000000
_cell_volume 3178.759713
_symmetry_space_group_name_H-M "C 2/C"
_symmetry_group_IT_number 15
_symmetry_cell_setting 'monoclinic'
loop_
_space_group_symop_operation_xyz
x,y,z
-x,y,1/2-z
-x,-y,-z
x,-y,1/2+z
1/2+x,1/2+y,z
1/2-x,1/2+y,1/2-z
1/2-x,1/2-y,-z
1/2+x,1/2-y,1/2+z
loop_
_atom_site_type_symbol
_atom_site_label
_atom_site_fract_x
_atom_site_fract_y
_atom_site_fract_z
Si Si1 0.681097 0.444538 0.336341
Si Si2 0.156593 0.945323 0.104062
Si Si3 0.914707 0.355585 0.018291
Si Si4 0.087384 0.758146 0.391185
Si Si5 0.608639 0.453491 0.785102
Si Si6 0.316379 0.938504 0.776962
Si Si7 0.756091 0.198812 0.921675
Si Si8 0.312826 0.336035 0.701918
O O1 0.557568 0.430181 0.532340
O O2 0.615901 0.480787 0.333266
O O3 0.804290 0.491811 0.240032
O O4 0.758139 0.374327 0.221846
O O5 0.209678 0.880446 0.095092
O O6 0.000000 0.925492 0.250000
O O7 0.157253 0.018594 0.150356
O O8 0.255356 0.955493 0.925175
O O9 0.989319 0.310285 0.001955
O O10 0.017047 0.421541 0.891682
O O11 0.890585 0.309340 0.967649
O O12 0.130558 0.767201 0.257072
O O13 0.220397 0.736439 0.303107
O O14 0.983234 0.822212 0.525607
O O15 0.711781 0.389553 0.700716
O O16 0.226243 0.875486 0.835034
O O17 0.750000 0.250000 0.000000
#
# Coordination Sequence:
#
# PCOD8135602 Si02
#       8
#     8   8   8   8   8   8   8   8
#     4  10  19  39  58  85 113 162 209 256 301 352
#     4  12  23  39  58  89 120 162 207 250 303 363
#     4  11  22  38  57  86 122 166 204 247 301 355
#     4  11  22  38  57  87 118 160 203 242 302 364
#     4  10  21  36  62  82 118 158 206 257 303 353
#     4  10  22  37  61  87 123 156 206 250 304 368
#     4  12  25  37  55  83 131 170 197 237 296 372
#     4  10  21  38  60  89 120 156 204 252 297 367
#
# _framework density 20.133638000000001
#
# number of rings (size 3 to 8) (size 9 to 14) (size 15 to 20)
#    0.000    1.250    3.750    3.375    3.500    1.500 
#    0.000    0.000    0.000    0.000    0.000    3.500 
#    0.000    0.000    0.000    0.000    0.000    0.000 
#
# Total GULP energy -396469.075110 kJ/mol
# GULP energy per Si atom -12389.658597 kJ/mol
# Density = 2.008781 g / cm^3
# Si number density = 20.133638 Si / 1000 Ang^3
#
#
#
# Elastic Constant Matrix: (Units=GPa)
#
#
# Indices 1 2 3 4 5 6 
#
# 1 62.3481 26.1413 32.5760 0.0055 -5.3586 0.0062
# 2 26.1413 64.2556 19.5709 0.0035 10.9081 -0.0071
# 3 32.5760 19.5709 82.7960 0.0019 -1.4688 0.0031
# 4 0.0055 0.0035 0.0019 34.0788 -0.0039 4.3034
# 5 -5.3586 10.9081 -1.4688 -0.0039 22.9457 -0.0028
# 6 0.0062 -0.0071 0.0031 4.3034 -0.0028 134.8223
#
#
#
# Elastic Compliance Matrix: (Units=1/GPa)
#
#
# Indices 1 2 3 4 5 6 
#
# 1 0.024663 -0.009477 -0.007290 -0.000001 0.009798 -0.000001
# 2 -0.009477 0.022125 -0.001729 -0.000002 -0.012842 0.000001
# 3 -0.007290 -0.001729 0.015357 0.000001 0.000102 0.000000
# 4 -0.000001 -0.000002 0.000001 0.029462 0.000006 -0.000940
# 5 0.009798 -0.012842 0.000102 0.000006 0.051981 0.000000
# 6 -0.000001 0.000001 0.000000 -0.000940 0.000000 0.007447
#
#
# Mechanical properties :
#
#
# Convention : Reuss Voigt Hill
#
# Bulk Modulus (GPa) = 39.75577 40.66397 40.20987
# Shear Modulus (GPa) = 25.45678 47.11015 36.28346
#
# Velocity S-wave (km/s) = 3.55968 4.84247 4.24976
# Velocity P-wave (km/s) = 6.05673 7.17683 6.64044
#
# Compressibility (1/GPa) = 0.02515358
#
# Stress axis : x y z
#
# Youngs Moduli (GPa) = 40.54581 45.19773 65.11873
#
# Poissons Ratio (x) = 0.42834 0.47471
# Poissons Ratio (y) = 0.38425 0.11258
# Poissons Ratio (z) = 0.29557 0.07814
#
# Static dielectric constant tensor:
#      x y z
#    x 3.675380 -0.000010 -0.359970 
#    y -0.000010 3.798120 0.000020 
#    z -0.359970 0.000020 3.775400 
# 
# 
# High freq. dielectric constant tensor:
#      x y z
#    x 1.765760 0.000000 -0.032590 
#    y 0.000000 1.790370 0.000000 
#    z -0.032590 0.000000 1.773000 
# 
# From -- ./inp_files/216166.got.cif
#   From: 2010.06.25/outbox.cif.g09.slc.cpg/sg15_109_cif.got.tgz:216166.got - 2010.06.28 07:06:18.
