data_PCOD8135141
_publ_section_title
;
Structure prediction by ZEFSAII (Michael W. Deem and Ramdas Pophale) SiO2 
 PCOD8135141
Probable space group: C 2/C
;
_chemical_formula_sum "Si O2"
_cell_formula_units_Z 56
_cell_length_a 8.976402
_cell_length_b 28.350349
_cell_length_c 21.279295
_cell_angle_alpha 90.000000
_cell_angle_beta 151.067850
_cell_angle_gamma 90.000000
_cell_volume 2619.751268
_symmetry_space_group_name_H-M "C 2/C"
_symmetry_group_IT_number 15
_symmetry_cell_setting 'monoclinic'
loop_
_space_group_symop_operation_xyz
x,y,z
-x,y,1/2-z
-x,-y,-z
x,-y,1/2+z
1/2+x,1/2+y,z
1/2-x,1/2+y,1/2-z
1/2-x,1/2-y,-z
1/2+x,1/2-y,1/2+z
loop_
_atom_site_type_symbol
_atom_site_label
_atom_site_fract_x
_atom_site_fract_y
_atom_site_fract_z
Si Si1 0.834479 0.654711 0.843584
Si Si2 0.848946 0.212598 0.451239
Si Si3 0.860664 0.555637 0.887485
Si Si4 0.206512 0.769822 0.202732
Si Si5 0.132523 0.548341 0.121316
Si Si6 0.455238 0.878933 0.803756
Si Si7 0.938971 0.192735 0.107988
O O1 0.500000 0.654030 0.750000
O O2 0.956437 0.600682 0.879864
O O3 0.824100 0.680193 0.772808
O O4 0.074835 0.682657 0.977318
O O5 0.589399 0.252211 0.366797
O O6 0.708895 0.160899 0.412136
O O7 0.133320 0.221117 0.603016
O O8 0.968088 0.216642 0.424264
O O9 0.500000 0.549507 0.750000
O O10 0.993696 0.505252 0.913507
O O11 0.972828 0.567650 0.999377
O O12 0.474254 0.730386 0.306382
O O13 0.500000 0.551180 0.250000
O O14 0.011700 0.578805 0.134987
O O15 0.500000 0.899317 0.750000
O O16 0.116912 0.856184 0.684850
#
# Coordination Sequence:
#
# PCOD8135141 Si02
#       7
#     8   8   8   8   8   8   8
#     4  11  22  35  57  83 117 152 198 246 291 348
#     4   9  20  37  59  86 116 155 187 238 304 350
#     4   9  21  36  57  88 122 155 194 254 309 345
#     4  10  20  36  59  83 115 151 192 238 291 357
#     4  10  19  37  63  88 120 158 200 251 305 358
#     4   9  19  36  63  88 118 157 199 240 294 367
#     4  10  20  39  57  82 120 153 192 244 295 345
#
# _framework density 21.376075
#
# number of rings (size 3 to 8) (size 9 to 14) (size 15 to 20)
#    0.000    2.286    0.000    3.429    4.000    0.571 
#    2.571    1.429    3.143    9.429    0.000    0.000 
#    0.000    0.000    0.000    0.000    0.000    0.000 
#
# Total GULP energy -347104.036081 kJ/mol
# GULP energy per Si atom -12396.572717 kJ/mol
# Density = 2.132742 g / cm^3
# Si number density = 21.376075 Si / 1000 Ang^3
#
#
#
# Elastic Constant Matrix: (Units=GPa)
#
#
# Indices 1 2 3 4 5 6 
#
# 1 74.0678 51.5957 35.9454 -0.0002 -10.1525 -0.0005
# 2 51.5957 141.7379 48.9898 -0.0003 -21.2832 0.0000
# 3 35.9454 48.9898 145.6941 -0.0018 -19.2510 -0.0001
# 4 -0.0002 -0.0003 -0.0018 27.9110 -0.0002 -7.0828
# 5 -10.1525 -21.2832 -19.2510 -0.0002 33.7425 -0.0005
# 6 -0.0005 0.0000 -0.0001 -7.0828 -0.0005 31.5072
#
#
#
# Elastic Compliance Matrix: (Units=1/GPa)
#
#
# Indices 1 2 3 4 5 6 
#
# 1 0.018968 -0.005927 -0.002625 0.000000 0.000471 0.000000
# 2 -0.005927 0.010310 -0.001493 0.000000 0.003868 0.000000
# 3 -0.002625 -0.001493 0.008419 0.000001 0.003072 0.000000
# 4 0.000000 0.000000 0.000001 0.037996 0.000001 0.008541
# 5 0.000471 0.003868 0.003072 0.000001 0.033970 0.000001
# 6 0.000000 0.000000 0.000000 0.008541 0.000001 0.033659
#
#
# Mechanical properties :
#
#
# Convention : Reuss Voigt Hill
#
# Bulk Modulus (GPa) = 56.79404 70.50682 63.65043
# Shear Modulus (GPa) = 29.53679 33.63008 31.58343
#
# Velocity S-wave (km/s) = 3.72125 3.97073 3.84801
# Velocity P-wave (km/s) = 6.71493 7.35377 7.04160
#
# Compressibility (1/GPa) = 0.01760748
#
# Stress axis : x y z
#
# Youngs Moduli (GPa) = 52.71993 96.99597 118.77542
#
# Poissons Ratio (x) = 0.57489 0.31174
# Poissons Ratio (y) = 0.31247 0.17737
# Poissons Ratio (z) = 0.13837 0.14485
#
# Static dielectric constant tensor:
#      x y z
#    x 3.375450 0.000000 -0.039480 
#    y 0.000000 4.298590 0.000000 
#    z -0.039480 0.000000 4.210040 
# 
# 
# High freq. dielectric constant tensor:
#      x y z
#    x 1.799810 0.000000 -0.003160 
#    y 0.000000 1.842880 0.000000 
#    z -0.003160 0.000000 1.864510 
# 
# From -- ./inp_files/234964.got.cif
#   From: 2010.06.25/outbox.cif.g09.slc.cpg/sg15_118_cif.got.tgz:234964.got - 2010.06.28 07:06:18.
