data_PCOD8135643
_publ_section_title
;
Structure prediction by ZEFSAII (Michael W. Deem and Ramdas Pophale) SiO2 
 PCOD8135643
Probable space group: C 2/C
;
_chemical_formula_sum "Si O2"
_cell_formula_units_Z 56
_cell_length_a 23.518771
_cell_length_b 9.157755
_cell_length_c 16.705670
_cell_angle_alpha 90.000000
_cell_angle_beta 131.496658
_cell_angle_gamma 90.000000
_cell_volume 2694.921350
_symmetry_space_group_name_H-M "C 2/C"
_symmetry_group_IT_number 15
_symmetry_cell_setting 'monoclinic'
loop_
_space_group_symop_operation_xyz
x,y,z
-x,y,1/2-z
-x,-y,-z
x,-y,1/2+z
1/2+x,1/2+y,z
1/2-x,1/2+y,1/2-z
1/2-x,1/2-y,-z
1/2+x,1/2-y,1/2+z
loop_
_atom_site_type_symbol
_atom_site_label
_atom_site_fract_x
_atom_site_fract_y
_atom_site_fract_z
Si Si1 0.225785 0.626354 0.417159
Si Si2 0.834304 0.934423 0.810513
Si Si3 0.113776 0.898539 0.470209
Si Si4 0.579576 0.915646 0.869130
Si Si5 0.194785 0.732524 0.211193
Si Si6 0.050715 0.395774 0.494432
Si Si7 0.488275 0.413698 0.906351
O O1 0.250000 0.750000 0.500000
O O2 0.304614 0.533328 0.482888
O O3 0.151749 0.539340 0.380170
O O4 0.206123 0.700035 0.314665
O O5 0.762564 0.834988 0.720245
O O6 0.898660 0.936315 0.800267
O O7 0.805700 0.095797 0.805291
O O8 0.875317 0.861122 0.925780
O O9 0.088357 0.753233 0.400680
O O10 0.045905 0.016328 0.394950
O O11 0.500000 0.939790 0.750000
O O12 0.583843 0.019202 0.949563
O O13 0.117226 0.660050 0.112699
O O14 0.000000 0.500000 0.500000
O O15 0.001778 0.258250 0.421082
O O16 0.500000 0.500000 0.000000
#
# Coordination Sequence:
#
# PCOD8135643 Si02
#       7
#     8   8   8   8   8   8   8
#     4   9  21  39  61  88 128 170 217 265 324 398
#     4  10  22  36  64  98 130 158 217 272 330 381
#     4   9  19  41  63  87 127 169 221 271 317 395
#     4  11  24  41  64  93 133 179 222 267 336 399
#     4  11  23  39  66  97 128 170 219 274 329 384
#     4  12  24  38  67  95 129 169 222 277 326 384
#     4  10  19  39  61  91 127 160 211 276 323 381
#
# _framework density 20.779827000000001
#
# number of rings (size 3 to 8) (size 9 to 14) (size 15 to 20)
#    0.000    1.714    2.857    2.571   10.000    0.000 
#    0.000    1.429    0.000    0.000    0.000    0.000 
#    0.000    0.000    0.000    0.000    0.000    0.000 
#
# Total GULP energy -346948.387628 kJ/mol
# GULP energy per Si atom -12391.013844 kJ/mol
# Density = 2.073253 g / cm^3
# Si number density = 20.779827 Si / 1000 Ang^3
#
#
#
# Elastic Constant Matrix: (Units=GPa)
#
#
# Indices 1 2 3 4 5 6 
#
# 1 161.8116 55.8360 31.5737 0.0000 42.6252 0.0000
# 2 55.8360 109.6245 27.2176 0.0000 21.4409 0.0000
# 3 31.5737 27.2176 70.0942 0.0000 17.5463 0.0000
# 4 0.0000 0.0000 0.0000 29.9001 0.0000 6.6757
# 5 42.6252 21.4409 17.5463 0.0000 46.9668 0.0000
# 6 0.0000 0.0000 0.0000 6.6757 0.0000 31.2845
#
#
#
# Elastic Compliance Matrix: (Units=1/GPa)
#
#
# Indices 1 2 3 4 5 6 
#
# 1 0.009206 -0.003098 -0.001331 0.000000 -0.006444 0.000000
# 2 -0.003098 0.011678 -0.002767 0.000000 -0.001485 0.000000
# 3 -0.001331 -0.002767 0.016903 0.000000 -0.003844 0.000000
# 4 0.000000 0.000000 0.000000 0.035118 0.000000 -0.007494
# 5 -0.006444 -0.001485 -0.003844 0.000000 0.029254 0.000000
# 6 0.000000 0.000000 0.000000 -0.007494 0.000000 0.033564
#
#
# Mechanical properties :
#
#
# Convention : Reuss Voigt Hill
#
# Bulk Modulus (GPa) = 42.74584 63.42055 53.08319
# Shear Modulus (GPa) = 31.66319 36.75714 34.21017
#
# Velocity S-wave (km/s) = 3.90775 4.21038 4.06188
# Velocity P-wave (km/s) = 6.40127 7.36362 6.89924
#
# Compressibility (1/GPa) = 0.02339409
#
# Stress axis : x y z
#
# Youngs Moduli (GPa) = 108.62146 85.63344 59.16265
#
# Poissons Ratio (x) = 0.26533 0.07874
# Poissons Ratio (y) = 0.33656 0.16370
# Poissons Ratio (z) = 0.14456 0.23694
#
# Static dielectric constant tensor:
#      x y z
#    x 4.915520 0.000000 0.580450 
#    y 0.000000 3.473440 0.000000 
#    z 0.580450 0.000000 3.750230 
# 
# 
# High freq. dielectric constant tensor:
#      x y z
#    x 1.834510 0.000000 0.031610 
#    y 0.000000 1.794510 0.000000 
#    z 0.031610 0.000000 1.799490 
# 
# From -- ./inp_files/218677.got.cif
#   From: 2010.06.25/outbox.cif.g09.slc.cpg/sg15_110_cif.got.tgz:218677.got - 2010.06.28 07:06:18.
