data_PCOD8135613
_publ_section_title
;
Structure prediction by ZEFSAII (Michael W. Deem and Ramdas Pophale) SiO2 
 PCOD8135613
Probable space group: C 2/C
;
_chemical_formula_sum "Si O2"
_cell_formula_units_Z 56
_cell_length_a 20.926929
_cell_length_b 9.585240
_cell_length_c 18.844758
_cell_angle_alpha 90.000000
_cell_angle_beta 124.345014
_cell_angle_gamma 90.000000
_cell_volume 3121.029223
_symmetry_space_group_name_H-M "C 2/C"
_symmetry_group_IT_number 15
_symmetry_cell_setting 'monoclinic'
loop_
_space_group_symop_operation_xyz
x,y,z
-x,y,1/2-z
-x,-y,-z
x,-y,1/2+z
1/2+x,1/2+y,z
1/2-x,1/2+y,1/2-z
1/2-x,1/2-y,-z
1/2+x,1/2-y,1/2+z
loop_
_atom_site_type_symbol
_atom_site_label
_atom_site_fract_x
_atom_site_fract_y
_atom_site_fract_z
Si Si1 0.320448 0.499049 0.398919
Si Si2 0.608372 0.594227 0.199061
Si Si3 0.587856 0.393833 0.303526
Si Si4 0.827017 0.380932 0.032391
Si Si5 0.427609 0.615610 0.084516
Si Si6 0.300886 0.156812 0.081851
Si Si7 0.732484 0.746766 0.365373
O O1 0.352305 0.584645 0.352406
O O2 0.393106 0.465318 0.495437
O O3 0.254403 0.594402 0.392394
O O4 0.283587 0.351651 0.348974
O O5 0.612539 0.446406 0.241282
O O6 0.519207 0.636844 0.135865
O O7 0.654701 0.708397 0.275194
O O8 0.500000 0.345055 0.250000
O O9 0.599827 0.524084 0.365111
O O10 0.634737 0.254562 0.344787
O O11 0.898939 0.275069 0.073289
O O12 0.847401 0.540873 0.064094
O O13 0.774655 0.335291 0.066208
O O14 0.781078 0.385203 0.927189
O O15 0.250000 0.250000 0.000000
#
# Coordination Sequence:
#
# PCOD8135613 Si02
#       7
#     8   8   8   8   8   8   8
#     4  10  22  35  56  83 115 146 189 230 288 342
#     4  11  21  34  59  82 114 149 187 237 284 338
#     4  10  21  36  55  83 110 143 187 235 283 332
#     4   9  18  35  58  79 106 141 191 233 269 329
#     4  10  19  39  59  81 108 150 194 231 277 341
#     4  11  20  36  60  81 107 148 185 233 281 337
#     4   9  18  34  53  81 106 141 187 233 271 328
#
# _framework density 17.942799000000001
#
# number of rings (size 3 to 8) (size 9 to 14) (size 15 to 20)
#    0.000    2.000    2.857    2.143    2.000    0.000 
#    5.143    0.000    0.000    0.857    0.000    0.000 
#    0.000    0.000    0.000    0.000    0.000    0.000 
#
# Total GULP energy -346922.910837 kJ/mol
# GULP energy per Si atom -12390.103958 kJ/mol
# Density = 1.790196 g / cm^3
# Si number density = 17.942799 Si / 1000 Ang^3
#
#
#
# Elastic Constant Matrix: (Units=GPa)
#
#
# Indices 1 2 3 4 5 6 
#
# 1 86.3812 47.6297 48.6013 0.0000 2.9940 0.0000
# 2 47.6297 106.5579 49.1747 0.0000 10.8642 0.0000
# 3 48.6013 49.1747 103.1812 0.0000 19.4177 0.0000
# 4 0.0000 0.0000 0.0000 33.3182 0.0000 6.8372
# 5 2.9940 10.8642 19.4177 0.0000 31.8899 0.0000
# 6 0.0000 0.0000 0.0000 6.8372 0.0000 9.1430
#
#
#
# Elastic Compliance Matrix: (Units=1/GPa)
#
#
# Indices 1 2 3 4 5 6 
#
# 1 0.018272 -0.005461 -0.006811 0.000000 0.004293 0.000000
# 2 -0.005461 0.013676 -0.003575 0.000000 -0.001970 0.000000
# 3 -0.006811 -0.003575 0.016099 0.000000 -0.007945 0.000000
# 4 0.000000 0.000000 0.000000 0.035454 0.000000 -0.026513
# 5 0.004293 -0.001970 -0.007945 0.000000 0.036464 0.000000
# 6 0.000000 0.000000 0.000000 -0.026513 0.000000 0.129199
#
#
# Mechanical properties :
#
#
# Convention : Reuss Voigt Hill
#
# Bulk Modulus (GPa) = 61.15595 65.21464 63.18529
# Shear Modulus (GPa) = 17.46362 24.91788 21.19075
#
# Velocity S-wave (km/s) = 3.12315 3.73062 3.44032
# Velocity P-wave (km/s) = 6.86755 7.41495 7.14649
#
# Compressibility (1/GPa) = 0.01635164
#
# Stress axis : x y z
#
# Youngs Moduli (GPa) = 54.72998 73.11957 62.11575
#
# Poissons Ratio (x) = 0.39933 0.42310
# Poissons Ratio (y) = 0.29890 0.22205
# Poissons Ratio (z) = 0.37279 0.26138
#
# Static dielectric constant tensor:
#      x y z
#    x 3.164600 0.000000 0.032320 
#    y 0.000000 3.230640 0.000000 
#    z 0.032320 0.000000 3.362200 
# 
# 
# High freq. dielectric constant tensor:
#      x y z
#    x 1.678510 0.000000 0.009000 
#    y 0.000000 1.689710 0.000000 
#    z 0.009000 0.000000 1.700510 
# 
# From -- ./inp_files/218645.got.cif
#   From: 2010.06.25/outbox.cif.g09.slc.cpg/sg15_110_cif.got.tgz:218645.got - 2010.06.28 07:06:18.
