data_PCOD8135027
_publ_section_title
;
Structure prediction by ZEFSAII (Michael W. Deem and Ramdas Pophale) SiO2 
 PCOD8135027
Probable space group: C 2/C
;
_chemical_formula_sum "Si O2"
_cell_formula_units_Z 56
_cell_length_a 9.067367
_cell_length_b 32.743988
_cell_length_c 11.225849
_cell_angle_alpha 90.000000
_cell_angle_beta 121.878568
_cell_angle_gamma 90.000000
_cell_volume 2830.259424
_symmetry_space_group_name_H-M "C 2/C"
_symmetry_group_IT_number 15
_symmetry_cell_setting 'monoclinic'
loop_
_space_group_symop_operation_xyz
x,y,z
-x,y,1/2-z
-x,-y,-z
x,-y,1/2+z
1/2+x,1/2+y,z
1/2-x,1/2+y,1/2-z
1/2-x,1/2-y,-z
1/2+x,1/2-y,1/2+z
loop_
_atom_site_type_symbol
_atom_site_label
_atom_site_fract_x
_atom_site_fract_y
_atom_site_fract_z
Si Si1 0.646412 0.136600 0.561693
Si Si2 0.856162 0.073684 0.786953
Si Si3 0.418116 0.373116 0.967501
Si Si4 0.925028 0.801477 0.593912
Si Si5 0.632617 0.907252 0.698274
Si Si6 0.604711 0.997753 0.670486
Si Si7 0.974020 0.710248 0.602347
O O1 0.725132 0.110662 0.703339
O O2 0.787298 0.137568 0.517875
O O3 0.464626 0.114420 0.452539
O O4 0.607289 0.183099 0.582337
O O5 0.752635 0.031556 0.750219
O O6 0.000000 0.066451 0.750000
O O7 0.957942 0.087987 0.949660
O O8 0.532555 0.333174 0.992660
O O9 0.308136 0.383159 0.802842
O O10 0.014247 0.758080 0.598559
O O11 0.720233 0.798136 0.522424
O O12 0.000000 0.817686 0.750000
O O13 0.500000 0.906942 0.750000
O O14 0.691398 0.953382 0.696650
O O15 0.500000 0.000836 0.750000
O O16 0.500000 0.000000 0.500000
O O17 0.000000 0.698146 0.750000
#
# Coordination Sequence:
#
# PCOD8135027 Si02
#       7
#     8   8   8   8   8   8   8
#     4  10  19  37  60  82 111 157 198 240 292 363
#     4  10  22  39  60  87 122 151 197 255 305 346
#     4  10  21  37  58  85 116 154 195 250 297 350
#     4  10  21  38  55  84 121 152 189 249 303 348
#     4   9  19  37  59  80 116 154 193 239 301 352
#     4  11  23  43  66  89 123 165 206 248 303 375
#     4  10  21  36  58  82 117 156 192 241 302 358
#
# _framework density 19.786171
#
# number of rings (size 3 to 8) (size 9 to 14) (size 15 to 20)
#    0.000    2.000    1.429    1.714    2.000    2.857 
#    2.571    0.000    0.000   10.286    0.000    0.000 
#    0.000    0.000    0.000    0.000    0.000    0.000 
#
# Total GULP energy -347027.878021 kJ/mol
# GULP energy per Si atom -12393.852786 kJ/mol
# Density = 1.974114 g / cm^3
# Si number density = 19.786171 Si / 1000 Ang^3
#
#
#
# Elastic Constant Matrix: (Units=GPa)
#
#
# Indices 1 2 3 4 5 6 
#
# 1 51.1041 49.5633 32.6502 0.0000 5.5237 0.0000
# 2 49.5633 122.8630 15.5538 0.0000 -3.0233 0.0000
# 3 32.6502 15.5538 102.2456 0.0000 8.2408 0.0000
# 4 0.0000 0.0000 0.0000 22.4724 0.0000 -2.0114
# 5 5.5237 -3.0233 8.2408 0.0000 19.6650 0.0000
# 6 0.0000 0.0000 0.0000 -2.0114 0.0000 28.2686
#
#
#
# Elastic Compliance Matrix: (Units=1/GPa)
#
#
# Indices 1 2 3 4 5 6 
#
# 1 0.043271 -0.016380 -0.010498 0.000000 -0.010273 0.000000
# 2 -0.016380 0.014566 0.002550 0.000000 0.005772 0.000000
# 3 -0.010498 0.002550 0.012912 0.000000 -0.002070 0.000000
# 4 0.000000 0.000000 0.000000 0.044784 0.000000 0.003186
# 5 -0.010273 0.005772 -0.002070 0.000000 0.055492 0.000000
# 6 0.000000 0.000000 0.000000 0.003186 0.000000 0.035602
#
#
# Mechanical properties :
#
#
# Convention : Reuss Voigt Hill
#
# Bulk Modulus (GPa) = 45.26404 52.41638 48.84021
# Shear Modulus (GPa) = 19.03688 25.97756 22.50722
#
# Velocity S-wave (km/s) = 3.10519 3.62735 3.37638
# Velocity P-wave (km/s) = 5.98185 6.64022 6.31961
#
# Compressibility (1/GPa) = 0.02209259
#
# Stress axis : x y z
#
# Youngs Moduli (GPa) = 23.10997 68.65306 77.44869
#
# Poissons Ratio (x) = 1.12451 0.81307
# Poissons Ratio (y) = 0.37853 -0.19746
# Poissons Ratio (z) = 0.24261 -0.17503
#
# Static dielectric constant tensor:
#      x y z
#    x 3.374430 0.000000 0.193620 
#    y 0.000000 3.736610 0.000000 
#    z 0.193620 0.000000 3.912910 
# 
# 
# High freq. dielectric constant tensor:
#      x y z
#    x 1.747830 0.000000 0.013940 
#    y 0.000000 1.780710 0.000000 
#    z 0.013940 0.000000 1.785290 
# 
# From -- ./inp_files/82671.got.cif
#   From: 2010.06.25/outbox.cif.g09.slc.cpg/sg15_42_cif.got.tgz:82671.got - 2010.06.28 07:06:18.
