data_PCOD8135617
_publ_section_title
;
Structure prediction by ZEFSAII (Michael W. Deem and Ramdas Pophale) SiO2 
 PCOD8135617
Probable space group: C 2/C
;
_chemical_formula_sum "Si O2"
_cell_formula_units_Z 56
_cell_length_a 17.641599
_cell_length_b 14.695556
_cell_length_c 10.784114
_cell_angle_alpha 90.000000
_cell_angle_beta 112.708425
_cell_angle_gamma 90.000000
_cell_volume 2579.087198
_symmetry_space_group_name_H-M "C 2/C"
_symmetry_group_IT_number 15
_symmetry_cell_setting 'monoclinic'
loop_
_space_group_symop_operation_xyz
x,y,z
-x,y,1/2-z
-x,-y,-z
x,-y,1/2+z
1/2+x,1/2+y,z
1/2-x,1/2+y,1/2-z
1/2-x,1/2-y,-z
1/2+x,1/2-y,1/2+z
loop_
_atom_site_type_symbol
_atom_site_label
_atom_site_fract_x
_atom_site_fract_y
_atom_site_fract_z
Si Si1 0.000000 0.302699 0.250000
Si Si2 0.924581 0.226957 0.961114
Si Si3 0.801843 0.869371 0.952822
Si Si4 0.743989 0.822478 0.656337
Si Si5 0.687133 0.431198 0.029237
Si Si6 0.500000 0.215428 0.250000
Si Si7 0.839445 0.634051 0.736438
Si Si8 0.857280 0.323888 0.512451
O O1 0.920563 0.367890 0.203557
O O2 0.010400 0.242080 0.383551
O O3 0.852651 0.303230 0.925929
O O4 0.883968 0.127021 0.949296
O O5 0.968221 0.228838 0.852527
O O6 0.755450 0.871701 0.793326
O O7 0.734415 0.852740 0.015139
O O8 0.846700 0.965751 0.007847
O O9 0.866151 0.786416 0.002504
O O10 0.785048 0.887870 0.582159
O O11 0.792488 0.728359 0.682004
O O12 0.771851 0.442395 0.162882
O O13 0.574262 0.150032 0.342454
O O14 0.874959 0.623832 0.896881
#
# Coordination Sequence:
#
# PCOD8135617 Si02
#       8
#     4   8   8   8   8   4   8   8
#     4  12  18  36  62  92 120 162 196 250 312 376
#     4  11  22  38  63  91 121 162 204 250 307 370
#     4  10  23  38  62  87 120 158 209 254 298 369
#     4  10  19  39  59  86 117 158 207 250 297 361
#     4  11  22  38  62  92 120 157 207 262 301 353
#     4  12  22  38  66  90 124 166 206 246 304 382
#     4  10  20  35  62  87 117 158 205 250 302 361
#     4  10  22  40  59  88 120 165 203 244 309 371
#
# _framework density 21.713107000000001
#
# number of rings (size 3 to 8) (size 9 to 14) (size 15 to 20)
#    0.000    1.429    5.714    0.857    4.000    0.000 
#    0.000    2.143    0.000    3.429    0.000    0.000 
#    0.000    0.000    0.000    0.000    0.000    0.000 
#
# Total GULP energy -346931.601319 kJ/mol
# GULP energy per Si atom -12390.414333 kJ/mol
# Density = 2.166369 g / cm^3
# Si number density = 21.713107 Si / 1000 Ang^3
#
#
#
# Elastic Constant Matrix: (Units=GPa)
#
#
# Indices 1 2 3 4 5 6 
#
# 1 83.0083 -15.2395 11.9169 0.0000 -11.8628 0.0000
# 2 -15.2395 33.4075 -11.6681 0.0000 -11.4232 0.0000
# 3 11.9169 -11.6681 113.5418 0.0000 -6.7941 0.0000
# 4 0.0000 0.0000 0.0000 5.7811 0.0000 1.2750
# 5 -11.8628 -11.4232 -6.7941 0.0000 40.6298 0.0000
# 6 0.0000 0.0000 0.0000 1.2750 0.0000 10.4089
#
#
#
# Elastic Compliance Matrix: (Units=1/GPa)
#
#
# Indices 1 2 3 4 5 6 
#
# 1 0.014685 0.008935 -0.000218 0.000000 0.006763 0.000000
# 2 0.008935 0.040456 0.004097 0.000000 0.014668 0.000000
# 3 -0.000218 0.004097 0.009411 0.000000 0.002662 0.000000
# 4 0.000000 0.000000 0.000000 0.177779 0.000000 -0.021777
# 5 0.006763 0.014668 0.002662 0.000000 0.031156 0.000000
# 6 0.000000 0.000000 0.000000 -0.021777 0.000000 0.098739
#
#
# Mechanical properties :
#
#
# Convention : Reuss Voigt Hill
#
# Bulk Modulus (GPa) = 11.08882 22.21956 16.65419
# Shear Modulus (GPa) = 13.27461 27.69385 20.48423
#
# Velocity S-wave (km/s) = 2.47526 3.57521 3.07482
# Velocity P-wave (km/s) = 3.64517 5.22478 4.50475
#
# Compressibility (1/GPa) = 0.09018092
#
# Stress axis : x y z
#
# Youngs Moduli (GPa) = 68.09507 24.71813 106.26318
#
# Poissons Ratio (x) = -0.22087 0.02320
# Poissons Ratio (y) = -0.60846 -0.43540
# Poissons Ratio (z) = 0.01487 -0.10128
#
# Static dielectric constant tensor:
#      x y z
#    x 3.967940 0.000000 -0.055570 
#    y 0.000000 3.566600 0.000000 
#    z -0.055570 0.000000 4.277320 
# 
# 
# High freq. dielectric constant tensor:
#      x y z
#    x 1.858000 0.000000 -0.009640 
#    y 0.000000 1.804160 0.000000 
#    z -0.009640 0.000000 1.869370 
# 
# From -- ./inp_files/105837.got.cif
#   From: 2010.06.25/outbox.cif.g09.slc.cpg/sg15_53_cif.got.tgz:105837.got - 2010.06.28 07:06:18.
