data_PCOD8135571
_publ_section_title
;
Structure prediction by ZEFSAII (Michael W. Deem and Ramdas Pophale) SiO2 
 PCOD8135571
Probable space group: C 2/C
;
_chemical_formula_sum "Si O2"
_cell_formula_units_Z 52
_cell_length_a 18.723835
_cell_length_b 14.355601
_cell_length_c 14.261317
_cell_angle_alpha 90.000000
_cell_angle_beta 39.028133
_cell_angle_gamma 90.000000
_cell_volume 2413.853032
_symmetry_space_group_name_H-M "C 2/C"
_symmetry_group_IT_number 15
_symmetry_cell_setting 'monoclinic'
loop_
_space_group_symop_operation_xyz
x,y,z
-x,y,1/2-z
-x,-y,-z
x,-y,1/2+z
1/2+x,1/2+y,z
1/2-x,1/2+y,1/2-z
1/2-x,1/2-y,-z
1/2+x,1/2-y,1/2+z
loop_
_atom_site_type_symbol
_atom_site_label
_atom_site_fract_x
_atom_site_fract_y
_atom_site_fract_z
Si Si1 0.000000 0.953573 0.250000
Si Si2 0.244248 0.021627 0.974118
Si Si3 0.430390 0.106456 0.236814
Si Si4 0.459731 0.595474 0.587951
Si Si5 0.599322 0.942899 0.017030
Si Si6 0.716046 0.083517 0.770620
Si Si7 0.507627 0.207785 0.986344
O O1 0.997135 0.893744 0.348830
O O2 0.886671 0.016001 0.362230
O O3 0.250004 0.080528 0.872708
O O4 0.301592 0.919666 0.898498
O O5 0.312726 0.071548 0.988057
O O6 0.500000 0.154867 0.250000
O O7 0.428755 0.179841 0.154841
O O8 0.492652 0.008079 0.150445
O O9 0.500000 0.500000 0.500000
O O10 0.324273 0.600824 0.725518
O O11 0.510658 0.680656 0.474808
O O12 0.657968 0.987118 0.864237
O O13 0.549625 0.840553 0.045810
O O14 0.634640 0.170976 0.872145
#
# Coordination Sequence:
#
# PCOD8135571 Si02
#       7
#     4   8   8   8   8   8   8
#     4  12  26  44  66  96 140 204 224 268 354 436
#     4  11  20  38  71  97 137 179 223 277 352 407
#     4   9  18  34  65 103 129 159 215 288 341 394
#     4  12  28  47  65  93 144 190 232 283 352 418
#     4  10  19  38  69 104 131 166 227 288 349 403
#     4  11  21  43  69 100 133 177 228 290 352 404
#     4  11  23  41  69 104 134 176 237 286 346 408
#
# _framework density 21.542321000000001
#
# number of rings (size 3 to 8) (size 9 to 14) (size 15 to 20)
#    0.000    1.231    6.154    0.923    1.077    2.462 
#    0.000    3.846    0.000    0.000    0.000    0.000 
#    0.000    0.000    0.000    0.000    0.000    0.000 
#
# Total GULP energy -322380.829466 kJ/mol
# GULP energy per Si atom -12399.262672 kJ/mol
# Density = 2.149329 g / cm^3
# Si number density = 21.542321 Si / 1000 Ang^3
#
#
#
# Elastic Constant Matrix: (Units=GPa)
#
#
# Indices 1 2 3 4 5 6 
#
# 1 139.3747 38.5053 35.1129 0.0000 -4.9307 0.0000
# 2 38.5053 118.2154 27.5365 0.0000 -3.7680 0.0000
# 3 35.1129 27.5365 94.3584 0.0000 -12.1334 0.0000
# 4 0.0000 0.0000 0.0000 16.2368 0.0000 3.4590
# 5 -4.9307 -3.7680 -12.1334 0.0000 42.9758 0.0000
# 6 0.0000 0.0000 0.0000 3.4590 0.0000 18.8949
#
#
#
# Elastic Compliance Matrix: (Units=1/GPa)
#
#
# Indices 1 2 3 4 5 6 
#
# 1 0.008399 -0.002154 -0.002488 0.000000 0.000072 0.000000
# 2 -0.002154 0.009629 -0.002004 0.000000 0.000031 0.000000
# 3 -0.002488 -0.002004 0.012503 0.000000 0.003069 0.000000
# 4 0.000000 0.000000 0.000000 0.064088 0.000000 -0.011732
# 5 0.000072 0.000031 0.003069 0.000000 0.024146 0.000000
# 6 0.000000 0.000000 0.000000 -0.011732 0.000000 0.055072
#
#
# Mechanical properties :
#
#
# Convention : Reuss Voigt Hill
#
# Bulk Modulus (GPa) = 58.00792 61.58420 59.79606
# Shear Modulus (GPa) = 25.92345 32.34111 29.13228
#
# Velocity S-wave (km/s) = 3.47273 3.87884 3.68139
# Velocity P-wave (km/s) = 6.56245 6.97927 6.77406
#
# Compressibility (1/GPa) = 0.01723902
#
# Stress axis : x y z
#
# Youngs Moduli (GPa) = 119.05776 103.85689 79.97994
#
# Poissons Ratio (x) = 0.22371 0.19896
# Poissons Ratio (y) = 0.25646 0.16031
# Poissons Ratio (z) = 0.29617 0.20816
#
# Static dielectric constant tensor:
#      x y z
#    x 4.225350 0.000000 0.014940 
#    y 0.000000 3.363260 0.000000 
#    z 0.014940 0.000000 3.981630 
# 
# 
# High freq. dielectric constant tensor:
#      x y z
#    x 1.869640 0.000000 0.000320 
#    y 0.000000 1.792080 0.000000 
#    z 0.000320 0.000000 1.847300 
# 
# From -- ./inp_files/162490.got.cif
#   From: 2010.06.25/outbox.cif.g09.slc.cpg/sg15_82_cif.got.tgz:162490.got - 2010.06.28 07:06:18.
