data_PCOD8135345
_publ_section_title
;
Structure prediction by ZEFSAII (Michael W. Deem and Ramdas Pophale) SiO2 
 PCOD8135345
Probable space group: C 2/C
;
_chemical_formula_sum "Si O2"
_cell_formula_units_Z 64
_cell_length_a 10.081315
_cell_length_b 22.893267
_cell_length_c 29.979767
_cell_angle_alpha 90.000000
_cell_angle_beta 151.955464
_cell_angle_gamma 90.000000
_cell_volume 3253.095387
_symmetry_space_group_name_H-M "C 2/C"
_symmetry_group_IT_number 15
_symmetry_cell_setting 'monoclinic'
loop_
_space_group_symop_operation_xyz
x,y,z
-x,y,1/2-z
-x,-y,-z
x,-y,1/2+z
1/2+x,1/2+y,z
1/2-x,1/2+y,1/2-z
1/2-x,1/2-y,-z
1/2+x,1/2-y,1/2+z
loop_
_atom_site_type_symbol
_atom_site_label
_atom_site_fract_x
_atom_site_fract_y
_atom_site_fract_z
Si Si1 0.828081 0.320944 0.353760
Si Si2 0.820355 0.508360 0.155819
Si Si3 0.181039 0.378250 0.534373
Si Si4 0.642337 0.094863 0.889035
Si Si5 0.195078 0.486800 0.488649
Si Si6 0.257057 0.620950 0.427193
Si Si7 0.188470 0.187616 0.142130
Si Si8 0.686766 0.098439 0.136191
O O1 0.500000 0.330792 0.250000
O O2 0.913205 0.253125 0.378594
O O3 0.931915 0.346904 0.432158
O O4 0.955559 0.349047 0.346224
O O5 0.983458 0.451343 0.183947
O O6 0.814283 0.559380 0.117660
O O7 0.000000 0.532683 0.250000
O O8 0.510018 0.486896 0.079326
O O9 0.155154 0.448867 0.522021
O O10 0.482386 0.357353 0.605358
O O11 0.176825 0.366466 0.586307
O O12 0.677880 0.062297 0.946094
O O13 0.945067 0.114379 0.959223
O O14 0.953125 0.534793 0.411481
O O15 0.304870 0.675254 0.408485
O O16 0.006200 0.635773 0.387047
O O17 0.500000 0.174333 0.250000
O O18 0.000000 0.092301 0.250000
#
# Coordination Sequence:
#
# PCOD8135345 Si02
#       8
#     8   8   8   8   8   8   8   8
#     4  10  23  41  66  93 120 159 213 269 318 366
#     4  11  20  33  61  88 118 162 212 247 297 384
#     4  11  23  39  61  92 126 161 212 261 309 377
#     4  10  19  38  60  82 121 158 201 252 301 370
#     4  10  20  37  55  84 121 166 201 247 304 377
#     4  11  20  39  61  85 121 161 209 251 311 365
#     4  11  21  39  70  91 114 162 219 265 304 372
#     4  12  25  37  57  91 134 165 203 260 324 365
#
# _framework density 19.673570999999999
#
# number of rings (size 3 to 8) (size 9 to 14) (size 15 to 20)
#    0.000    1.250    6.250    2.625    1.750    3.000 
#    0.000    0.625    0.000    0.750    0.000    0.000 
#    0.000    0.000    0.000    0.000    0.000    0.000 
#
# Total GULP energy -396545.568456 kJ/mol
# GULP energy per Si atom -12392.049014 kJ/mol
# Density = 1.962879 g / cm^3
# Si number density = 19.673571 Si / 1000 Ang^3
#
#
#
# Elastic Constant Matrix: (Units=GPa)
#
#
# Indices 1 2 3 4 5 6 
#
# 1 101.6098 21.9719 37.0740 0.0016 8.9502 0.0070
# 2 21.9719 83.6461 25.2015 0.0021 7.2697 0.0074
# 3 37.0740 25.2015 101.4278 -0.0239 9.0212 0.0383
# 4 0.0016 0.0021 -0.0239 22.1539 -0.0042 8.8024
# 5 8.9502 7.2697 9.0212 -0.0042 26.2666 0.0071
# 6 0.0070 0.0074 0.0383 8.8024 0.0071 33.4432
#
#
#
# Elastic Compliance Matrix: (Units=1/GPa)
#
#
# Indices 1 2 3 4 5 6 
#
# 1 0.011761 -0.001793 -0.003653 -0.000007 -0.002257 0.000004
# 2 -0.001793 0.013364 -0.002466 -0.000005 -0.002241 0.000002
# 3 -0.003653 -0.002466 0.012002 0.000020 -0.002195 -0.000017
# 4 -0.000007 -0.000005 0.000020 0.050411 0.000008 -0.013268
# 5 -0.002257 -0.002241 -0.002195 0.000008 0.040214 -0.000007
# 6 0.000004 0.000002 -0.000017 -0.013268 -0.000007 0.033394
#
#
# Mechanical properties :
#
#
# Convention : Reuss Voigt Hill
#
# Bulk Modulus (GPa) = 46.93876 50.57538 48.75707
# Shear Modulus (GPa) = 27.16367 29.86848 28.51607
#
# Velocity S-wave (km/s) = 3.71983 3.90064 3.81131
# Velocity P-wave (km/s) = 6.50847 6.78600 6.64868
#
# Compressibility (1/GPa) = 0.02130435
#
# Stress axis : x y z
#
# Youngs Moduli (GPa) = 85.02878 74.82952 83.31739
#
# Poissons Ratio (x) = 0.13414 0.30433
# Poissons Ratio (y) = 0.15243 0.20545
# Poissons Ratio (z) = 0.31058 0.18452
#
# Static dielectric constant tensor:
#      x y z
#    x 3.711460 -0.000010 0.072860 
#    y -0.000010 3.507450 -0.000020 
#    z 0.072860 -0.000020 3.602850 
# 
# 
# High freq. dielectric constant tensor:
#      x y z
#    x 1.759740 0.000000 0.008000 
#    y 0.000000 1.750850 0.000000 
#    z 0.008000 0.000000 1.768130 
# 
# From -- ./inp_files/309143.got.cif
#   From: 2010.06.25/outbox.cif.g09.slc.cpg/sg15_155_cif.got.tgz:309143.got - 2010.06.28 07:06:18.
