data_PCOD8135316
_publ_section_title
;
Structure prediction by ZEFSAII (Michael W. Deem and Ramdas Pophale) SiO2 
 PCOD8135316
Probable space group: C 2/C
;
_chemical_formula_sum "Si O2"
_cell_formula_units_Z 52
_cell_length_a 10.817071
_cell_length_b 15.899896
_cell_length_c 22.481559
_cell_angle_alpha 90.000000
_cell_angle_beta 141.136099
_cell_angle_gamma 90.000000
_cell_volume 2426.191948
_symmetry_space_group_name_H-M "C 2/C"
_symmetry_group_IT_number 15
_symmetry_cell_setting 'monoclinic'
loop_
_space_group_symop_operation_xyz
x,y,z
-x,y,1/2-z
-x,-y,-z
x,-y,1/2+z
1/2+x,1/2+y,z
1/2-x,1/2+y,1/2-z
1/2-x,1/2-y,-z
1/2+x,1/2-y,1/2+z
loop_
_atom_site_type_symbol
_atom_site_label
_atom_site_fract_x
_atom_site_fract_y
_atom_site_fract_z
Si Si1 0.704384 0.453337 0.941005
Si Si2 0.383659 0.341601 0.866512
Si Si3 0.055680 0.492092 0.644348
Si Si4 0.455229 0.203696 0.491532
Si Si5 0.795048 0.903762 0.152133
Si Si6 0.500000 0.927787 0.750000
Si Si7 0.290012 0.326701 0.702947
O O1 0.495705 0.428340 0.891704
O O2 0.807646 0.366401 0.961489
O O3 0.663358 0.511131 0.868646
O O4 0.835113 0.507133 0.035474
O O5 0.189189 0.367362 0.830544
O O6 0.322046 0.292573 0.782216
O O7 0.529379 0.284250 0.959988
O O8 0.167719 0.575794 0.663834
O O9 0.036869 0.488878 0.708163
O O10 0.175424 0.414415 0.663103
O O11 0.674568 0.164057 0.567670
O O12 0.357378 0.232621 0.391660
O O13 0.000000 0.862655 0.250000
O O14 0.500000 0.338686 0.750000
#
# Coordination Sequence:
#
# PCOD8135316 Si02
#       7
#     8   8   8   8   8   4   8
#     4  11  20  37  66  91 118 153 214 269 301 360
#     4  11  24  39  60  90 129 167 204 251 322 382
#     4  10  19  38  58  91 116 158 207 254 302 368
#     4  11  22  38  60  99 121 156 205 266 313 369
#     4  11  20  36  68  94 119 151 214 273 303 353
#     4  10  24  40  58  80 130 174 194 238 324 392
#     4  11  19  37  65  86 119 161 207 256 316 365
#
# _framework density 21.432763000000001
#
# number of rings (size 3 to 8) (size 9 to 14) (size 15 to 20)
#    0.000    1.231    4.615    3.692    1.077    0.615 
#    0.000    7.692    0.000    0.000    0.000    0.000 
#    0.000    0.000    0.000    0.000    0.000    0.000 
#
# Total GULP energy -322261.230907 kJ/mol
# GULP energy per Si atom -12394.662727 kJ/mol
# Density = 2.138398 g / cm^3
# Si number density = 21.432763 Si / 1000 Ang^3
#
#
#
# Elastic Constant Matrix: (Units=GPa)
#
#
# Indices 1 2 3 4 5 6 
#
# 1 102.6996 22.1427 52.5689 0.0000 5.6627 0.0000
# 2 22.1427 37.9497 25.6190 0.0000 -3.5108 0.0000
# 3 52.5689 25.6190 176.2951 0.0001 -4.4749 0.0000
# 4 0.0000 0.0000 0.0001 30.5923 0.0000 -0.1660
# 5 5.6627 -3.5108 -4.4749 0.0000 42.2251 0.0000
# 6 0.0000 0.0000 0.0000 -0.1660 0.0000 12.1214
#
#
#
# Elastic Compliance Matrix: (Units=1/GPa)
#
#
# Indices 1 2 3 4 5 6 
#
# 1 0.012615 -0.005552 -0.003018 0.000000 -0.002473 0.000000
# 2 -0.005552 0.031827 -0.002891 0.000000 0.003085 0.000000
# 3 -0.003018 -0.002891 0.007015 0.000000 0.000908 0.000000
# 4 0.000000 0.000000 0.000000 0.032690 0.000000 0.000448
# 5 -0.002473 0.003085 0.000908 0.000000 0.024367 0.000000
# 6 0.000000 0.000000 0.000000 0.000448 0.000000 0.082505
#
#
# Mechanical properties :
#
#
# Convention : Reuss Voigt Hill
#
# Bulk Modulus (GPa) = 35.04387 57.51174 46.27780
# Shear Modulus (GPa) = 22.37594 31.42869 26.90231
#
# Velocity S-wave (km/s) = 3.23461 3.83350 3.54672
# Velocity P-wave (km/s) = 5.50785 6.81807 6.19768
#
# Compressibility (1/GPa) = 0.02853566
#
# Stress axis : x y z
#
# Youngs Moduli (GPa) = 79.26903 31.41941 142.54542
#
# Poissons Ratio (x) = 0.17445 0.43015
# Poissons Ratio (y) = 0.44013 0.41213
# Poissons Ratio (z) = 0.23920 0.09084
#
# Static dielectric constant tensor:
#      x y z
#    x 3.891830 0.000000 0.028090 
#    y 0.000000 3.351000 0.000000 
#    z 0.028090 0.000000 4.520910 
# 
# 
# High freq. dielectric constant tensor:
#      x y z
#    x 1.828610 0.000000 0.011030 
#    y 0.000000 1.792320 0.000000 
#    z 0.011030 0.000000 1.869740 
# 
# From -- ./inp_files/270005.got.cif
#   From: 2010.06.25/outbox.cif.g09.slc.cpg/sg15_136_cif.got.tgz:270005.got - 2010.06.28 07:06:18.
