data_PCOD8135444
_publ_section_title
;
Structure prediction by ZEFSAII (Michael W. Deem and Ramdas Pophale) SiO2 
 PCOD8135444
Probable space group: C 2/C
;
_chemical_formula_sum "Si O2"
_cell_formula_units_Z 40
_cell_length_a 23.503428
_cell_length_b 6.102347
_cell_length_c 20.717989
_cell_angle_alpha 90.000000
_cell_angle_beta 136.136811
_cell_angle_gamma 90.000000
_cell_volume 2059.067365
_symmetry_space_group_name_H-M "C 2/C"
_symmetry_group_IT_number 15
_symmetry_cell_setting 'monoclinic'
loop_
_space_group_symop_operation_xyz
x,y,z
-x,y,1/2-z
-x,-y,-z
x,-y,1/2+z
1/2+x,1/2+y,z
1/2-x,1/2+y,1/2-z
1/2-x,1/2-y,-z
1/2+x,1/2-y,1/2+z
loop_
_atom_site_type_symbol
_atom_site_label
_atom_site_fract_x
_atom_site_fract_y
_atom_site_fract_z
Si Si1 0.271214 0.556701 0.065014
Si Si2 0.130958 0.461205 0.637533
Si Si3 0.658320 0.664919 0.989733
Si Si4 0.027633 0.798748 0.478412
Si Si5 0.252541 0.842091 0.160182
O O1 0.339914 0.413247 0.084015
O O2 0.301893 0.659417 0.158185
O O3 0.250000 0.750000 0.000000
O O4 0.189669 0.415284 0.014741
O O5 0.103942 0.670388 0.573565
O O6 0.177450 0.275663 0.635068
O O7 0.186595 0.544759 0.740810
O O8 0.048788 0.355859 0.599563
O O9 0.565386 0.633096 0.939918
O O10 0.718746 0.525588 0.084620
O O11 0.000000 0.000000 0.500000
#
# Coordination Sequence:
#
# PCOD8135444 Si02
#       5
#     8   8   8   8   8
#     4   9  20  35  62  87 113 159 207 251 292 369
#     4  11  24  34  60  92 124 154 198 258 316 364
#     4  10  19  38  63  85 118 161 208 244 308 366
#     4  11  22  39  58  91 123 161 196 254 315 376
#     4  11  21  37  58  94 118 153 208 256 300 370
#
# _framework density 19.426272000000001
#
# number of rings (size 3 to 8) (size 9 to 14) (size 15 to 20)
#    0.000    1.600    4.000    1.200    0.000    0.000 
#    0.000    0.000    0.000   28.800    0.000    0.000 
#    0.000    0.000    0.000    0.000    0.000    0.000 
#
# Total GULP energy -247859.117929 kJ/mol
# GULP energy per Si atom -12392.955896 kJ/mol
# Density = 1.938206 g / cm^3
# Si number density = 19.426272 Si / 1000 Ang^3
#
#
#
# Elastic Constant Matrix: (Units=GPa)
#
#
# Indices 1 2 3 4 5 6 
#
# 1 148.4373 40.8201 25.6082 -0.0005 0.5748 0.0010
# 2 40.8201 97.6049 21.1753 -0.0015 -1.4956 0.0016
# 3 25.6082 21.1753 60.6523 -0.0002 2.3731 0.0004
# 4 -0.0005 -0.0015 -0.0002 27.7350 -0.0003 -5.1723
# 5 0.5748 -1.4956 2.3731 -0.0003 18.8040 0.0000
# 6 0.0010 0.0016 0.0004 -5.1723 0.0000 45.8504
#
#
#
# Elastic Compliance Matrix: (Units=1/GPa)
#
#
# Indices 1 2 3 4 5 6 
#
# 1 0.007914 -0.002801 -0.002357 0.000000 -0.000167 0.000000
# 2 -0.002801 0.012112 -0.003102 0.000001 0.001440 0.000000
# 3 -0.002357 -0.003102 0.018665 0.000000 -0.002530 0.000000
# 4 0.000000 0.000001 0.000000 0.036830 0.000001 0.004155
# 5 -0.000167 0.001440 -0.002530 0.000001 0.053619 0.000000
# 6 0.000000 0.000000 0.000000 0.004155 0.000000 0.022279
#
#
# Mechanical properties :
#
#
# Convention : Reuss Voigt Hill
#
# Bulk Modulus (GPa) = 45.10584 53.54463 49.32524
# Shear Modulus (GPa) = 28.51756 33.08394 30.80075
#
# Velocity S-wave (km/s) = 3.83559 4.13128 3.98618
# Velocity P-wave (km/s) = 6.54867 7.09785 6.82878
#
# Compressibility (1/GPa) = 0.02217008
#
# Stress axis : x y z
#
# Youngs Moduli (GPa) = 126.35117 82.56281 53.57707
#
# Poissons Ratio (x) = 0.23127 0.12629
# Poissons Ratio (y) = 0.35393 0.16621
# Poissons Ratio (z) = 0.29782 0.25613
#
# Static dielectric constant tensor:
#      x y z
#    x 4.192730 0.000000 -0.241130 
#    y 0.000000 3.960490 0.000000 
#    z -0.241130 0.000000 3.169430 
# 
# 
# High freq. dielectric constant tensor:
#      x y z
#    x 1.777870 0.000000 -0.015100 
#    y 0.000000 1.781630 0.000000 
#    z -0.015100 0.000000 1.706320 
# 
# From -- ./inp_files/170513.got.cif
#   From: 2010.06.25/outbox.cif.g09.slc.cpg/sg15_86_cif.got.tgz:170513.got - 2010.06.28 07:06:18.
