data_PCOD8135440
_publ_section_title
;
Structure prediction by ZEFSAII (Michael W. Deem and Ramdas Pophale) SiO2 
 PCOD8135440
Probable space group: C 2/C
;
_chemical_formula_sum "Si O2"
_cell_formula_units_Z 56
_cell_length_a 30.377391
_cell_length_b 10.237632
_cell_length_c 23.709352
_cell_angle_alpha 90.000000
_cell_angle_beta 156.126855
_cell_angle_gamma 90.000000
_cell_volume 2984.123898
_symmetry_space_group_name_H-M "C 2/C"
_symmetry_group_IT_number 15
_symmetry_cell_setting 'monoclinic'
loop_
_space_group_symop_operation_xyz
x,y,z
-x,y,1/2-z
-x,-y,-z
x,-y,1/2+z
1/2+x,1/2+y,z
1/2-x,1/2+y,1/2-z
1/2-x,1/2-y,-z
1/2+x,1/2-y,1/2+z
loop_
_atom_site_type_symbol
_atom_site_label
_atom_site_fract_x
_atom_site_fract_y
_atom_site_fract_z
Si Si1 0.500000 0.258429 0.250000
Si Si2 0.012013 0.862451 0.941581
Si Si3 0.088284 0.034072 0.768382
Si Si4 0.686470 0.085753 0.523817
Si Si5 0.195479 0.195523 0.233075
Si Si6 0.764059 0.907250 0.234796
Si Si7 0.388871 0.186030 0.529372
Si Si8 0.000000 0.839139 0.750000
O O1 0.461236 0.337522 0.259975
O O2 0.604479 0.178709 0.394208
O O3 0.920968 0.841833 0.881121
O O4 0.024620 0.733442 0.916985
O O5 0.983116 0.991083 0.870156
O O6 0.116076 0.881310 0.102149
O O7 0.079317 0.920939 0.803471
O O8 0.216076 0.046801 0.904198
O O9 0.747499 0.142446 0.650876
O O10 0.612296 0.968294 0.461029
O O11 0.182021 0.314612 0.173706
O O12 0.270583 0.241581 0.373096
O O13 0.256287 0.063364 0.280499
O O14 0.413909 0.250552 0.617671
#
# Coordination Sequence:
#
# PCOD8135440 Si02
#       8
#     4   8   8   8   8   8   8   4
#     4  11  25  38  56  88 123 157 196 240 292 361
#     4  10  19  38  63  82 113 151 199 245 294 352
#     4  10  21  39  61  83 113 157 202 236 288 355
#     4  11  22  40  55  85 122 153 190 243 301 348
#     4  10  20  38  56  88 116 149 194 247 301 351
#     4  10  22  35  63  86 114 156 200 245 294 360
#     4   9  19  36  56  85 112 147 193 243 290 347
#     4   9  19  36  60  86 107 149 202 240 278 349
#
# _framework density 18.765978
#
# number of rings (size 3 to 8) (size 9 to 14) (size 15 to 20)
#    0.000    2.000    2.857    1.286    2.000    0.571 
#    2.571    7.857    0.000    0.000    0.000    0.000 
#    0.000    0.000    0.000    0.000    0.000    0.000 
#
# Total GULP energy -346882.604727 kJ/mol
# GULP energy per Si atom -12388.664455 kJ/mol
# Density = 1.872327 g / cm^3
# Si number density = 18.765978 Si / 1000 Ang^3
#
#
#
# Elastic Constant Matrix: (Units=GPa)
#
#
# Indices 1 2 3 4 5 6 
#
# 1 110.1259 61.7550 61.8128 0.0000 -8.1667 0.0000
# 2 61.7550 94.8708 51.7984 0.0000 -0.9810 0.0000
# 3 61.8128 51.7984 102.2065 0.0000 -19.7061 0.0000
# 4 0.0000 0.0000 0.0000 -5.4031 0.0000 16.9459
# 5 -8.1667 -0.9810 -19.7061 0.0000 28.2960 0.0000
# 6 0.0000 0.0000 0.0000 16.9459 0.0000 12.8999
#
#
#
# Elastic Compliance Matrix: (Units=1/GPa)
#
#
# Indices 1 2 3 4 5 6 
#
# 1 0.016878 -0.007508 -0.006369 0.000000 0.000175 0.000000
# 2 -0.007508 0.018651 -0.006013 0.000000 -0.005707 0.000000
# 3 -0.006369 -0.006013 0.018815 0.000000 0.011057 0.000000
# 4 0.000000 0.000000 0.000000 -0.036148 0.000000 0.047486
# 5 0.000175 -0.005707 0.011057 0.000000 0.042894 0.000000
# 6 0.000000 0.000000 0.000000 0.047486 0.000000 0.015141
#
#
# Mechanical properties :
#
#
# Convention : Reuss Voigt Hill
#
# Bulk Modulus (GPa) = 68.65123 73.10397 70.87760
# Shear Modulus (GPa) = 41.36845 15.94768 28.65806
#
# Velocity S-wave (km/s) = 4.70024 2.91833 3.91209
# Velocity P-wave (km/s) = 8.13133 7.09899 7.63263
#
# Compressibility (1/GPa) = 0.01456638
#
# Stress axis : x y z
#
# Youngs Moduli (GPa) = 59.24709 53.61534 53.14899
#
# Poissons Ratio (x) = 0.40252 0.33851
# Poissons Ratio (y) = 0.44480 0.31956
# Poissons Ratio (z) = 0.37735 0.32237
#
# Static dielectric constant tensor:
#      x y z
#    x 3.749590 0.000000 -0.237740 
#    y 0.000000 3.641450 0.000000 
#    z -0.237740 0.000000 3.534880 
# 
# 
# High freq. dielectric constant tensor:
#      x y z
#    x 1.730230 0.000000 -0.015620 
#    y 0.000000 1.720930 0.000000 
#    z -0.015620 0.000000 1.734990 
# 
# From -- ./inp_files/117201.got.cif
#   From: 2010.06.25/outbox.cif.g09.slc.cpg/sg15_59_cif.got.tgz:117201.got - 2010.06.28 07:06:18.
