data_PCOD8135719
_publ_section_title
;
Structure prediction by ZEFSAII (Michael W. Deem and Ramdas Pophale) SiO2 
 PCOD8135719
Probable space group: C 2/C
;
_chemical_formula_sum "Si O2"
_cell_formula_units_Z 52
_cell_length_a 8.509912
_cell_length_b 20.498806
_cell_length_c 14.299408
_cell_angle_alpha 90.000000
_cell_angle_beta 97.602169
_cell_angle_gamma 90.000000
_cell_volume 2472.507403
_symmetry_space_group_name_H-M "C 2/C"
_symmetry_group_IT_number 15
_symmetry_cell_setting 'monoclinic'
loop_
_space_group_symop_operation_xyz
x,y,z
-x,y,1/2-z
-x,-y,-z
x,-y,1/2+z
1/2+x,1/2+y,z
1/2-x,1/2+y,1/2-z
1/2-x,1/2-y,-z
1/2+x,1/2-y,1/2+z
loop_
_atom_site_type_symbol
_atom_site_label
_atom_site_fract_x
_atom_site_fract_y
_atom_site_fract_z
Si Si1 0.000000 0.024351 0.250000
Si Si2 0.174287 0.733367 0.776060
Si Si3 0.291808 0.801259 0.422398
Si Si4 0.353854 0.147148 0.564331
Si Si5 0.311412 0.528253 0.895561
Si Si6 0.104708 0.901562 0.510972
Si Si7 0.628995 0.361503 0.875500
O O1 0.110917 0.067029 0.327786
O O2 0.122958 0.978350 0.204413
O O3 0.265467 0.724247 0.684450
O O4 0.246155 0.694181 0.871268
O O5 0.157917 0.809966 0.795647
O O6 0.000000 0.701923 0.750000
O O7 0.250000 0.750000 0.500000
O O8 0.474448 0.822038 0.438000
O O9 0.193078 0.866810 0.433653
O O10 0.346410 0.073766 0.609470
O O11 0.277285 0.144810 0.456145
O O12 0.442695 0.564657 0.967317
O O13 0.278478 0.455949 0.934658
O O14 0.040162 0.849017 0.583760
#
# Coordination Sequence:
#
# PCOD8135719 Si02
#       7
#     4   8   8   8   8   8   8
#     4  10  20  34  70  90 120 164 214 264 302 384
#     4  10  20  36  60  86 121 160 199 251 310 365
#     4  11  24  39  63  89 129 166 203 259 317 374
#     4  10  22  39  58  94 125 163 203 255 313 370
#     4   9  20  36  61  89 116 157 213 252 304 368
#     4   9  19  38  61  86 118 163 203 256 308 370
#     4  10  19  39  65  88 120 161 211 257 308 368
#
# _framework density 21.031281
#
# number of rings (size 3 to 8) (size 9 to 14) (size 15 to 20)
#    0.000    2.154    0.769    3.231    4.308    1.846 
#    0.000    3.846    0.000    0.000    0.000    0.000 
#    0.000    0.000    0.000    0.000    0.000    0.000 
#
# Total GULP energy -322115.038385 kJ/mol
# GULP energy per Si atom -12389.039938 kJ/mol
# Density = 2.098341 g / cm^3
# Si number density = 21.031281 Si / 1000 Ang^3
#
#
#
# Elastic Constant Matrix: (Units=GPa)
#
#
# Indices 1 2 3 4 5 6 
#
# 1 63.0327 44.6000 42.3541 0.0000 -15.9569 0.0000
# 2 44.6000 102.5106 47.7065 0.0000 -26.2493 0.0000
# 3 42.3541 47.7065 138.1378 0.0000 -25.8638 0.0000
# 4 0.0000 0.0000 0.0000 41.6537 0.0000 -16.5664
# 5 -15.9569 -26.2493 -25.8638 0.0000 35.4434 0.0000
# 6 0.0000 0.0000 0.0000 -16.5664 0.0000 37.4761
#
#
#
# Elastic Compliance Matrix: (Units=1/GPa)
#
#
# Indices 1 2 3 4 5 6 
#
# 1 0.025343 -0.008454 -0.004502 0.000000 0.001864 0.000000
# 2 -0.008454 0.015937 -0.001639 0.000000 0.006801 0.000000
# 3 -0.004502 -0.001639 0.009936 0.000000 0.004010 0.000000
# 4 0.000000 0.000000 0.000000 0.029129 0.000000 0.012876
# 5 0.001864 0.006801 0.004010 0.000000 0.037017 0.000000
# 6 0.000000 0.000000 0.000000 0.012876 0.000000 0.032376
#
#
# Mechanical properties :
#
#
# Convention : Reuss Voigt Hill
#
# Bulk Modulus (GPa) = 45.39664 63.66692 54.53178
# Shear Modulus (GPa) = 26.84282 34.18267 30.51274
#
# Velocity S-wave (km/s) = 3.57645 4.03591 3.81310
# Velocity P-wave (km/s) = 6.21987 7.21500 6.73584
#
# Compressibility (1/GPa) = 0.02202806
#
# Stress axis : x y z
#
# Youngs Moduli (GPa) = 39.45805 62.74560 100.64196
#
# Poissons Ratio (x) = 0.53045 0.45308
# Poissons Ratio (y) = 0.33358 0.16490
# Poissons Ratio (z) = 0.17764 0.10281
#
# Static dielectric constant tensor:
#      x y z
#    x 3.437830 0.000000 -0.207580 
#    y 0.000000 4.069950 0.000000 
#    z -0.207580 0.000000 4.306180 
# 
# 
# High freq. dielectric constant tensor:
#      x y z
#    x 1.772040 0.000000 -0.015140 
#    y 0.000000 1.832460 0.000000 
#    z -0.015140 0.000000 1.845350 
# 
# From -- ./inp_files/136070.got.cif
#   From: 2010.06.25/outbox.cif.g09.slc.cpg/sg15_69_cif.got.tgz:136070.got - 2010.06.28 07:06:18.
