data_PCOD8135498
_publ_section_title
;
Structure prediction by ZEFSAII (Michael W. Deem and Ramdas Pophale) SiO2 
 PCOD8135498
Probable space group: C 2/C
;
_chemical_formula_sum "Si O2"
_cell_formula_units_Z 56
_cell_length_a 8.044001
_cell_length_b 21.923194
_cell_length_c 20.329695
_cell_angle_alpha 90.000000
_cell_angle_beta 48.024678
_cell_angle_gamma 90.000000
_cell_volume 2665.315453
_symmetry_space_group_name_H-M "C 2/C"
_symmetry_group_IT_number 15
_symmetry_cell_setting 'monoclinic'
loop_
_space_group_symop_operation_xyz
x,y,z
-x,y,1/2-z
-x,-y,-z
x,-y,1/2+z
1/2+x,1/2+y,z
1/2-x,1/2+y,1/2-z
1/2-x,1/2-y,-z
1/2+x,1/2-y,1/2+z
loop_
_atom_site_type_symbol
_atom_site_label
_atom_site_fract_x
_atom_site_fract_y
_atom_site_fract_z
Si Si1 0.523502 0.472391 0.349889
Si Si2 0.000000 0.070830 0.250000
Si Si3 0.960056 0.362432 0.632173
Si Si4 0.546661 0.729642 0.814431
Si Si5 0.148926 0.474522 0.645191
Si Si6 0.924014 0.587439 0.665844
Si Si7 0.203093 0.632031 0.939228
Si Si8 0.000000 0.323892 0.250000
O O1 0.438428 0.527751 0.327310
O O2 0.609623 0.503018 0.394728
O O3 0.689040 0.427097 0.265227
O O4 0.316190 0.432132 0.427942
O O5 0.211224 0.112958 0.211321
O O6 0.000791 0.299944 0.659256
O O7 0.145723 0.408241 0.613379
O O8 0.002124 0.354956 0.543210
O O9 0.500000 0.716106 0.750000
O O10 0.375336 0.687935 0.900324
O O11 0.798083 0.716427 0.773963
O O12 0.000000 0.475495 0.750000
O O13 0.047606 0.523326 0.620108
O O14 0.892519 0.625990 0.608519
O O15 0.078788 0.630757 0.670602
#
# Coordination Sequence:
#
# PCOD8135498 Si02
#       8
#     8   4   8   8   8   8   8   4
#     4  11  19  37  70  94 128 168 222 266 325 400
#     4  12  23  42  64  96 131 174 220 260 334 418
#     4  12  27  42  63  93 140 174 214 278 336 397
#     4  12  25  45  73  94 128 184 228 265 329 399
#     4  10  19  38  64  91 129 168 216 260 327 398
#     4  11  18  37  70  99 125 164 215 280 321 389
#     4  12  23  42  66 101 130 169 224 284 331 374
#     4  12  21  42  76 100 119 172 234 276 314 398
#
# _framework density 21.010645
#
# number of rings (size 3 to 8) (size 9 to 14) (size 15 to 20)
#    0.000    0.571    9.286    1.286    0.000    2.857 
#    0.000    2.143    0.000    0.000    0.000    0.000 
#    0.000    0.000    0.000    0.000    0.000    0.000 
#
# Total GULP energy -347142.952783 kJ/mol
# GULP energy per Si atom -12397.962599 kJ/mol
# Density = 2.096282 g / cm^3
# Si number density = 21.010645 Si / 1000 Ang^3
#
#
#
# Elastic Constant Matrix: (Units=GPa)
#
#
# Indices 1 2 3 4 5 6 
#
# 1 118.9646 41.7549 16.8245 0.0000 14.3310 0.0000
# 2 41.7549 131.4854 25.5708 0.0000 2.2298 0.0000
# 3 16.8245 25.5708 47.8411 0.0000 5.9828 0.0000
# 4 0.0000 0.0000 0.0000 17.4854 0.0000 11.5526
# 5 14.3310 2.2298 5.9828 0.0000 19.6253 0.0000
# 6 0.0000 0.0000 0.0000 11.5526 0.0000 30.8855
#
#
#
# Elastic Compliance Matrix: (Units=1/GPa)
#
#
# Indices 1 2 3 4 5 6 
#
# 1 0.010453 -0.002964 -0.001226 0.000000 -0.006923 0.000000
# 2 -0.002964 0.009332 -0.004245 0.000000 0.002398 0.000000
# 3 -0.001226 -0.004245 0.024359 0.000000 -0.006048 0.000000
# 4 0.000000 0.000000 0.000000 0.075963 0.000000 -0.028414
# 5 -0.006923 0.002398 -0.006048 0.000000 0.057581 0.000000
# 6 0.000000 0.000000 0.000000 -0.028414 0.000000 0.043006
#
#
# Mechanical properties :
#
#
# Convention : Reuss Voigt Hill
#
# Bulk Modulus (GPa) = 36.66569 51.84349 44.25459
# Shear Modulus (GPa) = 20.27110 27.87531 24.07321
#
# Velocity S-wave (km/s) = 3.10950 3.64637 3.38858
# Velocity P-wave (km/s) = 5.51188 6.51586 6.03479
#
# Compressibility (1/GPa) = 0.02727345
#
# Stress axis : x y z
#
# Youngs Moduli (GPa) = 95.66183 107.16381 41.05218
#
# Poissons Ratio (x) = 0.31760 0.05035
# Poissons Ratio (y) = 0.28352 0.17428
# Poissons Ratio (z) = 0.11732 0.45494
#
# Static dielectric constant tensor:
#      x y z
#    x 4.067730 0.000000 0.153050 
#    y 0.000000 3.929550 0.000000 
#    z 0.153050 0.000000 3.415070 
# 
# 
# High freq. dielectric constant tensor:
#      x y z
#    x 1.831610 0.000000 0.015940 
#    y 0.000000 1.832370 0.000000 
#    z 0.015940 0.000000 1.786890 
# 
# From -- ./inp_files/233802.got.cif
#   From: 2010.06.25/outbox.cif.g09.slc.cpg/sg15_117_cif.got.tgz:233802.got - 2010.06.28 07:06:18.
