data_PCOD8135078
_publ_section_title
;
Structure prediction by ZEFSAII (Michael W. Deem and Ramdas Pophale) SiO2 
 PCOD8135078
Probable space group: C 2/C
;
_chemical_formula_sum "Si O2"
_cell_formula_units_Z 44
_cell_length_a 16.075846
_cell_length_b 13.738530
_cell_length_c 10.565073
_cell_angle_alpha 90.000000
_cell_angle_beta 77.428517
_cell_angle_gamma 90.000000
_cell_volume 2277.443665
_symmetry_space_group_name_H-M "C 2/C"
_symmetry_group_IT_number 15
_symmetry_cell_setting 'monoclinic'
loop_
_space_group_symop_operation_xyz
x,y,z
-x,y,1/2-z
-x,-y,-z
x,-y,1/2+z
1/2+x,1/2+y,z
1/2-x,1/2+y,1/2-z
1/2-x,1/2-y,-z
1/2+x,1/2-y,1/2+z
loop_
_atom_site_type_symbol
_atom_site_label
_atom_site_fract_x
_atom_site_fract_y
_atom_site_fract_z
Si Si1 0.000226 0.384907 0.500554
Si Si2 0.671167 0.785604 0.861148
Si Si3 0.000000 0.273213 0.250000
Si Si4 0.844525 0.149741 0.403028
Si Si5 0.914474 0.757291 0.354705
Si Si6 0.946216 0.965664 0.396940
O O1 0.075138 0.339351 0.563383
O O2 0.000000 0.500000 0.500000
O O3 0.907072 0.355099 0.578828
O O4 0.021904 0.345081 0.356006
O O5 0.759032 0.843010 0.848949
O O6 0.664507 0.753607 0.716139
O O7 0.669724 0.690901 0.950987
O O8 0.919727 0.205844 0.306626
O O9 0.865788 0.036583 0.408552
O O10 0.907615 0.857713 0.437566
O O11 0.000000 0.772206 0.250000
O O12 0.000000 0.969472 0.250000
O O13 0.000000 0.000000 0.500000
#
# Coordination Sequence:
#
# PCOD8135078 Si02
#       6
#     8   8   4   8   8   8
#     4  10  21  37  61  80 113 157 193 235 288 348
#     4   9  20  39  57  83 117 156 188 236 293 362
#     4  10  20  36  58  84 108 146 200 242 278 352
#     4  10  19  37  61  84 116 150 191 240 300 348
#     4   9  19  36  56  84 115 149 191 234 289 350
#     4  11  20  34  62  89 116 153 197 244 304 361
#
# _framework density 19.319906
#
# number of rings (size 3 to 8) (size 9 to 14) (size 15 to 20)
#    0.000    2.182    0.909    4.364    3.818    0.000 
#    3.273    4.545    0.000    0.000    0.000    0.000 
#    0.000    0.000    0.000    0.000    0.000    0.000 
#
# Total GULP energy -272732.529982 kJ/mol
# GULP energy per Si atom -12396.933181 kJ/mol
# Density = 1.927593 g / cm^3
# Si number density = 19.319906 Si / 1000 Ang^3
#
#
#
# Elastic Constant Matrix: (Units=GPa)
#
#
# Indices 1 2 3 4 5 6 
#
# 1 101.2756 42.1188 45.3860 0.0000 33.3031 0.0000
# 2 42.1188 166.9569 47.9742 0.0000 27.0242 0.0000
# 3 45.3860 47.9742 109.9466 0.0000 34.5645 0.0000
# 4 0.0000 0.0000 0.0000 22.3680 0.0000 6.7644
# 5 33.3031 27.0242 34.5645 0.0000 36.9813 0.0000
# 6 0.0000 0.0000 0.0000 6.7644 0.0000 18.6076
#
#
#
# Elastic Compliance Matrix: (Units=1/GPa)
#
#
# Indices 1 2 3 4 5 6 
#
# 1 0.014848 -0.001438 -0.002306 0.000000 -0.010165 0.000000
# 2 -0.001438 0.007253 -0.001858 0.000000 -0.002269 0.000000
# 3 -0.002306 -0.001858 0.013847 0.000000 -0.009507 0.000000
# 4 0.000000 0.000000 0.000000 0.050229 0.000000 -0.018259
# 5 -0.010165 -0.002269 -0.009507 0.000000 0.046739 0.000000
# 6 0.000000 0.000000 0.000000 -0.018259 0.000000 0.060379
#
#
# Mechanical properties :
#
#
# Convention : Reuss Voigt Hill
#
# Bulk Modulus (GPa) = 40.41340 72.12634 56.26987
# Shear Modulus (GPa) = 23.50197 31.77139 27.63668
#
# Velocity S-wave (km/s) = 3.49157 4.05963 3.78627
# Velocity P-wave (km/s) = 6.10067 7.70635 6.95004
#
# Compressibility (1/GPa) = 0.02474427
#
# Stress axis : x y z
#
# Youngs Moduli (GPa) = 67.34818 137.86491 72.21762
#
# Poissons Ratio (x) = 0.19821 0.16656
# Poissons Ratio (y) = 0.09683 0.13419
# Poissons Ratio (z) = 0.15533 0.25618
#
# Static dielectric constant tensor:
#      x y z
#    x 3.692430 0.000000 0.381990 
#    y 0.000000 3.710790 0.000000 
#    z 0.381990 0.000000 3.831670 
# 
# 
# High freq. dielectric constant tensor:
#      x y z
#    x 1.732390 0.000000 0.021010 
#    y 0.000000 1.755910 0.000000 
#    z 0.021010 0.000000 1.755530 
# 
# From -- ./inp_files/103297.got.cif
#   From: 2010.06.25/outbox.cif.g09.slc.cpg/sg15_52_cif.got.tgz:103297.got - 2010.06.28 07:06:18.
