data_PCOD8135852
_publ_section_title
;
Structure prediction by ZEFSAII (Michael W. Deem and Ramdas Pophale) SiO2 
 PCOD8135852
Probable space group: C 2/C
;
_chemical_formula_sum "Si O2"
_cell_formula_units_Z 44
_cell_length_a 9.149571
_cell_length_b 16.979885
_cell_length_c 14.572587
_cell_angle_alpha 90.000000
_cell_angle_beta 72.149508
_cell_angle_gamma 90.000000
_cell_volume 2154.988914
_symmetry_space_group_name_H-M "C 2/C"
_symmetry_group_IT_number 15
_symmetry_cell_setting 'monoclinic'
loop_
_space_group_symop_operation_xyz
x,y,z
-x,y,1/2-z
-x,-y,-z
x,-y,1/2+z
1/2+x,1/2+y,z
1/2-x,1/2+y,1/2-z
1/2-x,1/2-y,-z
1/2+x,1/2-y,1/2+z
loop_
_atom_site_type_symbol
_atom_site_label
_atom_site_fract_x
_atom_site_fract_y
_atom_site_fract_z
Si Si1 0.550826 0.387662 0.408793
Si Si2 0.000000 0.346044 0.750000
Si Si3 0.299245 0.722536 0.889632
Si Si4 0.334043 0.877424 0.236893
Si Si5 0.754348 0.444292 0.707798
Si Si6 0.013091 0.068579 0.109306
O O1 0.422871 0.346686 0.372404
O O2 0.713049 0.354575 0.340334
O O3 0.536208 0.480671 0.406100
O O4 0.526227 0.370331 0.521917
O O5 0.872671 0.297379 0.827371
O O6 0.915079 0.399564 0.690139
O O7 0.169077 0.684764 0.847892
O O8 0.250000 0.750000 0.000000
O O9 0.500000 0.875437 0.250000
O O10 0.287091 0.963625 0.211921
O O11 0.627306 0.404949 0.799468
O O12 0.682852 0.431016 0.621136
#
# Coordination Sequence:
#
# PCOD8135852 Si02
#       6
#     8   4   8   8   8   8
#     4  10  19  40  65  92 123 172 220 263 325 394
#     4  12  24  42  62 100 134 166 210 282 330 378
#     4  12  25  44  65  92 134 180 217 268 344 396
#     4  11  22  43  67  91 129 179 225 265 328 398
#     4  10  20  39  64  97 133 165 219 275 320 387
#     4   9  19  36  68  94 122 168 222 266 316 390
#
# _framework density 20.417738
#
# number of rings (size 3 to 8) (size 9 to 14) (size 15 to 20)
#    0.000    1.455    4.545    1.091    0.000    1.455 
#    6.545    3.636    0.000    0.000    0.000    0.000 
#    0.000    0.000    0.000    0.000    0.000    0.000 
#
# Total GULP energy -272650.464301 kJ/mol
# GULP energy per Si atom -12393.202923 kJ/mol
# Density = 2.037127 g / cm^3
# Si number density = 20.417738 Si / 1000 Ang^3
#
#
#
# Elastic Constant Matrix: (Units=GPa)
#
#
# Indices 1 2 3 4 5 6 
#
# 1 127.8276 20.8279 27.2781 0.0000 21.7685 0.0000
# 2 20.8279 49.7339 22.0191 0.0000 -0.7995 0.0000
# 3 27.2781 22.0191 97.9950 0.0000 9.4403 0.0000
# 4 0.0000 0.0000 0.0000 27.4957 0.0000 8.9760
# 5 21.7685 -0.7995 9.4403 0.0000 28.9191 0.0000
# 6 0.0000 0.0000 0.0000 8.9760 0.0000 29.8847
#
#
#
# Elastic Compliance Matrix: (Units=1/GPa)
#
#
# Indices 1 2 3 4 5 6 
#
# 1 0.009912 -0.003720 -0.001233 0.000000 -0.007161 0.000000
# 2 -0.003720 0.023877 -0.004814 0.000000 0.005032 0.000000
# 3 -0.001233 -0.004814 0.011928 0.000000 -0.003099 0.000000
# 4 0.000000 0.000000 0.000000 0.040323 0.000000 -0.012111
# 5 -0.007161 0.005032 -0.003099 0.000000 0.041120 0.000000
# 6 0.000000 0.000000 0.000000 -0.012111 0.000000 0.037100
#
#
# Mechanical properties :
#
#
# Convention : Reuss Voigt Hill
#
# Bulk Modulus (GPa) = 38.19432 46.20074 42.19753
# Shear Modulus (GPa) = 25.97088 30.95532 28.46310
#
# Velocity S-wave (km/s) = 3.57035 3.89794 3.73773
# Velocity P-wave (km/s) = 5.97859 6.55251 6.27212
#
# Compressibility (1/GPa) = 0.02618190
#
# Stress axis : x y z
#
# Youngs Moduli (GPa) = 100.88873 41.88073 83.83504
#
# Poissons Ratio (x) = 0.15580 0.10340
# Poissons Ratio (y) = 0.37531 0.40361
# Poissons Ratio (z) = 0.12443 0.20163
#
# Static dielectric constant tensor:
#      x y z
#    x 3.529170 0.000000 -0.045450 
#    y 0.000000 3.566810 0.000000 
#    z -0.045450 0.000000 4.012360 
# 
# 
# High freq. dielectric constant tensor:
#      x y z
#    x 1.799560 0.000000 0.011430 
#    y 0.000000 1.788260 0.000000 
#    z 0.011430 0.000000 1.796750 
# 
# From -- ./inp_files/134284.got.cif
#   From: 2010.06.25/outbox.cif.g09.slc.cpg/sg15_68_cif.got.tgz:134284.got - 2010.06.28 07:06:18.
