data_PCOD8135175
_publ_section_title
;
Structure prediction by ZEFSAII (Michael W. Deem and Ramdas Pophale) SiO2 
 PCOD8135175
Probable space group: C 2/C
;
_chemical_formula_sum "Si O2"
_cell_formula_units_Z 40
_cell_length_a 24.199215
_cell_length_b 15.865748
_cell_length_c 16.808572
_cell_angle_alpha 90.000000
_cell_angle_beta 164.015930
_cell_angle_gamma 90.000000
_cell_volume 1777.089934
_symmetry_space_group_name_H-M "C 2/C"
_symmetry_group_IT_number 15
_symmetry_cell_setting 'monoclinic'
loop_
_space_group_symop_operation_xyz
x,y,z
-x,y,1/2-z
-x,-y,-z
x,-y,1/2+z
1/2+x,1/2+y,z
1/2-x,1/2+y,1/2-z
1/2-x,1/2-y,-z
1/2+x,1/2-y,1/2+z
loop_
_atom_site_type_symbol
_atom_site_label
_atom_site_fract_x
_atom_site_fract_y
_atom_site_fract_z
Si Si1 0.582975 0.059183 0.680760
Si Si2 0.386067 0.793082 0.385118
Si Si3 0.775121 0.472024 0.472298
Si Si4 0.310318 0.875274 0.932435
Si Si5 0.277154 0.795271 0.413422
O O1 0.690728 0.135882 0.783180
O O2 0.390279 0.097863 0.457437
O O3 0.500000 0.000000 0.500000
O O4 0.725821 0.003515 0.936804
O O5 0.327738 0.704998 0.265337
O O6 0.285179 0.813073 0.329956
O O7 0.629642 0.783299 0.729932
O O8 0.675758 0.548349 0.283902
O O9 0.686209 0.378722 0.333782
O O10 0.000000 0.465120 0.750000
O O11 0.500000 0.852887 0.250000
O O12 0.500000 0.770223 0.750000
#
# Coordination Sequence:
#
# PCOD8135175 Si02
#       5
#     8   8   8   8   8
#     4  10  19  37  64  86 121 171 211 247 323 382
#     4  12  22  39  66  95 123 164 217 264 311 381
#     4   8  18  37  59  85 125 165 198 256 320 368
#     4   9  20  38  61  92 125 162 209 261 315 375
#     4  11  23  40  62  93 127 167 208 265 318 373
#
# _framework density 22.508709
#
# number of rings (size 3 to 8) (size 9 to 14) (size 15 to 20)
#    0.000    2.400    2.000    4.200    0.000    4.000 
#    0.000    0.000    0.000    0.000    0.000    0.000 
#    0.000    0.000    0.000    0.000    0.000    0.000 
#
# Total GULP energy -247786.166782 kJ/mol
# GULP energy per Si atom -12389.308339 kJ/mol
# Density = 2.245748 g / cm^3
# Si number density = 22.508709 Si / 1000 Ang^3
#
#
#
# Elastic Constant Matrix: (Units=GPa)
#
#
# Indices 1 2 3 4 5 6 
#
# 1 132.8987 45.8299 5.6720 0.0000 -16.1393 -0.0001
# 2 45.8299 110.2214 22.1518 -0.0001 -14.0911 -0.0001
# 3 5.6720 22.1518 35.3838 0.0000 -2.0899 0.0000
# 4 0.0000 -0.0001 0.0000 28.6463 0.0000 -14.0643
# 5 -16.1393 -14.0911 -2.0899 0.0000 19.3107 0.0000
# 6 -0.0001 -0.0001 0.0000 -14.0643 0.0000 39.4383
#
#
#
# Elastic Compliance Matrix: (Units=1/GPa)
#
#
# Indices 1 2 3 4 5 6 
#
# 1 0.009303 -0.003363 0.000934 0.000000 0.005422 0.000000
# 2 -0.003363 0.012600 -0.007017 0.000000 0.005625 0.000000
# 3 0.000934 -0.007017 0.032456 0.000000 -0.000827 0.000000
# 4 0.000000 0.000000 0.000000 0.042318 0.000000 0.015091
# 5 0.005422 0.005625 -0.000827 0.000000 0.060331 0.000000
# 6 0.000000 0.000000 0.000000 0.015091 0.000000 0.030738
#
#
# Mechanical properties :
#
#
# Convention : Reuss Voigt Hill
#
# Bulk Modulus (GPa) = 28.19453 47.31236 37.75345
# Shear Modulus (GPa) = 22.88759 31.13575 27.01167
#
# Velocity S-wave (km/s) = 3.19224 3.72328 3.46794
# Velocity P-wave (km/s) = 5.11277 6.28879 5.73103
#
# Compressibility (1/GPa) = 0.03546787
#
# Stress axis : x y z
#
# Youngs Moduli (GPa) = 107.49523 79.36426 30.81109
#
# Poissons Ratio (x) = 0.26687 -0.02878
# Poissons Ratio (y) = 0.36146 0.21620
# Poissons Ratio (z) = -0.10042 0.55690
#
# Static dielectric constant tensor:
#      x y z
#    x 4.165180 0.000000 -0.342870 
#    y 0.000000 3.196730 0.000010 
#    z -0.342870 0.000010 3.948310 
# 
# 
# High freq. dielectric constant tensor:
#      x y z
#    x 1.893930 0.000000 -0.021370 
#    y 0.000000 1.901880 0.000000 
#    z -0.021370 0.000000 1.843250 
# 
# From -- ./inp_files/56849.got.cif
#   From: 2010.06.25/outbox.cif.g09.slc.cpg/sg15_29_cif.got.tgz:56849.got - 2010.06.28 07:06:18.
