data_PCOD8135482
_publ_section_title
;
Structure prediction by ZEFSAII (Michael W. Deem and Ramdas Pophale) SiO2 
 PCOD8135482
Probable space group: C 2/C
;
_chemical_formula_sum "Si O2"
_cell_formula_units_Z 56
_cell_length_a 8.451201
_cell_length_b 27.021886
_cell_length_c 13.741905
_cell_angle_alpha 90.000000
_cell_angle_beta 109.842737
_cell_angle_gamma 90.000000
_cell_volume 2951.881096
_symmetry_space_group_name_H-M "C 2/C"
_symmetry_group_IT_number 15
_symmetry_cell_setting 'monoclinic'
loop_
_space_group_symop_operation_xyz
x,y,z
-x,y,1/2-z
-x,-y,-z
x,-y,1/2+z
1/2+x,1/2+y,z
1/2-x,1/2+y,1/2-z
1/2-x,1/2-y,-z
1/2+x,1/2-y,1/2+z
loop_
_atom_site_type_symbol
_atom_site_label
_atom_site_fract_x
_atom_site_fract_y
_atom_site_fract_z
Si Si1 0.598957 0.153689 0.460872
Si Si2 0.999829 0.057094 0.477883
Si Si3 0.899694 0.218273 0.135457
Si Si4 0.319443 0.088093 0.196423
Si Si5 0.761247 0.885937 0.605756
Si Si6 0.559709 0.362489 0.373050
Si Si7 0.530732 0.741735 0.555818
O O1 0.640134 0.136176 0.360321
O O2 0.427714 0.128867 0.466747
O O3 0.738328 0.138597 0.570211
O O4 0.587889 0.212570 0.439154
O O5 0.158502 0.069774 0.440970
O O6 0.818077 0.057446 0.389372
O O7 0.013315 0.093387 0.574356
O O8 0.000000 0.000000 0.500000
O O9 0.885211 0.159783 0.117203
O O10 0.723736 0.245148 0.110656
O O11 0.000000 0.234180 0.250000
O O12 0.007163 0.235680 0.066003
O O13 0.500000 0.059738 0.250000
O O14 0.235698 0.101480 0.280552
O O15 0.500000 0.373321 0.250000
O O16 0.497240 0.308194 0.390201
#
# Coordination Sequence:
#
# PCOD8135482 Si02
#       7
#     8   8   8   8   8   8   8
#     4   9  21  38  59  88 123 153 193 241 294 355
#     4  11  23  41  62  86 116 153 198 249 301 356
#     4  10  20  32  57  89 118 154 203 243 286 347
#     4   9  19  37  63  92 114 145 194 248 295 345
#     4  10  19  38  64  87 113 150 197 253 293 342
#     4  11  24  40  56  83 121 160 196 244 300 362
#     4  10  21  36  54  86 124 158 198 236 293 360
#
# _framework density 18.970953999999999
#
# number of rings (size 3 to 8) (size 9 to 14) (size 15 to 20)
#    0.000    2.000    1.429    1.714    4.000    4.000 
#    0.000    8.571    0.000    0.000    0.000    0.000 
#    0.000    0.000    0.000    0.000    0.000    0.000 
#
# Total GULP energy -346981.986948 kJ/mol
# GULP energy per Si atom -12392.213820 kJ/mol
# Density = 1.892778 g / cm^3
# Si number density = 18.970954 Si / 1000 Ang^3
#
#
#
# Elastic Constant Matrix: (Units=GPa)
#
#
# Indices 1 2 3 4 5 6 
#
# 1 91.2830 59.1863 58.3368 0.0000 -10.8335 0.0000
# 2 59.1863 132.9427 47.9862 0.0000 -11.7272 0.0000
# 3 58.3368 47.9862 146.8541 0.0000 -2.5209 0.0000
# 4 0.0000 0.0000 0.0000 29.1514 0.0000 -8.5392
# 5 -10.8335 -11.7272 -2.5209 0.0000 20.8820 0.0000
# 6 0.0000 0.0000 0.0000 -8.5392 0.0000 32.8896
#
#
#
# Elastic Compliance Matrix: (Units=1/GPa)
#
#
# Indices 1 2 3 4 5 6 
#
# 1 0.019047 -0.005972 -0.005514 0.000000 0.005862 0.000000
# 2 -0.005972 0.010837 -0.001120 0.000000 0.002852 0.000000
# 3 -0.005514 -0.001120 0.009325 0.000000 -0.002364 0.000000
# 4 0.000000 0.000000 0.000000 0.037127 0.000000 0.009639
# 5 0.005862 0.002852 -0.002364 0.000000 0.052246 0.000000
# 6 0.000000 0.000000 0.000000 0.009639 0.000000 0.032907
#
#
# Mechanical properties :
#
#
# Convention : Reuss Voigt Hill
#
# Bulk Modulus (GPa) = 71.44517 78.01095 74.72806
# Shear Modulus (GPa) = 26.12783 30.28929 28.20856
#
# Velocity S-wave (km/s) = 3.71516 4.00010 3.86026
# Velocity P-wave (km/s) = 7.49302 7.90854 7.70358
#
# Compressibility (1/GPa) = 0.01399675
#
# Stress axis : x y z
#
# Youngs Moduli (GPa) = 52.50197 92.27963 107.23646
#
# Poissons Ratio (x) = 0.55112 0.59132
# Poissons Ratio (y) = 0.31356 0.12006
# Poissons Ratio (z) = 0.28950 0.10331
#
# Static dielectric constant tensor:
#      x y z
#    x 3.816920 0.000000 0.171920 
#    y 0.000000 3.296520 0.000000 
#    z 0.171920 0.000000 3.653900 
# 
# 
# High freq. dielectric constant tensor:
#      x y z
#    x 1.750290 0.000000 0.006730 
#    y 0.000000 1.716500 0.000000 
#    z 0.006730 0.000000 1.740310 
# 
# From -- ./inp_files/137282.got.cif
#   From: 2010.06.25/outbox.cif.g09.slc.cpg/sg15_69_cif.got.tgz:137282.got - 2010.06.28 07:06:18.
