data_PCOD8135748
_publ_section_title
;
Structure prediction by ZEFSAII (Michael W. Deem and Ramdas Pophale) SiO2 
 PCOD8135748
Probable space group: C 2/C
;
_chemical_formula_sum "Si O2"
_cell_formula_units_Z 56
_cell_length_a 23.691074
_cell_length_b 7.413103
_cell_length_c 18.183238
_cell_angle_alpha 90.000000
_cell_angle_beta 46.697665
_cell_angle_gamma 90.000000
_cell_volume 2323.994642
_symmetry_space_group_name_H-M "C 2/C"
_symmetry_group_IT_number 15
_symmetry_cell_setting 'monoclinic'
loop_
_space_group_symop_operation_xyz
x,y,z
-x,y,1/2-z
-x,-y,-z
x,-y,1/2+z
1/2+x,1/2+y,z
1/2-x,1/2+y,1/2-z
1/2-x,1/2-y,-z
1/2+x,1/2-y,1/2+z
loop_
_atom_site_type_symbol
_atom_site_label
_atom_site_fract_x
_atom_site_fract_y
_atom_site_fract_z
Si Si1 0.746409 0.147776 0.364711
Si Si2 0.396728 0.560488 0.159568
Si Si3 0.865605 0.106646 0.024938
Si Si4 0.884724 0.321795 0.628695
Si Si5 0.308497 0.979308 0.833498
Si Si6 0.875113 0.447749 0.927381
Si Si7 0.958531 0.742383 0.922893
O O1 0.814687 0.025602 0.271325
O O2 0.695634 0.225235 0.342280
O O3 0.789801 0.312710 0.365473
O O4 0.699778 0.027854 0.463960
O O5 0.389719 0.655578 0.086547
O O6 0.426982 0.356596 0.123138
O O7 0.455220 0.677338 0.157425
O O8 0.772422 0.125447 0.102946
O O9 0.902079 0.259442 0.939616
O O10 0.896179 0.907619 0.974576
O O11 0.865041 0.463511 0.710894
O O12 0.943655 0.380238 0.510460
O O13 0.355373 0.902784 0.860982
O O14 0.943556 0.599900 0.870418
#
# Coordination Sequence:
#
# PCOD8135748 Si02
#       7
#     8   8   8   8   8   8   8
#     4  11  21  38  68 101 131 171 229 289 330 399
#     4  11  22  41  69  98 130 176 225 285 344 395
#     4  11  21  39  69  98 128 168 229 279 342 394
#     4  10  19  39  67 100 127 167 231 285 326 395
#     4  12  22  40  68 103 133 173 225 283 344 402
#     4  11  25  42  69  99 139 177 225 279 346 411
#     4  10  24  45  67  97 138 178 225 281 344 409
#
# _framework density 24.096440999999999
#
# number of rings (size 3 to 8) (size 9 to 14) (size 15 to 20)
#    0.000    1.143    5.714    3.429    4.000    0.571 
#    2.571    0.714    0.000    0.000    0.000    0.000 
#    0.000    0.000    0.000    0.000    0.000    0.000 
#
# Total GULP energy -347030.491459 kJ/mol
# GULP energy per Si atom -12393.946124 kJ/mol
# Density = 2.404160 g / cm^3
# Si number density = 24.096441 Si / 1000 Ang^3
#
#
#
# Elastic Constant Matrix: (Units=GPa)
#
#
# Indices 1 2 3 4 5 6 
#
# 1 78.9902 18.5302 11.9240 0.0024 8.2395 -0.0099
# 2 18.5302 69.6957 7.1293 0.0153 14.2834 -0.0548
# 3 11.9240 7.1293 51.8300 0.0024 6.9156 -0.0034
# 4 0.0024 0.0153 0.0024 24.1414 -0.0015 0.5807
# 5 8.2395 14.2834 6.9156 -0.0015 29.3794 0.0089
# 6 -0.0099 -0.0548 -0.0034 0.5807 0.0089 31.4816
#
#
#
# Elastic Compliance Matrix: (Units=1/GPa)
#
#
# Indices 1 2 3 4 5 6 
#
# 1 0.013956 -0.003077 -0.002545 0.000001 -0.001819 -0.000001
# 2 -0.003077 0.016687 -0.000640 -0.000011 -0.007099 0.000030
# 3 -0.002545 -0.000640 0.020474 -0.000002 -0.003794 0.000001
# 4 0.000001 -0.000011 -0.000002 0.041441 0.000008 -0.000764
# 5 -0.001819 -0.007099 -0.003794 0.000008 0.038892 -0.000024
# 6 -0.000001 0.000030 0.000001 -0.000764 -0.000024 0.031779
#
#
# Mechanical properties :
#
#
# Convention : Reuss Voigt Hill
#
# Bulk Modulus (GPa) = 25.91244 30.63142 28.27193
# Shear Modulus (GPa) = 26.50896 27.86264 27.18580
#
# Velocity S-wave (km/s) = 3.32040 3.40413 3.36253
# Velocity P-wave (km/s) = 5.04748 5.30946 5.18013
#
# Compressibility (1/GPa) = 0.03859150
#
# Stress axis : x y z
#
# Youngs Moduli (GPa) = 71.65604 59.92838 48.84341
#
# Poissons Ratio (x) = 0.18442 0.12429
# Poissons Ratio (y) = 0.22051 0.03127
# Poissons Ratio (z) = 0.18234 0.03836
#
# Static dielectric constant tensor:
#      x y z
#    x 4.191630 -0.000050 -0.051190 
#    y -0.000050 4.122370 0.000040 
#    z -0.051190 0.000040 4.163770 
# 
# 
# High freq. dielectric constant tensor:
#      x y z
#    x 1.944180 -0.000010 -0.008440 
#    y -0.000010 1.952620 0.000000 
#    z -0.008440 0.000000 1.935780 
# 
# From -- ./inp_files/218529.got.cif
#   From: 2010.06.25/outbox.cif.g09.slc.cpg/sg15_110_cif.got.tgz:218529.got - 2010.06.28 07:06:18.
