data_PCOD8135927
_publ_section_title
;
Structure prediction by ZEFSAII (Michael W. Deem and Ramdas Pophale) SiO2 
 PCOD8135927
Probable space group: C 2/C
;
_chemical_formula_sum "Si O2"
_cell_formula_units_Z 48
_cell_length_a 12.972337
_cell_length_b 10.921863
_cell_length_c 15.486549
_cell_angle_alpha 90.000000
_cell_angle_beta 77.441172
_cell_angle_gamma 90.000000
_cell_volume 2141.667348
_symmetry_space_group_name_H-M "C 2/C"
_symmetry_group_IT_number 15
_symmetry_cell_setting 'monoclinic'
loop_
_space_group_symop_operation_xyz
x,y,z
-x,y,1/2-z
-x,-y,-z
x,-y,1/2+z
1/2+x,1/2+y,z
1/2-x,1/2+y,1/2-z
1/2-x,1/2-y,-z
1/2+x,1/2-y,1/2+z
loop_
_atom_site_type_symbol
_atom_site_label
_atom_site_fract_x
_atom_site_fract_y
_atom_site_fract_z
Si Si1 0.967361 0.674257 0.450803
Si Si2 0.669675 0.439417 0.633752
Si Si3 0.795627 0.696545 0.781005
Si Si4 0.605165 0.960492 0.375581
Si Si5 0.168257 0.167773 0.962723
Si Si6 0.389854 0.300597 0.309454
O O1 0.003477 0.548759 0.395788
O O2 0.065921 0.762011 0.449080
O O3 0.909685 0.646142 0.551068
O O4 0.881890 0.742244 0.406126
O O5 0.642760 0.313017 0.689458
O O6 0.795158 0.457422 0.616748
O O7 0.635401 0.435869 0.538376
O O8 0.608809 0.551705 0.688090
O O9 0.879214 0.605251 0.720210
O O10 0.731664 0.620154 0.866555
O O11 0.710072 0.746012 0.726973
O O12 0.250000 0.250000 0.000000
O O13 0.500000 0.254158 0.250000
#
# Coordination Sequence:
#
# PCOD8135927 Si02
#       6
#     8   8   8   8   8   8
#     4  11  22  42  63  93 130 163 213 267 318 371
#     4  10  22  41  63  90 130 167 212 262 319 379
#     4  10  21  42  62  89 127 170 213 257 320 379
#     4  10  22  42  64  93 125 167 217 261 309 387
#     4  10  19  41  64  85 127 168 206 259 315 376
#     4  11  22  41  61  94 130 163 213 269 308 375
#
# _framework density 22.412444000000001
#
# number of rings (size 3 to 8) (size 9 to 14) (size 15 to 20)
#    0.000    1.667    5.000    0.000    0.000    4.667 
#   15.000    5.833    0.000    0.000    0.000    0.000 
#    0.000    0.000    0.000    0.000    0.000    0.000 
#
# Total GULP energy -297517.909953 kJ/mol
# GULP energy per Si atom -12396.579581 kJ/mol
# Density = 2.236143 g / cm^3
# Si number density = 22.412444 Si / 1000 Ang^3
#
#
#
# Elastic Constant Matrix: (Units=GPa)
#
#
# Indices 1 2 3 4 5 6 
#
# 1 35.6530 0.1322 19.8440 0.0000 8.8463 0.0000
# 2 0.1322 73.0853 49.5019 0.0000 4.5744 0.0000
# 3 19.8440 49.5019 151.8575 0.0000 5.2455 0.0000
# 4 0.0000 0.0000 0.0000 44.4304 0.0000 -0.8724
# 5 8.8463 4.5744 5.2455 0.0000 34.5469 0.0000
# 6 0.0000 0.0000 0.0000 -0.8724 0.0000 27.0145
#
#
#
# Elastic Compliance Matrix: (Units=1/GPa)
#
#
# Indices 1 2 3 4 5 6 
#
# 1 0.033054 0.004090 -0.005370 0.000000 -0.008190 0.000000
# 2 0.004090 0.018140 -0.006362 0.000000 -0.002483 0.000000
# 3 -0.005370 -0.006362 0.009333 0.000000 0.000800 0.000000
# 4 0.000000 0.000000 0.000000 0.022521 0.000000 0.000727
# 5 -0.008190 -0.002483 0.000800 0.000000 0.031251 0.000000
# 6 0.000000 0.000000 0.000000 0.000727 0.000000 0.037041
#
#
# Mechanical properties :
#
#
# Convention : Reuss Voigt Hill
#
# Bulk Modulus (GPa) = 22.10282 44.39467 33.24875
# Shear Modulus (GPa) = 27.51743 33.93954 30.72848
#
# Velocity S-wave (km/s) = 3.50776 3.89564 3.70678
# Velocity P-wave (km/s) = 5.12729 6.33133 5.76085
#
# Compressibility (1/GPa) = 0.04524309
#
# Stress axis : x y z
#
# Youngs Moduli (GPa) = 30.25375 55.12814 107.14769
#
# Poissons Ratio (x) = -0.22546 0.57533
# Poissons Ratio (y) = -0.12373 0.68164
# Poissons Ratio (z) = 0.16245 0.35071
#
# Static dielectric constant tensor:
#      x y z
#    x 3.792480 0.000000 0.182670 
#    y 0.000000 3.952470 0.000000 
#    z 0.182670 0.000000 4.846680 
# 
# 
# High freq. dielectric constant tensor:
#      x y z
#    x 1.862830 0.000000 0.003200 
#    y 0.000000 1.864390 0.000000 
#    z 0.003200 0.000000 1.899670 
# 
# From -- ./inp_files/151944.got.cif
#   From: 2010.06.25/outbox.cif.g09.slc.cpg/sg15_76_cif.got.tgz:151944.got - 2010.06.28 07:06:18.
