data_PCOD8135954
_publ_section_title
;
Structure prediction by ZEFSAII (Michael W. Deem and Ramdas Pophale) SiO2 
 PCOD8135954
Probable space group: C 2/C
;
_chemical_formula_sum "Si O2"
_cell_formula_units_Z 64
_cell_length_a 9.033918
_cell_length_b 16.706624
_cell_length_c 32.054585
_cell_angle_alpha 90.000000
_cell_angle_beta 39.705930
_cell_angle_gamma 90.000000
_cell_volume 3090.666635
_symmetry_space_group_name_H-M "C 2/C"
_symmetry_group_IT_number 15
_symmetry_cell_setting 'monoclinic'
loop_
_space_group_symop_operation_xyz
x,y,z
-x,y,1/2-z
-x,-y,-z
x,-y,1/2+z
1/2+x,1/2+y,z
1/2-x,1/2+y,1/2-z
1/2-x,1/2-y,-z
1/2+x,1/2-y,1/2+z
loop_
_atom_site_type_symbol
_atom_site_label
_atom_site_fract_x
_atom_site_fract_y
_atom_site_fract_z
Si Si1 0.597900 0.872002 0.272966
Si Si2 0.117631 0.535407 0.169671
Si Si3 0.545426 0.744240 0.131691
Si Si4 0.449136 0.746322 0.990906
Si Si5 0.835724 0.918593 0.703401
Si Si6 0.062148 0.939620 0.188663
Si Si7 0.496486 0.848385 0.438547
Si Si8 0.989715 0.082477 0.477014
O O1 0.500000 0.843660 0.250000
O O2 0.586329 0.800571 0.307964
O O3 0.865953 0.891824 0.205976
O O4 0.463504 0.945701 0.324962
O O5 0.229196 0.523702 0.191043
O O6 0.306841 0.576420 0.100165
O O7 0.888696 0.593564 0.217661
O O8 0.419969 0.660234 0.162676
O O9 0.530677 0.773455 0.086926
O O10 0.814235 0.735714 0.085361
O O11 0.250000 0.750000 0.000000
O O12 0.429258 0.811729 0.032780
O O13 0.450820 0.655421 0.005851
O O14 0.043866 0.965454 0.681588
O O15 0.312045 0.908842 0.120778
O O16 0.000000 0.925105 0.250000
O O17 0.257521 0.899902 0.492214
O O18 0.000000 0.000000 0.500000
#
# Coordination Sequence:
#
# PCOD8135954 Si02
#       8
#     8   8   8   8   8   8   8   8
#     4  11  22  41  66  95 129 172 213 269 321 392
#     4  10  19  41  66  91 122 168 219 249 320 384
#     4  11  23  43  65  96 130 171 217 266 330 387
#     4  11  26  45  64  97 134 171 221 278 325 394
#     4  10  22  38  66  94 128 161 208 279 311 377
#     4  11  23  41  67  96 130 169 219 268 327 387
#     4  11  24  45  68  92 133 178 222 266 327 404
#     4  11  24  42  72  93 128 179 219 263 321 403
#
# _framework density 20.707505999999999
#
# number of rings (size 3 to 8) (size 9 to 14) (size 15 to 20)
#    0.000    1.250    3.750    4.500    3.500    5.500 
#    0.000    1.875    0.000    0.000    0.000    0.000 
#    0.000    0.000    0.000    0.000    0.000    0.000 
#
# Total GULP energy -396644.696847 kJ/mol
# GULP energy per Si atom -12395.146776 kJ/mol
# Density = 2.066037 g / cm^3
# Si number density = 20.707506 Si / 1000 Ang^3
#
#
#
# Elastic Constant Matrix: (Units=GPa)
#
#
# Indices 1 2 3 4 5 6 
#
# 1 119.0247 39.9851 36.8412 -0.0051 -11.8858 0.0101
# 2 39.9851 100.3177 49.0687 -0.0030 -9.1281 0.0041
# 3 36.8412 49.0687 120.7703 -0.0122 -24.0248 -0.0095
# 4 -0.0051 -0.0030 -0.0122 25.0376 0.0000 -2.1500
# 5 -11.8858 -9.1281 -24.0248 0.0000 33.8206 -0.0002
# 6 0.0101 0.0041 -0.0095 -2.1500 -0.0002 19.9420
#
#
#
# Elastic Compliance Matrix: (Units=1/GPa)
#
#
# Indices 1 2 3 4 5 6 
#
# 1 0.010078 -0.003150 -0.001466 0.000001 0.001650 -0.000005
# 2 -0.003150 0.013427 -0.004651 -0.000002 -0.000787 -0.000004
# 3 -0.001466 -0.004651 0.011954 0.000006 0.006721 0.000008
# 4 0.000001 -0.000002 0.000006 0.040313 0.000004 0.004346
# 5 0.001650 -0.000787 0.006721 0.000004 0.034710 0.000003
# 6 -0.000005 -0.000004 0.000008 0.004346 0.000003 0.050614
#
#
# Mechanical properties :
#
#
# Convention : Reuss Voigt Hill
#
# Bulk Modulus (GPa) = 59.08315 65.76698 62.42506
# Shear Modulus (GPa) = 26.98718 30.04121 28.51420
#
# Velocity S-wave (km/s) = 3.61398 3.81299 3.71482
# Velocity P-wave (km/s) = 6.78297 7.15640 6.97219
#
# Compressibility (1/GPa) = 0.01692530
#
# Stress axis : x y z
#
# Youngs Moduli (GPa) = 99.22202 74.47581 83.65164
#
# Poissons Ratio (x) = 0.23457 0.12267
# Poissons Ratio (y) = 0.31251 0.38908
# Poissons Ratio (z) = 0.14551 0.34640
#
# Static dielectric constant tensor:
#      x y z
#    x 3.899590 -0.000010 -0.103290 
#    y -0.000010 3.670390 0.000010 
#    z -0.103290 0.000010 4.119000 
# 
# 
# High freq. dielectric constant tensor:
#      x y z
#    x 1.810700 0.000000 -0.007980 
#    y 0.000000 1.805130 0.000000 
#    z -0.007980 0.000000 1.819720 
# 
# From -- ./inp_files/308776.got.cif
#   From: 2010.06.25/outbox.cif.g09.slc.cpg/sg15_155_cif.got.tgz:308776.got - 2010.06.28 07:06:18.
