data_PCOD8135455
_publ_section_title
;
Structure prediction by ZEFSAII (Michael W. Deem and Ramdas Pophale) SiO2 
 PCOD8135455
Probable space group: C 2/C
;
_chemical_formula_sum "Si O2"
_cell_formula_units_Z 56
_cell_length_a 14.473713
_cell_length_b 17.292928
_cell_length_c 14.434403
_cell_angle_alpha 90.000000
_cell_angle_beta 50.854955
_cell_angle_gamma 90.000000
_cell_volume 2801.930180
_symmetry_space_group_name_H-M "C 2/C"
_symmetry_group_IT_number 15
_symmetry_cell_setting 'monoclinic'
loop_
_space_group_symop_operation_xyz
x,y,z
-x,y,1/2-z
-x,-y,-z
x,-y,1/2+z
1/2+x,1/2+y,z
1/2-x,1/2+y,1/2-z
1/2-x,1/2-y,-z
1/2+x,1/2-y,1/2+z
loop_
_atom_site_type_symbol
_atom_site_label
_atom_site_fract_x
_atom_site_fract_y
_atom_site_fract_z
Si Si1 0.530893 0.114092 0.408043
Si Si2 0.618425 0.973990 0.016189
Si Si3 0.529132 0.455310 0.832979
Si Si4 0.691397 0.220177 0.943263
Si Si5 0.288120 0.576760 0.781164
Si Si6 0.780584 0.966928 0.081853
Si Si7 0.281425 0.625603 0.167824
O O1 0.557081 0.097329 0.500595
O O2 0.434023 0.180569 0.457020
O O3 0.647981 0.144111 0.283913
O O4 0.483963 0.034950 0.389108
O O5 0.687976 0.940839 0.061241
O O6 0.706960 0.017341 0.889737
O O7 0.500000 0.424622 0.750000
O O8 0.575829 0.544744 0.800120
O O9 0.637928 0.403464 0.799230
O O10 0.415716 0.445260 0.970505
O O11 0.778538 0.161973 0.831334
O O12 0.661547 0.295291 0.902544
O O13 0.750000 0.250000 0.000000
O O14 0.246341 0.575518 0.699725
O O15 0.776014 0.060154 0.091681
#
# Coordination Sequence:
#
# PCOD8135455 Si02
#       7
#     8   8   8   8   8   8   8
#     4  10  21  40  60  88 126 168 203 267 307 382
#     4  10  19  38  63  89 124 155 220 264 310 365
#     4  11  21  38  66  90 125 169 213 269 318 371
#     4  11  26  42  59  89 132 169 205 257 334 388
#     4  10  20  40  60  95 124 165 219 263 311 387
#     4  11  21  37  65  96 121 168 217 268 318 370
#     4  11  22  40  59  92 127 161 211 257 320 381
#
# _framework density 19.986222999999999
#
# number of rings (size 3 to 8) (size 9 to 14) (size 15 to 20)
#    0.000    1.429    4.286    3.429    0.000    4.571 
#    0.000    1.429    0.000    3.429    0.000    0.000 
#    0.000    0.000    0.000    0.000    0.000    0.000 
#
# Total GULP energy -347156.249238 kJ/mol
# GULP energy per Si atom -12398.437473 kJ/mol
# Density = 1.994073 g / cm^3
# Si number density = 19.986223 Si / 1000 Ang^3
#
#
#
# Elastic Constant Matrix: (Units=GPa)
#
#
# Indices 1 2 3 4 5 6 
#
# 1 142.2934 32.9769 46.7540 0.0000 8.9435 0.0000
# 2 32.9769 96.6580 32.7306 0.0000 2.9320 0.0000
# 3 46.7540 32.7306 86.1846 0.0000 10.0651 0.0000
# 4 0.0000 0.0000 0.0000 27.7933 0.0000 -2.6539
# 5 8.9435 2.9320 10.0651 0.0000 33.5439 0.0000
# 6 0.0000 0.0000 0.0000 -2.6539 0.0000 25.1840
#
#
#
# Elastic Compliance Matrix: (Units=1/GPa)
#
#
# Indices 1 2 3 4 5 6 
#
# 1 0.008790 -0.001599 -0.004046 0.000000 -0.000990 0.000000
# 2 -0.001599 0.012167 -0.003812 0.000000 0.000507 0.000000
# 3 -0.004046 -0.003812 0.015628 0.000000 -0.003278 0.000000
# 4 0.000000 0.000000 0.000000 0.036346 0.000000 0.003830
# 5 -0.000990 0.000507 -0.003278 0.000000 0.031015 0.000000
# 6 0.000000 0.000000 0.000000 0.003830 0.000000 0.040111
#
#
# Mechanical properties :
#
#
# Convention : Reuss Voigt Hill
#
# Bulk Modulus (GPa) = 56.58930 61.11767 58.85349
# Shear Modulus (GPa) = 29.61018 31.48252 30.54635
#
# Velocity S-wave (km/s) = 3.85324 3.97320 3.91368
# Velocity P-wave (km/s) = 6.94062 7.18990 7.06636
#
# Compressibility (1/GPa) = 0.01767118
#
# Stress axis : x y z
#
# Youngs Moduli (GPa) = 113.76891 82.19046 63.98658
#
# Poissons Ratio (x) = 0.13141 0.25886
# Poissons Ratio (y) = 0.18190 0.24395
# Poissons Ratio (z) = 0.46025 0.31335
#
# Static dielectric constant tensor:
#      x y z
#    x 3.786600 0.000000 -0.099420 
#    y 0.000000 3.562030 0.000000 
#    z -0.099420 0.000000 3.802710 
# 
# 
# High freq. dielectric constant tensor:
#      x y z
#    x 1.793470 0.000000 -0.004570 
#    y 0.000000 1.742550 0.000000 
#    z -0.004570 0.000000 1.787370 
# 
# From -- ./inp_files/155125.got.cif
#   From: 2010.06.25/outbox.cif.g09.slc.cpg/sg15_78_cif.got.tgz:155125.got - 2010.06.28 07:06:18.
