data_PCOD8135524
_publ_section_title
;
Structure prediction by ZEFSAII (Michael W. Deem and Ramdas Pophale) SiO2 
 PCOD8135524
Probable space group: C 2/C
;
_chemical_formula_sum "Si O2"
_cell_formula_units_Z 52
_cell_length_a 15.866545
_cell_length_b 9.820694
_cell_length_c 22.531042
_cell_angle_alpha 90.000000
_cell_angle_beta 43.591278
_cell_angle_gamma 90.000000
_cell_volume 2420.727759
_symmetry_space_group_name_H-M "C 2/C"
_symmetry_group_IT_number 15
_symmetry_cell_setting 'monoclinic'
loop_
_space_group_symop_operation_xyz
x,y,z
-x,y,1/2-z
-x,-y,-z
x,-y,1/2+z
1/2+x,1/2+y,z
1/2-x,1/2+y,1/2-z
1/2-x,1/2-y,-z
1/2+x,1/2-y,1/2+z
loop_
_atom_site_type_symbol
_atom_site_label
_atom_site_fract_x
_atom_site_fract_y
_atom_site_fract_z
Si Si1 0.500000 0.879353 0.750000
Si Si2 0.104286 0.250503 0.578270
Si Si3 0.018833 0.252940 0.348240
Si Si4 0.075256 0.487013 0.020960
Si Si5 0.536623 0.508722 0.913207
Si Si6 0.206676 0.591078 0.685728
Si Si7 0.280199 0.710274 0.418430
O O1 0.554545 0.783689 0.669956
O O2 0.609622 0.973051 0.719328
O O3 0.250000 0.250000 0.500000
O O4 0.066137 0.363708 0.551357
O O5 0.046631 0.109813 0.583648
O O6 0.147082 0.283417 0.251892
O O7 0.980473 0.391175 0.400439
O O8 0.927635 0.202531 0.341931
O O9 0.024321 0.141975 0.395778
O O10 0.212435 0.431202 0.935485
O O11 0.000000 0.500000 0.000000
O O12 0.680531 0.539713 0.832821
O O13 0.500000 0.500000 0.000000
O O14 0.264052 0.661419 0.598076
O O15 0.250000 0.750000 0.500000
#
# Coordination Sequence:
#
# PCOD8135524 Si02
#       7
#     4   8   8   8   8   8   8
#     4  12  24  48  72 102 148 196 236 298 370 432
#     4  12  26  49  73 107 148 194 238 300 370 429
#     4  11  23  43  65 100 132 183 233 284 351 425
#     4  11  22  41  72 101 137 179 238 293 353 418
#     4  12  27  46  71 103 143 185 239 298 363 430
#     4  12  23  43  71 100 141 184 235 300 355 421
#     4  10  19  38  65  95 129 176 232 277 340 425
#
# _framework density 21.481142999999999
#
# number of rings (size 3 to 8) (size 9 to 14) (size 15 to 20)
#    0.000    0.615    3.077    6.462    2.154    1.231 
#    5.538    0.000    0.000    0.000    0.000    0.000 
#    0.000    0.000    0.000    0.000    0.000    0.000 
#
# Total GULP energy -322265.749146 kJ/mol
# GULP energy per Si atom -12394.836506 kJ/mol
# Density = 2.143225 g / cm^3
# Si number density = 21.481143 Si / 1000 Ang^3
#
#
#
# Elastic Constant Matrix: (Units=GPa)
#
#
# Indices 1 2 3 4 5 6 
#
# 1 113.2835 13.7380 33.4007 0.0000 -9.6518 0.0000
# 2 13.7380 69.4517 30.4957 0.0000 7.6639 0.0001
# 3 33.4007 30.4957 101.1665 0.0000 0.4953 0.0000
# 4 0.0000 0.0000 0.0000 47.0655 0.0000 3.7018
# 5 -9.6518 7.6639 0.4953 0.0000 40.4369 0.0000
# 6 0.0000 0.0001 0.0000 3.7018 0.0000 39.2971
#
#
#
# Elastic Compliance Matrix: (Units=1/GPa)
#
#
# Indices 1 2 3 4 5 6 
#
# 1 0.010064 -0.000939 -0.003052 0.000000 0.002618 0.000000
# 2 -0.000939 0.017076 -0.004821 0.000000 -0.003402 0.000000
# 3 -0.003052 -0.004821 0.012345 0.000000 0.000034 0.000000
# 4 0.000000 0.000000 0.000000 0.021406 0.000000 -0.002016
# 5 0.002618 -0.003402 0.000034 0.000000 0.025999 0.000000
# 6 0.000000 0.000000 0.000000 -0.002016 0.000000 0.025637
#
#
# Mechanical properties :
#
#
# Convention : Reuss Voigt Hill
#
# Bulk Modulus (GPa) = 45.74324 48.79673 47.26998
# Shear Modulus (GPa) = 36.37950 39.11106 37.74528
#
# Velocity S-wave (km/s) = 4.11975 4.27161 4.19637
# Velocity P-wave (km/s) = 6.63103 6.86253 6.74777
#
# Compressibility (1/GPa) = 0.02186116
#
# Stress axis : x y z
#
# Youngs Moduli (GPa) = 99.36063 58.56035 81.00127
#
# Poissons Ratio (x) = 0.05501 0.24725
# Poissons Ratio (y) = 0.09333 0.39049
# Poissons Ratio (z) = 0.30330 0.28230
#
# Static dielectric constant tensor:
#      x y z
#    x 4.014550 0.000000 0.269060 
#    y 0.000000 -1.464210 0.000000 
#    z 0.269060 0.000000 3.341080 
# 
# 
# High freq. dielectric constant tensor:
#      x y z
#    x 1.857550 0.000000 -0.001920 
#    y 0.000000 1.843860 0.000000 
#    z -0.001920 0.000000 1.851480 
# 
# From -- ./inp_files/243631.got.cif
#   From: 2010.06.25/outbox.cif.g09.slc.cpg/sg15_122_cif.got.tgz:243631.got - 2010.06.28 07:06:18.
