data_PCOD8135839
_publ_section_title
;
Structure prediction by ZEFSAII (Michael W. Deem and Ramdas Pophale) SiO2 
 PCOD8135839
Probable space group: C 2/C
;
_chemical_formula_sum "Si O2"
_cell_formula_units_Z 48
_cell_length_a 9.243920
_cell_length_b 23.216887
_cell_length_c 12.046665
_cell_angle_alpha 90.000000
_cell_angle_beta 114.440889
_cell_angle_gamma 90.000000
_cell_volume 2353.714694
_symmetry_space_group_name_H-M "C 2/C"
_symmetry_group_IT_number 15
_symmetry_cell_setting 'monoclinic'
loop_
_space_group_symop_operation_xyz
x,y,z
-x,y,1/2-z
-x,-y,-z
x,-y,1/2+z
1/2+x,1/2+y,z
1/2-x,1/2+y,1/2-z
1/2-x,1/2-y,-z
1/2+x,1/2-y,1/2+z
loop_
_atom_site_type_symbol
_atom_site_label
_atom_site_fract_x
_atom_site_fract_y
_atom_site_fract_z
Si Si1 0.917476 0.149288 0.845846
Si Si2 0.132433 0.281072 0.205470
Si Si3 0.694982 0.666125 0.099017
Si Si4 0.597939 0.877241 0.022199
Si Si5 0.179926 0.959002 0.280649
Si Si6 0.857741 0.575279 0.290949
O O1 0.792349 0.200962 0.821275
O O2 0.827637 0.087606 0.821723
O O3 0.000000 0.154311 0.750000
O O4 0.033517 0.150244 0.985952
O O5 0.181358 0.230369 0.139036
O O6 0.066797 0.336342 0.117391
O O7 0.000000 0.259940 0.250000
O O8 0.727268 0.621798 0.209834
O O9 0.840114 0.663060 0.058433
O O10 0.728851 0.927248 0.087836
O O11 0.430359 0.905586 0.932915
O O12 0.000000 0.978216 0.250000
O O13 0.276363 0.013872 0.273310
O O14 0.000000 0.568960 0.250000
#
# Coordination Sequence:
#
# PCOD8135839 Si02
#       6
#     8   8   8   8   8   8
#     4  10  21  41  68  90 123 172 215 247 312 389
#     4  11  25  40  65  96 130 157 209 270 320 361
#     4  11  22  42  66  92 124 172 213 250 307 389
#     4  10  21  44  66  92 124 177 210 250 307 391
#     4  10  19  40  64  92 128 161 210 255 311 367
#     4  10  24  39  64  97 126 162 214 260 306 368
#
# _framework density 20.393294999999998
#
# number of rings (size 3 to 8) (size 9 to 14) (size 15 to 20)
#    0.000    1.667    5.000    1.000    2.333    5.333 
#    3.000    0.000    0.000    0.000    0.000    0.000 
#    0.000    0.000    0.000    0.000    0.000    0.000 
#
# Total GULP energy -297535.990978 kJ/mol
# GULP energy per Si atom -12397.332957 kJ/mol
# Density = 2.034688 g / cm^3
# Si number density = 20.393295 Si / 1000 Ang^3
#
#
#
# Elastic Constant Matrix: (Units=GPa)
#
#
# Indices 1 2 3 4 5 6 
#
# 1 69.4707 43.6810 40.4300 0.0000 20.2844 0.0000
# 2 43.6810 121.9828 51.0733 0.0000 22.8664 0.0000
# 3 40.4300 51.0733 117.7107 0.0000 43.2774 0.0000
# 4 0.0000 0.0000 0.0000 12.5681 0.0000 -2.4234
# 5 20.2844 22.8664 43.2774 0.0000 37.7320 0.0000
# 6 0.0000 0.0000 0.0000 -2.4234 0.0000 36.4696
#
#
#
# Elastic Compliance Matrix: (Units=1/GPa)
#
#
# Indices 1 2 3 4 5 6 
#
# 1 0.020892 -0.005299 -0.003334 0.000000 -0.004196 0.000000
# 2 -0.005299 0.011439 -0.002839 0.000000 -0.000827 0.000000
# 3 -0.003334 -0.002839 0.016567 0.000000 -0.015489 0.000000
# 4 0.000000 0.000000 0.000000 0.080600 0.000000 0.005356
# 5 -0.004196 -0.000827 -0.015489 0.000000 0.047026 0.000000
# 6 0.000000 0.000000 0.000000 0.005356 0.000000 0.027776
#
#
# Mechanical properties :
#
#
# Convention : Reuss Voigt Hill
#
# Bulk Modulus (GPa) = 38.52885 64.39251 51.46068
# Shear Modulus (GPa) = 21.19600 28.95260 25.07430
#
# Velocity S-wave (km/s) = 3.22741 3.77199 3.51028
# Velocity P-wave (km/s) = 5.72906 7.11438 6.45897
#
# Compressibility (1/GPa) = 0.02595458
#
# Stress axis : x y z
#
# Youngs Moduli (GPa) = 47.86615 87.41935 60.36077
#
# Poissons Ratio (x) = 0.46320 0.20123
# Poissons Ratio (y) = 0.25363 0.17137
# Poissons Ratio (z) = 0.15958 0.24820
#
# Static dielectric constant tensor:
#      x y z
#    x 3.504780 0.000000 0.381960 
#    y 0.000000 3.745320 0.000000 
#    z 0.381960 0.000000 3.922440 
# 
# 
# High freq. dielectric constant tensor:
#      x y z
#    x 1.776250 0.000000 0.028760 
#    y 0.000000 1.803060 0.000000 
#    z 0.028760 0.000000 1.799260 
# 
# From -- ./inp_files/79363.got.cif
#   From: 2010.06.25/outbox.cif.g09.slc.cpg/sg15_40_cif.got.tgz:79363.got - 2010.06.28 07:06:18.
