data_PCOD8135372
_publ_section_title
;
Structure prediction by ZEFSAII (Michael W. Deem and Ramdas Pophale) SiO2 
 PCOD8135372
Probable space group: C 2/C
;
_chemical_formula_sum "Si O2"
_cell_formula_units_Z 64
_cell_length_a 25.330345
_cell_length_b 17.903424
_cell_length_c 17.068626
_cell_angle_alpha 90.000000
_cell_angle_beta 156.912875
_cell_angle_gamma 90.000000
_cell_volume 3035.332630
_symmetry_space_group_name_H-M "C 2/C"
_symmetry_group_IT_number 15
_symmetry_cell_setting 'monoclinic'
loop_
_space_group_symop_operation_xyz
x,y,z
-x,y,1/2-z
-x,-y,-z
x,-y,1/2+z
1/2+x,1/2+y,z
1/2-x,1/2+y,1/2-z
1/2-x,1/2-y,-z
1/2+x,1/2-y,1/2+z
loop_
_atom_site_type_symbol
_atom_site_label
_atom_site_fract_x
_atom_site_fract_y
_atom_site_fract_z
Si Si1 0.236569 0.174564 0.288189
Si Si2 0.812332 0.041353 0.806316
Si Si3 0.737553 0.083649 0.480023
Si Si4 0.991453 0.090744 0.908800
Si Si5 0.146038 0.286014 0.965461
Si Si6 0.345290 0.045518 0.527035
Si Si7 0.358013 0.160583 0.290364
Si Si8 0.336968 0.830906 0.334647
O O1 0.270414 0.125785 0.411885
O O2 0.330577 0.149804 0.344480
O O3 0.247705 0.262870 0.320415
O O4 0.082676 0.163049 0.048785
O O5 0.893363 0.085453 0.849759
O O6 0.756040 0.094483 0.799259
O O7 0.682759 0.001904 0.589768
O O8 0.914381 0.980396 0.979888
O O9 0.897301 0.101103 0.704378
O O10 0.657052 0.146259 0.419022
O O11 0.689597 0.087890 0.324239
O O12 0.711454 0.999204 0.475478
O O13 0.000000 0.247122 0.750000
O O14 0.272891 0.228948 0.134402
O O15 0.143900 0.321775 0.047400
O O16 0.500000 0.062561 0.750000
O O17 0.518457 0.166323 0.508095
#
# Coordination Sequence:
#
# PCOD8135372 Si02
#       8
#     8   8   8   8   8   8   8   8
#     4  10  24  36  54  89 123 157 190 249 299 353
#     4   9  18  34  60  85 105 151 203 254 283 351
#     4  11  19  33  59  87 115 159 200 237 288 364
#     4   9  18  34  54  83 115 149 200 235 293 354
#     4  11  20  31  51  85 127 161 187 232 294 375
#     4  10  19  38  61  80 109 155 208 240 286 350
#     4  11  24  33  53  93 127 159 184 244 304 357
#     4  11  20  35  55  85 123 160 195 237 303 357
#
# _framework density 21.085004000000001
#
# number of rings (size 3 to 8) (size 9 to 14) (size 15 to 20)
#    0.000    1.750    3.750    3.000    5.250    0.000 
#    0.000    5.625    0.000    0.750    6.500    0.000 
#    0.000    0.000    0.000    0.000    0.000    0.000 
#
# Total GULP energy -396555.409028 kJ/mol
# GULP energy per Si atom -12392.356532 kJ/mol
# Density = 2.103701 g / cm^3
# Si number density = 21.085004 Si / 1000 Ang^3
#
#
#
# Elastic Constant Matrix: (Units=GPa)
#
#
# Indices 1 2 3 4 5 6 
#
# 1 42.8460 15.0264 24.8222 0.0000 10.9560 0.0000
# 2 15.0264 87.0051 31.7483 0.0000 4.7873 0.0000
# 3 24.8222 31.7483 103.0546 0.0000 24.3393 0.0000
# 4 0.0000 0.0000 0.0000 25.4570 0.0000 -0.4821
# 5 10.9560 4.7873 24.3393 0.0000 26.6773 0.0000
# 6 0.0000 0.0000 0.0000 -0.4821 0.0000 27.5420
#
#
#
# Elastic Compliance Matrix: (Units=1/GPa)
#
#
# Indices 1 2 3 4 5 6 
#
# 1 0.028746 -0.003006 -0.004254 0.000000 -0.007386 0.000000
# 2 -0.003006 0.013323 -0.003961 0.000000 0.002457 0.000000
# 3 -0.004254 -0.003961 0.014490 0.000000 -0.010763 0.000000
# 4 0.000000 0.000000 0.000000 0.039295 0.000000 0.000688
# 5 -0.007386 0.002457 -0.010763 0.000000 0.049897 0.000000
# 6 0.000000 0.000000 0.000000 0.000688 0.000000 0.036320
#
#
# Mechanical properties :
#
#
# Convention : Reuss Voigt Hill
#
# Bulk Modulus (GPa) = 29.30955 41.78883 35.54919
# Shear Modulus (GPa) = 23.16049 26.68919 24.92484
#
# Velocity S-wave (km/s) = 3.31786 3.56165 3.44192
# Velocity P-wave (km/s) = 5.34868 6.06433 5.71771
#
# Compressibility (1/GPa) = 0.03411858
#
# Stress axis : x y z
#
# Youngs Moduli (GPa) = 34.78690 75.05916 69.01217
#
# Poissons Ratio (x) = 0.22564 0.29355
# Poissons Ratio (y) = 0.10458 0.27334
# Poissons Ratio (z) = 0.14797 0.29729
#
# Static dielectric constant tensor:
#      x y z
#    x 3.563000 0.000000 0.268770 
#    y 0.000000 3.911340 0.000000 
#    z 0.268770 0.000000 3.898460 
# 
# 
# High freq. dielectric constant tensor:
#      x y z
#    x 1.786000 0.000000 0.024680 
#    y 0.000000 1.819920 0.000000 
#    z 0.024680 0.000000 1.825560 
# 
# From -- ./inp_files/259529.got.cif
#   From: 2010.06.25/outbox.cif.g09.slc.cpg/sg15_130_cif.got.tgz:259529.got - 2010.06.28 07:06:18.
