data_PCOD8135333
_publ_section_title
;
Structure prediction by ZEFSAII (Michael W. Deem and Ramdas Pophale) SiO2 
 PCOD8135333
Probable space group: C 2/C
;
_chemical_formula_sum "Si O2"
_cell_formula_units_Z 56
_cell_length_a 16.012190
_cell_length_b 17.584102
_cell_length_c 13.561255
_cell_angle_alpha 90.000000
_cell_angle_beta 130.144937
_cell_angle_gamma 90.000000
_cell_volume 2918.774672
_symmetry_space_group_name_H-M "C 2/C"
_symmetry_group_IT_number 15
_symmetry_cell_setting 'monoclinic'
loop_
_space_group_symop_operation_xyz
x,y,z
-x,y,1/2-z
-x,-y,-z
x,-y,1/2+z
1/2+x,1/2+y,z
1/2-x,1/2+y,1/2-z
1/2-x,1/2-y,-z
1/2+x,1/2-y,1/2+z
loop_
_atom_site_type_symbol
_atom_site_label
_atom_site_fract_x
_atom_site_fract_y
_atom_site_fract_z
Si Si1 0.654581 0.774938 0.633414
Si Si2 0.550544 0.221971 0.387681
Si Si3 0.512328 0.231461 0.645492
Si Si4 0.352650 0.540354 0.717316
Si Si5 0.314954 0.845609 0.348529
Si Si6 0.917956 0.106355 0.570020
Si Si7 0.346489 0.621126 0.297152
O O1 0.541335 0.782794 0.601532
O O2 0.612351 0.760593 0.489489
O O3 0.721902 0.707980 0.733608
O O4 0.721974 0.852781 0.688410
O O5 0.500000 0.184599 0.250000
O O6 0.653177 0.177954 0.514494
O O7 0.589246 0.307601 0.395683
O O8 0.500000 0.212095 0.750000
O O9 0.581366 0.161949 0.646681
O O10 0.572705 0.311389 0.672619
O O11 0.240634 0.571151 0.683585
O O12 0.353744 0.554631 0.600326
O O13 0.456019 0.582267 0.844879
O O14 0.364922 0.450647 0.741370
O O15 0.861931 0.097075 0.421993
#
# Coordination Sequence:
#
# PCOD8135333 Si02
#       7
#     8   8   8   8   8   8   8
#     4  10  19  38  59  87 115 155 204 241 288 349
#     4  11  19  33  61  91 115 150 192 251 291 341
#     4  10  22  40  62  85 118 158 204 245 288 345
#     4  11  23  37  57  92 124 154 191 243 310 355
#     4  10  20  37  60  88 119 153 201 246 289 354
#     4  11  20  37  60  88 120 153 191 247 301 350
#     4  11  23  39  59  87 123 158 192 248 295 357
#
# _framework density 19.186133999999999
#
# number of rings (size 3 to 8) (size 9 to 14) (size 15 to 20)
#    0.000    1.429    7.143    0.429    4.000    3.429 
#    2.571    2.857    0.000    1.714    0.000    0.000 
#    0.000    0.000    0.000    0.000    0.000    0.000 
#
# Total GULP energy -347019.582111 kJ/mol
# GULP energy per Si atom -12393.556504 kJ/mol
# Density = 1.914247 g / cm^3
# Si number density = 19.186134 Si / 1000 Ang^3
#
#
#
# Elastic Constant Matrix: (Units=GPa)
#
#
# Indices 1 2 3 4 5 6 
#
# 1 65.0577 16.9726 35.3483 0.0000 -20.7137 0.0000
# 2 16.9726 40.9346 0.1032 0.0000 -12.4050 0.0000
# 3 35.3483 0.1032 102.6750 0.0000 -25.8511 0.0000
# 4 0.0000 0.0000 0.0000 118.3657 0.0000 63.3319
# 5 -20.7137 -12.4050 -25.8511 0.0000 28.5332 0.0000
# 6 0.0000 0.0000 0.0000 63.3319 0.0000 68.4556
#
#
#
# Elastic Compliance Matrix: (Units=1/GPa)
#
#
# Indices 1 2 3 4 5 6 
#
# 1 0.023025 -0.006978 -0.005798 0.000000 0.008429 0.000000
# 2 -0.006978 0.031547 0.005892 0.000000 0.013988 0.000000
# 3 -0.005798 0.005892 0.014659 0.000000 0.011634 0.000000
# 4 0.000000 0.000000 0.000000 0.016730 0.000000 -0.015478
# 5 0.008429 0.013988 0.011634 0.000000 0.057787 0.000000
# 6 0.000000 0.000000 0.000000 -0.015478 0.000000 0.028927
#
#
# Mechanical properties :
#
#
# Convention : Reuss Voigt Hill
#
# Bulk Modulus (GPa) = 18.02978 34.83505 26.43241
# Shear Modulus (GPa) = 24.39870 53.48712 38.94291
#
# Velocity S-wave (km/s) = 3.56994 5.28569 4.51015
# Velocity P-wave (km/s) = 5.13909 7.44628 6.39756
#
# Compressibility (1/GPa) = 0.05546379
#
# Stress axis : x y z
#
# Youngs Moduli (GPa) = 43.43077 31.69908 68.21913
#
# Poissons Ratio (x) = 0.22120 0.39552
# Poissons Ratio (y) = 0.30306 -0.40198
# Poissons Ratio (z) = 0.25180 -0.18679
#
# Static dielectric constant tensor:
#      x y z
#    x 3.472620 0.000000 0.144810 
#    y 0.000000 3.280250 0.000000 
#    z 0.144810 0.000000 3.198600 
# 
# 
# High freq. dielectric constant tensor:
#      x y z
#    x 1.738270 0.000000 0.000000 
#    y 0.000000 1.709660 0.000000 
#    z 0.000000 0.000000 1.767720 
# 
# From -- ./inp_files/113442.got.cif
#   From: 2010.06.25/outbox.cif.g09.slc.cpg/sg15_57_cif.got.tgz:113442.got - 2010.06.28 07:06:18.
