data_PCOD8135608
_publ_section_title
;
Structure prediction by ZEFSAII (Michael W. Deem and Ramdas Pophale) SiO2 
 PCOD8135608
Probable space group: C 2/C
;
_chemical_formula_sum "Si O2"
_cell_formula_units_Z 40
_cell_length_a 24.896727
_cell_length_b 18.830558
_cell_length_c 9.275629
_cell_angle_alpha 90.000000
_cell_angle_beta 27.999014
_cell_angle_gamma 90.000000
_cell_volume 2041.474930
_symmetry_space_group_name_H-M "C 2/C"
_symmetry_group_IT_number 15
_symmetry_cell_setting 'monoclinic'
loop_
_space_group_symop_operation_xyz
x,y,z
-x,y,1/2-z
-x,-y,-z
x,-y,1/2+z
1/2+x,1/2+y,z
1/2-x,1/2+y,1/2-z
1/2-x,1/2-y,-z
1/2+x,1/2-y,1/2+z
loop_
_atom_site_type_symbol
_atom_site_label
_atom_site_fract_x
_atom_site_fract_y
_atom_site_fract_z
Si Si1 0.067686 0.293778 0.824660
Si Si2 0.543251 0.067779 0.811544
Si Si3 0.000000 0.812662 0.250000
Si Si4 0.717544 0.695227 0.875184
Si Si5 0.500000 0.713481 0.250000
Si Si6 0.753086 0.147285 0.386826
O O1 0.995032 0.238596 0.900398
O O2 0.191512 0.310887 0.467750
O O3 0.002070 0.367349 0.986694
O O4 0.077791 0.262209 0.960787
O O5 0.500000 0.065131 0.750000
O O6 0.681543 0.080713 0.489895
O O7 0.500000 0.000000 0.000000
O O8 0.885515 0.860564 0.521727
O O9 0.701001 0.778024 0.955945
O O10 0.593735 0.666666 0.113224
O O11 0.754729 0.646370 0.920815
#
# Coordination Sequence:
#
# PCOD8135608 Si02
#       6
#     8   8   4   8   4   8
#     4  11  20  35  57  90 126 159 199 247 311 356
#     4  12  26  41  61  86 123 169 210 248 289 365
#     4  10  20  36  71  93 122 160 186 268 318 368
#     4  10  20  32  61  89 127 159 188 261 308 378
#     4  12  18  34  51  97 124 152 190 248 322 364
#     4  10  19  39  58  91 122 154 209 244 316 358
#
# _framework density 19.593677
#
# number of rings (size 3 to 8) (size 9 to 14) (size 15 to 20)
#    0.000    1.200    5.000    3.000    4.200    1.600 
#    0.000    0.000    0.000    2.400    0.000    0.000 
#    0.000    0.000    0.000    0.000    0.000    0.000 
#
# Total GULP energy -247930.697086 kJ/mol
# GULP energy per Si atom -12396.534854 kJ/mol
# Density = 1.954908 g / cm^3
# Si number density = 19.593677 Si / 1000 Ang^3
#
#
#
# Elastic Constant Matrix: (Units=GPa)
#
#
# Indices 1 2 3 4 5 6 
#
# 1 140.2789 31.4133 72.1095 0.0000 -8.7528 0.0000
# 2 31.4133 62.6425 37.9261 0.0000 -5.2336 0.0000
# 3 72.1095 37.9261 139.4366 0.0000 -6.2416 0.0000
# 4 0.0000 0.0000 0.0000 25.9434 0.0000 -0.8426
# 5 -8.7528 -5.2336 -6.2416 0.0000 46.8944 0.0000
# 6 0.0000 0.0000 0.0000 -0.8426 0.0000 12.7539
#
#
#
# Elastic Compliance Matrix: (Units=1/GPa)
#
#
# Indices 1 2 3 4 5 6 
#
# 1 0.010016 -0.002190 -0.004538 0.000000 0.001021 0.000000
# 2 -0.002190 0.019688 -0.004167 0.000000 0.001234 0.000000
# 3 -0.004538 -0.004167 0.010657 0.000000 0.000106 0.000000
# 4 0.000000 0.000000 0.000000 0.038628 0.000000 0.002552
# 5 0.001021 0.001234 0.000106 0.000000 0.021667 0.000000
# 6 0.000000 0.000000 0.000000 0.002552 0.000000 0.078576
#
#
# Mechanical properties :
#
#
# Convention : Reuss Voigt Hill
#
# Bulk Modulus (GPa) = 53.85093 69.47286 61.66189
# Shear Modulus (GPa) = 24.12987 30.51228 27.32108
#
# Velocity S-wave (km/s) = 3.51310 3.95048 3.73819
# Velocity P-wave (km/s) = 6.63320 7.50614 7.08313
#
# Compressibility (1/GPa) = 0.01856978
#
# Stress axis : x y z
#
# Youngs Moduli (GPa) = 99.84475 50.79294 93.83541
#
# Poissons Ratio (x) = 0.11121 0.42585
# Poissons Ratio (y) = 0.21861 0.39105
# Poissons Ratio (z) = 0.45312 0.21168
#
# Static dielectric constant tensor:
#      x y z
#    x 3.783870 0.000000 -0.035390 
#    y 0.000000 3.033930 0.000000 
#    z -0.035390 0.000000 3.903900 
# 
# 
# High freq. dielectric constant tensor:
#      x y z
#    x 1.784830 0.000000 0.000890 
#    y 0.000000 1.685150 0.000000 
#    z 0.000890 0.000000 1.787170 
# 
# From -- ./inp_files/30325.got.cif
#   From: 2010.06.25/outbox.cif.g09.slc.cpg/sg15_16_cif.got.tgz:30325.got - 2010.06.28 07:06:18.
