data_PCOD8135370
_publ_section_title
;
Structure prediction by ZEFSAII (Michael W. Deem and Ramdas Pophale) SiO2 
 PCOD8135370
Probable space group: C 2/C
;
_chemical_formula_sum "Si O2"
_cell_formula_units_Z 52
_cell_length_a 14.812252
_cell_length_b 30.292043
_cell_length_c 5.297312
_cell_angle_alpha 90.000000
_cell_angle_beta 105.683540
_cell_angle_gamma 90.000000
_cell_volume 2288.376653
_symmetry_space_group_name_H-M "C 2/C"
_symmetry_group_IT_number 15
_symmetry_cell_setting 'monoclinic'
loop_
_space_group_symop_operation_xyz
x,y,z
-x,y,1/2-z
-x,-y,-z
x,-y,1/2+z
1/2+x,1/2+y,z
1/2-x,1/2+y,1/2-z
1/2-x,1/2-y,-z
1/2+x,1/2-y,1/2+z
loop_
_atom_site_type_symbol
_atom_site_label
_atom_site_fract_x
_atom_site_fract_y
_atom_site_fract_z
Si Si1 0.500000 0.889144 0.750000
Si Si2 0.788794 0.117487 0.097693
Si Si3 0.110979 0.859452 0.339957
Si Si4 0.605416 0.738049 0.936532
Si Si5 0.000000 0.447130 0.250000
Si Si6 0.500000 0.220517 0.750000
Si Si7 0.201556 0.476337 0.437318
Si Si8 0.138061 0.677242 0.201132
O O1 0.500107 0.917840 0.499593
O O2 0.401040 0.861753 0.648471
O O3 0.850310 0.110818 0.399886
O O4 0.729759 0.074114 0.999181
O O5 0.720904 0.159644 0.085269
O O6 0.853676 0.125667 0.905410
O O7 0.149762 0.809901 0.424638
O O8 0.000000 0.862189 0.250000
O O9 0.500000 0.739162 0.750000
O O10 0.669906 0.777266 0.866279
O O11 0.586852 0.748727 0.218178
O O12 0.089398 0.479297 0.331005
O O13 0.458128 0.187598 0.515456
O O14 0.241954 0.495309 0.203613
#
# Coordination Sequence:
#
# PCOD8135370 Si02
#       8
#     4   8   8   8   4   4   8   8
#     4  12  22  37  64  99 152 194 234 265 300 399
#     4  12  28  44  74 101 133 175 229 291 349 403
#     4  11  27  49  71  97 131 178 231 296 359 411
#     4   9  21  37  64  92 139 191 231 277 332 394
#     4  12  25  41  70 102 148 196 228 254 314 403
#     4  10  19  38  60  93 148 196 226 267 328 384
#     4  12  26  47  72 105 146 177 218 271 340 416
#     4  11  23  36  63 101 142 195 232 271 325 386
#
# _framework density 22.72353
#
# number of rings (size 3 to 8) (size 9 to 14) (size 15 to 20)
#    0.000    0.923    3.846    3.231   10.769    1.231 
#    0.000    0.000    0.000    9.231    0.000    0.000 
#    0.000    0.000    0.000    0.000    0.000    0.000 
#
# Total GULP energy -322264.511456 kJ/mol
# GULP energy per Si atom -12394.788902 kJ/mol
# Density = 2.267181 g / cm^3
# Si number density = 22.723530 Si / 1000 Ang^3
#
#
#
# Elastic Constant Matrix: (Units=GPa)
#
#
# Indices 1 2 3 4 5 6 
#
# 1 78.6122 20.4222 34.6897 0.0000 -20.4569 0.0000
# 2 20.4222 86.6968 34.1428 0.0000 -7.5143 0.0000
# 3 34.6897 34.1428 122.9604 0.0000 -26.6037 0.0000
# 4 0.0000 0.0000 0.0000 19.3501 0.0000 -28.4494
# 5 -20.4569 -7.5143 -26.6037 0.0000 37.9632 0.0000
# 6 0.0000 0.0000 0.0000 -28.4494 0.0000 -44.1630
#
#
#
# Elastic Compliance Matrix: (Units=1/GPa)
#
#
# Indices 1 2 3 4 5 6 
#
# 1 0.016097 -0.002239 -0.002521 0.000000 0.006464 0.000000
# 2 -0.002239 0.013262 -0.003234 0.000000 -0.000848 0.000000
# 3 -0.002521 -0.003234 0.010973 0.000000 0.005691 0.000000
# 4 0.000000 0.000000 0.000000 0.026541 0.000000 -0.017098
# 5 0.006464 -0.000848 0.005691 0.000000 0.033645 0.000000
# 6 0.000000 0.000000 0.000000 -0.017098 0.000000 -0.011629
#
#
# Mechanical properties :
#
#
# Convention : Reuss Voigt Hill
#
# Bulk Modulus (GPa) = 41.07770 51.86431 46.47100
# Shear Modulus (GPa) = 44.25075 15.89772 30.07423
#
# Velocity S-wave (km/s) = 4.41767 2.64789 3.64192
# Velocity P-wave (km/s) = 6.64361 5.67645 6.17898
#
# Compressibility (1/GPa) = 0.02434411
#
# Stress axis : x y z
#
# Youngs Moduli (GPa) = 62.12387 75.40310 91.12956
#
# Poissons Ratio (x) = 0.16880 0.22974
# Poissons Ratio (y) = 0.13907 0.29475
# Poissons Ratio (z) = 0.15662 0.24388
#
# Static dielectric constant tensor:
#      x y z
#    x 4.177560 0.000000 -0.434430 
#    y 0.000000 4.114260 0.000000 
#    z -0.434430 0.000000 4.448640 
# 
# 
# High freq. dielectric constant tensor:
#      x y z
#    x 1.884110 0.000000 -0.015200 
#    y 0.000000 1.891470 0.000000 
#    z -0.015200 0.000000 1.907150 
# 
# From -- ./inp_files/9145.got.cif
#   From: 2010.06.25/outbox.cif.g09.slc.cpg/sg15_5_cif.got.tgz:9145.got - 2010.06.28 07:06:18.
