data_PCOD8135244
_publ_section_title
;
Structure prediction by ZEFSAII (Michael W. Deem and Ramdas Pophale) SiO2 
 PCOD8135244
Probable space group: C 2/C
;
_chemical_formula_sum "Si O2"
_cell_formula_units_Z 60
_cell_length_a 16.854336
_cell_length_b 9.100046
_cell_length_c 21.244325
_cell_angle_alpha 90.000000
_cell_angle_beta 62.364012
_cell_angle_gamma 90.000000
_cell_volume 2886.615600
_symmetry_space_group_name_H-M "C 2/C"
_symmetry_group_IT_number 15
_symmetry_cell_setting 'monoclinic'
loop_
_space_group_symop_operation_xyz
x,y,z
-x,y,1/2-z
-x,-y,-z
x,-y,1/2+z
1/2+x,1/2+y,z
1/2-x,1/2+y,1/2-z
1/2-x,1/2-y,-z
1/2+x,1/2-y,1/2+z
loop_
_atom_site_type_symbol
_atom_site_label
_atom_site_fract_x
_atom_site_fract_y
_atom_site_fract_z
Si Si1 0.011667 0.393030 0.437284
Si Si2 0.742642 0.748268 0.788593
Si Si3 0.303272 0.000802 0.847447
Si Si4 0.653749 0.225888 0.565142
Si Si5 0.500000 0.328501 0.250000
Si Si6 0.927522 0.399357 0.692039
Si Si7 0.836408 0.967136 0.839247
Si Si8 0.295169 0.790775 0.127164
O O1 0.023253 0.479074 0.367315
O O2 0.097764 0.291368 0.420852
O O3 0.000000 0.500000 0.500000
O O4 0.923003 0.293052 0.459900
O O5 0.733920 0.606352 0.836340
O O6 0.648085 0.829410 0.824425
O O7 0.816986 0.857696 0.788840
O O8 0.772102 0.697377 0.709163
O O9 0.386494 0.967286 0.770977
O O10 0.247766 0.855569 0.887142
O O11 0.342682 0.078045 0.894527
O O12 0.750000 0.250000 0.500000
O O13 0.630656 0.371766 0.613615
O O14 0.504170 0.228150 0.311378
O O15 0.587639 0.425463 0.213280
O O16 0.749274 0.065669 0.889327
#
# Coordination Sequence:
#
# PCOD8135244 Si02
#       8
#     8   8   8   8   4   8   8   8
#     4  12  26  44  67  94 132 181 221 269 332 405
#     4  10  19  37  66  95 133 166 207 276 324 384
#     4  10  21  40  72  96 130 171 215 275 325 390
#     4  11  27  47  64  92 136 176 217 268 333 391
#     4  12  24  36  66 108 136 158 220 278 336 374
#     4  11  22  40  67 101 133 164 222 271 336 381
#     4  11  23  39  64  96 136 168 209 272 326 389
#     4  11  20  41  64 100 125 171 222 259 329 386
#
# _framework density 20.785587
#
# number of rings (size 3 to 8) (size 9 to 14) (size 15 to 20)
#    0.000    1.067    5.333    2.400    3.733    0.000 
#    2.400    2.000    0.000    0.000    0.000    0.000 
#    0.000    0.000    0.000    0.000    0.000    0.000 
#
# Total GULP energy -372056.806944 kJ/mol
# GULP energy per Si atom -12401.893565 kJ/mol
# Density = 2.073828 g / cm^3
# Si number density = 20.785587 Si / 1000 Ang^3
#
#
#
# Elastic Constant Matrix: (Units=GPa)
#
#
# Indices 1 2 3 4 5 6 
#
# 1 119.7799 42.1949 25.7523 0.0000 -8.8343 0.0001
# 2 42.1949 112.7610 24.2338 0.0000 1.1185 0.0003
# 3 25.7523 24.2338 55.1439 0.0000 -5.7652 0.0000
# 4 0.0000 0.0000 0.0000 22.6716 0.0000 4.5109
# 5 -8.8343 1.1185 -5.7652 0.0000 29.0326 0.0000
# 6 0.0001 0.0003 0.0000 4.5109 0.0000 42.0376
#
#
#
# Elastic Compliance Matrix: (Units=1/GPa)
#
#
# Indices 1 2 3 4 5 6 
#
# 1 0.010356 -0.003226 -0.003141 0.000000 0.002652 0.000000
# 2 -0.003226 0.010844 -0.003477 0.000000 -0.002090 0.000000
# 3 -0.003141 -0.003477 0.021490 0.000000 0.003446 0.000000
# 4 0.000000 0.000000 0.000000 0.045070 0.000000 -0.004836
# 5 0.002652 -0.002090 0.003446 0.000000 0.036016 0.000000
# 6 0.000000 0.000000 0.000000 -0.004836 0.000000 0.024307
#
#
# Mechanical properties :
#
#
# Convention : Reuss Voigt Hill
#
# Bulk Modulus (GPa) = 43.47858 52.44964 47.96411
# Shear Modulus (GPa) = 28.49997 31.78195 30.14096
#
# Velocity S-wave (km/s) = 3.70691 3.91453 3.81214
# Velocity P-wave (km/s) = 6.26775 6.76165 6.51938
#
# Compressibility (1/GPa) = 0.02299983
#
# Stress axis : x y z
#
# Youngs Moduli (GPa) = 96.56080 92.21969 46.53411
#
# Poissons Ratio (x) = 0.29754 0.14617
# Poissons Ratio (y) = 0.31155 0.16181
# Poissons Ratio (z) = 0.30332 0.32066
#
# Static dielectric constant tensor:
#      x y z
#    x 4.104570 0.000000 -0.005530 
#    y 0.000000 4.119770 0.000000 
#    z -0.005530 0.000000 3.488140 
# 
# 
# High freq. dielectric constant tensor:
#      x y z
#    x 1.829080 0.000000 0.004020 
#    y 0.000000 1.825430 0.000000 
#    z 0.004020 0.000000 1.779880 
# 
# From -- ./inp_files/247808.got.cif
#   From: 2010.06.25/outbox.cif.g09.slc.cpg/sg15_124_cif.got.tgz:247808.got - 2010.06.28 07:06:18.
