data_PCOD8135101
_publ_section_title
;
Structure prediction by ZEFSAII (Michael W. Deem and Ramdas Pophale) SiO2 
 PCOD8135101
Probable space group: C 2/C
;
_chemical_formula_sum "Si O2"
_cell_formula_units_Z 52
_cell_length_a 5.060119
_cell_length_b 25.922668
_cell_length_c 19.737864
_cell_angle_alpha 90.000000
_cell_angle_beta 104.992170
_cell_angle_gamma 90.000000
_cell_volume 2500.922634
_symmetry_space_group_name_H-M "C 2/C"
_symmetry_group_IT_number 15
_symmetry_cell_setting 'monoclinic'
loop_
_space_group_symop_operation_xyz
x,y,z
-x,y,1/2-z
-x,-y,-z
x,-y,1/2+z
1/2+x,1/2+y,z
1/2-x,1/2+y,1/2-z
1/2-x,1/2-y,-z
1/2+x,1/2-y,1/2+z
loop_
_atom_site_type_symbol
_atom_site_label
_atom_site_fract_x
_atom_site_fract_y
_atom_site_fract_z
Si Si1 0.949457 0.154708 0.821796
Si Si2 0.310534 0.089767 0.096008
Si Si3 0.707924 0.760231 0.702638
Si Si4 0.874180 0.132809 0.168476
Si Si5 0.000000 0.573868 0.750000
Si Si6 0.324304 0.416234 0.061227
Si Si7 0.888247 0.472608 0.108200
O O1 0.870954 0.210145 0.849641
O O2 0.738972 0.109182 0.793732
O O3 0.000000 0.176090 0.750000
O O4 0.193705 0.129154 0.882132
O O5 0.625671 0.094515 0.137870
O O6 0.112420 0.123588 0.129774
O O7 0.252624 0.028823 0.097000
O O8 0.260977 0.108468 0.015901
O O9 0.500000 0.775904 0.750000
O O10 0.750515 0.809406 0.656236
O O11 0.000000 0.743865 0.750000
O O12 0.000000 0.121117 0.250000
O O13 0.943909 0.536635 0.810301
O O14 0.637056 0.434186 0.078037
O O15 0.114402 0.462383 0.065038
#
# Coordination Sequence:
#
# PCOD8135101 Si02
#       7
#     8   8   8   8   4   8   8
#     4  10  19  37  61  92 121 159 204 265 318 366
#     4  12  24  42  62  88 128 171 205 255 314 371
#     4  10  20  37  64  89 121 159 208 266 327 374
#     4  11  24  42  62  89 118 162 218 260 306 375
#     4  10  20  34  58  92 120 150 210 264 296 360
#     4  11  23  40  62  91 129 165 207 251 314 385
#     4  11  23  38  61  89 127 164 211 248 313 367
#
# _framework density 20.792325000000002
#
# number of rings (size 3 to 8) (size 9 to 14) (size 15 to 20)
#    0.000    1.231    2.308    5.077    2.154    0.000 
#    0.000    1.538    0.000    0.000    0.000    0.000 
#    0.000    0.000    0.000    0.000    0.000    0.000 
#
# Total GULP energy -322121.223051 kJ/mol
# GULP energy per Si atom -12389.277810 kJ/mol
# Density = 2.074500 g / cm^3
# Si number density = 20.792325 Si / 1000 Ang^3
#
#
#
# Elastic Constant Matrix: (Units=GPa)
#
#
# Indices 1 2 3 4 5 6 
#
# 1 100.9082 14.2349 40.0992 0.0000 2.0399 0.0000
# 2 14.2349 91.3320 44.3500 0.0000 -0.2041 0.0000
# 3 40.0992 44.3500 129.9852 0.0000 -3.1340 0.0000
# 4 0.0000 0.0000 0.0000 -2.0499 0.0000 9.7764
# 5 2.0399 -0.2041 -3.1340 0.0000 28.0097 0.0000
# 6 0.0000 0.0000 0.0000 9.7764 0.0000 30.6512
#
#
#
# Elastic Compliance Matrix: (Units=1/GPa)
#
#
# Indices 1 2 3 4 5 6 
#
# 1 0.011336 -0.000068 -0.003503 0.000000 -0.001218 0.000000
# 2 -0.000068 0.013128 -0.004468 0.000000 -0.000399 0.000000
# 3 -0.003503 -0.004468 0.010332 0.000000 0.001379 0.000000
# 4 0.000000 0.000000 0.000000 -0.193492 0.000000 0.061716
# 5 -0.001218 -0.000399 0.001379 0.000000 0.035942 0.000000
# 6 0.000000 0.000000 0.000000 0.061716 0.000000 0.012940
#
#
# Mechanical properties :
#
#
# Convention : Reuss Voigt Hill
#
# Bulk Modulus (GPa) = 53.42640 57.73261 55.57951
# Shear Modulus (GPa) = -57.14621 26.22494 -15.46064
#
# Velocity S-wave (km/s) = -5.24823 3.55530 -2.72981
# Velocity P-wave (km/s) = 3.31274 6.68432 4.10524
#
# Compressibility (1/GPa) = 0.01871734
#
# Stress axis : x y z
#
# Youngs Moduli (GPa) = 88.21153 76.17089 96.79134
#
# Poissons Ratio (x) = 0.00522 0.33908
# Poissons Ratio (y) = 0.00604 0.43245
# Poissons Ratio (z) = 0.30902 0.34032
#
# Static dielectric constant tensor:
#      x y z
#    x 4.136120 0.000000 -0.388080 
#    y 0.000000 3.967150 0.000000 
#    z -0.388080 0.000000 4.375120 
# 
# 
# High freq. dielectric constant tensor:
#      x y z
#    x 1.816690 0.000000 0.005220 
#    y 0.000000 1.817340 0.000000 
#    z 0.005220 0.000000 1.801850 
# 
# From -- ./inp_files/185923.got.cif
#   From: 2010.06.25/outbox.cif.g09.slc.cpg/sg15_93_cif.got.tgz:185923.got - 2010.06.28 07:06:18.
