data_PCOD8135836
_publ_section_title
;
Structure prediction by ZEFSAII (Michael W. Deem and Ramdas Pophale) SiO2 
 PCOD8135836
Probable space group: C 2/C
;
_chemical_formula_sum "Si O2"
_cell_formula_units_Z 56
_cell_length_a 14.786330
_cell_length_b 8.393366
_cell_length_c 23.045013
_cell_angle_alpha 90.000000
_cell_angle_beta 118.151860
_cell_angle_gamma 90.000000
_cell_volume 2521.705944
_symmetry_space_group_name_H-M "C 2/C"
_symmetry_group_IT_number 15
_symmetry_cell_setting 'monoclinic'
loop_
_space_group_symop_operation_xyz
x,y,z
-x,y,1/2-z
-x,-y,-z
x,-y,1/2+z
1/2+x,1/2+y,z
1/2-x,1/2+y,1/2-z
1/2-x,1/2-y,-z
1/2+x,1/2-y,1/2+z
loop_
_atom_site_type_symbol
_atom_site_label
_atom_site_fract_x
_atom_site_fract_y
_atom_site_fract_z
Si Si1 0.284858 0.415379 0.306651
Si Si2 0.457923 0.365193 0.445829
Si Si3 0.659000 0.385779 0.775147
Si Si4 0.458864 0.281547 0.659170
Si Si5 0.899112 0.437765 0.687612
Si Si6 0.861726 0.690517 0.518333
Si Si7 0.356646 0.826952 0.551143
O O1 0.385993 0.445725 0.375643
O O2 0.308694 0.448088 0.245367
O O3 0.255835 0.231669 0.306855
O O4 0.196659 0.541586 0.298010
O O5 0.500000 0.500000 0.500000
O O6 0.391507 0.236706 0.462143
O O7 0.551935 0.280358 0.443757
O O8 0.578194 0.303078 0.706902
O O9 0.609045 0.410772 0.824039
O O10 0.437601 0.288518 0.584370
O O11 0.425717 0.110938 0.672196
O O12 0.864428 0.328315 0.623359
O O13 0.000000 0.364234 0.750000
O O14 0.750000 0.750000 0.500000
O O15 0.868512 0.501469 0.527131
O O16 0.250000 0.750000 0.500000
#
# Coordination Sequence:
#
# PCOD8135836 Si02
#       7
#     8   8   8   8   8   8   8
#     4  11  23  39  65  93 128 172 217 283 327 402
#     4  12  25  44  66  98 140 176 230 275 336 399
#     4  10  20  37  60  90 124 161 219 261 339 386
#     4   9  18  38  62  88 122 167 207 267 322 404
#     4  10  19  40  64  90 129 173 216 273 347 398
#     4  11  22  41  71  98 130 177 222 273 341 395
#     4  11  25  43  69 100 137 180 228 280 341 411
#
# _framework density 22.207189
#
# number of rings (size 3 to 8) (size 9 to 14) (size 15 to 20)
#    0.000    1.429    2.857    5.571    2.000    0.000 
#    0.000   11.429    0.000    0.000    0.000    0.000 
#    0.000    0.000    0.000    0.000    0.000    0.000 
#
# Total GULP energy -347187.065658 kJ/mol
# GULP energy per Si atom -12399.538059 kJ/mol
# Density = 2.215664 g / cm^3
# Si number density = 22.207189 Si / 1000 Ang^3
#
#
#
# Elastic Constant Matrix: (Units=GPa)
#
#
# Indices 1 2 3 4 5 6 
#
# 1 105.8563 19.0447 31.4764 0.0000 8.2238 0.0000
# 2 19.0447 52.1466 20.4261 0.0000 -0.8300 0.0000
# 3 31.4764 20.4261 106.0064 0.0000 5.8204 0.0000
# 4 0.0000 0.0000 0.0000 34.1526 0.0000 -6.1771
# 5 8.2238 -0.8300 5.8204 0.0000 44.5405 0.0000
# 6 0.0000 0.0000 0.0000 -6.1771 0.0000 27.2801
#
#
#
# Elastic Compliance Matrix: (Units=1/GPa)
#
#
# Indices 1 2 3 4 5 6 
#
# 1 0.010882 -0.003000 -0.002558 0.000000 -0.001731 0.000000
# 2 -0.003000 0.021606 -0.003349 0.000000 0.001394 0.000000
# 3 -0.002558 -0.003349 0.010894 0.000000 -0.001014 0.000000
# 4 0.000000 0.000000 0.000000 0.030531 0.000000 0.006913
# 5 -0.001731 0.001394 -0.001014 0.000000 0.022929 0.000000
# 6 0.000000 0.000000 0.000000 0.006913 0.000000 0.038222
#
#
# Mechanical properties :
#
#
# Convention : Reuss Voigt Hill
#
# Bulk Modulus (GPa) = 39.11117 45.10043 42.10580
# Shear Modulus (GPa) = 30.97886 34.06543 32.52215
#
# Velocity S-wave (km/s) = 3.73901 3.92086 3.83101
# Velocity P-wave (km/s) = 6.02416 6.39144 6.21051
#
# Compressibility (1/GPa) = 0.02556814
#
# Stress axis : x y z
#
# Youngs Moduli (GPa) = 91.89887 46.28286 91.79419
#
# Poissons Ratio (x) = 0.13883 0.23481
# Poissons Ratio (y) = 0.27566 0.30743
# Poissons Ratio (z) = 0.23508 0.15501
#
# Static dielectric constant tensor:
#      x y z
#    x 4.363360 0.000000 -0.429030 
#    y 0.000000 3.728160 0.000000 
#    z -0.429030 0.000000 5.022370 
# 
# 
# High freq. dielectric constant tensor:
#      x y z
#    x 1.883840 0.000000 0.003750 
#    y 0.000000 1.852150 0.000000 
#    z 0.003750 0.000000 1.885470 
# 
# From -- ./inp_files/273249.got.cif
#   From: 2010.06.25/outbox.cif.g09.slc.cpg/sg15_137_cif.got.tgz:273249.got - 2010.06.28 07:06:18.
