data_PCOD8135323
_publ_section_title
;
Structure prediction by ZEFSAII (Michael W. Deem and Ramdas Pophale) SiO2 
 PCOD8135323
Probable space group: C 2/C
;
_chemical_formula_sum "Si O2"
_cell_formula_units_Z 60
_cell_length_a 11.580750
_cell_length_b 15.245898
_cell_length_c 24.616546
_cell_angle_alpha 90.000000
_cell_angle_beta 46.068822
_cell_angle_gamma 90.000000
_cell_volume 3130.070073
_symmetry_space_group_name_H-M "C 2/C"
_symmetry_group_IT_number 15
_symmetry_cell_setting 'monoclinic'
loop_
_space_group_symop_operation_xyz
x,y,z
-x,y,1/2-z
-x,-y,-z
x,-y,1/2+z
1/2+x,1/2+y,z
1/2-x,1/2+y,1/2-z
1/2-x,1/2-y,-z
1/2+x,1/2-y,1/2+z
loop_
_atom_site_type_symbol
_atom_site_label
_atom_site_fract_x
_atom_site_fract_y
_atom_site_fract_z
Si Si1 0.351077 0.320611 0.738734
Si Si2 0.353632 0.599204 0.400897
Si Si3 0.623473 0.361871 0.884525
Si Si4 0.000000 0.339207 0.250000
Si Si5 0.789078 0.547907 0.491580
Si Si6 0.553951 0.672486 0.520292
Si Si7 0.097095 0.349689 0.908105
Si Si8 0.761790 0.041665 0.605833
O O1 0.507055 0.386076 0.690296
O O2 0.289280 0.315976 0.695793
O O3 0.398212 0.222891 0.742751
O O4 0.213374 0.364830 0.819219
O O5 0.432000 0.631882 0.432028
O O6 0.294958 0.499765 0.429690
O O7 0.197054 0.652527 0.431934
O O8 0.704808 0.456887 0.867585
O O9 0.633194 0.303306 0.935793
O O10 0.880011 0.399944 0.323065
O O11 0.692758 0.637630 0.514135
O O12 0.790152 0.487410 0.437516
O O13 0.969904 0.571846 0.449271
O O14 0.482671 0.755599 0.573345
O O15 0.426266 0.595863 0.550475
#
# Coordination Sequence:
#
# PCOD8135323 Si02
#       8
#     8   8   8   4   8   8   8   8
#     4  10  19  39  55  88 118 154 189 250 303 333
#     4  10  19  38  59  82 118 157 192 237 301 350
#     4   9  20  36  63  79 116 158 188 237 306 338
#     4  12  22  34  60  94 110 146 202 254 280 346
#     4  11  23  39  58  88 119 158 195 241 295 356
#     4  11  19  41  60  84 116 158 196 243 290 353
#     4  12  23  34  61  90 121 153 203 242 292 355
#     4  11  20  37  61  87 112 147 206 239 288 348
#
# _framework density 19.168900000000001
#
# number of rings (size 3 to 8) (size 9 to 14) (size 15 to 20)
#    0.800    0.533    5.333    1.600    1.867    1.600 
#    0.000    0.000    0.000    1.600    0.000    0.000 
#    0.000    0.000    0.000    0.000    0.000    0.000 
#
# Total GULP energy -371679.844953 kJ/mol
# GULP energy per Si atom -12389.328165 kJ/mol
# Density = 1.912527 g / cm^3
# Si number density = 19.168900 Si / 1000 Ang^3
#
#
#
# Elastic Constant Matrix: (Units=GPa)
#
#
# Indices 1 2 3 4 5 6 
#
# 1 59.2415 27.6440 31.2893 0.0000 -10.6102 0.0000
# 2 27.6440 71.1749 53.1045 -0.0001 2.3196 0.0001
# 3 31.2893 53.1045 88.2279 -0.0001 -8.4838 0.0001
# 4 0.0000 -0.0001 -0.0001 37.8881 0.0001 -9.0302
# 5 -10.6102 2.3196 -8.4838 0.0001 23.4400 -0.0001
# 6 0.0000 0.0001 0.0001 -9.0302 -0.0001 17.1665
#
#
#
# Elastic Compliance Matrix: (Units=1/GPa)
#
#
# Indices 1 2 3 4 5 6 
#
# 1 0.023745 -0.007300 -0.003029 0.000000 0.010374 0.000000
# 2 -0.007300 0.029438 -0.016295 0.000000 -0.012115 0.000000
# 3 -0.003029 -0.016295 0.023041 0.000000 0.008581 0.000000
# 4 0.000000 0.000000 0.000000 0.030177 0.000000 0.015874
# 5 0.010374 -0.012115 0.008581 0.000000 0.051663 0.000000
# 6 0.000000 0.000000 0.000000 0.015874 0.000000 0.066604
#
#
# Mechanical properties :
#
#
# Convention : Reuss Voigt Hill
#
# Bulk Modulus (GPa) = 43.52452 49.19110 46.35781
# Shear Modulus (GPa) = 17.50860 22.80601 20.15731
#
# Velocity S-wave (km/s) = 3.02551 3.45300 3.24630
# Velocity P-wave (km/s) = 5.91270 6.45099 6.18770
#
# Compressibility (1/GPa) = 0.02297555
#
# Stress axis : x y z
#
# Youngs Moduli (GPa) = 42.11498 33.96990 43.39996
#
# Poissons Ratio (x) = 0.24799 0.13147
# Poissons Ratio (y) = 0.30745 0.70719
# Poissons Ratio (z) = 0.12757 0.55353
#
# Static dielectric constant tensor:
#      x y z
#    x 3.581700 0.000000 0.009970 
#    y 0.000000 3.301610 0.000000 
#    z 0.009970 0.000000 3.521210 
# 
# 
# High freq. dielectric constant tensor:
#      x y z
#    x 1.748700 0.000000 -0.000100 
#    y 0.000000 1.724810 0.000000 
#    z -0.000100 0.000000 1.742250 
# 
# From -- ./inp_files/292698.got.cif
#   From: 2010.06.25/outbox.cif.g09.slc.cpg/sg15_147_cif.got.tgz:292698.got - 2010.06.28 07:06:18.
