data_PCOD8135658
_publ_section_title
;
Structure prediction by ZEFSAII (Michael W. Deem and Ramdas Pophale) SiO2 
 PCOD8135658
Probable space group: C 2/C
;
_chemical_formula_sum "Si O2"
_cell_formula_units_Z 40
_cell_length_a 8.744802
_cell_length_b 16.867149
_cell_length_c 15.785996
_cell_angle_alpha 90.000000
_cell_angle_beta 127.121394
_cell_angle_gamma 90.000000
_cell_volume 1856.595758
_symmetry_space_group_name_H-M "C 2/C"
_symmetry_group_IT_number 15
_symmetry_cell_setting 'monoclinic'
loop_
_space_group_symop_operation_xyz
x,y,z
-x,y,1/2-z
-x,-y,-z
x,-y,1/2+z
1/2+x,1/2+y,z
1/2-x,1/2+y,1/2-z
1/2-x,1/2-y,-z
1/2+x,1/2-y,1/2+z
loop_
_atom_site_type_symbol
_atom_site_label
_atom_site_fract_x
_atom_site_fract_y
_atom_site_fract_z
Si Si1 0.393879 0.130225 0.317696
Si Si2 0.469938 0.423535 0.048506
Si Si3 0.709557 0.298628 0.616093
Si Si4 0.125233 0.379192 0.045693
Si Si5 0.652640 0.951017 0.233827
O O1 0.600730 0.159973 0.356289
O O2 0.226470 0.188898 0.224712
O O3 0.418145 0.127105 0.427985
O O4 0.338885 0.045509 0.260793
O O5 0.275717 0.429491 0.039366
O O6 0.641899 0.414792 0.172941
O O7 0.500000 0.500000 0.000000
O O8 0.467077 0.345771 0.986320
O O9 0.709154 0.207498 0.591589
O O10 0.085419 0.423714 0.119133
O O11 0.500000 0.918383 0.250000
#
# Coordination Sequence:
#
# PCOD8135658 Si02
#       5
#     8   8   8   8   8
#     4  10  19  39  62  92 127 159 212 257 320 371
#     4  11  21  40  64  96 127 164 216 265 314 379
#     4  10  21  39  66  95 124 167 214 271 309 381
#     4  11  25  38  71  98 122 167 223 270 315 378
#     4  12  23  41  63  92 133 175 207 261 325 389
#
# _framework density 21.544808
#
# number of rings (size 3 to 8) (size 9 to 14) (size 15 to 20)
#    0.000    1.200    4.000    4.800    8.400    0.000 
#    0.000    1.000    4.400    0.000    0.000    0.000 
#    0.000    0.000    0.000    0.000    0.000    0.000 
#
# Total GULP energy -247847.363606 kJ/mol
# GULP energy per Si atom -12392.368180 kJ/mol
# Density = 2.149577 g / cm^3
# Si number density = 21.544808 Si / 1000 Ang^3
#
#
#
# Elastic Constant Matrix: (Units=GPa)
#
#
# Indices 1 2 3 4 5 6 
#
# 1 53.1420 24.7257 28.4580 0.0000 -20.4954 0.0000
# 2 24.7257 103.9014 18.1654 0.0000 -6.9417 0.0000
# 3 28.4580 18.1654 166.3794 0.0000 -13.6887 0.0000
# 4 0.0000 0.0000 0.0000 40.6695 0.0000 -5.3115
# 5 -20.4954 -6.9417 -13.6887 0.0000 33.4264 0.0000
# 6 0.0000 0.0000 0.0000 -5.3115 0.0000 15.8119
#
#
#
# Elastic Compliance Matrix: (Units=1/GPa)
#
#
# Indices 1 2 3 4 5 6 
#
# 1 0.028850 -0.005301 -0.003095 0.000000 0.015321 0.000000
# 2 -0.005301 0.010875 -0.000375 0.000000 -0.001145 0.000000
# 3 -0.003095 -0.000375 0.006642 0.000000 0.000744 0.000000
# 4 0.000000 0.000000 0.000000 0.025717 0.000000 0.008639
# 5 0.015321 -0.001145 0.000744 0.000000 0.039378 0.000000
# 6 0.000000 0.000000 0.000000 0.008639 0.000000 0.066146
#
#
# Mechanical properties :
#
#
# Convention : Reuss Voigt Hill
#
# Bulk Modulus (GPa) = 34.69190 51.79124 43.24157
# Shear Modulus (GPa) = 24.41908 34.78645 29.60277
#
# Velocity S-wave (km/s) = 3.37027 4.02258 3.71078
# Velocity P-wave (km/s) = 5.59304 6.75765 6.20274
#
# Compressibility (1/GPa) = 0.02882517
#
# Stress axis : x y z
#
# Youngs Moduli (GPa) = 34.66155 91.95406 150.55790
#
# Poissons Ratio (x) = 0.48743 0.46603
# Poissons Ratio (y) = 0.18373 0.05644
# Poissons Ratio (z) = 0.10729 0.03447
#
# Static dielectric constant tensor:
#      x y z
#    x 3.373940 0.000000 -0.110140 
#    y 0.000000 3.867610 0.000000 
#    z -0.110140 0.000000 5.658050 
# 
# 
# High freq. dielectric constant tensor:
#      x y z
#    x 1.782050 0.000000 -0.004010 
#    y 0.000000 1.845310 0.000000 
#    z -0.004010 0.000000 1.892370 
# 
# From -- ./inp_files/76918.got.cif
#   From: 2010.06.25/outbox.cif.g09.slc.cpg/sg15_39_cif.got.tgz:76918.got - 2010.06.28 07:06:18.
