data_PCOD8135301
_publ_section_title
;
Structure prediction by ZEFSAII (Michael W. Deem and Ramdas Pophale) SiO2 
 PCOD8135301
Probable space group: C 2/C
;
_chemical_formula_sum "Si O2"
_cell_formula_units_Z 48
_cell_length_a 17.660913
_cell_length_b 5.236310
_cell_length_c 23.957601
_cell_angle_alpha 90.000000
_cell_angle_beta 75.210990
_cell_angle_gamma 90.000000
_cell_volume 2142.155422
_symmetry_space_group_name_H-M "C 2/C"
_symmetry_group_IT_number 15
_symmetry_cell_setting 'monoclinic'
loop_
_space_group_symop_operation_xyz
x,y,z
-x,y,1/2-z
-x,-y,-z
x,-y,1/2+z
1/2+x,1/2+y,z
1/2-x,1/2+y,1/2-z
1/2-x,1/2-y,-z
1/2+x,1/2-y,1/2+z
loop_
_atom_site_type_symbol
_atom_site_label
_atom_site_fract_x
_atom_site_fract_y
_atom_site_fract_z
Si Si1 0.739282 0.439844 0.337839
Si Si2 0.478042 0.219275 0.879983
Si Si3 0.545271 0.707969 0.555511
Si Si4 0.398304 0.416035 0.569212
Si Si5 0.152632 0.728411 0.255017
Si Si6 0.397519 0.740348 0.285441
O O1 0.692827 0.520996 0.402252
O O2 0.767375 0.688652 0.296542
O O3 0.677410 0.273400 0.313859
O O4 0.816938 0.273658 0.337192
O O5 0.427846 0.456988 0.914718
O O6 0.567646 0.246550 0.885162
O O7 0.471647 0.236729 0.813534
O O8 0.442039 0.953249 0.908036
O O9 0.453665 0.670136 0.553838
O O10 0.597301 0.738592 0.489814
O O11 0.099510 0.471888 0.260551
O O12 0.101105 0.966551 0.243980
#
# Coordination Sequence:
#
# PCOD8135301 Si02
#       6
#     8   8   8   8   8   8
#     4  10  20  38  59  84 107 152 187 233 270 344
#     4  10  19  38  58  79 116 148 179 233 285 326
#     4   9  20  38  57  83 112 149 183 237 270 340
#     4   9  21  35  63  81 111 146 198 220 283 334
#     4  10  20  37  57  78 111 145 188 223 277 329
#     4  10  20  36  59  78 114 148 178 232 285 321
#
# _framework density 22.407335
#
# number of rings (size 3 to 8) (size 9 to 14) (size 15 to 20)
#    2.000    0.333    1.667    1.500    0.000    1.333 
#    0.000    2.500    0.000    0.000    0.000    0.000 
#    0.000    0.000    0.000    0.000    0.000    0.000 
#
# Total GULP energy -297314.791262 kJ/mol
# GULP energy per Si atom -12388.116303 kJ/mol
# Density = 2.235634 g / cm^3
# Si number density = 22.407335 Si / 1000 Ang^3
#
#
#
# Elastic Constant Matrix: (Units=GPa)
#
#
# Indices 1 2 3 4 5 6 
#
# 1 41.4563 10.6378 -23.9065 -0.0024 -1.8418 -0.0005
# 2 10.6378 135.9760 -4.4253 -0.0025 10.9021 -0.0005
# 3 -23.9065 -4.4253 -37.6601 -0.0005 -9.7838 0.0009
# 4 -0.0024 -0.0025 -0.0005 25.4794 -0.0022 9.3455
# 5 -1.8418 10.9021 -9.7838 -0.0022 41.2397 -0.0018
# 6 -0.0005 -0.0005 0.0009 9.3455 -0.0018 19.8986
#
#
#
# Elastic Compliance Matrix: (Units=1/GPa)
#
#
# Indices 1 2 3 4 5 6 
#
# 1 0.018159 -0.001669 -0.010979 0.000001 -0.001352 0.000000
# 2 -0.001669 0.007662 0.000664 0.000001 -0.001943 0.000000
# 3 -0.010979 0.000664 -0.018357 -0.000002 -0.005021 0.000001
# 4 0.000001 0.000001 -0.000002 0.047415 0.000001 -0.022269
# 5 -0.001352 -0.001943 -0.005021 0.000001 0.023510 0.000002
# 6 0.000000 0.000000 0.000001 -0.022269 0.000002 0.060713
#
#
# Mechanical properties :
#
#
# Convention : Reuss Voigt Hill
#
# Bulk Modulus (GPa) = -60.58358 11.59823 -24.49267
# Shear Modulus (GPa) = 31.73185 27.82130 29.77657
#
# Velocity S-wave (km/s) = 3.76724 3.52748 3.64933
# Velocity P-wave (km/s) = 2.85889 4.66671 2.60815
#
# Compressibility (1/GPa) = -0.01650612
#
# Stress axis : x y z
#
# Youngs Moduli (GPa) = 55.07036 130.51063 -54.47464
#
# Poissons Ratio (x) = 0.21789 -0.59810
# Poissons Ratio (y) = 0.09194 0.03618
# Poissons Ratio (z) = 0.60464 -0.08667
#
# Static dielectric constant tensor:
#      x y z
#    x 3.608810 -0.000010 0.026380 
#    y -0.000010 3.874220 0.000000 
#    z 0.026380 0.000000 3.637710 
# 
# 
# High freq. dielectric constant tensor:
#      x y z
#    x 1.847140 0.000000 0.000370 
#    y 0.000000 1.879570 0.000000 
#    z 0.000370 0.000000 1.863710 
# 
# From -- ./inp_files/275833.got.cif
#   From: 2010.06.25/outbox.cif.g09.slc.cpg/sg15_138_cif.got.tgz:275833.got - 2010.06.28 07:06:18.
