data_PCOD8135208
_publ_section_title
;
Structure prediction by ZEFSAII (Michael W. Deem and Ramdas Pophale) SiO2 
 PCOD8135208
Probable space group: C 2/C
;
_chemical_formula_sum "Si O2"
_cell_formula_units_Z 36
_cell_length_a 5.444298
_cell_length_b 14.569872
_cell_length_c 19.790996
_cell_angle_alpha 90.000000
_cell_angle_beta 108.859416
_cell_angle_gamma 90.000000
_cell_volume 1485.596264
_symmetry_space_group_name_H-M "C 2/C"
_symmetry_group_IT_number 15
_symmetry_cell_setting 'monoclinic'
loop_
_space_group_symop_operation_xyz
x,y,z
-x,y,1/2-z
-x,-y,-z
x,-y,1/2+z
1/2+x,1/2+y,z
1/2-x,1/2+y,1/2-z
1/2-x,1/2-y,-z
1/2+x,1/2-y,1/2+z
loop_
_atom_site_type_symbol
_atom_site_label
_atom_site_fract_x
_atom_site_fract_y
_atom_site_fract_z
Si Si1 0.222282 0.760463 0.600730
Si Si2 0.794735 0.013760 0.785090
Si Si3 0.000000 0.188777 0.750000
Si Si4 0.037349 0.938181 0.938338
Si Si5 0.899757 0.388373 0.508285
O O1 0.347811 0.754336 0.685383
O O2 0.979168 0.830149 0.583628
O O3 0.132141 0.659196 0.567862
O O4 0.427325 0.806855 0.566336
O O5 0.500000 0.976543 0.750000
O O6 0.887512 0.997368 0.869439
O O7 0.000000 0.967000 0.750000
O O8 0.798129 0.123795 0.773036
O O9 0.871153 0.945078 0.996742
O O10 0.349416 0.955550 0.966717
#
# Coordination Sequence:
#
# PCOD8135208 Si02
#       5
#     8   8   4   8   8
#     4   9  21  36  62  90 118 153 197 248 293 342
#     4  10  23  40  56  83 126 156 191 242 294 357
#     4  10  24  40  58  90 126 152 192 252 296 344
#     4  10  19  37  65  83 113 158 198 240 287 354
#     4   9  20  37  64  87 117 146 209 243 287 343
#
# _framework density 24.232695
#
# number of rings (size 3 to 8) (size 9 to 14) (size 15 to 20)
#    2.000    0.444    0.000    2.000    1.556    1.778 
#    0.000    2.222    0.000    0.000    0.000    0.000 
#    0.000    0.000    0.000    0.000    0.000    0.000 
#
# Total GULP energy -223139.546577 kJ/mol
# GULP energy per Si atom -12396.641476 kJ/mol
# Density = 2.417754 g / cm^3
# Si number density = 24.232695 Si / 1000 Ang^3
#
#
#
# Elastic Constant Matrix: (Units=GPa)
#
#
# Indices 1 2 3 4 5 6 
#
# 1 164.7725 59.6186 75.5030 0.0000 32.4780 0.0000
# 2 59.6186 88.8873 60.2908 0.0000 12.8104 0.0000
# 3 75.5030 60.2908 180.7015 0.0000 17.7937 0.0000
# 4 0.0000 0.0000 0.0000 52.2319 0.0000 -1.8379
# 5 32.4780 12.8104 17.7937 0.0000 37.7133 0.0000
# 6 0.0000 0.0000 0.0000 -1.8379 0.0000 41.6818
#
#
#
# Elastic Compliance Matrix: (Units=1/GPa)
#
#
# Indices 1 2 3 4 5 6 
#
# 1 0.009731 -0.004276 -0.002053 0.000000 -0.005960 0.000000
# 2 -0.004276 0.016703 -0.003765 0.000000 -0.000215 0.000000
# 3 -0.002053 -0.003765 0.007706 0.000000 -0.000589 0.000000
# 4 0.000000 0.000000 0.000000 0.019175 0.000000 0.000845
# 5 -0.005960 -0.000215 -0.000589 0.000000 0.031999 0.000000
# 6 0.000000 0.000000 0.000000 0.000845 0.000000 0.024029
#
#
# Mechanical properties :
#
#
# Convention : Reuss Voigt Hill
#
# Bulk Modulus (GPa) = 71.66964 91.68733 81.67848
# Shear Modulus (GPa) = 37.26308 42.25533 39.75921
#
# Velocity S-wave (km/s) = 3.92563 4.18033 4.05498
# Velocity P-wave (km/s) = 7.08430 7.82423 7.46344
#
# Compressibility (1/GPa) = 0.01395291
#
# Stress axis : x y z
#
# Youngs Moduli (GPa) = 102.76114 59.86977 129.77114
#
# Poissons Ratio (x) = 0.25600 0.26637
# Poissons Ratio (y) = 0.43939 0.48861
# Poissons Ratio (z) = 0.21093 0.22542
#
# Static dielectric constant tensor:
#      x y z
#    x 4.221460 0.000000 -0.099750 
#    y 0.000000 4.438650 0.000000 
#    z -0.099750 0.000000 4.060360 
# 
# 
# High freq. dielectric constant tensor:
#      x y z
#    x 1.959390 0.000000 -0.000840 
#    y 0.000000 1.989750 0.000000 
#    z -0.000840 0.000000 1.959240 
# 
# From -- ./inp_files/260585.got.cif
#   From: 2010.06.25/outbox.cif.g09.slc.cpg/sg15_131_cif.got.tgz:260585.got - 2010.06.28 07:06:18.
