data_PCOD8135556
_publ_section_title
;
Structure prediction by ZEFSAII (Michael W. Deem and Ramdas Pophale) SiO2 
 PCOD8135556
Probable space group: C 2/C
;
_chemical_formula_sum "Si O2"
_cell_formula_units_Z 44
_cell_length_a 7.382400
_cell_length_b 17.290677
_cell_length_c 24.169232
_cell_angle_alpha 90.000000
_cell_angle_beta 137.643697
_cell_angle_gamma 90.000000
_cell_volume 2078.567399
_symmetry_space_group_name_H-M "C 2/C"
_symmetry_group_IT_number 15
_symmetry_cell_setting 'monoclinic'
loop_
_space_group_symop_operation_xyz
x,y,z
-x,y,1/2-z
-x,-y,-z
x,-y,1/2+z
1/2+x,1/2+y,z
1/2-x,1/2+y,1/2-z
1/2-x,1/2-y,-z
1/2+x,1/2-y,1/2+z
loop_
_atom_site_type_symbol
_atom_site_label
_atom_site_fract_x
_atom_site_fract_y
_atom_site_fract_z
Si Si1 0.638286 0.305172 0.111433
Si Si2 0.750588 0.799674 0.928274
Si Si3 0.296745 0.465144 0.313604
Si Si4 0.977131 0.061303 0.043599
Si Si5 0.500000 0.590314 0.750000
Si Si6 0.994055 0.322633 0.092048
O O1 0.553052 0.234082 0.133522
O O2 0.716080 0.378272 0.165506
O O3 0.879571 0.285215 0.123399
O O4 0.368110 0.321263 0.015415
O O5 0.960452 0.741374 0.944985
O O6 0.763019 0.880882 0.898439
O O7 0.512093 0.516783 0.395676
O O8 0.372918 0.465810 0.266767
O O9 0.000000 0.501359 0.250000
O O10 0.702333 0.109923 0.974875
O O11 0.000000 0.000000 0.000000
O O12 0.716553 0.643172 0.829299
#
# Coordination Sequence:
#
# PCOD8135556 Si02
#       6
#     8   8   8   8   4   8
#     4  10  19  38  67  91 124 165 214 271 319 390
#     4  10  21  39  66  99 124 161 222 276 324 387
#     4  12  23  43  64  94 138 178 220 274 340 405
#     4  11  21  41  68 100 132 173 218 276 335 388
#     4  12  24  40  64  98 134 186 218 270 346 402
#     4  11  22  41  67  98 130 171 228 271 329 395
#
# _framework density 21.168424999999999
#
# number of rings (size 3 to 8) (size 9 to 14) (size 15 to 20)
#    0.000    1.091    7.273    2.182    0.000    0.727 
#    1.636    5.455    0.000    0.000    2.364    0.000 
#    0.000    0.000    0.000    0.000    0.000    0.000 
#
# Total GULP energy -272649.966130 kJ/mol
# GULP energy per Si atom -12393.180279 kJ/mol
# Density = 2.112024 g / cm^3
# Si number density = 21.168425 Si / 1000 Ang^3
#
#
#
# Elastic Constant Matrix: (Units=GPa)
#
#
# Indices 1 2 3 4 5 6 
#
# 1 128.9780 34.5429 23.1488 0.0014 -7.0598 0.0009
# 2 34.5429 99.1308 34.1365 0.0004 -4.0399 0.0002
# 3 23.1488 34.1365 76.8039 0.0029 -4.2697 0.0026
# 4 0.0014 0.0004 0.0029 21.8727 0.0021 4.4224
# 5 -7.0598 -4.0399 -4.2697 0.0021 38.2359 0.0016
# 6 0.0009 0.0002 0.0026 4.4224 0.0016 21.4564
#
#
#
# Elastic Compliance Matrix: (Units=1/GPa)
#
#
# Indices 1 2 3 4 5 6 
#
# 1 0.008749 -0.002497 -0.001461 0.000000 0.001188 0.000000
# 2 -0.002497 0.012641 -0.004847 0.000000 0.000333 0.000000
# 3 -0.001461 -0.004847 0.015669 -0.000002 0.000968 -0.000002
# 4 0.000000 0.000000 -0.000002 0.047707 -0.000002 -0.009833
# 5 0.001188 0.000333 0.000968 -0.000002 0.026516 -0.000002
# 6 0.000000 0.000000 -0.000002 -0.009833 -0.000002 0.048633
#
#
# Mechanical properties :
#
#
# Convention : Reuss Voigt Hill
#
# Bulk Modulus (GPa) = 51.41952 54.28547 52.85250
# Shear Modulus (GPa) = 27.17272 30.51864 28.84568
#
# Velocity S-wave (km/s) = 3.58668 3.80110 3.69545
# Velocity P-wave (km/s) = 6.44172 6.70557 6.57497
#
# Compressibility (1/GPa) = 0.01944787
#
# Stress axis : x y z
#
# Youngs Moduli (GPa) = 114.29420 79.11037 63.82157
#
# Poissons Ratio (x) = 0.19756 0.09325
# Poissons Ratio (y) = 0.28542 0.30935
# Poissons Ratio (z) = 0.16699 0.38345
#
# Static dielectric constant tensor:
#      x y z
#    x 4.163090 0.000000 -0.051630 
#    y 0.000000 3.957170 0.000000 
#    z -0.051630 0.000000 3.711240 
# 
# 
# High freq. dielectric constant tensor:
#      x y z
#    x 1.839410 0.000000 -0.009320 
#    y 0.000000 1.814810 0.000000 
#    z -0.009320 0.000000 1.816460 
# 
# From -- ./inp_files/288938.got.cif
#   From: 2010.06.25/outbox.cif.g09.slc.cpg/sg15_145_cif.got.tgz:288938.got - 2010.06.28 07:06:18.
