data_PCOD8135371
_publ_section_title
;
Structure prediction by ZEFSAII (Michael W. Deem and Ramdas Pophale) SiO2 
 PCOD8135371
Probable space group: C 2/C
;
_chemical_formula_sum "Si O2"
_cell_formula_units_Z 48
_cell_length_a 6.227192
_cell_length_b 22.150280
_cell_length_c 16.817335
_cell_angle_alpha 90.000000
_cell_angle_beta 109.772104
_cell_angle_gamma 90.000000
_cell_volume 2182.927499
_symmetry_space_group_name_H-M "C 2/C"
_symmetry_group_IT_number 15
_symmetry_cell_setting 'monoclinic'
loop_
_space_group_symop_operation_xyz
x,y,z
-x,y,1/2-z
-x,-y,-z
x,-y,1/2+z
1/2+x,1/2+y,z
1/2-x,1/2+y,1/2-z
1/2-x,1/2-y,-z
1/2+x,1/2-y,1/2+z
loop_
_atom_site_type_symbol
_atom_site_label
_atom_site_fract_x
_atom_site_fract_y
_atom_site_fract_z
Si Si1 0.311391 0.307028 0.955310
Si Si2 0.500000 0.667822 0.750000
Si Si3 0.830979 0.131710 0.892968
Si Si4 0.306372 0.991643 0.166333
Si Si5 0.500000 0.442546 0.750000
Si Si6 0.046069 0.733033 0.666352
Si Si7 0.036572 0.390529 0.663384
O O1 0.462789 0.288246 0.897209
O O2 0.068307 0.337613 0.903577
O O3 0.250000 0.250000 0.000000
O O4 0.460072 0.354245 0.023399
O O5 0.404379 0.627714 0.809702
O O6 0.697759 0.709300 0.810540
O O7 0.752712 0.063132 0.901260
O O8 0.632094 0.180856 0.880054
O O9 0.500000 0.966885 0.250000
O O10 0.405352 0.046990 0.126900
O O11 0.093573 0.015428 0.191230
O O12 0.692814 0.399763 0.814723
O O13 0.000000 0.756912 0.750000
O O14 0.000000 0.372186 0.750000
#
# Coordination Sequence:
#
# PCOD8135371 Si02
#       7
#     8   4   8   8   4   8   8
#     4  12  25  45  62  96 141 171 223 283 317 389
#     4  10  19  38  60  94 124 170 223 268 324 392
#     4  11  22  39  66  96 135 171 217 277 340 385
#     4   9  18  38  65  97 126 163 221 274 324 401
#     4   8  17  42  70  96 124 172 225 266 338 398
#     4  10  23  42  65  93 125 185 224 266 331 390
#     4   9  22  43  65  95 126 173 220 271 329 398
#
# _framework density 21.988821999999999
#
# number of rings (size 3 to 8) (size 9 to 14) (size 15 to 20)
#    0.000    2.333    1.667    2.500    1.167    2.000 
#   18.000    0.833    0.000    0.000    0.000    0.000 
#    0.000    0.000    0.000    0.000    0.000    0.000 
#
# Total GULP energy -297563.028178 kJ/mol
# GULP energy per Si atom -12398.459507 kJ/mol
# Density = 2.193877 g / cm^3
# Si number density = 21.988822 Si / 1000 Ang^3
#
#
#
# Elastic Constant Matrix: (Units=GPa)
#
#
# Indices 1 2 3 4 5 6 
#
# 1 127.1427 47.7905 39.9920 0.0000 22.5184 0.0000
# 2 47.7905 135.9639 69.6412 0.0000 17.2826 0.0000
# 3 39.9920 69.6412 99.0842 0.0000 19.4022 0.0000
# 4 0.0000 0.0000 0.0000 42.5730 0.0000 11.5368
# 5 22.5184 17.2826 19.4022 0.0000 35.4496 0.0000
# 6 0.0000 0.0000 0.0000 11.5368 0.0000 24.1535
#
#
#
# Elastic Compliance Matrix: (Units=1/GPa)
#
#
# Indices 1 2 3 4 5 6 
#
# 1 0.009955 -0.002068 -0.001707 0.000000 -0.004382 0.000000
# 2 -0.002068 0.011977 -0.007501 0.000000 -0.000420 0.000000
# 3 -0.001707 -0.007501 0.016941 0.000000 -0.004531 0.000000
# 4 0.000000 0.000000 0.000000 0.026981 0.000000 -0.012888
# 5 -0.004382 -0.000420 -0.004531 0.000000 0.033677 0.000000
# 6 0.000000 0.000000 0.000000 -0.012888 0.000000 0.047558
#
#
# Mechanical properties :
#
#
# Convention : Reuss Voigt Hill
#
# Bulk Modulus (GPa) = 61.26935 75.22647 68.24791
# Shear Modulus (GPa) = 28.55805 34.08637 31.32221
#
# Velocity S-wave (km/s) = 3.60773 3.94149 3.77830
# Velocity P-wave (km/s) = 6.72894 7.41615 7.08089
#
# Compressibility (1/GPa) = 0.01632137
#
# Stress axis : x y z
#
# Youngs Moduli (GPa) = 100.44814 83.49028 59.02932
#
# Poissons Ratio (x) = 0.17268 0.10074
# Poissons Ratio (y) = 0.20775 0.44280
# Poissons Ratio (z) = 0.17142 0.62629
#
# Static dielectric constant tensor:
#      x y z
#    x 4.097110 0.000000 0.153220 
#    y 0.000000 3.830680 0.000000 
#    z 0.153220 0.000000 3.878160 
# 
# 
# High freq. dielectric constant tensor:
#      x y z
#    x 1.870270 0.000000 0.014780 
#    y 0.000000 1.863720 0.000000 
#    z 0.014780 0.000000 1.845760 
# 
# From -- ./inp_files/185571.got.cif
#   From: 2010.06.25/outbox.cif.g09.slc.cpg/sg15_93_cif.got.tgz:185571.got - 2010.06.28 07:06:18.
