data_PCOD8135129
_publ_section_title
;
Structure prediction by ZEFSAII (Michael W. Deem and Ramdas Pophale) SiO2 
 PCOD8135129
Probable space group: C 2/C
;
_chemical_formula_sum "Si O2"
_cell_formula_units_Z 60
_cell_length_a 16.191739
_cell_length_b 9.319806
_cell_length_c 22.242013
_cell_angle_alpha 90.000000
_cell_angle_beta 61.643192
_cell_angle_gamma 90.000000
_cell_volume 2953.660119
_symmetry_space_group_name_H-M "C 2/C"
_symmetry_group_IT_number 15
_symmetry_cell_setting 'monoclinic'
loop_
_space_group_symop_operation_xyz
x,y,z
-x,y,1/2-z
-x,-y,-z
x,-y,1/2+z
1/2+x,1/2+y,z
1/2-x,1/2+y,1/2-z
1/2-x,1/2-y,-z
1/2+x,1/2-y,1/2+z
loop_
_atom_site_type_symbol
_atom_site_label
_atom_site_fract_x
_atom_site_fract_y
_atom_site_fract_z
Si Si1 0.796884 0.173372 0.637182
Si Si2 0.000000 0.702990 0.250000
Si Si3 0.879649 0.469822 0.354404
Si Si4 0.752143 0.581584 0.503207
Si Si5 0.103819 0.936130 0.280291
Si Si6 0.217508 0.957138 0.638028
Si Si7 0.535393 0.314941 0.646510
Si Si8 0.080611 0.923570 0.508855
O O1 0.699186 0.091808 0.662441
O O2 0.849590 0.091678 0.672028
O O3 0.780585 0.342795 0.653413
O O4 0.858374 0.174088 0.555849
O O5 0.081218 0.608545 0.192622
O O6 0.033841 0.804811 0.292651
O O7 0.833847 0.512184 0.434196
O O8 0.964715 0.353688 0.334779
O O9 0.750000 0.750000 0.500000
O O10 0.773048 0.537926 0.565487
O O11 0.648251 0.536958 0.518109
O O12 0.180732 0.931434 0.200606
O O13 0.050807 0.091417 0.296596
O O14 0.133732 0.874329 0.634880
O O15 0.531257 0.323866 0.575741
O O16 0.000000 0.000000 0.500000
#
# Coordination Sequence:
#
# PCOD8135129 Si02
#       8
#     8   4   8   8   8   8   8   8
#     4  10  23  39  62  92 125 160 210 261 312 366
#     4  12  26  40  62  92 128 162 208 264 320 382
#     4  10  24  41  63  94 121 161 216 263 313 373
#     4  10  21  39  65  91 124 165 208 261 314 374
#     4  12  23  39  63  92 125 170 206 255 322 380
#     4  10  21  39  62  88 126 165 209 251 312 376
#     4  10  20  39  66  88 122 167 211 252 310 379
#     4  10  19  37  62  93 120 158 205 256 302 369
#
# _framework density 20.313779
#
# number of rings (size 3 to 8) (size 9 to 14) (size 15 to 20)
#    0.000    1.600    2.667    1.600    7.467    3.200 
#    0.000    1.333    0.000    3.200    0.000    0.000 
#    0.000    0.000    0.000    0.000    0.000    0.000 
#
# Total GULP energy -371932.434810 kJ/mol
# GULP energy per Si atom -12397.747827 kJ/mol
# Density = 2.026754 g / cm^3
# Si number density = 20.313779 Si / 1000 Ang^3
#
#
#
# Elastic Constant Matrix: (Units=GPa)
#
#
# Indices 1 2 3 4 5 6 
#
# 1 72.0839 41.2858 25.8321 0.0000 3.7421 0.0000
# 2 41.2858 125.1558 38.8833 0.0000 1.1461 0.0001
# 3 25.8321 38.8833 104.3101 0.0000 -0.3606 0.0000
# 4 0.0000 0.0000 0.0000 32.2608 0.0000 -3.9945
# 5 3.7421 1.1461 -0.3606 0.0000 28.1991 0.0000
# 6 0.0000 0.0001 0.0000 -3.9945 0.0000 22.8200
#
#
#
# Elastic Compliance Matrix: (Units=1/GPa)
#
#
# Indices 1 2 3 4 5 6 
#
# 1 0.017792 -0.005064 -0.002526 0.000000 -0.002188 0.000000
# 2 -0.005064 0.010483 -0.002653 0.000000 0.000212 0.000000
# 3 -0.002526 -0.002653 0.011203 0.000000 0.000586 0.000000
# 4 0.000000 0.000000 0.000000 0.031684 0.000000 0.005546
# 5 -0.002188 0.000212 0.000586 0.000000 0.035751 0.000000
# 6 0.000000 0.000000 0.000000 0.005546 0.000000 0.044792
#
#
# Mechanical properties :
#
#
# Convention : Reuss Voigt Hill
#
# Bulk Modulus (GPa) = 52.65344 57.06136 54.85740
# Shear Modulus (GPa) = 28.00770 29.69255 28.85012
#
# Velocity S-wave (km/s) = 3.71719 3.82736 3.77267
# Velocity P-wave (km/s) = 6.66330 6.90525 6.78536
#
# Compressibility (1/GPa) = 0.01899211
#
# Stress axis : x y z
#
# Youngs Moduli (GPa) = 56.20474 95.39366 89.26022
#
# Poissons Ratio (x) = 0.48311 0.22546
# Poissons Ratio (y) = 0.28464 0.23678
# Poissons Ratio (z) = 0.14197 0.25305
#
# Static dielectric constant tensor:
#      x y z
#    x 3.625230 0.000000 -0.064560 
#    y 0.000000 3.791950 0.000000 
#    z -0.064560 0.000000 3.937350 
# 
# 
# High freq. dielectric constant tensor:
#      x y z
#    x 1.771480 0.000000 0.000250 
#    y 0.000000 1.791150 0.000000 
#    z 0.000250 0.000000 1.811200 
# 
# From -- ./inp_files/247396.got.cif
#   From: 2010.06.25/outbox.cif.g09.slc.cpg/sg15_124_cif.got.tgz:247396.got - 2010.06.28 07:06:18.
