data_PCOD8135757
_publ_section_title
;
Structure prediction by ZEFSAII (Michael W. Deem and Ramdas Pophale) SiO2 
 PCOD8135757
Probable space group: C 2/C
;
_chemical_formula_sum "Si O2"
_cell_formula_units_Z 44
_cell_length_a 28.192013
_cell_length_b 12.856089
_cell_length_c 16.880483
_cell_angle_alpha 90.000000
_cell_angle_beta 161.158560
_cell_angle_gamma 90.000000
_cell_volume 1975.856970
_symmetry_space_group_name_H-M "C 2/C"
_symmetry_group_IT_number 15
_symmetry_cell_setting 'monoclinic'
loop_
_space_group_symop_operation_xyz
x,y,z
-x,y,1/2-z
-x,-y,-z
x,-y,1/2+z
1/2+x,1/2+y,z
1/2-x,1/2+y,1/2-z
1/2-x,1/2-y,-z
1/2+x,1/2-y,1/2+z
loop_
_atom_site_type_symbol
_atom_site_label
_atom_site_fract_x
_atom_site_fract_y
_atom_site_fract_z
Si Si1 0.200344 0.590055 0.277692
Si Si2 0.857860 0.655324 0.478042
Si Si3 0.500000 0.278883 0.250000
Si Si4 0.147672 0.108380 0.528059
Si Si5 0.850573 0.655083 0.136424
Si Si6 0.344522 0.524236 0.790761
O O1 0.104026 0.639811 0.054861
O O2 0.356489 0.650151 0.521862
O O3 0.224076 0.467289 0.300438
O O4 0.111395 0.599602 0.219888
O O5 0.814286 0.772659 0.431938
O O6 0.719251 0.585215 0.280923
O O7 0.000000 0.617330 0.750000
O O8 0.493495 0.201038 0.316545
O O9 0.130148 0.099979 0.594959
O O10 0.000000 0.074357 0.250000
O O11 0.750000 0.750000 0.000000
O O12 0.763232 0.576068 0.942600
O O13 0.500000 0.500000 0.000000
#
# Coordination Sequence:
#
# PCOD8135757 Si02
#       6
#     8   8   4   8   8   8
#     4  10  20  40  68  97 125 176 228 274 330 409
#     4  10  24  44  66  95 142 177 213 279 341 398
#     4  10  20  36  70  98 134 164 224 298 328 378
#     4  10  19  39  67  92 131 176 222 265 337 400
#     4  10  22  38  65 100 126 165 228 278 335 385
#     4  11  24  42  69  98 135 177 229 279 335 396
#
# _framework density 22.268819000000001
#
# number of rings (size 3 to 8) (size 9 to 14) (size 15 to 20)
#    0.000    1.818    0.909    3.273    8.909    0.000 
#    0.000    9.091    4.000    0.000    0.000    0.000 
#    0.000    0.000    0.000    0.000    0.000    0.000 
#
# Total GULP energy -272772.938558 kJ/mol
# GULP energy per Si atom -12398.769934 kJ/mol
# Density = 2.221813 g / cm^3
# Si number density = 22.268819 Si / 1000 Ang^3
#
#
#
# Elastic Constant Matrix: (Units=GPa)
#
#
# Indices 1 2 3 4 5 6 
#
# 1 154.3541 31.9052 34.2735 0.0000 -19.2592 0.0000
# 2 31.9052 96.9968 13.5093 0.0000 -2.3043 0.0000
# 3 34.2735 13.5093 68.2293 0.0000 -20.8890 0.0000
# 4 0.0000 0.0000 0.0000 24.1954 0.0000 -10.2906
# 5 -19.2592 -2.3043 -20.8890 0.0000 46.5253 0.0000
# 6 0.0000 0.0000 0.0000 -10.2906 0.0000 26.5840
#
#
#
# Elastic Compliance Matrix: (Units=1/GPa)
#
#
# Indices 1 2 3 4 5 6 
#
# 1 0.007793 -0.002110 -0.002946 0.000000 0.001799 0.000000
# 2 -0.002110 0.011183 -0.001451 0.000000 -0.000971 0.000000
# 3 -0.002946 -0.001451 0.018583 0.000000 0.007052 0.000000
# 4 0.000000 0.000000 0.000000 0.049476 0.000000 0.019152
# 5 0.001799 -0.000971 0.007052 0.000000 0.025356 0.000000
# 6 0.000000 0.000000 0.000000 0.019152 0.000000 0.045030
#
#
# Mechanical properties :
#
#
# Convention : Reuss Voigt Hill
#
# Bulk Modulus (GPa) = 40.74523 53.21736 46.98129
# Shear Modulus (GPa) = 27.99257 35.45376 31.72316
#
# Velocity S-wave (km/s) = 3.54931 3.99442 3.77842
# Velocity P-wave (km/s) = 5.92735 6.72484 6.33865
#
# Compressibility (1/GPa) = 0.02454275
#
# Stress axis : x y z
#
# Youngs Moduli (GPa) = 128.31218 89.42243 53.81308
#
# Poissons Ratio (x) = 0.18872 0.15855
# Poissons Ratio (y) = 0.27079 0.07811
# Poissons Ratio (z) = 0.37805 0.12979
#
# Static dielectric constant tensor:
#      x y z
#    x 7.271090 0.000000 -1.378410 
#    y 0.000000 4.191100 0.000000 
#    z -1.378410 0.000000 4.222270 
# 
# 
# High freq. dielectric constant tensor:
#      x y z
#    x 1.883940 0.000000 -0.020890 
#    y 0.000000 1.893270 0.000000 
#    z -0.020890 0.000000 1.858860 
# 
# From -- ./inp_files/225227.got.cif
#   From: 2010.06.25/outbox.cif.g09.slc.cpg/sg15_113_cif.got.tgz:225227.got - 2010.06.28 07:06:18.
