data_PCOD8135118
_publ_section_title
;
Structure prediction by ZEFSAII (Michael W. Deem and Ramdas Pophale) SiO2 
 PCOD8135118
Probable space group: C 2/C
;
_chemical_formula_sum "Si O2"
_cell_formula_units_Z 64
_cell_length_a 9.972294
_cell_length_b 17.841939
_cell_length_c 31.317604
_cell_angle_alpha 90.000000
_cell_angle_beta 142.759408
_cell_angle_gamma 90.000000
_cell_volume 3372.082703
_symmetry_space_group_name_H-M "C 2/C"
_symmetry_group_IT_number 15
_symmetry_cell_setting 'monoclinic'
loop_
_space_group_symop_operation_xyz
x,y,z
-x,y,1/2-z
-x,-y,-z
x,-y,1/2+z
1/2+x,1/2+y,z
1/2-x,1/2+y,1/2-z
1/2-x,1/2-y,-z
1/2+x,1/2-y,1/2+z
loop_
_atom_site_type_symbol
_atom_site_label
_atom_site_fract_x
_atom_site_fract_y
_atom_site_fract_z
Si Si1 0.175923 0.957612 0.929957
Si Si2 0.989500 0.541559 0.432888
Si Si3 0.504893 0.218659 0.439177
Si Si4 0.691640 0.282680 0.938904
Si Si5 0.235041 0.213232 0.792819
Si Si6 0.256470 0.459291 0.200042
Si Si7 0.254491 0.200080 0.698426
Si Si8 0.734747 0.971292 0.293759
O O1 0.298565 0.982818 0.917686
O O2 0.210328 0.871138 0.948624
O O3 0.917406 0.974372 0.859832
O O4 0.276032 0.005832 0.994159
O O5 0.013566 0.629961 0.437063
O O6 0.925325 0.507648 0.371001
O O7 0.750000 0.250000 0.500000
O O8 0.367413 0.243884 0.446861
O O9 0.400359 0.250087 0.369813
O O10 0.442158 0.261258 0.862126
O O11 0.750000 0.250000 0.000000
O O12 0.273400 0.128342 0.818703
O O13 0.209422 0.218304 0.735850
O O14 0.000000 0.245007 0.750000
O O15 0.500000 0.487827 0.250000
O O16 0.220055 0.475746 0.239723
O O17 0.500000 0.225141 0.750000
O O18 0.214217 0.112904 0.677575
O O19 0.500000 0.001131 0.250000
#
# Coordination Sequence:
#
# PCOD8135118 Si02
#       8
#     8   8   8   8   8   8   8   8
#     4  10  21  39  60  84 117 154 191 242 292 340
#     4  10  21  38  62  87 111 150 203 242 281 342
#     4  11  24  40  62  87 117 157 200 246 292 348
#     4  11  24  41  60  86 122 156 195 246 296 350
#     4  10  22  37  62  91 118 157 194 237 294 352
#     4  10  19  37  62  89 114 150 199 238 282 350
#     4  10  20  39  61  86 120 155 195 240 295 351
#     4  10  21  37  59  87 121 152 185 239 298 346
#
# _framework density 18.979368000000001
#
# number of rings (size 3 to 8) (size 9 to 14) (size 15 to 20)
#    0.000    1.750    2.500    1.500    1.750    2.000 
#    2.250    0.625    0.000    0.000    0.000    0.000 
#    0.000    0.000    0.000    0.000    0.000    0.000 
#
# Total GULP energy -396856.567784 kJ/mol
# GULP energy per Si atom -12401.767743 kJ/mol
# Density = 1.893617 g / cm^3
# Si number density = 18.979368 Si / 1000 Ang^3
#
#
#
# Elastic Constant Matrix: (Units=GPa)
#
#
# Indices 1 2 3 4 5 6 
#
# 1 104.9053 30.4282 50.4368 -0.0001 22.4579 0.0000
# 2 30.4282 72.5648 53.8017 0.0000 -0.9126 0.0000
# 3 50.4368 53.8017 131.8886 -0.0001 9.7029 -0.0001
# 4 -0.0001 0.0000 -0.0001 44.5773 -0.0001 -3.7110
# 5 22.4579 -0.9126 9.7029 -0.0001 25.5207 -0.0001
# 6 0.0000 0.0000 -0.0001 -3.7110 -0.0001 28.2810
#
#
#
# Elastic Compliance Matrix: (Units=1/GPa)
#
#
# Indices 1 2 3 4 5 6 
#
# 1 0.014758 -0.004022 -0.003124 0.000000 -0.011943 0.000000
# 2 -0.004022 0.021233 -0.007654 0.000000 0.007209 0.000000
# 3 -0.003124 -0.007654 0.012054 0.000000 -0.002107 0.000000
# 4 0.000000 0.000000 0.000000 0.022681 0.000000 0.002976
# 5 -0.011943 0.007209 -0.002107 0.000000 0.050752 0.000000
# 6 0.000000 0.000000 0.000000 0.002976 0.000000 0.035750
#
#
# Mechanical properties :
#
#
# Convention : Reuss Voigt Hill
#
# Bulk Modulus (GPa) = 54.21676 64.29911 59.25794
# Shear Modulus (GPa) = 25.90998 31.32194 28.61596
#
# Velocity S-wave (km/s) = 3.69882 4.06681 3.88718
# Velocity P-wave (km/s) = 6.84616 7.48358 7.17195
#
# Compressibility (1/GPa) = 0.01844448
#
# Stress axis : x y z
#
# Youngs Moduli (GPa) = 67.76081 47.09725 82.95861
#
# Poissons Ratio (x) = 0.18943 0.25919
# Poissons Ratio (y) = 0.27254 0.63494
# Poissons Ratio (z) = 0.21171 0.36047
#
# Static dielectric constant tensor:
#      x y z
#    x 3.580360 0.000000 0.020720 
#    y 0.000000 3.427850 0.000000 
#    z 0.020720 0.000000 3.450070 
# 
# 
# High freq. dielectric constant tensor:
#      x y z
#    x 1.739440 0.000000 -0.000070 
#    y 0.000000 1.733720 0.000000 
#    z -0.000070 0.000000 1.749300 
# 
# From -- ./inp_files/233883.got.cif
#   From: 2010.06.25/outbox.cif.g09.slc.cpg/sg15_117_cif.got.tgz:233883.got - 2010.06.28 07:06:18.
