data_PCOD8135549
_publ_section_title
;
Structure prediction by ZEFSAII (Michael W. Deem and Ramdas Pophale) SiO2 
 PCOD8135549
Probable space group: C 2/C
;
_chemical_formula_sum "Si O2"
_cell_formula_units_Z 44
_cell_length_a 12.548854
_cell_length_b 11.690333
_cell_length_c 16.036037
_cell_angle_alpha 90.000000
_cell_angle_beta 129.295530
_cell_angle_gamma 90.000000
_cell_volume 1820.568486
_symmetry_space_group_name_H-M "C 2/C"
_symmetry_group_IT_number 15
_symmetry_cell_setting 'monoclinic'
loop_
_space_group_symop_operation_xyz
x,y,z
-x,y,1/2-z
-x,-y,-z
x,-y,1/2+z
1/2+x,1/2+y,z
1/2-x,1/2+y,1/2-z
1/2-x,1/2-y,-z
1/2+x,1/2-y,1/2+z
loop_
_atom_site_type_symbol
_atom_site_label
_atom_site_fract_x
_atom_site_fract_y
_atom_site_fract_z
Si Si1 0.646297 0.819803 0.282713
Si Si2 0.000000 0.317071 0.750000
Si Si3 0.282598 0.463724 0.876893
Si Si4 0.113097 0.411825 0.083578
Si Si5 0.644781 0.435770 0.774874
Si Si6 0.604256 0.287187 0.458756
O O1 0.500000 0.807129 0.250000
O O2 0.618661 0.886142 0.183387
O O3 0.709964 0.692733 0.312070
O O4 0.750418 0.903765 0.384489
O O5 0.862833 0.393624 0.690913
O O6 0.001508 0.231757 0.670105
O O7 0.360172 0.459547 0.826611
O O8 0.388416 0.415669 0.999798
O O9 0.258608 0.471087 0.130775
O O10 0.072456 0.294667 0.020016
O O11 0.000000 0.500000 0.000000
O O12 0.500000 0.445621 0.750000
O O13 0.750000 0.250000 0.500000
#
# Coordination Sequence:
#
# PCOD8135549 Si02
#       6
#     8   4   8   8   8   8
#     4  10  20  39  69  97 136 177 223 273 334 416
#     4  10  20  38  70  94 124 172 234 292 320 382
#     4  10  19  38  67 100 131 177 229 273 334 405
#     4  11  23  42  70  98 134 180 236 273 333 407
#     4  10  22  42  65 101 145 176 213 282 347 400
#     4  10  21  38  65 100 126 165 233 282 329 389
#
# _framework density 24.168275999999999
#
# number of rings (size 3 to 8) (size 9 to 14) (size 15 to 20)
#    0.000    1.818    2.727    2.182    2.545    0.000 
#    6.545    5.455    0.000    8.727    0.000    1.273 
#    0.000    0.000    0.000    0.000    0.000    0.000 
#
# Total GULP energy -272575.618462 kJ/mol
# GULP energy per Si atom -12389.800839 kJ/mol
# Density = 2.411327 g / cm^3
# Si number density = 24.168276 Si / 1000 Ang^3
#
#
#
# Elastic Constant Matrix: (Units=GPa)
#
#
# Indices 1 2 3 4 5 6 
#
# 1 86.5022 -8.2583 4.7344 0.0000 0.4586 0.0000
# 2 -8.2583 82.5227 25.3849 0.0000 4.8705 0.0000
# 3 4.7344 25.3849 83.1783 0.0000 -1.0592 0.0000
# 4 0.0000 0.0000 0.0000 15.2489 0.0000 4.3209
# 5 0.4586 4.8705 -1.0592 0.0000 23.1577 0.0000
# 6 0.0000 0.0000 0.0000 4.3209 0.0000 31.5604
#
#
#
# Elastic Compliance Matrix: (Units=1/GPa)
#
#
# Indices 1 2 3 4 5 6 
#
# 1 0.011777 0.001571 -0.001158 0.000000 -0.000617 0.000000
# 2 0.001571 0.013795 -0.004339 0.000000 -0.003131 0.000000
# 3 -0.001158 -0.004339 0.013432 0.000000 0.001550 0.000000
# 4 0.000000 0.000000 0.000000 0.068225 0.000000 -0.009341
# 5 -0.000617 -0.003131 0.001550 0.000000 0.043924 0.000000
# 6 0.000000 0.000000 0.000000 -0.009341 0.000000 0.032964
#
#
# Mechanical properties :
#
#
# Convention : Reuss Voigt Hill
#
# Bulk Modulus (GPa) = 32.10037 32.88059 32.49048
# Shear Modulus (GPa) = 24.70933 29.34955 27.02944
#
# Velocity S-wave (km/s) = 3.20095 3.48858 3.34785
# Velocity P-wave (km/s) = 5.19348 5.46455 5.33074
#
# Compressibility (1/GPa) = 0.03115229
#
# Stress axis : x y z
#
# Youngs Moduli (GPa) = 84.91115 72.49172 74.44753
#
# Poissons Ratio (x) = -0.11389 0.08618
# Poissons Ratio (y) = -0.13340 0.32305
# Poissons Ratio (z) = 0.09830 0.31456
#
# Static dielectric constant tensor:
#      x y z
#    x 4.413790 0.000000 -0.295570 
#    y 0.000000 0.916800 0.000000 
#    z -0.295570 0.000000 5.703260 
# 
# 
# High freq. dielectric constant tensor:
#      x y z
#    x 1.965470 0.000000 -0.006030 
#    y 0.000000 1.976300 0.000000 
#    z -0.006030 0.000000 1.941330 
# 
# From -- ./inp_files/196667.got.cif
#   From: 2010.06.25/outbox.cif.g09.slc.cpg/sg15_99_cif.got.tgz:196667.got - 2010.06.28 07:06:18.
