data_PCOD8135777
_publ_section_title
;
Structure prediction by ZEFSAII (Michael W. Deem and Ramdas Pophale) SiO2 
 PCOD8135777
Probable space group: C 2/C
;
_chemical_formula_sum "Si O2"
_cell_formula_units_Z 52
_cell_length_a 16.148129
_cell_length_b 8.640602
_cell_length_c 30.377246
_cell_angle_alpha 90.000000
_cell_angle_beta 34.498830
_cell_angle_gamma 90.000000
_cell_volume 2400.654894
_symmetry_space_group_name_H-M "C 2/C"
_symmetry_group_IT_number 15
_symmetry_cell_setting 'monoclinic'
loop_
_space_group_symop_operation_xyz
x,y,z
-x,y,1/2-z
-x,-y,-z
x,-y,1/2+z
1/2+x,1/2+y,z
1/2-x,1/2+y,1/2-z
1/2-x,1/2-y,-z
1/2+x,1/2-y,1/2+z
loop_
_atom_site_type_symbol
_atom_site_label
_atom_site_fract_x
_atom_site_fract_y
_atom_site_fract_z
Si Si1 0.312313 0.930514 0.775862
Si Si2 0.000000 0.749539 0.250000
Si Si3 0.596404 0.085369 0.493820
Si Si4 0.411623 0.352211 0.552322
Si Si5 0.611980 0.209711 0.031355
Si Si6 0.710376 0.764358 0.802767
Si Si7 0.340122 0.447164 0.823601
O O1 0.472498 0.861367 0.719204
O O2 0.223993 0.904326 0.859353
O O3 0.251041 0.834189 0.761580
O O4 0.310693 0.112647 0.765534
O O5 0.141771 0.864563 0.182644
O O6 0.519202 0.249207 0.536147
O O7 0.760189 0.110201 0.402841
O O8 0.500000 0.000000 0.500000
O O9 0.601145 0.978785 0.535371
O O10 0.500000 0.500000 0.500000
O O11 0.359421 0.267236 0.530776
O O12 0.461841 0.279499 0.117404
O O13 0.750000 0.250000 0.000000
O O14 0.745200 0.896641 0.823182
O O15 0.500000 0.367561 0.750000
#
# Coordination Sequence:
#
# PCOD8135777 Si02
#       7
#     8   4   8   8   8   8   8
#     4  12  27  42  69 103 141 186 231 288 349 416
#     4  10  24  40  70 100 136 182 230 274 352 420
#     4  10  19  39  69  95 131 179 224 271 350 404
#     4  11  22  47  71  97 137 182 230 284 354 411
#     4  11  25  42  72 101 135 181 235 284 343 421
#     4  12  26  47  68 101 145 183 233 295 351 413
#     4  10  22  42  70 101 136 177 230 286 349 419
#
# _framework density 21.660755999999999
#
# number of rings (size 3 to 8) (size 9 to 14) (size 15 to 20)
#    0.462    0.615    4.615    2.769    7.538    0.000 
#    0.000    0.769    0.000    0.000    0.000    0.000 
#    0.000    0.000    0.000    0.000    0.000    0.000 
#
# Total GULP energy -322235.239901 kJ/mol
# GULP energy per Si atom -12393.663073 kJ/mol
# Density = 2.161145 g / cm^3
# Si number density = 21.660756 Si / 1000 Ang^3
#
#
#
# Elastic Constant Matrix: (Units=GPa)
#
#
# Indices 1 2 3 4 5 6 
#
# 1 111.7335 62.5247 18.4808 0.0009 -6.4401 0.0009
# 2 62.5247 139.4013 6.0058 0.0018 -0.1205 0.0005
# 3 18.4808 6.0058 68.6967 -0.0001 -1.2967 0.0003
# 4 0.0009 0.0018 -0.0001 26.7359 -0.0002 2.2425
# 5 -6.4401 -0.1205 -1.2967 -0.0002 37.9851 0.0002
# 6 0.0009 0.0005 0.0003 2.2425 0.0002 35.2679
#
#
#
# Elastic Compliance Matrix: (Units=1/GPa)
#
#
# Indices 1 2 3 4 5 6 
#
# 1 0.012647 -0.005547 -0.002879 0.000000 0.002028 0.000000
# 2 -0.005547 0.009633 0.000633 0.000000 -0.000888 0.000000
# 3 -0.002879 0.000633 0.015277 0.000000 0.000035 0.000000
# 4 0.000000 0.000000 0.000000 0.037603 0.000000 -0.002391
# 5 0.002028 -0.000888 0.000035 0.000000 0.026668 0.000000
# 6 0.000000 0.000000 0.000000 -0.002391 0.000000 0.028506
#
#
# Mechanical properties :
#
#
# Convention : Reuss Voigt Hill
#
# Bulk Modulus (GPa) = 45.51301 54.87268 50.19284
# Shear Modulus (GPa) = 32.62778 35.51912 34.07345
#
# Velocity S-wave (km/s) = 3.88533 4.05383 3.97047
# Velocity P-wave (km/s) = 6.41756 6.87743 6.65147
#
# Compressibility (1/GPa) = 0.02197174
#
# Stress axis : x y z
#
# Youngs Moduli (GPa) = 79.07156 103.80705 65.45968
#
# Poissons Ratio (x) = 0.57577 0.18846
# Poissons Ratio (y) = 0.43858 -0.04145
# Poissons Ratio (z) = 0.22765 -0.06573
#
# Static dielectric constant tensor:
#      x y z
#    x 3.740320 -0.000010 0.139360 
#    y -0.000010 4.311310 0.000000 
#    z 0.139360 0.000000 3.586790 
# 
# 
# High freq. dielectric constant tensor:
#      x y z
#    x 1.831770 0.000000 -0.006800 
#    y 0.000000 1.854130 0.000000 
#    z -0.006800 0.000000 1.850220 
# 
# From -- ./inp_files/313098.got.cif
#   From: 2010.06.25/outbox.cif.g09.slc.cpg/sg15_157_cif.got.tgz:313098.got - 2010.06.28 07:06:18.
