data_PCOD8135174
_publ_section_title
;
Structure prediction by ZEFSAII (Michael W. Deem and Ramdas Pophale) SiO2 
 PCOD8135174
Probable space group: C 2/C
;
_chemical_formula_sum "Si O2"
_cell_formula_units_Z 44
_cell_length_a 16.834821
_cell_length_b 8.326693
_cell_length_c 19.770809
_cell_angle_alpha 90.000000
_cell_angle_beta 124.347362
_cell_angle_gamma 90.000000
_cell_volume 2288.190155
_symmetry_space_group_name_H-M "C 2/C"
_symmetry_group_IT_number 15
_symmetry_cell_setting 'monoclinic'
loop_
_space_group_symop_operation_xyz
x,y,z
-x,y,1/2-z
-x,-y,-z
x,-y,1/2+z
1/2+x,1/2+y,z
1/2-x,1/2+y,1/2-z
1/2-x,1/2-y,-z
1/2+x,1/2-y,1/2+z
loop_
_atom_site_type_symbol
_atom_site_label
_atom_site_fract_x
_atom_site_fract_y
_atom_site_fract_z
Si Si1 0.148779 0.226277 0.984669
Si Si2 0.500000 0.756387 0.250000
Si Si3 0.982616 0.682606 0.319806
Si Si4 0.835832 0.569005 0.747798
Si Si5 0.491148 0.479819 0.627509
Si Si6 0.334041 0.333955 0.857625
O O1 0.160053 0.262504 0.069322
O O2 0.250000 0.250000 0.000000
O O3 0.076761 0.349604 0.911788
O O4 0.107394 0.044282 0.954419
O O5 0.595770 0.856941 0.277719
O O6 0.535651 0.651277 0.329914
O O7 0.952924 0.870510 0.309793
O O8 0.000000 0.635689 0.250000
O O9 0.899462 0.572416 0.312367
O O10 0.741213 0.481610 0.672871
O O11 0.804332 0.705420 0.785908
O O12 0.560311 0.404149 0.604688
#
# Coordination Sequence:
#
# PCOD8135174 Si02
#       6
#     8   4   8   8   8   8
#     4  10  22  37  65  87 124 161 206 253 310 360
#     4  10  20  38  64  90 118 162 208 246 302 362
#     4  10  19  37  64  86 120 158 203 248 305 360
#     4  11  23  37  64  89 124 162 209 253 301 372
#     4   9  20  38  61  86 121 158 197 257 298 364
#     4  11  23  40  59  93 124 161 208 251 311 357
#
# _framework density 19.229171000000001
#
# number of rings (size 3 to 8) (size 9 to 14) (size 15 to 20)
#    1.091    0.727    1.818    2.727    0.000    3.636 
#    0.000    0.909    0.000    0.000    0.000    0.000 
#    0.000    0.000    0.000    0.000    0.000    0.000 
#
# Total GULP energy -272581.056889 kJ/mol
# GULP energy per Si atom -12390.048040 kJ/mol
# Density = 1.918540 g / cm^3
# Si number density = 19.229171 Si / 1000 Ang^3
#
#
#
# Elastic Constant Matrix: (Units=GPa)
#
#
# Indices 1 2 3 4 5 6 
#
# 1 127.0470 39.4464 55.0651 0.0000 -5.7073 0.0000
# 2 39.4464 83.4816 22.0335 0.0000 -3.3668 0.0000
# 3 55.0651 22.0335 90.3556 0.0000 0.5788 0.0000
# 4 0.0000 0.0000 0.0000 14.0968 0.0000 11.6225
# 5 -5.7073 -3.3668 0.5788 0.0000 31.0667 0.0000
# 6 0.0000 0.0000 0.0000 11.6225 0.0000 33.2343
#
#
#
# Elastic Compliance Matrix: (Units=1/GPa)
#
#
# Indices 1 2 3 4 5 6 
#
# 1 0.011898 -0.003879 -0.006317 0.000000 0.001883 0.000000
# 2 -0.003879 0.014132 -0.001088 0.000000 0.000839 0.000000
# 3 -0.006317 -0.001088 0.015193 0.000000 -0.001562 0.000000
# 4 0.000000 0.000000 0.000000 0.099679 0.000000 -0.034859
# 5 0.001883 0.000839 -0.001562 0.000000 0.032655 0.000000
# 6 0.000000 0.000000 0.000000 -0.034859 0.000000 0.042280
#
#
# Mechanical properties :
#
#
# Convention : Reuss Voigt Hill
#
# Bulk Modulus (GPa) = 53.60356 59.33046 56.46701
# Shear Modulus (GPa) = 20.43965 27.96885 24.20425
#
# Velocity S-wave (km/s) = 3.26383 3.81793 3.55170
# Velocity P-wave (km/s) = 6.49154 7.09625 6.80062
#
# Compressibility (1/GPa) = 0.01865548
#
# Stress axis : x y z
#
# Youngs Moduli (GPa) = 84.04761 70.75930 65.82191
#
# Poissons Ratio (x) = 0.27446 0.41581
# Poissons Ratio (y) = 0.32600 0.07160
# Poissons Ratio (z) = 0.53094 0.07697
#
# Static dielectric constant tensor:
#      x y z
#    x 3.538660 0.000000 -0.027770 
#    y 0.000000 3.573980 0.000000 
#    z -0.027770 0.000000 3.304400 
# 
# 
# High freq. dielectric constant tensor:
#      x y z
#    x 1.755960 0.000000 -0.001770 
#    y 0.000000 1.745830 0.000000 
#    z -0.001770 0.000000 1.726840 
# 
# From -- ./inp_files/242624.got.cif
#   From: 2010.06.25/outbox.cif.g09.slc.cpg/sg15_122_cif.got.tgz:242624.got - 2010.06.28 07:06:18.
