data_PCOD8135587
_publ_section_title
;
Structure prediction by ZEFSAII (Michael W. Deem and Ramdas Pophale) SiO2 
 PCOD8135587
Probable space group: C 2/C
;
_chemical_formula_sum "Si O2"
_cell_formula_units_Z 64
_cell_length_a 18.896008
_cell_length_b 19.864075
_cell_length_c 19.220364
_cell_angle_alpha 90.000000
_cell_angle_beta 152.172665
_cell_angle_gamma 90.000000
_cell_volume 3367.742477
_symmetry_space_group_name_H-M "C 2/C"
_symmetry_group_IT_number 15
_symmetry_cell_setting 'monoclinic'
loop_
_space_group_symop_operation_xyz
x,y,z
-x,y,1/2-z
-x,-y,-z
x,-y,1/2+z
1/2+x,1/2+y,z
1/2-x,1/2+y,1/2-z
1/2-x,1/2-y,-z
1/2+x,1/2-y,1/2+z
loop_
_atom_site_type_symbol
_atom_site_label
_atom_site_fract_x
_atom_site_fract_y
_atom_site_fract_z
Si Si1 0.373760 0.402144 0.191737
Si Si2 0.419685 0.555484 0.976598
Si Si3 0.093501 0.056882 0.268106
Si Si4 0.853288 0.408039 0.904518
Si Si5 0.889985 0.488945 0.321684
Si Si6 0.964905 0.605201 0.138816
Si Si7 0.531200 0.666746 0.587056
Si Si8 0.687466 0.804684 0.750393
O O1 0.500000 0.371129 0.250000
O O2 0.361116 0.481856 0.170519
O O3 0.433922 0.385199 0.320696
O O4 0.208493 0.372605 0.027511
O O5 0.248188 0.534836 0.845152
O O6 0.427613 0.628636 0.948054
O O7 0.500000 0.500000 0.000000
O O8 0.487790 0.559910 0.110603
O O9 0.246165 0.096666 0.379437
O O10 0.000000 0.091582 0.250000
O O11 0.815528 0.473455 0.823885
O O12 0.832492 0.341610 0.840878
O O13 0.024681 0.420872 0.079363
O O14 0.000280 0.537778 0.374638
O O15 0.000000 0.591633 0.250000
O O16 0.072767 0.665451 0.207545
O O17 0.645342 0.728120 0.698615
O O18 0.355898 0.689862 0.429196
#
# Coordination Sequence:
#
# PCOD8135587 Si02
#       8
#     8   8   8   8   8   8   8   8
#     4  11  23  37  60  89 128 164 205 251 304 368
#     4  12  21  37  62  91 123 155 204 257 310 364
#     4  11  22  37  62  92 124 156 199 253 317 369
#     4  10  19  39  54  89 117 157 195 254 303 358
#     4  10  21  31  61  85 123 156 203 251 307 347
#     4  11  23  39  58  90 133 167 204 249 307 365
#     4  12  24  41  62  89 121 161 214 251 307 370
#     4  11  25  39  62  85 122 161 209 252 303 371
#
# _framework density 19.003827999999999
#
# number of rings (size 3 to 8) (size 9 to 14) (size 15 to 20)
#    0.000    1.000    5.000    2.250    8.750    0.500 
#    0.000    2.500    0.000    0.750    0.000    0.000 
#    0.000    0.000    0.000    0.000    0.000    0.000 
#
# Total GULP energy -396711.454182 kJ/mol
# GULP energy per Si atom -12397.232943 kJ/mol
# Density = 1.896057 g / cm^3
# Si number density = 19.003828 Si / 1000 Ang^3
#
#
#
# Elastic Constant Matrix: (Units=GPa)
#
#
# Indices 1 2 3 4 5 6 
#
# 1 116.3466 13.9334 25.5168 -0.0090 1.2302 -0.0107
# 2 13.9334 37.9560 19.1710 -0.0115 5.7480 -0.0116
# 3 25.5168 19.1710 106.7098 -0.0273 8.1362 -0.0088
# 4 -0.0090 -0.0115 -0.0273 27.4894 -0.0036 -1.9464
# 5 1.2302 5.7480 8.1362 -0.0036 35.8925 0.0108
# 6 -0.0107 -0.0116 -0.0088 -1.9464 0.0108 15.5960
#
#
#
# Elastic Compliance Matrix: (Units=1/GPa)
#
#
# Indices 1 2 3 4 5 6 
#
# 1 0.009293 -0.002580 -0.001797 0.000000 0.000502 0.000003
# 2 -0.002580 0.030136 -0.004514 0.000008 -0.003714 0.000022
# 3 -0.001797 -0.004514 0.010738 0.000008 -0.001650 0.000004
# 4 0.000000 0.000008 0.000008 0.036702 -0.000001 0.004581
# 5 0.000502 -0.003714 -0.001650 -0.000001 0.028812 -0.000023
# 6 0.000003 0.000022 0.000004 0.004581 -0.000023 0.064691
#
#
# Mechanical properties :
#
#
# Convention : Reuss Voigt Hill
#
# Bulk Modulus (GPa) = 30.87862 42.02832 36.45347
# Shear Modulus (GPa) = 23.92944 29.28832 26.60888
#
# Velocity S-wave (km/s) = 3.55236 3.93005 3.74596
# Velocity P-wave (km/s) = 5.75409 6.53891 6.15902
#
# Compressibility (1/GPa) = 0.03238486
#
# Stress axis : x y z
#
# Youngs Moduli (GPa) = 107.61086 33.18324 93.13046
#
# Poissons Ratio (x) = 0.08560 0.16735
# Poissons Ratio (y) = 0.27761 0.42039
# Poissons Ratio (z) = 0.19337 0.14979
#
# Static dielectric constant tensor:
#      x y z
#    x 3.968890 -0.000030 0.179460 
#    y -0.000030 3.236810 -0.000030 
#    z 0.179460 -0.000030 3.661390 
# 
# 
# High freq. dielectric constant tensor:
#      x y z
#    x 1.735460 0.000000 0.008910 
#    y 0.000000 1.702160 0.000000 
#    z 0.008910 0.000000 1.760630 
# 
# From -- ./inp_files/212002.got.cif
#   From: 2010.06.25/outbox.cif.g09.slc.cpg/sg15_107_cif.got.tgz:212002.got - 2010.06.28 07:06:18.
