data_PCOD8135416
_publ_section_title
;
Structure prediction by ZEFSAII (Michael W. Deem and Ramdas Pophale) SiO2 
 PCOD8135416
Probable space group: C 2/C
;
_chemical_formula_sum "Si O2"
_cell_formula_units_Z 40
_cell_length_a 10.024377
_cell_length_b 12.839364
_cell_length_c 21.286962
_cell_angle_alpha 90.000000
_cell_angle_beta 49.256790
_cell_angle_gamma 90.000000
_cell_volume 2075.768046
_symmetry_space_group_name_H-M "C 2/C"
_symmetry_group_IT_number 15
_symmetry_cell_setting 'monoclinic'
loop_
_space_group_symop_operation_xyz
x,y,z
-x,y,1/2-z
-x,-y,-z
x,-y,1/2+z
1/2+x,1/2+y,z
1/2-x,1/2+y,1/2-z
1/2-x,1/2-y,-z
1/2+x,1/2-y,1/2+z
loop_
_atom_site_type_symbol
_atom_site_label
_atom_site_fract_x
_atom_site_fract_y
_atom_site_fract_z
Si Si1 0.734652 0.972783 0.051909
Si Si2 0.751323 0.847335 0.453107
Si Si3 0.081605 0.927538 0.288861
Si Si4 0.911150 0.673329 0.627113
Si Si5 0.399578 0.588402 0.109465
O O1 0.590818 0.879953 0.097270
O O2 0.741721 0.045984 0.112542
O O3 0.922353 0.917636 0.985836
O O4 0.697955 0.047648 0.004827
O O5 0.750000 0.750000 0.500000
O O6 0.609570 0.845617 0.440930
O O7 0.947268 0.847714 0.363668
O O8 0.262371 0.870799 0.218386
O O9 0.000000 0.972750 0.250000
O O10 0.113622 0.023261 0.323767
O O11 0.890885 0.796489 0.639772
#
# Coordination Sequence:
#
# PCOD8135416 Si02
#       5
#     8   8   8   8   8
#     4  10  21  37  61  89 117 154 206 259 305 372
#     4  10  19  38  62  86 117 164 204 250 312 371
#     4   9  22  40  55  82 126 153 196 255 308 370
#     4  11  21  38  62  90 118 163 207 249 317 373
#     4  10  21  40  58  85 126 154 199 264 305 366
#
# _framework density 19.269976
#
# number of rings (size 3 to 8) (size 9 to 14) (size 15 to 20)
#    0.000    2.000    2.000    1.200    0.000    2.400 
#    7.200    0.000    0.000    0.000    0.000    0.000 
#    0.000    0.000    0.000    0.000    0.000    0.000 
#
# Total GULP energy -247842.192873 kJ/mol
# GULP energy per Si atom -12392.109644 kJ/mol
# Density = 1.922612 g / cm^3
# Si number density = 19.269976 Si / 1000 Ang^3
#
#
#
# Elastic Constant Matrix: (Units=GPa)
#
#
# Indices 1 2 3 4 5 6 
#
# 1 115.4223 68.5123 57.2655 0.0000 0.3209 0.0000
# 2 68.5123 114.1490 50.6629 0.0000 -2.0005 0.0000
# 3 57.2655 50.6629 99.9247 0.0001 11.0753 0.0000
# 4 0.0000 0.0000 0.0001 26.0125 0.0000 4.1023
# 5 0.3209 -2.0005 11.0753 0.0000 21.9804 0.0000
# 6 0.0000 0.0000 0.0000 4.1023 0.0000 36.6098
#
#
#
# Elastic Compliance Matrix: (Units=1/GPa)
#
#
# Indices 1 2 3 4 5 6 
#
# 1 0.015470 -0.006730 -0.005678 0.000000 0.002022 0.000000
# 2 -0.006730 0.014600 -0.003923 0.000000 0.003404 0.000000
# 3 -0.005678 -0.003923 0.016185 0.000000 -0.008429 0.000000
# 4 0.000000 0.000000 0.000000 0.039135 0.000000 -0.004385
# 5 0.002022 0.003404 -0.008429 0.000000 0.050023 0.000000
# 6 0.000000 0.000000 0.000000 -0.004385 0.000000 0.027806
#
#
# Mechanical properties :
#
#
# Convention : Reuss Voigt Hill
#
# Bulk Modulus (GPa) = 73.56227 75.81969 74.69098
# Shear Modulus (GPa) = 24.94876 27.12423 26.03650
#
# Velocity S-wave (km/s) = 3.60209 3.75586 3.67978
# Velocity P-wave (km/s) = 7.45369 7.63152 7.54313
#
# Compressibility (1/GPa) = 0.01359392
#
# Stress axis : x y z
#
# Youngs Moduli (GPa) = 64.64282 68.49096 61.78652
#
# Poissons Ratio (x) = 0.46091 0.35080
# Poissons Ratio (y) = 0.43501 0.24241
# Poissons Ratio (z) = 0.36702 0.26871
#
# Static dielectric constant tensor:
#      x y z
#    x 3.650390 0.000000 0.104620 
#    y 0.000000 3.528600 0.000000 
#    z 0.104620 0.000000 3.607370 
# 
# 
# High freq. dielectric constant tensor:
#      x y z
#    x 1.753840 0.000000 0.012800 
#    y 0.000000 1.751030 0.000000 
#    z 0.012800 0.000000 1.748860 
# 
# From -- ./inp_files/133292.got.cif
#   From: 2010.06.25/outbox.cif.g09.slc.cpg/sg15_67_cif.got.tgz:133292.got - 2010.06.28 07:06:18.
