data_PCOD8135695
_publ_section_title
;
Structure prediction by ZEFSAII (Michael W. Deem and Ramdas Pophale) SiO2 
 PCOD8135695
Probable space group: C 2/C
;
_chemical_formula_sum "Si O2"
_cell_formula_units_Z 64
_cell_length_a 11.858891
_cell_length_b 14.817618
_cell_length_c 19.170513
_cell_angle_alpha 90.000000
_cell_angle_beta 96.996613
_cell_angle_gamma 90.000000
_cell_volume 3343.567289
_symmetry_space_group_name_H-M "C 2/C"
_symmetry_group_IT_number 15
_symmetry_cell_setting 'monoclinic'
loop_
_space_group_symop_operation_xyz
x,y,z
-x,y,1/2-z
-x,-y,-z
x,-y,1/2+z
1/2+x,1/2+y,z
1/2-x,1/2+y,1/2-z
1/2-x,1/2-y,-z
1/2+x,1/2-y,1/2+z
loop_
_atom_site_type_symbol
_atom_site_label
_atom_site_fract_x
_atom_site_fract_y
_atom_site_fract_z
Si Si1 0.924948 0.703964 0.408836
Si Si2 0.747609 0.945128 0.440032
Si Si3 0.289329 0.598098 0.096542
Si Si4 0.090341 0.883109 0.160762
Si Si5 0.415526 0.775020 0.068594
Si Si6 0.326556 0.799683 0.407217
Si Si7 0.326880 0.857703 0.564398
Si Si8 0.655539 0.574793 0.820625
O O1 0.842542 0.618504 0.397538
O O2 0.882780 0.777831 0.350006
O O3 0.917050 0.746603 0.486084
O O4 0.051012 0.673624 0.399178
O O5 0.798611 0.947990 0.521574
O O6 0.853560 0.941628 0.395822
O O7 0.660423 0.862822 0.421720
O O8 0.683380 0.037624 0.417938
O O9 0.362773 0.689777 0.104802
O O10 0.329361 0.530220 0.159421
O O11 0.139558 0.917265 0.237127
O O12 0.954618 0.891846 0.145759
O O13 0.542650 0.790823 0.106407
O O14 0.316222 0.846506 0.481080
O O15 0.269572 0.700661 0.403846
O O16 0.263972 0.865087 0.348362
#
# Coordination Sequence:
#
# PCOD8135695 Si02
#       8
#     8   8   8   8   8   8   8   8
#     4  10  19  39  64  87 123 156 200 248 301 360
#     4  11  21  38  64  91 122 156 203 254 295 363
#     4  11  21  38  63  94 119 161 200 250 302 353
#     4  11  23  44  59  83 122 164 205 244 301 377
#     4  10  21  35  64  97 120 150 200 253 309 347
#     4  10  21  38  56  91 126 152 194 256 304 349
#     4  10  21  34  62  94 118 153 201 251 304 349
#     4  11  25  41  60  85 124 164 200 248 308 358
#
# _framework density 19.141231999999999
#
# number of rings (size 3 to 8) (size 9 to 14) (size 15 to 20)
#    0.000    1.500    5.000    0.750    3.500    2.000 
#    2.250    0.625    0.000    0.000    0.000    0.000 
#    0.000    0.000    0.000    0.000    0.000    0.000 
#
# Total GULP energy -396899.354326 kJ/mol
# GULP energy per Si atom -12403.104823 kJ/mol
# Density = 1.909767 g / cm^3
# Si number density = 19.141232 Si / 1000 Ang^3
#
#
#
# Elastic Constant Matrix: (Units=GPa)
#
#
# Indices 1 2 3 4 5 6 
#
# 1 108.9961 34.4114 42.0608 0.0000 4.6555 0.0000
# 2 34.4114 134.2591 48.8107 0.0000 5.6356 0.0000
# 3 42.0608 48.8107 75.7572 0.0000 3.7172 0.0000
# 4 0.0000 0.0000 0.0000 26.5430 0.0000 6.5861
# 5 4.6555 5.6356 3.7172 0.0000 23.2682 0.0000
# 6 0.0000 0.0000 0.0000 6.5861 0.0000 26.4215
#
#
#
# Elastic Compliance Matrix: (Units=1/GPa)
#
#
# Indices 1 2 3 4 5 6 
#
# 1 0.011781 -0.000800 -0.005966 0.000000 -0.001210 0.000000
# 2 -0.000800 0.009824 -0.005823 0.000000 -0.001289 0.000000
# 3 -0.005966 -0.005823 0.020295 0.000000 -0.000638 0.000000
# 4 0.000000 0.000000 0.000000 0.040159 0.000000 -0.010010
# 5 -0.001210 -0.001289 -0.000638 0.000000 0.043634 0.000000
# 6 0.000000 0.000000 0.000000 -0.010010 0.000000 0.040343
#
#
# Mechanical properties :
#
#
# Convention : Reuss Voigt Hill
#
# Bulk Modulus (GPa) = 59.79545 63.28645 61.54095
# Shear Modulus (GPa) = 25.40810 28.16185 26.78498
#
# Velocity S-wave (km/s) = 3.64730 3.83987 3.74483
# Velocity P-wave (km/s) = 7.00314 7.26596 7.13576
#
# Compressibility (1/GPa) = 0.01672368
#
# Stress axis : x y z
#
# Youngs Moduli (GPa) = 84.88118 101.78981 49.27230
#
# Poissons Ratio (x) = 0.08140 0.29398
# Poissons Ratio (y) = 0.06788 0.28689
# Poissons Ratio (z) = 0.50643 0.59267
#
# Static dielectric constant tensor:
#      x y z
#    x 3.696530 0.000000 -0.051260 
#    y 0.000000 3.456340 0.000000 
#    z -0.051260 0.000000 3.158860 
# 
# 
# High freq. dielectric constant tensor:
#      x y z
#    x 1.757960 0.000000 -0.002550 
#    y 0.000000 1.750680 0.000000 
#    z -0.002550 0.000000 1.708930 
# 
# From -- ./inp_files/198368.got.cif
#   From: 2010.06.25/outbox.cif.g09.slc.cpg/sg15_100_cif.got.tgz:198368.got - 2010.06.28 07:06:18.
