data_PCOD8135288
_publ_section_title
;
Structure prediction by ZEFSAII (Michael W. Deem and Ramdas Pophale) SiO2 
 PCOD8135288
Probable space group: C 2/C
;
_chemical_formula_sum "Si O2"
_cell_formula_units_Z 64
_cell_length_a 12.960573
_cell_length_b 11.743694
_cell_length_c 21.380638
_cell_angle_alpha 90.000000
_cell_angle_beta 97.957381
_cell_angle_gamma 90.000000
_cell_volume 3222.906035
_symmetry_space_group_name_H-M "C 2/C"
_symmetry_group_IT_number 15
_symmetry_cell_setting 'monoclinic'
loop_
_space_group_symop_operation_xyz
x,y,z
-x,y,1/2-z
-x,-y,-z
x,-y,1/2+z
1/2+x,1/2+y,z
1/2-x,1/2+y,1/2-z
1/2-x,1/2-y,-z
1/2+x,1/2-y,1/2+z
loop_
_atom_site_type_symbol
_atom_site_label
_atom_site_fract_x
_atom_site_fract_y
_atom_site_fract_z
Si Si1 0.121293 0.271201 0.553201
Si Si2 0.862651 0.219330 0.081487
Si Si3 0.615722 0.181744 0.238206
Si Si4 0.633787 0.018506 0.127380
Si Si5 0.016947 0.676662 0.680725
Si Si6 0.166997 0.112329 0.208111
Si Si7 0.139419 0.992215 0.841173
Si Si8 0.569403 0.389025 0.159879
O O1 0.080537 0.244160 0.479899
O O2 0.243219 0.245669 0.568054
O O3 0.100700 0.407221 0.563518
O O4 0.065529 0.183251 0.595680
O O5 0.883232 0.088785 0.101390
O O6 0.906599 0.293171 0.142252
O O7 0.500000 0.143222 0.250000
O O8 0.645435 0.119138 0.177734
O O9 0.710987 0.147143 0.292807
O O10 0.617841 0.316090 0.221629
O O11 0.746304 0.955255 0.135176
O O12 0.550333 0.926872 0.139560
O O13 0.097406 0.780444 0.682871
O O14 0.000000 0.633875 0.750000
O O15 0.136659 0.079325 0.276399
O O16 0.136837 0.005427 0.160875
O O17 0.051465 0.088767 0.832763
#
# Coordination Sequence:
#
# PCOD8135288 Si02
#       8
#     8   8   8   8   8   8   8   8
#     4   9  22  41  60  87 112 157 203 241 290 343
#     4  10  20  40  63  83 117 154 200 244 286 352
#     4  10  22  35  53  83 121 154 186 232 299 352
#     4   9  22  36  56  85 119 153 192 240 288 353
#     4  12  22  35  61  90 118 153 191 242 295 354
#     4  11  22  35  55  89 121 148 193 238 294 346
#     4  10  19  38  56  85 114 151 199 237 295 338
#     4  11  21  36  60  83 115 154 195 245 288 345
#
# _framework density 19.857855000000001
#
# number of rings (size 3 to 8) (size 9 to 14) (size 15 to 20)
#    0.000    1.750    2.500    2.250    5.250    2.000 
#    0.000    0.000    0.000    0.750    0.000    0.000 
#    0.000    0.000    0.000    0.000    0.000    0.000 
#
# Total GULP energy -396552.603596 kJ/mol
# GULP energy per Si atom -12392.268862 kJ/mol
# Density = 1.981266 g / cm^3
# Si number density = 19.857855 Si / 1000 Ang^3
#
#
#
# Elastic Constant Matrix: (Units=GPa)
#
#
# Indices 1 2 3 4 5 6 
#
# 1 95.9846 31.5532 18.1341 0.0000 -3.6894 0.0000
# 2 31.5532 75.3911 10.8628 0.0000 -7.4771 0.0000
# 3 18.1341 10.8628 79.4549 0.0000 -7.1617 0.0000
# 4 0.0000 0.0000 0.0000 18.4500 0.0000 -9.0917
# 5 -3.6894 -7.4771 -7.1617 0.0000 19.8522 0.0000
# 6 0.0000 0.0000 0.0000 -9.0917 0.0000 29.8298
#
#
#
# Elastic Compliance Matrix: (Units=1/GPa)
#
#
# Indices 1 2 3 4 5 6 
#
# 1 0.012439 -0.004923 -0.002196 0.000000 -0.000335 0.000000
# 2 -0.004923 0.015894 -0.000612 0.000000 0.004850 0.000000
# 3 -0.002196 -0.000612 0.013554 0.000000 0.004251 0.000000
# 4 0.000000 0.000000 0.000000 0.063780 0.000000 0.019439
# 5 -0.000335 0.004850 0.004251 0.000000 0.053670 0.000000
# 6 0.000000 0.000000 0.000000 0.019439 0.000000 0.039448
#
#
# Mechanical properties :
#
#
# Convention : Reuss Voigt Hill
#
# Bulk Modulus (GPa) = 37.84400 41.32563 39.58481
# Shear Modulus (GPa) = 22.41602 26.31176 24.36389
#
# Velocity S-wave (km/s) = 3.36344 3.64401 3.50653
# Velocity P-wave (km/s) = 5.84658 6.20975 6.03090
#
# Compressibility (1/GPa) = 0.02642427
#
# Stress axis : x y z
#
# Youngs Moduli (GPa) = 80.39496 62.91808 73.78004
#
# Poissons Ratio (x) = 0.30972 0.16202
# Poissons Ratio (y) = 0.39576 0.04517
# Poissons Ratio (z) = 0.17655 0.03852
#
# Static dielectric constant tensor:
#      x y z
#    x 3.749840 0.000000 0.018550 
#    y 0.000000 3.617260 0.000000 
#    z 0.018550 0.000000 3.650290 
# 
# 
# High freq. dielectric constant tensor:
#      x y z
#    x 1.773750 0.000000 0.003070 
#    y 0.000000 1.772960 0.000000 
#    z 0.003070 0.000000 1.748790 
# 
# From -- ./inp_files/268895.got.cif
#   From: 2010.06.25/outbox.cif.g09.slc.cpg/sg15_135_cif.got.tgz:268895.got - 2010.06.28 07:06:18.
