data_PCOD8135261
_publ_section_title
;
Structure prediction by ZEFSAII (Michael W. Deem and Ramdas Pophale) SiO2 
 PCOD8135261
Probable space group: C 2/C
;
_chemical_formula_sum "Si O2"
_cell_formula_units_Z 44
_cell_length_a 17.022062
_cell_length_b 6.587007
_cell_length_c 18.695129
_cell_angle_alpha 90.000000
_cell_angle_beta 58.615222
_cell_angle_gamma 90.000000
_cell_volume 1789.486965
_symmetry_space_group_name_H-M "C 2/C"
_symmetry_group_IT_number 15
_symmetry_cell_setting 'monoclinic'
loop_
_space_group_symop_operation_xyz
x,y,z
-x,y,1/2-z
-x,-y,-z
x,-y,1/2+z
1/2+x,1/2+y,z
1/2-x,1/2+y,1/2-z
1/2-x,1/2-y,-z
1/2+x,1/2-y,1/2+z
loop_
_atom_site_type_symbol
_atom_site_label
_atom_site_fract_x
_atom_site_fract_y
_atom_site_fract_z
Si Si1 0.500000 0.742864 0.250000
Si Si2 0.109562 0.850924 0.941260
Si Si3 0.395604 0.385474 0.931945
Si Si4 0.612044 0.914275 0.316579
Si Si5 0.705337 0.722193 0.827309
Si Si6 0.207677 0.524086 0.461353
O O1 0.548067 0.598781 0.168541
O O2 0.568422 0.893313 0.259273
O O3 0.055531 0.715240 0.905451
O O4 0.170920 0.694921 0.957693
O O5 0.173440 0.004556 0.868272
O O6 0.052543 0.986283 0.027761
O O7 0.295927 0.495250 0.971193
O O8 0.376029 0.150039 0.961571
O O9 0.714200 0.816494 0.268123
O O10 0.620190 0.152284 0.331999
O O11 0.743836 0.853248 0.874973
#
# Coordination Sequence:
#
# PCOD8135261 Si02
#       6
#     4   8   8   8   8   8
#     4  12  26  44  64 100 152 168 226 302 358 386
#     4  10  21  39  69  97 129 178 235 277 326 411
#     4  10  21  40  65  99 137 182 222 285 344 409
#     4  11  22  40  66  97 135 180 225 287 336 412
#     4  10  19  37  68  93 123 177 238 267 327 407
#     4   9  19  38  67  95 129 177 235 271 326 415
#
# _framework density 24.588051
#
# number of rings (size 3 to 8) (size 9 to 14) (size 15 to 20)
#    0.000    1.818    3.636    0.545    0.000    0.727 
#    0.000   11.818    0.000    0.000    0.000    0.000 
#    0.000    0.000    0.000    0.000    0.000    0.000 
#
# Total GULP energy -272650.387972 kJ/mol
# GULP energy per Si atom -12393.199453 kJ/mol
# Density = 2.453209 g / cm^3
# Si number density = 24.588051 Si / 1000 Ang^3
#
#
#
# Elastic Constant Matrix: (Units=GPa)
#
#
# Indices 1 2 3 4 5 6 
#
# 1 63.6853 28.4971 37.6180 0.0003 34.6434 -0.0009
# 2 28.4971 141.6423 59.4030 0.0004 12.8397 -0.0020
# 3 37.6180 59.4030 145.5826 -0.0001 14.9547 -0.0005
# 4 0.0003 0.0004 -0.0001 42.8639 0.0003 18.1788
# 5 34.6434 12.8397 14.9547 0.0003 38.2352 0.0004
# 6 -0.0009 -0.0020 -0.0005 18.1788 0.0004 26.0689
#
#
#
# Elastic Compliance Matrix: (Units=1/GPa)
#
#
# Indices 1 2 3 4 5 6 
#
# 1 0.036144 -0.002333 -0.005318 -0.000001 -0.029886 0.000002
# 2 -0.002333 0.008759 -0.003007 0.000000 0.000348 0.000001
# 3 -0.005318 -0.003007 0.009243 0.000000 0.002213 0.000000
# 4 -0.000001 0.000000 0.000000 0.033127 0.000001 -0.023101
# 5 -0.029886 0.000348 0.002213 0.000001 0.052250 -0.000002
# 6 0.000002 0.000001 0.000000 -0.023101 -0.000002 0.054469
#
#
# Mechanical properties :
#
#
# Convention : Reuss Voigt Hill
#
# Bulk Modulus (GPa) = 30.45895 66.88294 48.67094
# Shear Modulus (GPa) = 22.09950 36.45973 29.27961
#
# Velocity S-wave (km/s) = 3.00124 3.85492 3.45455
# Velocity P-wave (km/s) = 4.94211 6.86107 5.97908
#
# Compressibility (1/GPa) = 0.03283107
#
# Stress axis : x y z
#
# Youngs Moduli (GPa) = 27.66690 114.17029 108.19359
#
# Poissons Ratio (x) = 0.26631 0.57536
# Poissons Ratio (y) = 0.06453 0.32534
# Poissons Ratio (z) = 0.14713 0.34331
#
# Static dielectric constant tensor:
#      x y z
#    x 4.250330 0.000000 0.391010 
#    y 0.000000 4.432100 0.000000 
#    z 0.391010 0.000000 4.525600 
# 
# 
# High freq. dielectric constant tensor:
#      x y z
#    x 1.969790 0.000000 0.022000 
#    y 0.000000 1.977620 0.000000 
#    z 0.022000 0.000000 1.984540 
# 
# From -- ./inp_files/250744.got.cif
#   From: 2010.06.25/outbox.cif.g09.slc.cpg/sg15_126_cif.got.tgz:250744.got - 2010.06.28 07:06:18.
