data_PCOD8135747
_publ_section_title
;
Structure prediction by ZEFSAII (Michael W. Deem and Ramdas Pophale) SiO2 
 PCOD8135747
Probable space group: C 2/C
;
_chemical_formula_sum "Si O2"
_cell_formula_units_Z 48
_cell_length_a 11.188822
_cell_length_b 9.912079
_cell_length_c 19.233342
_cell_angle_alpha 90.000000
_cell_angle_beta 75.166507
_cell_angle_gamma 90.000000
_cell_volume 2061.977235
_symmetry_space_group_name_H-M "C 2/C"
_symmetry_group_IT_number 15
_symmetry_cell_setting 'monoclinic'
loop_
_space_group_symop_operation_xyz
x,y,z
-x,y,1/2-z
-x,-y,-z
x,-y,1/2+z
1/2+x,1/2+y,z
1/2-x,1/2+y,1/2-z
1/2-x,1/2-y,-z
1/2+x,1/2-y,1/2+z
loop_
_atom_site_type_symbol
_atom_site_label
_atom_site_fract_x
_atom_site_fract_y
_atom_site_fract_z
Si Si1 0.364221 0.503834 0.395238
Si Si2 0.027808 0.271425 0.088231
Si Si3 0.371087 0.014071 0.476243
Si Si4 0.503598 0.260565 0.066692
Si Si5 0.211730 0.627388 0.804923
Si Si6 0.382892 0.153229 0.217936
O O1 0.424561 0.649421 0.371227
O O2 0.248648 0.520293 0.462836
O O3 0.469457 0.411533 0.413625
O O4 0.325530 0.439172 0.328726
O O5 0.886988 0.307927 0.127273
O O6 0.115615 0.403139 0.087618
O O7 0.045771 0.229531 0.004568
O O8 0.500000 0.000000 0.500000
O O9 0.370364 0.167889 0.448108
O O10 0.408243 0.186435 0.133018
O O11 0.266862 0.750407 0.752564
O O12 0.152055 0.505646 0.768413
O O13 0.500000 0.184275 0.250000
#
# Coordination Sequence:
#
# PCOD8135747 Si02
#       6
#     8   8   8   8   8   8
#     4  12  23  41  74 103 140 180 228 294 353 413
#     4  11  24  44  72 106 136 178 238 293 351 412
#     4  10  19  39  66  99 136 172 224 286 343 401
#     4  11  22  45  70 104 142 178 234 289 349 416
#     4  12  27  49  71 102 141 188 236 291 348 426
#     4  12  28  49  71 101 144 191 233 286 352 419
#
# _framework density 23.278625999999999
#
# number of rings (size 3 to 8) (size 9 to 14) (size 15 to 20)
#    0.000    0.667    6.667    2.500    2.333    1.333 
#    3.000    0.000    0.000    0.000    0.000    0.000 
#    0.000    0.000    0.000    0.000    0.000    0.000 
#
# Total GULP energy -297475.606113 kJ/mol
# GULP energy per Si atom -12394.816921 kJ/mol
# Density = 2.322564 g / cm^3
# Si number density = 23.278626 Si / 1000 Ang^3
#
#
#
# Elastic Constant Matrix: (Units=GPa)
#
#
# Indices 1 2 3 4 5 6 
#
# 1 36.6098 11.6583 18.6840 0.0000 -10.2510 0.0000
# 2 11.6583 124.5190 14.7168 0.0000 -13.7104 0.0000
# 3 18.6840 14.7168 91.0952 0.0000 -8.0918 0.0000
# 4 0.0000 0.0000 0.0000 35.3064 0.0000 -7.6011
# 5 -10.2510 -13.7104 -8.0918 0.0000 22.4102 0.0000
# 6 0.0000 0.0000 0.0000 -7.6011 0.0000 42.0186
#
#
#
# Elastic Compliance Matrix: (Units=1/GPa)
#
#
# Indices 1 2 3 4 5 6 
#
# 1 0.034183 -0.001107 -0.005686 0.000000 0.012906 0.000000
# 2 -0.001107 0.008728 -0.000779 0.000000 0.004552 0.000000
# 3 -0.005686 -0.000779 0.012394 0.000000 0.001398 0.000000
# 4 0.000000 0.000000 0.000000 0.029471 0.000000 0.005331
# 5 0.012906 0.004552 0.001398 0.000000 0.053816 0.000000
# 6 0.000000 0.000000 0.000000 0.005331 0.000000 0.024763
#
#
# Mechanical properties :
#
#
# Convention : Reuss Voigt Hill
#
# Bulk Modulus (GPa) = 24.89970 38.03803 31.46887
# Shear Modulus (GPa) = 26.05720 33.75803 29.90762
#
# Velocity S-wave (km/s) = 3.34932 3.81224 3.58825
# Velocity P-wave (km/s) = 5.06723 5.97942 5.54212
#
# Compressibility (1/GPa) = 0.04016112
#
# Stress axis : x y z
#
# Youngs Moduli (GPa) = 29.25411 114.57640 80.68641
#
# Poissons Ratio (x) = 0.12689 0.45877
# Poissons Ratio (y) = 0.03240 0.06282
# Poissons Ratio (z) = 0.16633 0.08920
#
# Static dielectric constant tensor:
#      x y z
#    x 3.885230 0.000000 -0.128870 
#    y 0.000000 5.148400 0.000000 
#    z -0.128870 0.000000 4.002210 
# 
# 
# High freq. dielectric constant tensor:
#      x y z
#    x 1.894840 0.000000 -0.017560 
#    y 0.000000 1.950140 0.000000 
#    z -0.017560 0.000000 1.905060 
# 
# From -- ./inp_files/236513.got.cif
#   From: 2010.06.25/outbox.cif.g09.slc.cpg/sg15_119_cif.got.tgz:236513.got - 2010.06.28 07:06:18.
