data_PCOD8135077
_publ_section_title
;
Structure prediction by ZEFSAII (Michael W. Deem and Ramdas Pophale) SiO2 
 PCOD8135077
Probable space group: C 2/C
;
_chemical_formula_sum "Si O2"
_cell_formula_units_Z 48
_cell_length_a 18.065220
_cell_length_b 14.848838
_cell_length_c 18.154593
_cell_angle_alpha 90.000000
_cell_angle_beta 32.147787
_cell_angle_gamma 90.000000
_cell_volume 2591.310905
_symmetry_space_group_name_H-M "C 2/C"
_symmetry_group_IT_number 15
_symmetry_cell_setting 'monoclinic'
loop_
_space_group_symop_operation_xyz
x,y,z
-x,y,1/2-z
-x,-y,-z
x,-y,1/2+z
1/2+x,1/2+y,z
1/2-x,1/2+y,1/2-z
1/2-x,1/2-y,-z
1/2+x,1/2-y,1/2+z
loop_
_atom_site_type_symbol
_atom_site_label
_atom_site_fract_x
_atom_site_fract_y
_atom_site_fract_z
Si Si1 0.345991 0.150683 0.101276
Si Si2 0.863585 0.855986 0.078727
Si Si3 0.697192 0.498688 0.145641
Si Si4 0.851667 0.362390 0.110467
Si Si5 0.120289 0.011283 0.544789
Si Si6 0.655856 0.343096 0.898207
O O1 0.349662 0.252085 0.066560
O O2 0.284345 0.143982 0.235220
O O3 0.252292 0.096805 0.122326
O O4 0.500580 0.110583 0.978650
O O5 0.758552 0.877050 0.232459
O O6 0.018005 0.879729 0.975124
O O7 0.832562 0.920206 0.036023
O O8 0.808413 0.426080 0.080074
O O9 0.545669 0.481484 0.307390
O O10 0.695490 0.491704 0.059556
O O11 0.858824 0.262212 0.070346
O O12 0.178231 0.099091 0.453247
#
# Coordination Sequence:
#
# PCOD8135077 Si02
#       6
#     8   8   8   8   8   8
#     4  10  21  36  60  86 112 142 189 240 277 319
#     4  10  19  37  61  84 108 150 193 228 272 333
#     4  11  22  37  56  87 116 149 186 228 281 335
#     4  10  21  36  60  86 112 142 189 240 277 319
#     4  11  22  36  60  82 116 154 185 224 277 345
#     4  10  19  37  61  84 108 150 193 228 272 333
#
# _framework density 18.523444000000001
#
# number of rings (size 3 to 8) (size 9 to 14) (size 15 to 20)
#    0.000    1.667    3.333    2.000    0.000    1.333 
#    0.000    3.333    0.000    0.000    0.000    0.000 
#    0.000    0.000    0.000    0.000    0.000    0.000 
#
# Total GULP energy -297658.318874 kJ/mol
# GULP energy per Si atom -12402.429953 kJ/mol
# Density = 1.848128 g / cm^3
# Si number density = 18.523444 Si / 1000 Ang^3
#
#
#
# Elastic Constant Matrix: (Units=GPa)
#
#
# Indices 1 2 3 4 5 6 
#
# 1 78.3669 38.6923 16.4977 -0.0001 13.3391 0.0000
# 2 38.6923 78.1841 23.0875 0.0001 15.9332 -0.0001
# 3 16.4977 23.0875 60.0821 0.0001 5.0771 0.0001
# 4 -0.0001 0.0001 0.0001 25.7273 -0.0001 -1.5467
# 5 13.3391 15.9332 5.0771 -0.0001 28.0146 0.0000
# 6 0.0000 -0.0001 0.0001 -1.5467 0.0000 16.9115
#
#
#
# Elastic Compliance Matrix: (Units=1/GPa)
#
#
# Indices 1 2 3 4 5 6 
#
# 1 0.017376 -0.007344 -0.001628 0.000000 -0.003802 0.000000
# 2 -0.007344 0.019174 -0.004799 0.000000 -0.006539 0.000000
# 3 -0.001628 -0.004799 0.018929 0.000000 0.000074 0.000000
# 4 0.000000 0.000000 0.000000 0.039084 0.000000 0.003575
# 5 -0.003802 -0.006539 0.000074 0.000000 0.041212 0.000000
# 6 0.000000 0.000000 0.000000 0.003575 0.000000 0.059458
#
#
# Mechanical properties :
#
#
# Convention : Reuss Voigt Hill
#
# Bulk Modulus (GPa) = 35.79385 41.46532 38.62958
# Shear Modulus (GPa) = 21.54360 23.35437 22.44899
#
# Velocity S-wave (km/s) = 3.41404 3.55463 3.48505
# Velocity P-wave (km/s) = 5.90817 6.26746 6.09046
#
# Compressibility (1/GPa) = 0.02793776
#
# Stress axis : x y z
#
# Youngs Moduli (GPa) = 57.55003 52.15299 52.82965
#
# Poissons Ratio (x) = 0.38300 0.08601
# Poissons Ratio (y) = 0.42263 0.25353
# Poissons Ratio (z) = 0.09369 0.25028
#
# Static dielectric constant tensor:
#      x y z
#    x 3.199830 0.000000 -0.104980 
#    y 0.000000 3.561850 0.000000 
#    z -0.104980 0.000000 3.524990 
# 
# 
# High freq. dielectric constant tensor:
#      x y z
#    x 1.696550 0.000000 -0.006240 
#    y 0.000000 1.732190 0.000000 
#    z -0.006240 0.000000 1.725800 
# 
# From -- ./inp_files/66382.got.cif
#   From: 2010.06.25/outbox.cif.g09.slc.cpg/sg15_34_cif.got.tgz:66382.got - 2010.06.28 07:06:18.
