data_PCOD8135079
_publ_section_title
;
Structure prediction by ZEFSAII (Michael W. Deem and Ramdas Pophale) SiO2 
 PCOD8135079
Probable space group: C 2/C
;
_chemical_formula_sum "Si O2"
_cell_formula_units_Z 64
_cell_length_a 22.462260
_cell_length_b 11.518341
_cell_length_c 27.967974
_cell_angle_alpha 90.000000
_cell_angle_beta 28.051386
_cell_angle_gamma 90.000000
_cell_volume 3402.870560
_symmetry_space_group_name_H-M "C 2/C"
_symmetry_group_IT_number 15
_symmetry_cell_setting 'monoclinic'
loop_
_space_group_symop_operation_xyz
x,y,z
-x,y,1/2-z
-x,-y,-z
x,-y,1/2+z
1/2+x,1/2+y,z
1/2-x,1/2+y,1/2-z
1/2-x,1/2-y,-z
1/2+x,1/2-y,1/2+z
loop_
_atom_site_type_symbol
_atom_site_label
_atom_site_fract_x
_atom_site_fract_y
_atom_site_fract_z
Si Si1 0.931205 0.016400 0.250220
Si Si2 0.654802 0.952668 0.438008
Si Si3 0.912890 0.288892 0.266634
Si Si4 0.695413 0.972485 0.806780
Si Si5 0.541708 0.239827 0.420671
Si Si6 0.122234 0.830743 0.465339
Si Si7 0.982753 0.027917 0.611592
Si Si8 0.007332 0.623999 0.889747
O O1 0.901944 0.152010 0.266360
O O2 0.000000 0.983418 0.250000
O O3 0.804015 0.939062 0.340855
O O4 0.017073 0.984017 0.143454
O O5 0.635550 0.024092 0.402573
O O6 0.590615 0.827142 0.476491
O O7 0.594029 0.023867 0.525246
O O8 0.769073 0.328955 0.375814
O O9 0.000000 0.319618 0.250000
O O10 0.979282 0.357105 0.176172
O O11 0.643678 0.082109 0.813180
O O12 0.844990 0.973092 0.699979
O O13 0.644477 0.848214 0.824252
O O14 0.599525 0.302862 0.426106
O O15 0.512577 0.336423 0.402205
O O16 0.037234 0.745095 0.557011
O O17 0.079214 0.961162 0.508600
#
# Coordination Sequence:
#
# PCOD8135079 Si02
#       8
#     8   8   8   8   8   8   8   8
#     4  10  21  38  58  84 111 150 203 241 274 342
#     4  10  19  37  61  85 112 152 194 232 283 356
#     4  11  24  38  57  86 120 152 195 243 292 343
#     4  10  20  36  59  88 116 150 190 230 284 360
#     4  11  21  36  56  86 122 151 187 229 294 350
#     4  12  21  37  57  89 122 145 188 241 295 344
#     4  11  24  34  58  88 119 152 184 243 293 337
#     4  11  19  35  60  82 115 151 184 236 291 334
#
# _framework density 18.807651
#
# number of rings (size 3 to 8) (size 9 to 14) (size 15 to 20)
#    0.000    1.250    5.000    2.625    1.750    1.500 
#    0.000    3.125    0.000    3.750    0.000    0.000 
#    0.000    0.000    0.000    0.000    0.000    0.000 
#
# Total GULP energy -396789.317473 kJ/mol
# GULP energy per Si atom -12399.666171 kJ/mol
# Density = 1.876484 g / cm^3
# Si number density = 18.807651 Si / 1000 Ang^3
#
#
#
# Elastic Constant Matrix: (Units=GPa)
#
#
# Indices 1 2 3 4 5 6 
#
# 1 106.7813 34.1765 36.7014 0.0009 3.3328 0.0000
# 2 34.1765 93.6407 33.4596 0.0006 1.1932 0.0000
# 3 36.7014 33.4596 62.1369 0.0001 0.1835 -0.0004
# 4 0.0009 0.0006 0.0001 27.6948 -0.0004 4.5570
# 5 3.3328 1.1932 0.1835 -0.0004 24.4317 0.0002
# 6 0.0000 0.0000 -0.0004 4.5570 0.0002 21.6195
#
#
#
# Elastic Compliance Matrix: (Units=1/GPa)
#
#
# Indices 1 2 3 4 5 6 
#
# 1 0.012198 -0.002303 -0.005960 0.000000 -0.001507 0.000000
# 2 -0.002303 0.013667 -0.005998 0.000000 -0.000308 0.000000
# 3 -0.005960 -0.005998 0.022841 0.000000 0.000934 0.000000
# 4 0.000000 0.000000 0.000000 0.037405 0.000001 -0.007884
# 5 -0.001507 -0.000308 0.000934 0.000001 0.041144 0.000000
# 6 0.000000 0.000000 0.000000 -0.007884 0.000000 0.047916
#
#
# Mechanical properties :
#
#
# Convention : Reuss Voigt Hill
#
# Bulk Modulus (GPa) = 49.54648 52.35933 50.95291
# Shear Modulus (GPa) = 23.76189 25.29728 24.52958
#
# Velocity S-wave (km/s) = 3.55831 3.67147 3.61534
# Velocity P-wave (km/s) = 6.57899 6.77294 6.67667
#
# Compressibility (1/GPa) = 0.02018307
#
# Stress axis : x y z
#
# Youngs Moduli (GPa) = 81.98384 73.16980 43.78108
#
# Poissons Ratio (x) = 0.16851 0.26093
# Poissons Ratio (y) = 0.18881 0.26261
# Poissons Ratio (z) = 0.48862 0.43888
#
# Static dielectric constant tensor:
#      x y z
#    x 3.421390 0.000000 0.021170 
#    y 0.000000 3.369390 0.000000 
#    z 0.021170 0.000000 3.481910 
# 
# 
# High freq. dielectric constant tensor:
#      x y z
#    x 1.715880 0.000000 0.001490 
#    y 0.000000 1.721350 0.000000 
#    z 0.001490 0.000000 1.735040 
# 
# From -- ./inp_files/300845.got.cif
#   From: 2010.06.25/outbox.cif.g09.slc.cpg/sg15_151_cif.got.tgz:300845.got - 2010.06.28 07:06:18.
