data_PCOD8135829
_publ_section_title
;
Structure prediction by ZEFSAII (Michael W. Deem and Ramdas Pophale) SiO2 
 PCOD8135829
Probable space group: C 2/C
;
_chemical_formula_sum "Si O2"
_cell_formula_units_Z 48
_cell_length_a 21.686322
_cell_length_b 5.116819
_cell_length_c 19.360299
_cell_angle_alpha 90.000000
_cell_angle_beta 93.364625
_cell_angle_gamma 90.000000
_cell_volume 2144.612128
_symmetry_space_group_name_H-M "C 2/C"
_symmetry_group_IT_number 15
_symmetry_cell_setting 'monoclinic'
loop_
_space_group_symop_operation_xyz
x,y,z
-x,y,1/2-z
-x,-y,-z
x,-y,1/2+z
1/2+x,1/2+y,z
1/2-x,1/2+y,1/2-z
1/2-x,1/2-y,-z
1/2+x,1/2-y,1/2+z
loop_
_atom_site_type_symbol
_atom_site_label
_atom_site_fract_x
_atom_site_fract_y
_atom_site_fract_z
Si Si1 0.701124 0.207778 0.596634
Si Si2 0.026697 0.283445 0.829187
Si Si3 0.353145 0.589597 0.279965
Si Si4 0.196798 0.942487 0.973261
Si Si5 0.106312 0.783946 0.857007
Si Si6 0.100269 0.423644 0.654986
O O1 0.705089 0.349806 0.672723
O O2 0.671337 0.400181 0.537518
O O3 0.770606 0.136815 0.579964
O O4 0.652588 0.961129 0.598135
O O5 0.051866 0.996443 0.847538
O O6 0.000000 0.303045 0.750000
O O7 0.967716 0.340041 0.876120
O O8 0.079768 0.494158 0.847367
O O9 0.341696 0.651547 0.198535
O O10 0.375830 0.293553 0.288957
O O11 0.406887 0.795649 0.306815
O O12 0.139924 0.797362 0.933236
O O13 0.250000 0.750000 0.000000
#
# Coordination Sequence:
#
# PCOD8135829 Si02
#       6
#     8   8   8   8   8   8
#     4   9  23  44  69  93 133 191 215 287 341 392
#     4  12  21  41  68 103 146 168 217 288 348 405
#     4  10  19  40  64 103 129 165 227 272 338 397
#     4  11  25  48  70  92 144 184 236 279 335 405
#     4  12  25  40  71 109 128 184 231 273 343 413
#     4  10  20  38  68  96 134 175 210 275 351 393
#
# _framework density 22.381671000000001
#
# number of rings (size 3 to 8) (size 9 to 14) (size 15 to 20)
#    1.000    0.333    3.333    2.500    4.667    0.000 
#    6.000    1.667    0.000    0.000    0.000    0.000 
#    0.000    0.000    0.000    0.000    0.000    0.000 
#
# Total GULP energy -297322.395055 kJ/mol
# GULP energy per Si atom -12388.433127 kJ/mol
# Density = 2.233073 g / cm^3
# Si number density = 22.381671 Si / 1000 Ang^3
#
#
#
# Elastic Constant Matrix: (Units=GPa)
#
#
# Indices 1 2 3 4 5 6 
#
# 1 32.2348 -4.8235 -11.9253 0.0000 -1.7364 0.0000
# 2 -4.8235 89.5413 -3.0723 0.0000 7.7397 0.0000
# 3 -11.9253 -3.0723 25.6350 0.0000 15.0158 0.0000
# 4 0.0000 0.0000 0.0000 26.6880 0.0000 -3.4166
# 5 -1.7364 7.7397 15.0158 0.0000 37.8510 0.0000
# 6 0.0000 0.0000 0.0000 -3.4166 0.0000 39.8681
#
#
#
# Elastic Compliance Matrix: (Units=1/GPa)
#
#
# Indices 1 2 3 4 5 6 
#
# 1 0.040000 0.003708 0.023998 0.000000 -0.008443 0.000000
# 2 0.003708 0.011966 0.005853 0.000000 -0.004598 0.000000
# 3 0.023998 0.005853 0.066348 0.000000 -0.026417 0.000000
# 4 0.000000 0.000000 0.000000 0.037886 0.000000 0.003247
# 5 -0.008443 -0.004598 -0.026417 0.000000 0.037452 0.000000
# 6 0.000000 0.000000 0.000000 0.003247 0.000000 0.025361
#
#
# Mechanical properties :
#
#
# Convention : Reuss Voigt Hill
#
# Bulk Modulus (GPa) = 5.39280 11.97433 8.68357
# Shear Modulus (GPa) = 23.39660 32.03023 27.71341
#
# Velocity S-wave (km/s) = 3.23669 3.78708 3.52265
# Velocity P-wave (km/s) = 4.04758 4.94816 4.52036
#
# Compressibility (1/GPa) = 0.18543230
#
# Stress axis : x y z
#
# Youngs Moduli (GPa) = 24.99969 83.56964 15.07203
#
# Poissons Ratio (x) = -0.30988 -0.36170
# Poissons Ratio (y) = -0.09270 -0.08821
# Poissons Ratio (z) = -0.59995 -0.48910
#
# Static dielectric constant tensor:
#      x y z
#    x 4.260580 0.000000 -0.418070 
#    y 0.000000 4.142810 0.000000 
#    z -0.418070 0.000000 3.796050 
# 
# 
# High freq. dielectric constant tensor:
#      x y z
#    x 1.867740 0.000000 -0.025140 
#    y 0.000000 1.899300 0.000000 
#    z -0.025140 0.000000 1.848760 
# 
# From -- ./inp_files/278519.got.cif
#   From: 2010.06.25/outbox.cif.g09.slc.cpg/sg15_140_cif.got.tgz:278519.got - 2010.06.28 07:06:18.
