data_PCOD8135353
_publ_section_title
;
Structure prediction by ZEFSAII (Michael W. Deem and Ramdas Pophale) SiO2 
 PCOD8135353
Probable space group: C 2/C
;
_chemical_formula_sum "Si O2"
_cell_formula_units_Z 64
_cell_length_a 12.997951
_cell_length_b 13.638280
_cell_length_c 26.664562
_cell_angle_alpha 90.000000
_cell_angle_beta 136.869704
_cell_angle_gamma 90.000000
_cell_volume 3231.535802
_symmetry_space_group_name_H-M "C 2/C"
_symmetry_group_IT_number 15
_symmetry_cell_setting 'monoclinic'
loop_
_space_group_symop_operation_xyz
x,y,z
-x,y,1/2-z
-x,-y,-z
x,-y,1/2+z
1/2+x,1/2+y,z
1/2-x,1/2+y,1/2-z
1/2-x,1/2-y,-z
1/2+x,1/2-y,1/2+z
loop_
_atom_site_type_symbol
_atom_site_label
_atom_site_fract_x
_atom_site_fract_y
_atom_site_fract_z
Si Si1 0.350333 0.431056 0.610849
Si Si2 0.317502 0.222632 0.577316
Si Si3 0.906021 0.538952 0.557562
Si Si4 0.577478 0.411450 0.175150
Si Si5 0.877174 0.892015 0.416939
Si Si6 0.214374 0.085181 0.060206
Si Si7 0.617685 0.732690 0.833614
Si Si8 0.244091 0.548476 0.663117
O O1 0.405598 0.317258 0.630687
O O2 0.188681 0.433904 0.525657
O O3 0.470717 0.495849 0.623156
O O4 0.339384 0.471529 0.663674
O O5 0.250000 0.250000 0.500000
O O6 0.422730 0.128930 0.603473
O O7 0.190784 0.193404 0.572787
O O8 0.825936 0.447134 0.555500
O O9 0.073501 0.510901 0.601104
O O10 0.669821 0.380624 0.158240
O O11 0.476290 0.319394 0.155768
O O12 0.692155 0.449194 0.258171
O O13 0.056856 0.879702 0.481572
O O14 0.817887 0.997437 0.413031
O O15 0.291586 0.174067 0.116153
O O16 0.500000 0.768025 0.750000
O O17 0.739398 0.656268 0.854876
#
# Coordination Sequence:
#
# PCOD8135353 Si02
#       8
#     8   8   8   8   8   8   8   8
#     4  10  19  38  60  85 117 153 198 239 292 355
#     4   9  21  36  59  87 118 146 195 248 295 351
#     4  10  20  37  56  90 115 147 197 247 291 345
#     4  10  21  41  58  83 120 158 195 241 297 357
#     4  10  21  38  58  87 113 155 193 242 295 353
#     4  10  21  36  59  83 116 150 196 237 292 353
#     4   9  21  38  57  83 116 156 197 238 295 353
#     4  10  22  38  59  84 120 157 193 247 298 346
#
# _framework density 19.804824
#
# number of rings (size 3 to 8) (size 9 to 14) (size 15 to 20)
#    0.000    2.250    1.250    1.500    5.250    2.500 
#    0.000    6.875    0.000    0.000    0.000    0.000 
#    0.000    0.000    0.000    0.000    0.000    0.000 
#
# Total GULP energy -396718.977934 kJ/mol
# GULP energy per Si atom -12397.468060 kJ/mol
# Density = 1.975975 g / cm^3
# Si number density = 19.804824 Si / 1000 Ang^3
#
#
#
# Elastic Constant Matrix: (Units=GPa)
#
#
# Indices 1 2 3 4 5 6 
#
# 1 90.7610 14.5319 27.2960 0.0000 -20.7530 0.0000
# 2 14.5319 104.8921 26.0328 0.0000 -10.8370 0.0000
# 3 27.2960 26.0328 72.4122 0.0000 -17.5534 0.0000
# 4 0.0000 0.0000 0.0000 30.7000 0.0000 0.2475
# 5 -20.7530 -10.8370 -17.5534 0.0000 36.3062 0.0000
# 6 0.0000 0.0000 0.0000 0.2475 0.0000 20.2277
#
#
#
# Elastic Compliance Matrix: (Units=1/GPa)
#
#
# Indices 1 2 3 4 5 6 
#
# 1 0.013485 -0.000387 -0.003516 0.000000 0.005893 0.000000
# 2 -0.000387 0.010549 -0.003327 0.000000 0.001319 0.000000
# 3 -0.003516 -0.003327 0.017675 0.000000 0.005543 0.000000
# 4 0.000000 0.000000 0.000000 0.032577 0.000000 -0.000399
# 5 0.005893 0.001319 0.005543 0.000000 0.033986 0.000000
# 6 0.000000 0.000000 0.000000 -0.000399 0.000000 0.049442
#
#
# Mechanical properties :
#
#
# Convention : Reuss Voigt Hill
#
# Bulk Modulus (GPa) = 36.69736 44.86519 40.78127
# Shear Modulus (GPa) = 27.58551 30.79373 29.18962
#
# Velocity S-wave (km/s) = 3.73616 3.94745 3.84326
# Velocity P-wave (km/s) = 6.09767 6.59389 6.35063
#
# Compressibility (1/GPa) = 0.02724992
#
# Stress axis : x y z
#
# Youngs Moduli (GPa) = 74.15877 94.79404 56.57797
#
# Poissons Ratio (x) = 0.03667 0.19890
# Poissons Ratio (y) = 0.02869 0.18823
# Poissons Ratio (z) = 0.26071 0.31537
#
# Static dielectric constant tensor:
#      x y z
#    x 3.614720 0.000000 -0.123900 
#    y 0.000000 3.761000 0.000000 
#    z -0.123900 0.000000 3.409890 
# 
# 
# High freq. dielectric constant tensor:
#      x y z
#    x 1.773870 0.000000 -0.012740 
#    y 0.000000 1.769780 0.000000 
#    z -0.012740 0.000000 1.756030 
# 
# From -- ./inp_files/296414.got.cif
#   From: 2010.06.25/outbox.cif.g09.slc.cpg/sg15_149_cif.got.tgz:296414.got - 2010.06.28 07:06:18.
