data_PCOD8135328
_publ_section_title
;
Structure prediction by ZEFSAII (Michael W. Deem and Ramdas Pophale) SiO2 
 PCOD8135328
Probable space group: C 2/C
;
_chemical_formula_sum "Si O2"
_cell_formula_units_Z 56
_cell_length_a 10.105075
_cell_length_b 19.805867
_cell_length_c 21.155120
_cell_angle_alpha 90.000000
_cell_angle_beta 43.249305
_cell_angle_gamma 90.000000
_cell_volume 2901.014274
_symmetry_space_group_name_H-M "C 2/C"
_symmetry_group_IT_number 15
_symmetry_cell_setting 'monoclinic'
loop_
_space_group_symop_operation_xyz
x,y,z
-x,y,1/2-z
-x,-y,-z
x,-y,1/2+z
1/2+x,1/2+y,z
1/2-x,1/2+y,1/2-z
1/2-x,1/2-y,-z
1/2+x,1/2-y,1/2+z
loop_
_atom_site_type_symbol
_atom_site_label
_atom_site_fract_x
_atom_site_fract_y
_atom_site_fract_z
Si Si1 0.105138 0.930510 0.779213
Si Si2 0.841198 0.349113 0.253354
Si Si3 0.689915 0.234764 0.109642
Si Si4 0.237734 0.288768 0.737653
Si Si5 0.880927 0.460809 0.134281
Si Si6 0.774014 0.986381 0.446400
Si Si7 0.593176 0.351069 0.059504
O O1 0.157986 0.859599 0.791795
O O2 0.000000 0.915866 0.750000
O O3 0.961335 0.966024 0.878611
O O4 0.296710 0.976033 0.703516
O O5 0.856019 0.269322 0.233159
O O6 0.868016 0.393097 0.180315
O O7 0.633534 0.363770 0.355297
O O8 0.000000 0.369374 0.250000
O O9 0.482373 0.203298 0.161452
O O10 0.729722 0.236035 0.169050
O O11 0.686691 0.312031 0.086865
O O12 0.861767 0.191836 0.018723
O O13 0.758101 0.455726 0.112631
O O14 0.100912 0.471281 0.036604
O O15 0.808993 0.923922 0.480723
#
# Coordination Sequence:
#
# PCOD8135328 Si02
#       7
#     8   8   8   8   8   8   8
#     4  10  20  36  57  83 114 152 189 236 287 342
#     4  11  23  39  58  84 119 159 191 241 297 347
#     4   9  20  35  61  87 110 147 197 240 294 336
#     4  10  20  38  58  85 117 151 193 238 288 349
#     4  10  21  38  57  87 115 147 202 237 292 348
#     4  10  20  36  62  83 111 154 195 243 288 346
#     4  10  19  38  59  85 113 148 196 244 287 348
#
# _framework density 19.303591999999998
#
# number of rings (size 3 to 8) (size 9 to 14) (size 15 to 20)
#    0.000    2.000    1.429    2.143    0.000    2.286 
#    5.143    7.143    0.000    0.000    0.000    0.000 
#    0.000    0.000    0.000    0.000    0.000    0.000 
#
# Total GULP energy -347184.150323 kJ/mol
# GULP energy per Si atom -12399.433940 kJ/mol
# Density = 1.925966 g / cm^3
# Si number density = 19.303592 Si / 1000 Ang^3
#
#
#
# Elastic Constant Matrix: (Units=GPa)
#
#
# Indices 1 2 3 4 5 6 
#
# 1 49.2253 21.8367 17.9830 -0.0014 -1.0990 0.0065
# 2 21.8367 97.7276 27.7525 0.0095 -7.9511 0.0002
# 3 17.9830 27.7525 108.3493 0.0112 -7.1953 -0.0025
# 4 -0.0014 0.0095 0.0112 18.8648 0.0008 0.9755
# 5 -1.0990 -7.9511 -7.1953 0.0008 15.7733 -0.0039
# 6 0.0065 0.0002 -0.0025 0.9755 -0.0039 21.9497
#
#
#
# Elastic Compliance Matrix: (Units=1/GPa)
#
#
# Indices 1 2 3 4 5 6 
#
# 1 0.023333 -0.004569 -0.002833 0.000006 -0.001970 -0.000008
# 2 -0.004569 0.012235 -0.002049 -0.000006 0.004914 0.000002
# 3 -0.002833 -0.002049 0.010460 -0.000006 0.003541 0.000003
# 4 0.000006 -0.000006 -0.000006 0.053131 -0.000008 -0.002361
# 5 -0.001970 0.004914 0.003541 -0.000008 0.067353 0.000013
# 6 -0.000008 0.000002 0.000003 -0.002361 0.000013 0.045664
#
#
# Mechanical properties :
#
#
# Convention : Reuss Voigt Hill
#
# Bulk Modulus (GPa) = 36.86695 43.38294 40.12495
# Shear Modulus (GPa) = 20.82291 23.83292 22.32791
#
# Velocity S-wave (km/s) = 3.28793 3.51755 3.40468
# Velocity P-wave (km/s) = 5.79258 6.24663 6.02388
#
# Compressibility (1/GPa) = 0.02712456
#
# Stress axis : x y z
#
# Youngs Moduli (GPa) = 42.85825 81.73091 95.60554
#
# Poissons Ratio (x) = 0.37346 0.27085
# Poissons Ratio (y) = 0.19583 0.19591
# Poissons Ratio (z) = 0.12142 0.16748
#
# Static dielectric constant tensor:
#      x y z
#    x 3.265090 -0.000010 -0.085310 
#    y -0.000010 3.436500 0.000010 
#    z -0.085310 0.000010 3.623200 
# 
# 
# High freq. dielectric constant tensor:
#      x y z
#    x 1.728820 0.000000 -0.005300 
#    y 0.000000 1.756450 0.000000 
#    z -0.005300 0.000000 1.760860 
# 
# From -- ./inp_files/270375.got.cif
#   From: 2010.06.25/outbox.cif.g09.slc.cpg/sg15_136_cif.got.tgz:270375.got - 2010.06.28 07:06:18.
