data_PCOD8135841
_publ_section_title
;
Structure prediction by ZEFSAII (Michael W. Deem and Ramdas Pophale) SiO2 
 PCOD8135841
Probable space group: C 2/C
;
_chemical_formula_sum "Si O2"
_cell_formula_units_Z 52
_cell_length_a 15.875549
_cell_length_b 31.112197
_cell_length_c 5.457096
_cell_angle_alpha 90.000000
_cell_angle_beta 109.662619
_cell_angle_gamma 90.000000
_cell_volume 2538.219119
_symmetry_space_group_name_H-M "C 2/C"
_symmetry_group_IT_number 15
_symmetry_cell_setting 'monoclinic'
loop_
_space_group_symop_operation_xyz
x,y,z
-x,y,1/2-z
-x,-y,-z
x,-y,1/2+z
1/2+x,1/2+y,z
1/2-x,1/2+y,1/2-z
1/2-x,1/2-y,-z
1/2+x,1/2-y,1/2+z
loop_
_atom_site_type_symbol
_atom_site_label
_atom_site_fract_x
_atom_site_fract_y
_atom_site_fract_z
Si Si1 0.500000 0.883450 0.750000
Si Si2 0.500000 0.411089 0.250000
Si Si3 0.500000 0.735807 0.750000
Si Si4 0.569266 0.193199 0.626284
Si Si5 0.842822 0.973410 0.998217
Si Si6 0.767248 0.643438 0.602492
Si Si7 0.307249 0.906933 0.643439
Si Si8 0.073334 0.164506 0.512646
O O1 0.469725 0.852592 0.500803
O O2 0.415203 0.913428 0.739872
O O3 0.576940 0.439380 0.452741
O O4 0.450701 0.381799 0.400209
O O5 0.426895 0.767824 0.559283
O O6 0.571737 0.704569 0.693255
O O7 0.500000 0.212343 0.750000
O O8 0.666844 0.184360 0.832310
O O9 0.744477 0.952061 0.899408
O O10 0.852783 0.003447 0.770369
O O11 0.785944 0.615999 0.378895
O O12 0.668397 0.661684 0.475349
O O13 0.774634 0.618460 0.869558
O O14 0.000000 0.178463 0.250000
#
# Coordination Sequence:
#
# PCOD8135841 Si02
#       8
#     4   4   4   8   8   8   8   8
#     4   9  20  37  70  94 126 170 220 264 322 379
#     4  11  24  43  66  90 128 176 230 258 318 395
#     4  10  24  40  58  96 138 172 216 274 330 378
#     4  10  19  40  64  95 128 168 220 272 317 383
#     4  12  26  43  65  99 135 169 212 272 332 386
#     4  11  23  40  71  95 127 175 225 264 320 380
#     4  11  22  43  66 102 129 166 221 270 317 399
#     4  11  24  42  65  92 130 180 218 274 325 382
#
# _framework density 20.486805
#
# number of rings (size 3 to 8) (size 9 to 14) (size 15 to 20)
#    0.000    1.231    3.077    2.769    4.308    0.615 
#    0.000    3.846    0.000    0.000    0.000    0.000 
#    0.000    0.000    0.000    0.000    0.000    0.000 
#
# Total GULP energy -322192.597532 kJ/mol
# GULP energy per Si atom -12392.022982 kJ/mol
# Density = 2.044018 g / cm^3
# Si number density = 20.486805 Si / 1000 Ang^3
#
#
#
# Elastic Constant Matrix: (Units=GPa)
#
#
# Indices 1 2 3 4 5 6 
#
# 1 156.8516 49.2318 43.9946 0.0000 18.5391 0.0000
# 2 49.2318 104.9188 38.4610 0.0000 5.7399 0.0000
# 3 43.9946 38.4610 108.7980 0.0000 -8.9526 0.0000
# 4 0.0000 0.0000 0.0000 -22.3757 0.0000 9.8657
# 5 18.5391 5.7399 -8.9526 0.0000 38.6476 0.0000
# 6 0.0000 0.0000 0.0000 9.8657 0.0000 -6.1544
#
#
#
# Elastic Compliance Matrix: (Units=1/GPa)
#
#
# Indices 1 2 3 4 5 6 
#
# 1 0.008545 -0.002727 -0.002850 0.000000 -0.004354 0.000000
# 2 -0.002727 0.012077 -0.003269 0.000000 -0.001243 0.000000
# 3 -0.002850 -0.003269 0.011878 0.000000 0.004604 0.000000
# 4 0.000000 0.000000 0.000000 -0.152426 0.000000 -0.244346
# 5 -0.004354 -0.001243 0.004604 0.000000 0.029215 0.000000
# 6 0.000000 0.000000 0.000000 -0.244346 0.000000 -0.554182
#
#
# Mechanical properties :
#
#
# Convention : Reuss Voigt Hill
#
# Bulk Modulus (GPa) = 67.52512 70.43813 68.98163
# Shear Modulus (GPa) = -8.03516 17.94890 4.95687
#
# Velocity S-wave (km/s) = -1.98258 2.96314 1.55718
# Velocity P-wave (km/s) = 5.27172 6.79439 6.08090
#
# Compressibility (1/GPa) = 0.01480930
#
# Stress axis : x y z
#
# Youngs Moduli (GPa) = 117.02282 82.80163 84.18806
#
# Poissons Ratio (x) = 0.22579 0.23992
# Poissons Ratio (y) = 0.31911 0.27521
# Poissons Ratio (z) = 0.33349 0.27067
#
# Static dielectric constant tensor:
#      x y z
#    x 4.023630 0.000000 0.015660 
#    y 0.000000 3.624050 0.000000 
#    z 0.015660 0.000000 3.862170 
# 
# 
# High freq. dielectric constant tensor:
#      x y z
#    x 1.812180 0.000000 -0.001210 
#    y 0.000000 1.787640 0.000000 
#    z -0.001210 0.000000 1.810820 
# 
# From -- ./inp_files/9147.got.cif
#   From: 2010.06.25/outbox.cif.g09.slc.cpg/sg15_5_cif.got.tgz:9147.got - 2010.06.28 07:06:18.
