data_PCOD8135196
_publ_section_title
;
Structure prediction by ZEFSAII (Michael W. Deem and Ramdas Pophale) SiO2 
 PCOD8135196
Probable space group: C 2/C
;
_chemical_formula_sum "Si O2"
_cell_formula_units_Z 48
_cell_length_a 27.464548
_cell_length_b 10.015680
_cell_length_c 9.003422
_cell_angle_alpha 90.000000
_cell_angle_beta 116.202288
_cell_angle_gamma 90.000000
_cell_volume 2222.130124
_symmetry_space_group_name_H-M "C 2/C"
_symmetry_group_IT_number 15
_symmetry_cell_setting 'monoclinic'
loop_
_space_group_symop_operation_xyz
x,y,z
-x,y,1/2-z
-x,-y,-z
x,-y,1/2+z
1/2+x,1/2+y,z
1/2-x,1/2+y,1/2-z
1/2-x,1/2-y,-z
1/2+x,1/2-y,1/2+z
loop_
_atom_site_type_symbol
_atom_site_label
_atom_site_fract_x
_atom_site_fract_y
_atom_site_fract_z
Si Si1 0.087096 0.571613 0.640292
Si Si2 0.765766 0.898779 0.552119
Si Si3 0.343445 0.050690 0.043952
Si Si4 0.514431 0.833887 0.606140
Si Si5 0.615047 0.322739 0.281030
Si Si6 0.162663 0.990035 0.601941
O O1 0.137412 0.583002 0.595538
O O2 0.116129 0.565534 0.839172
O O3 0.050903 0.439104 0.563681
O O4 0.043153 0.692405 0.558544
O O5 0.750000 0.750000 0.500000
O O6 0.811158 0.891048 0.741720
O O7 0.717690 0.997914 0.538809
O O8 0.788535 0.954031 0.429738
O O9 0.350655 0.184744 0.153584
O O10 0.500000 0.891904 0.750000
O O11 0.550421 0.700960 0.675616
O O12 0.621471 0.412702 0.437604
O O13 0.634101 0.391023 0.154256
#
# Coordination Sequence:
#
# PCOD8135196 Si02
#       6
#     8   8   8   8   8   8
#     4  10  20  36  63  99 126 159 213 267 331 383
#     4  11  26  39  67  99 134 170 223 262 337 397
#     4  11  23  39  69  98 132 172 208 278 340 387
#     4  10  19  37  64  93 125 165 208 271 330 384
#     4  10  23  44  68  86 137 173 224 271 337 380
#     4  10  25  44  61  94 131 180 223 276 311 399
#
# _framework density 21.600895000000001
#
# number of rings (size 3 to 8) (size 9 to 14) (size 15 to 20)
#    0.000    1.667    3.333    1.000   11.667    1.333 
#    0.000    0.833    7.333    0.000    0.000    0.000 
#    0.000    0.000    0.000    0.000    0.000    0.000 
#
# Total GULP energy -297408.095856 kJ/mol
# GULP energy per Si atom -12392.003994 kJ/mol
# Density = 2.155173 g / cm^3
# Si number density = 21.600895 Si / 1000 Ang^3
#
#
#
# Elastic Constant Matrix: (Units=GPa)
#
#
# Indices 1 2 3 4 5 6 
#
# 1 124.1975 45.2077 31.4602 0.0000 -5.6735 0.0000
# 2 45.2077 85.1275 25.9275 0.0000 4.5437 0.0000
# 3 31.4602 25.9275 80.8326 0.0000 6.2214 0.0000
# 4 0.0000 0.0000 0.0000 34.4470 0.0000 8.5679
# 5 -5.6735 4.5437 6.2214 0.0000 28.4258 0.0000
# 6 0.0000 0.0000 0.0000 8.5679 0.0000 37.2179
#
#
#
# Elastic Compliance Matrix: (Units=1/GPa)
#
#
# Indices 1 2 3 4 5 6 
#
# 1 0.010773 -0.005044 -0.002851 0.000000 0.003580 0.000000
# 2 -0.005044 0.015420 -0.002762 0.000000 -0.002867 0.000000
# 3 -0.002851 -0.002762 0.014623 0.000000 -0.003328 0.000000
# 4 0.000000 0.000000 0.000000 0.030793 0.000000 -0.007089
# 5 0.003580 -0.002867 -0.003328 0.000000 0.037081 0.000000
# 6 0.000000 0.000000 0.000000 -0.007089 0.000000 0.028501
#
#
# Mechanical properties :
#
#
# Convention : Reuss Voigt Hill
#
# Bulk Modulus (GPa) = 51.27600 55.03870 53.15735
# Shear Modulus (GPa) = 30.30192 32.52227 31.41209
#
# Velocity S-wave (km/s) = 3.74947 3.88441 3.81754
# Velocity P-wave (km/s) = 6.52182 6.75673 6.64031
#
# Compressibility (1/GPa) = 0.01950230
#
# Stress axis : x y z
#
# Youngs Moduli (GPa) = 92.82100 64.85005 68.38603
#
# Poissons Ratio (x) = 0.32712 0.19494
# Poissons Ratio (y) = 0.46821 0.18890
# Poissons Ratio (z) = 0.26460 0.17913
#
# Static dielectric constant tensor:
#      x y z
#    x 4.044880 0.000000 0.154300 
#    y 0.000000 3.554610 0.000000 
#    z 0.154300 0.000000 4.090690 
# 
# 
# High freq. dielectric constant tensor:
#      x y z
#    x 1.856500 0.000000 0.001040 
#    y 0.000000 1.813650 0.000000 
#    z 0.001040 0.000000 1.858680 
# 
# From -- ./inp_files/65251.got.cif
#   From: 2010.06.25/outbox.cif.g09.slc.cpg/sg15_33_cif.got.tgz:65251.got - 2010.06.28 07:06:18.
