data_PCOD8135391
_publ_section_title
;
Structure prediction by ZEFSAII (Michael W. Deem and Ramdas Pophale) SiO2 
 PCOD8135391
Probable space group: C 2/C
;
_chemical_formula_sum "Si O2"
_cell_formula_units_Z 52
_cell_length_a 21.555928
_cell_length_b 12.053659
_cell_length_c 15.922872
_cell_angle_alpha 90.000000
_cell_angle_beta 140.697719
_cell_angle_gamma 90.000000
_cell_volume 2620.553897
_symmetry_space_group_name_H-M "C 2/C"
_symmetry_group_IT_number 15
_symmetry_cell_setting 'monoclinic'
loop_
_space_group_symop_operation_xyz
x,y,z
-x,y,1/2-z
-x,-y,-z
x,-y,1/2+z
1/2+x,1/2+y,z
1/2-x,1/2+y,1/2-z
1/2-x,1/2-y,-z
1/2+x,1/2-y,1/2+z
loop_
_atom_site_type_symbol
_atom_site_label
_atom_site_fract_x
_atom_site_fract_y
_atom_site_fract_z
Si Si1 0.393213 0.134775 0.393809
Si Si2 0.111182 0.606613 0.610894
Si Si3 0.807317 0.920353 0.058920
Si Si4 0.000000 0.051764 0.250000
Si Si5 0.236772 0.746427 0.621192
Si Si6 0.180099 0.623107 0.866179
Si Si7 0.119243 0.762598 0.950205
O O1 0.499575 0.117951 0.463761
O O2 0.330480 0.192818 0.256546
O O3 0.404872 0.208263 0.487618
O O4 0.347768 0.015055 0.372116
O O5 0.171250 0.704401 0.629705
O O6 0.114045 0.609617 0.714931
O O7 0.770712 0.858692 0.103239
O O8 0.823276 0.833429 0.999321
O O9 0.911180 0.976639 0.191607
O O10 0.723635 0.008124 0.946568
O O11 0.046387 0.131730 0.369565
O O12 0.107964 0.678748 0.859510
O O13 0.267773 0.703167 0.931152
#
# Coordination Sequence:
#
# PCOD8135391 Si02
#       7
#     8   8   8   4   8   8   8
#     4  11  23  40  62  94 123 161 208 255 306 374
#     4  11  23  39  62  91 126 161 205 257 306 365
#     4  10  23  41  63  89 125 165 208 251 310 371
#     4  10  22  40  62  94 118 156 214 258 294 372
#     4  11  23  43  64  89 124 169 200 259 315 361
#     4  10  19  38  61  88 124 163 197 250 303 369
#     4  10  20  37  62  88 124 159 200 250 312 356
#
# _framework density 19.843133999999999
#
# number of rings (size 3 to 8) (size 9 to 14) (size 15 to 20)
#    0.000    1.538    3.077    1.846    2.154    0.000 
#    2.769    0.769    0.000    0.000    0.000    0.000 
#    0.000    0.000    0.000    0.000    0.000    0.000 
#
# Total GULP energy -322406.556252 kJ/mol
# GULP energy per Si atom -12400.252164 kJ/mol
# Density = 1.979797 g / cm^3
# Si number density = 19.843134 Si / 1000 Ang^3
#
#
#
# Elastic Constant Matrix: (Units=GPa)
#
#
# Indices 1 2 3 4 5 6 
#
# 1 61.0437 42.0773 35.5976 0.0000 -4.9516 0.0000
# 2 42.0773 112.6606 33.8476 0.0000 -1.2844 0.0000
# 3 35.5976 33.8476 90.3388 0.0000 1.9933 0.0000
# 4 0.0000 0.0000 0.0000 33.6868 0.0000 -1.0101
# 5 -4.9516 -1.2844 1.9933 0.0000 27.0065 0.0000
# 6 0.0000 0.0000 0.0000 -1.0101 0.0000 33.0601
#
#
#
# Elastic Compliance Matrix: (Units=1/GPa)
#
#
# Indices 1 2 3 4 5 6 
#
# 1 0.026477 -0.007508 -0.007732 0.000000 0.005068 0.000000
# 2 -0.007508 0.012147 -0.001577 0.000000 -0.000683 0.000000
# 3 -0.007732 -0.001577 0.014764 0.000000 -0.002582 0.000000
# 4 0.000000 0.000000 0.000000 0.029712 0.000000 0.000908
# 5 0.005068 -0.000683 -0.002582 0.000000 0.038116 0.000000
# 6 0.000000 0.000000 0.000000 0.000908 0.000000 0.030276
#
#
# Mechanical properties :
#
#
# Convention : Reuss Voigt Hill
#
# Bulk Modulus (GPa) = 50.62544 54.12089 52.37317
# Shear Modulus (GPa) = 26.08103 28.91871 27.49987
#
# Velocity S-wave (km/s) = 3.62934 3.82169 3.72676
# Velocity P-wave (km/s) = 6.56742 6.84159 6.70591
#
# Compressibility (1/GPa) = 0.01975292
#
# Stress axis : x y z
#
# Youngs Moduli (GPa) = 37.76874 82.32818 67.73170
#
# Poissons Ratio (x) = 0.61812 0.52369
# Poissons Ratio (y) = 0.28357 0.10684
# Poissons Ratio (z) = 0.29202 0.12986
#
# Static dielectric constant tensor:
#      x y z
#    x 3.316040 0.000000 0.043120 
#    y 0.000000 3.879190 0.000000 
#    z 0.043120 0.000000 3.656620 
# 
# 
# High freq. dielectric constant tensor:
#      x y z
#    x 1.755020 0.000000 0.003190 
#    y 0.000000 1.790950 0.000000 
#    z 0.003190 0.000000 1.782710 
# 
# From -- ./inp_files/173133.got.cif
#   From: 2010.06.25/outbox.cif.g09.slc.cpg/sg15_87_cif.got.tgz:173133.got - 2010.06.28 07:06:18.
