data_PCOD8135620
_publ_section_title
;
Structure prediction by ZEFSAII (Michael W. Deem and Ramdas Pophale) SiO2 
 PCOD8135620
Probable space group: C 2/C
;
_chemical_formula_sum "Si O2"
_cell_formula_units_Z 48
_cell_length_a 10.150074
_cell_length_b 14.194172
_cell_length_c 23.793871
_cell_angle_alpha 90.000000
_cell_angle_beta 143.018546
_cell_angle_gamma 90.000000
_cell_volume 2062.152532
_symmetry_space_group_name_H-M "C 2/C"
_symmetry_group_IT_number 15
_symmetry_cell_setting 'monoclinic'
loop_
_space_group_symop_operation_xyz
x,y,z
-x,y,1/2-z
-x,-y,-z
x,-y,1/2+z
1/2+x,1/2+y,z
1/2-x,1/2+y,1/2-z
1/2-x,1/2-y,-z
1/2+x,1/2-y,1/2+z
loop_
_atom_site_type_symbol
_atom_site_label
_atom_site_fract_x
_atom_site_fract_y
_atom_site_fract_z
Si Si1 0.554675 0.865779 0.023175
Si Si2 0.477152 0.944189 0.675658
Si Si3 0.430064 0.135432 0.609327
Si Si4 0.843728 0.028008 0.143473
Si Si5 0.434151 0.337804 0.964651
Si Si6 0.629613 0.672734 0.183347
O O1 0.438283 0.856105 0.044884
O O2 0.586991 0.761242 0.008771
O O3 0.788860 0.920235 0.106729
O O4 0.393487 0.923025 0.926160
O O5 0.500000 0.962492 0.750000
O O6 0.233274 0.917316 0.569523
O O7 0.638931 0.859571 0.711247
O O8 0.553446 0.040897 0.671300
O O9 0.542494 0.227003 0.677529
O O10 0.182461 0.126890 0.547859
O O11 0.000000 0.030461 0.250000
O O12 0.958167 0.087467 0.133426
O O13 0.336051 0.313216 0.870571
#
# Coordination Sequence:
#
# PCOD8135620 Si02
#       6
#     8   8   8   8   8   8
#     4  10  21  37  62  86 111 156 201 233 287 349
#     4  10  23  35  57  89 116 145 197 242 283 338
#     4  11  19  39  62  80 116 158 186 232 295 348
#     4  11  21  35  59  90 117 145 194 248 291 332
#     4  10  19  39  60  80 111 157 194 229 282 360
#     4  10  20  38  59  82 112 153 195 236 283 350
#
# _framework density 23.276648000000002
#
# number of rings (size 3 to 8) (size 9 to 14) (size 15 to 20)
#    0.000    1.667    3.333    2.500    0.000    5.333 
#    0.000    0.000    0.000    5.000    0.000    0.000 
#    0.000    0.000    0.000    0.000    0.000    0.000 
#
# Total GULP energy -297425.821269 kJ/mol
# GULP energy per Si atom -12392.742553 kJ/mol
# Density = 2.322367 g / cm^3
# Si number density = 23.276648 Si / 1000 Ang^3
#
#
#
# Elastic Constant Matrix: (Units=GPa)
#
#
# Indices 1 2 3 4 5 6 
#
# 1 28.2213 23.4858 16.6695 0.0000 23.6551 0.0000
# 2 23.4858 146.3567 46.7829 0.0000 19.4809 0.0000
# 3 16.6695 46.7829 107.7289 0.0000 17.2102 0.0000
# 4 0.0000 0.0000 0.0000 29.9417 0.0000 8.9737
# 5 23.6551 19.4809 17.2102 0.0000 30.4864 0.0000
# 6 0.0000 0.0000 0.0000 8.9737 0.0000 32.2439
#
#
#
# Elastic Compliance Matrix: (Units=1/GPa)
#
#
# Indices 1 2 3 4 5 6 
#
# 1 0.107176 -0.006350 -0.001307 0.000000 -0.078364 0.000000
# 2 -0.006350 0.008651 -0.002944 0.000000 0.001061 0.000000
# 3 -0.001307 -0.002944 0.011322 0.000000 -0.003496 0.000000
# 4 0.000000 0.000000 0.000000 0.036438 0.000000 -0.010141
# 5 -0.078364 0.001061 -0.003496 0.000000 0.094902 0.000000
# 6 0.000000 0.000000 0.000000 -0.010141 0.000000 0.033836
#
#
# Mechanical properties :
#
#
# Convention : Reuss Voigt Hill
#
# Bulk Modulus (GPa) = 9.43871 50.68702 30.06286
# Shear Modulus (GPa) = 14.33316 31.55899 22.94607
#
# Velocity S-wave (km/s) = 2.48417 3.68614 3.14315
# Velocity P-wave (km/s) = 3.50599 6.31981 5.11038
#
# Compressibility (1/GPa) = 0.10594670
#
# Stress axis : x y z
#
# Youngs Moduli (GPa) = 9.33049 115.58800 88.32557
#
# Poissons Ratio (x) = 0.73396 0.11547
# Poissons Ratio (y) = 0.05925 0.26002
# Poissons Ratio (z) = 0.01220 0.34028
#
# Static dielectric constant tensor:
#      x y z
#    x 3.831280 0.000000 0.330210 
#    y 0.000000 4.524460 0.000000 
#    z 0.330210 0.000000 4.100030 
# 
# 
# High freq. dielectric constant tensor:
#      x y z
#    x 1.881720 0.000000 0.023980 
#    y 0.000000 1.934640 0.000000 
#    z 0.023980 0.000000 1.910380 
# 
# From -- ./inp_files/143720.got.cif
#   From: 2010.06.25/outbox.cif.g09.slc.cpg/sg15_72_cif.got.tgz:143720.got - 2010.06.28 07:06:18.
