data_PCOD8135520
_publ_section_title
;
Structure prediction by ZEFSAII (Michael W. Deem and Ramdas Pophale) SiO2 
 PCOD8135520
Probable space group: C 2/C
;
_chemical_formula_sum "Si O2"
_cell_formula_units_Z 60
_cell_length_a 25.891071
_cell_length_b 13.122450
_cell_length_c 17.158237
_cell_angle_alpha 90.000000
_cell_angle_beta 150.910361
_cell_angle_gamma 90.000000
_cell_volume 2834.212050
_symmetry_space_group_name_H-M "C 2/C"
_symmetry_group_IT_number 15
_symmetry_cell_setting 'monoclinic'
loop_
_space_group_symop_operation_xyz
x,y,z
-x,y,1/2-z
-x,-y,-z
x,-y,1/2+z
1/2+x,1/2+y,z
1/2-x,1/2+y,1/2-z
1/2-x,1/2-y,-z
1/2+x,1/2-y,1/2+z
loop_
_atom_site_type_symbol
_atom_site_label
_atom_site_fract_x
_atom_site_fract_y
_atom_site_fract_z
Si Si1 0.705898 0.637028 0.449546
Si Si2 0.336339 0.757170 0.680866
Si Si3 0.000000 0.936007 0.750000
Si Si4 0.687423 0.386754 0.747710
Si Si5 0.116454 0.524873 0.310246
Si Si6 0.309331 0.763437 0.371971
Si Si7 0.619340 0.974015 0.994146
Si Si8 0.028050 0.105206 0.912782
O O1 0.750000 0.750000 0.500000
O O2 0.604701 0.633592 0.374311
O O3 0.667122 0.606068 0.312411
O O4 0.797032 0.559927 0.601185
O O5 0.250000 0.750000 0.500000
O O6 0.379708 0.872912 0.736816
O O7 0.294962 0.732337 0.712814
O O8 0.419965 0.667447 0.778279
O O9 0.987139 0.004819 0.657240
O O10 0.712423 0.273339 0.746120
O O11 0.579869 0.428637 0.564394
O O12 0.791533 0.448863 0.859450
O O13 0.135842 0.554871 0.425437
O O14 0.997530 0.478715 0.143912
O O15 0.388139 0.681918 0.518327
O O16 0.367299 0.870965 0.439513
#
# Coordination Sequence:
#
# PCOD8135520 Si02
#       8
#     8   8   4   8   8   8   8   8
#     4  11  26  49  67  96 129 188 239 274 325 411
#     4  12  20  35  67 101 138 164 216 284 352 419
#     4  12  26  44  74  96 132 174 230 288 344 408
#     4   9  24  45  61  96 137 173 230 271 334 409
#     4  10  20  37  67  98 125 167 224 285 332 397
#     4  10  21  39  61  97 134 175 212 273 346 404
#     4  10  19  38  65  92 129 174 214 274 338 395
#     4  10  23  42  65 106 136 170 217 283 355 408
#
# _framework density 21.169905
#
# number of rings (size 3 to 8) (size 9 to 14) (size 15 to 20)
#    0.800    0.800    2.667    2.400    1.867    3.733 
#    4.800    0.667    0.000    0.000    0.000    0.000 
#    0.000    0.000    0.000    0.000    0.000    0.000 
#
# Total GULP energy -371791.510051 kJ/mol
# GULP energy per Si atom -12393.050335 kJ/mol
# Density = 2.112172 g / cm^3
# Si number density = 21.169905 Si / 1000 Ang^3
#
#
#
# Elastic Constant Matrix: (Units=GPa)
#
#
# Indices 1 2 3 4 5 6 
#
# 1 90.7907 31.7106 36.6444 0.0000 28.7169 0.0000
# 2 31.7106 96.6758 44.5525 0.0000 21.9581 0.0000
# 3 36.6444 44.5525 120.9167 0.0000 19.8986 0.0000
# 4 0.0000 0.0000 0.0000 42.2917 0.0000 8.4175
# 5 28.7169 21.9581 19.8986 0.0000 36.8737 0.0000
# 6 0.0000 0.0000 0.0000 8.4175 0.0000 30.0943
#
#
#
# Elastic Compliance Matrix: (Units=1/GPa)
#
#
# Indices 1 2 3 4 5 6 
#
# 1 0.015766 -0.001778 -0.002498 0.000000 -0.009871 0.000000
# 2 -0.001778 0.013734 -0.003735 0.000000 -0.004778 0.000000
# 3 -0.002498 -0.003735 0.010664 0.000000 -0.001585 0.000000
# 4 0.000000 0.000000 0.000000 0.025039 0.000000 -0.007004
# 5 -0.009871 -0.004778 -0.001585 0.000000 0.038508 0.000000
# 6 0.000000 0.000000 0.000000 -0.007004 0.000000 0.035188
#
#
# Mechanical properties :
#
#
# Convention : Reuss Voigt Hill
#
# Bulk Modulus (GPa) = 41.42316 59.35534 50.38925
# Shear Modulus (GPa) = 30.68071 34.88366 32.78218
#
# Velocity S-wave (km/s) = 3.81105 4.06371 3.93940
# Velocity P-wave (km/s) = 6.24299 7.07932 6.67427
#
# Compressibility (1/GPa) = 0.02414109
#
# Stress axis : x y z
#
# Youngs Moduli (GPa) = 63.42750 72.81431 93.77026
#
# Poissons Ratio (x) = 0.12946 0.23427
# Poissons Ratio (y) = 0.11277 0.35024
# Poissons Ratio (z) = 0.15847 0.27197
#
# Static dielectric constant tensor:
#      x y z
#    x 3.730120 0.000000 0.204090 
#    y 0.000000 3.699880 0.000000 
#    z 0.204090 0.000000 3.862170 
# 
# 
# High freq. dielectric constant tensor:
#      x y z
#    x 1.817800 0.000000 0.017530 
#    y 0.000000 1.823230 0.000000 
#    z 0.017530 0.000000 1.830830 
# 
# From -- ./inp_files/222572.got.cif
#   From: 2010.06.25/outbox.cif.g09.slc.cpg/sg15_112_cif.got.tgz:222572.got - 2010.06.28 07:06:18.
