data_PCOD8135080
_publ_section_title
;
Structure prediction by ZEFSAII (Michael W. Deem and Ramdas Pophale) SiO2 
 PCOD8135080
Probable space group: C 2/C
;
_chemical_formula_sum "Si O2"
_cell_formula_units_Z 52
_cell_length_a 16.519222
_cell_length_b 9.477674
_cell_length_c 30.814145
_cell_angle_alpha 90.000000
_cell_angle_beta 146.104512
_cell_angle_gamma 90.000000
_cell_volume 2690.458816
_symmetry_space_group_name_H-M "C 2/C"
_symmetry_group_IT_number 15
_symmetry_cell_setting 'monoclinic'
loop_
_space_group_symop_operation_xyz
x,y,z
-x,y,1/2-z
-x,-y,-z
x,-y,1/2+z
1/2+x,1/2+y,z
1/2-x,1/2+y,1/2-z
1/2-x,1/2-y,-z
1/2+x,1/2-y,1/2+z
loop_
_atom_site_type_symbol
_atom_site_label
_atom_site_fract_x
_atom_site_fract_y
_atom_site_fract_z
Si Si1 0.000000 0.171932 0.750000
Si Si2 0.539453 0.128118 0.349590
Si Si3 0.355326 0.434360 0.974360
Si Si4 0.408154 0.359807 0.904689
Si Si5 0.712523 0.935534 0.159640
Si Si6 0.419631 0.775018 0.886395
Si Si7 0.227716 0.453262 0.267021
O O1 0.970859 0.268080 0.695472
O O2 0.858151 0.075760 0.695362
O O3 0.703374 0.078347 0.431147
O O4 0.488843 0.206950 0.370040
O O5 0.440498 0.989150 0.298251
O O6 0.327490 0.429608 0.910382
O O7 0.425957 0.583244 0.021041
O O8 0.463446 0.304232 0.032100
O O9 0.399508 0.190700 0.901452
O O10 0.324711 0.412432 0.824661
O O11 0.758439 0.929979 0.230141
O O12 0.626766 0.079802 0.110975
O O13 0.273622 0.682776 0.815301
#
# Coordination Sequence:
#
# PCOD8135080 Si02
#       7
#     4   8   8   8   8   8   8
#     4  12  20  36  62  92 110 154 208 248 286 356
#     4  11  19  36  62  86 113 157 209 240 288 357
#     4  10  21  37  59  86 115 165 204 236 282 369
#     4  10  20  37  59  84 119 157 203 233 295 360
#     4  11  20  37  60  88 118 153 192 254 303 342
#     4  10  22  36  58  87 125 151 192 249 310 348
#     4  10  19  37  61  86 111 155 200 245 290 354
#
# _framework density 19.327558
#
# number of rings (size 3 to 8) (size 9 to 14) (size 15 to 20)
#    0.000    1.538    4.615    1.385    0.000    0.615 
#    0.000    8.462    0.000    0.000    0.000    0.000 
#    0.000    0.000    0.000    0.000    0.000    0.000 
#
# Total GULP energy -322370.670861 kJ/mol
# GULP energy per Si atom -12398.871956 kJ/mol
# Density = 1.928357 g / cm^3
# Si number density = 19.327558 Si / 1000 Ang^3
#
#
#
# Elastic Constant Matrix: (Units=GPa)
#
#
# Indices 1 2 3 4 5 6 
#
# 1 100.0445 46.0402 44.1344 0.0000 14.5731 0.0000
# 2 46.0402 107.8338 34.9304 0.0000 21.9969 0.0000
# 3 44.1344 34.9304 76.6255 0.0000 14.5683 0.0000
# 4 0.0000 0.0000 0.0000 30.9366 0.0000 1.0126
# 5 14.5731 21.9969 14.5683 0.0000 33.6393 0.0000
# 6 0.0000 0.0000 0.0000 1.0126 0.0000 28.9672
#
#
#
# Elastic Compliance Matrix: (Units=1/GPa)
#
#
# Indices 1 2 3 4 5 6 
#
# 1 0.014883 -0.004035 -0.006548 0.000000 -0.000973 0.000000
# 2 -0.004035 0.012960 -0.002512 0.000000 -0.005639 0.000000
# 3 -0.006548 -0.002512 0.018651 0.000000 -0.003598 0.000000
# 4 0.000000 0.000000 0.000000 0.032361 0.000000 -0.001131
# 5 -0.000973 -0.005639 -0.003598 0.000000 0.035394 0.000000
# 6 0.000000 0.000000 0.000000 -0.001131 0.000000 0.034561
#
#
# Mechanical properties :
#
#
# Convention : Reuss Voigt Hill
#
# Bulk Modulus (GPa) = 49.24899 59.41263 54.33081
# Shear Modulus (GPa) = 27.50761 29.33519 28.42140
#
# Velocity S-wave (km/s) = 3.77667 3.90011 3.83889
# Velocity P-wave (km/s) = 6.67489 7.14757 6.91527
#
# Compressibility (1/GPa) = 0.02030499
#
# Stress axis : x y z
#
# Youngs Moduli (GPa) = 67.19264 77.15965 53.61636
#
# Poissons Ratio (x) = 0.31131 0.35106
# Poissons Ratio (y) = 0.27110 0.13469
# Poissons Ratio (z) = 0.43996 0.19383
#
# Static dielectric constant tensor:
#      x y z
#    x 3.550200 0.000000 0.034960 
#    y 0.000000 3.595020 0.000000 
#    z 0.034960 0.000000 3.630190 
# 
# 
# High freq. dielectric constant tensor:
#      x y z
#    x 1.741760 0.000000 -0.007100 
#    y 0.000000 1.745210 0.000000 
#    z -0.007100 0.000000 1.759470 
# 
# From -- ./inp_files/209039.got.cif
#   From: 2010.06.25/outbox.cif.g09.slc.cpg/sg15_105_cif.got.tgz:209039.got - 2010.06.28 07:06:18.
