data_PCOD8135713
_publ_section_title
;
Structure prediction by ZEFSAII (Michael W. Deem and Ramdas Pophale) SiO2 
 PCOD8135713
Probable space group: C 2/C
;
_chemical_formula_sum "Si O2"
_cell_formula_units_Z 56
_cell_length_a 27.807985
_cell_length_b 19.709538
_cell_length_c 9.117008
_cell_angle_alpha 90.000000
_cell_angle_beta 31.951318
_cell_angle_gamma 90.000000
_cell_volume 2644.337728
_symmetry_space_group_name_H-M "C 2/C"
_symmetry_group_IT_number 15
_symmetry_cell_setting 'monoclinic'
loop_
_space_group_symop_operation_xyz
x,y,z
-x,y,1/2-z
-x,-y,-z
x,-y,1/2+z
1/2+x,1/2+y,z
1/2-x,1/2+y,1/2-z
1/2-x,1/2-y,-z
1/2+x,1/2-y,1/2+z
loop_
_atom_site_type_symbol
_atom_site_label
_atom_site_fract_x
_atom_site_fract_y
_atom_site_fract_z
Si Si1 0.561615 0.033269 0.955199
Si Si2 0.731209 0.848943 0.653616
Si Si3 0.883937 0.242757 0.672389
Si Si4 0.918388 0.209589 0.257463
Si Si5 0.835620 0.342348 0.358833
Si Si6 0.191092 0.911255 0.547310
Si Si7 0.260205 0.473212 0.391644
O O1 0.573118 0.114227 0.905114
O O2 0.659663 0.997625 0.696040
O O3 0.500000 0.016296 0.250000
O O4 0.500000 0.000000 0.000000
O O5 0.803837 0.787871 0.478537
O O6 0.641121 0.821664 0.798654
O O7 0.780467 0.908203 0.438449
O O8 0.707383 0.872138 0.879224
O O9 0.887429 0.206046 0.505743
O O10 0.976817 0.233028 0.522363
O O11 0.860100 0.263263 0.312420
O O12 0.900103 0.133427 0.243522
O O13 0.768114 0.356538 0.396886
O O14 0.173201 0.965871 0.724333
O O15 0.224110 0.953653 0.318386
#
# Coordination Sequence:
#
# PCOD8135713 Si02
#       7
#     8   8   8   8   8   8   8
#     4  11  22  37  56  91 129 164 211 264 321 389
#     4  10  19  39  64  94 125 168 215 255 331 397
#     4   9  20  37  66  94 125 168 209 271 321 388
#     4  10  20  40  63  95 131 165 220 270 324 380
#     4  10  22  38  61  92 131 169 210 265 331 396
#     4  11  22  41  63  93 125 176 217 268 324 391
#     4  11  22  38  64  88 126 174 217 263 330 392
#
# _framework density 21.177325
#
# number of rings (size 3 to 8) (size 9 to 14) (size 15 to 20)
#    0.000    1.714    1.429    4.714    2.000    0.000 
#    0.000    1.429    0.000    0.000    0.000    0.000 
#    0.000    0.000    0.000    0.000    0.000    0.000 
#
# Total GULP energy -346937.786379 kJ/mol
# GULP energy per Si atom -12390.635228 kJ/mol
# Density = 2.112912 g / cm^3
# Si number density = 21.177325 Si / 1000 Ang^3
#
#
#
# Elastic Constant Matrix: (Units=GPa)
#
#
# Indices 1 2 3 4 5 6 
#
# 1 99.6343 53.0934 31.5887 0.0000 6.6676 0.0000
# 2 53.0934 99.7814 11.1605 0.0000 -3.9290 0.0000
# 3 31.5887 11.1605 60.1180 0.0000 0.2128 0.0000
# 4 0.0000 0.0000 0.0000 32.4695 0.0000 -2.0942
# 5 6.6676 -3.9290 0.2128 0.0000 30.1299 0.0000
# 6 0.0000 0.0000 0.0000 -2.0942 0.0000 43.0580
#
#
#
# Elastic Compliance Matrix: (Units=1/GPa)
#
#
# Indices 1 2 3 4 5 6 
#
# 1 0.017298 -0.008560 -0.007483 0.000000 -0.004891 0.000000
# 2 -0.008560 0.014525 0.001788 0.000000 0.003776 0.000000
# 3 -0.007483 0.001788 0.020228 0.000000 0.001746 0.000000
# 4 0.000000 0.000000 0.000000 0.030895 0.000000 0.001503
# 5 -0.004891 0.003776 0.001746 0.000000 0.034752 0.000000
# 6 0.000000 0.000000 0.000000 0.001503 0.000000 0.023298
#
#
# Mechanical properties :
#
#
# Convention : Reuss Voigt Hill
#
# Bulk Modulus (GPa) = 42.47836 50.13543 46.30690
# Shear Modulus (GPa) = 28.19263 32.04422 30.11842
#
# Velocity S-wave (km/s) = 3.65261 3.89413 3.77530
# Velocity P-wave (km/s) = 6.15554 6.62906 6.39669
#
# Compressibility (1/GPa) = 0.02354140
#
# Stress axis : x y z
#
# Youngs Moduli (GPa) = 57.81119 68.84579 49.43745
#
# Poissons Ratio (x) = 0.58930 0.36992
# Poissons Ratio (y) = 0.49485 -0.08838
# Poissons Ratio (z) = 0.43258 -0.12308
#
# Static dielectric constant tensor:
#      x y z
#    x 3.801880 0.000000 0.006460 
#    y 0.000000 3.973350 0.000000 
#    z 0.006460 0.000000 3.629540 
# 
# 
# High freq. dielectric constant tensor:
#      x y z
#    x 1.826660 0.000000 0.009820 
#    y 0.000000 1.838890 0.000000 
#    z 0.009820 0.000000 1.805820 
# 
# From -- ./inp_files/70835.got.cif
#   From: 2010.06.25/outbox.cif.g09.slc.cpg/sg15_36_cif.got.tgz:70835.got - 2010.06.28 07:06:18.
