data_PCOD8135359
_publ_section_title
;
Structure prediction by ZEFSAII (Michael W. Deem and Ramdas Pophale) SiO2 
 PCOD8135359
Probable space group: C 2/C
;
_chemical_formula_sum "Si O2"
_cell_formula_units_Z 56
_cell_length_a 18.219589
_cell_length_b 18.071446
_cell_length_c 8.898209
_cell_angle_alpha 90.000000
_cell_angle_beta 119.026017
_cell_angle_gamma 90.000000
_cell_volume 2561.792618
_symmetry_space_group_name_H-M "C 2/C"
_symmetry_group_IT_number 15
_symmetry_cell_setting 'monoclinic'
loop_
_space_group_symop_operation_xyz
x,y,z
-x,y,1/2-z
-x,-y,-z
x,-y,1/2+z
1/2+x,1/2+y,z
1/2-x,1/2+y,1/2-z
1/2-x,1/2-y,-z
1/2+x,1/2-y,1/2+z
loop_
_atom_site_type_symbol
_atom_site_label
_atom_site_fract_x
_atom_site_fract_y
_atom_site_fract_z
Si Si1 0.753666 0.852026 0.658671
Si Si2 0.408080 0.420581 0.333767
Si Si3 0.500000 0.101111 0.750000
Si Si4 0.387698 0.132788 0.883085
Si Si5 0.784068 0.812690 0.354312
Si Si6 0.890299 0.537717 0.388161
Si Si7 0.500000 0.895973 0.750000
Si Si8 0.601616 0.426060 0.527389
O O1 0.779651 0.854062 0.510176
O O2 0.703860 0.775261 0.632481
O O3 0.690188 0.915784 0.643900
O O4 0.838299 0.863088 0.841258
O O5 0.360883 0.347480 0.341590
O O6 0.505377 0.406770 0.470143
O O7 0.374101 0.493938 0.381802
O O8 0.387476 0.430412 0.139244
O O9 0.428888 0.151648 0.759558
O O10 0.465465 0.048721 0.582476
O O11 0.303366 0.178069 0.821506
O O12 0.362491 0.046729 0.862207
O O13 0.452963 0.154942 0.079853
O O14 0.926009 0.557181 0.258339
#
# Coordination Sequence:
#
# PCOD8135359 Si02
#       8
#     8   8   4   8   8   8   4   8
#     4  11  25  43  60  90 128 170 215 257 313 376
#     4  10  22  43  71  98 124 161 213 270 322 377
#     4  10  19  38  60  86 126 156 201 246 295 370
#     4  11  20  37  61  89 123 160 202 254 303 367
#     4  11  25  43  60  90 128 170 215 257 313 376
#     4  11  20  37  61  89 123 160 202 254 303 367
#     4  10  23  34  60  98 118 156 205 246 311 370
#     4  10  22  43  71  98 124 161 213 270 322 377
#
# _framework density 21.859693
#
# number of rings (size 3 to 8) (size 9 to 14) (size 15 to 20)
#    0.000    1.429    1.429    5.143    2.000    2.286 
#    5.143    0.000    0.000    0.000    0.000    0.000 
#    0.000    0.000    0.000    0.000    0.000    0.000 
#
# Total GULP energy -347213.961027 kJ/mol
# GULP energy per Si atom -12400.498608 kJ/mol
# Density = 2.180994 g / cm^3
# Si number density = 21.859693 Si / 1000 Ang^3
#
#
#
# Elastic Constant Matrix: (Units=GPa)
#
#
# Indices 1 2 3 4 5 6 
#
# 1 108.5594 48.9910 36.2873 0.0000 -5.9877 0.0000
# 2 48.9910 60.6214 28.7137 0.0000 0.8949 0.0000
# 3 36.2873 28.7137 112.9822 0.0000 -2.4967 0.0000
# 4 0.0000 0.0000 0.0000 21.4770 0.0000 -0.2084
# 5 -5.9877 0.8949 -2.4967 0.0000 34.9423 0.0000
# 6 0.0000 0.0000 0.0000 -0.2084 0.0000 16.6477
#
#
#
# Elastic Compliance Matrix: (Units=1/GPa)
#
#
# Indices 1 2 3 4 5 6 
#
# 1 0.015129 -0.011362 -0.001911 0.000000 0.002747 0.000000
# 2 -0.011362 0.027310 -0.003355 0.000000 -0.002886 0.000000
# 3 -0.001911 -0.003355 0.010328 0.000000 0.000496 0.000000
# 4 0.000000 0.000000 0.000000 0.046567 0.000000 0.000583
# 5 0.002747 -0.002886 0.000496 0.000000 0.029199 0.000000
# 6 0.000000 0.000000 0.000000 0.000583 0.000000 0.060076
#
#
# Mechanical properties :
#
#
# Convention : Reuss Voigt Hill
#
# Bulk Modulus (GPa) = 51.25261 56.68301 53.96781
# Shear Modulus (GPa) = 21.89437 25.82480 23.85959
#
# Velocity S-wave (km/s) = 3.16822 3.44086 3.30735
# Velocity P-wave (km/s) = 6.07294 6.46318 6.27110
#
# Compressibility (1/GPa) = 0.01951120
#
# Stress axis : x y z
#
# Youngs Moduli (GPa) = 66.09654 36.61669 96.82095
#
# Poissons Ratio (x) = 0.41605 0.18501
# Poissons Ratio (y) = 0.75100 0.32485
# Poissons Ratio (z) = 0.12630 0.12285
#
# Static dielectric constant tensor:
#      x y z
#    x 4.045410 0.000000 -0.053820 
#    y 0.000000 3.559640 0.000000 
#    z -0.053820 0.000000 4.188860 
# 
# 
# High freq. dielectric constant tensor:
#      x y z
#    x 1.869370 0.000000 -0.002900 
#    y 0.000000 1.829030 0.000000 
#    z -0.002900 0.000000 1.873920 
# 
# From -- ./inp_files/50384.got.cif
#   From: 2010.06.25/outbox.cif.g09.slc.cpg/sg15_26_cif.got.tgz:50384.got - 2010.06.28 07:06:18.
