data_PCOD8135350
_publ_section_title
;
Structure prediction by ZEFSAII (Michael W. Deem and Ramdas Pophale) SiO2 
 PCOD8135350
Probable space group: C 2/C
;
_chemical_formula_sum "Si O2"
_cell_formula_units_Z 60
_cell_length_a 7.677276
_cell_length_b 27.207386
_cell_length_c 17.979243
_cell_angle_alpha 90.000000
_cell_angle_beta 44.131558
_cell_angle_gamma 90.000000
_cell_volume 2614.971149
_symmetry_space_group_name_H-M "C 2/C"
_symmetry_group_IT_number 15
_symmetry_cell_setting 'monoclinic'
loop_
_space_group_symop_operation_xyz
x,y,z
-x,y,1/2-z
-x,-y,-z
x,-y,1/2+z
1/2+x,1/2+y,z
1/2-x,1/2+y,1/2-z
1/2-x,1/2-y,-z
1/2+x,1/2-y,1/2+z
loop_
_atom_site_type_symbol
_atom_site_label
_atom_site_fract_x
_atom_site_fract_y
_atom_site_fract_z
Si Si1 0.307917 0.041464 0.971019
Si Si2 0.000000 0.178156 0.750000
Si Si3 0.395518 0.442147 0.480917
Si Si4 0.676867 0.724320 0.129779
Si Si5 0.730075 0.864219 0.632258
Si Si6 0.355520 0.257825 0.582721
Si Si7 0.628482 0.614672 0.135253
Si Si8 0.304097 0.582709 0.752601
O O1 0.038871 0.044836 0.013181
O O2 0.530810 0.060288 0.850234
O O3 0.315128 0.072529 0.046230
O O4 0.309148 0.982459 0.985348
O O5 0.834285 0.211982 0.855090
O O6 0.812347 0.142327 0.760361
O O7 0.239831 0.393469 0.550916
O O8 0.610239 0.431091 0.355688
O O9 0.500000 0.743252 0.250000
O O10 0.518590 0.737916 0.106516
O O11 0.752653 0.666849 0.117516
O O12 0.947092 0.751256 0.045738
O O13 0.500000 0.884088 0.750000
O O14 0.696336 0.807254 0.619478
O O15 0.962073 0.871940 0.615161
O O16 0.500000 0.593791 0.250000
O O17 0.500000 0.557863 0.750000
#
# Coordination Sequence:
#
# PCOD8135350 Si02
#       8
#     8   4   8   8   8   8   8   8
#     4  10  21  41  68  90 125 166 209 267 315 380
#     4  10  22  40  60  90 132 172 200 270 320 380
#     4  10  23  41  64  93 121 166 216 262 317 371
#     4   9  19  35  59  90 119 165 214 257 308 372
#     4  10  21  38  59  91 124 161 207 263 309 377
#     4  10  19  38  60  84 127 164 210 256 314 378
#     4   9  19  36  61  92 123 162 209 254 311 370
#     4  10  24  41  61  95 129 161 210 257 324 384
#
# _framework density 22.944803
#
# number of rings (size 3 to 8) (size 9 to 14) (size 15 to 20)
#    0.400    1.867    0.667    1.200    0.000    7.467 
#    4.800    1.333    0.000    0.000    0.000    0.000 
#    0.000    0.000    0.000    0.000    0.000    0.000 
#
# Total GULP energy -371710.353120 kJ/mol
# GULP energy per Si atom -12390.345104 kJ/mol
# Density = 2.289258 g / cm^3
# Si number density = 22.944803 Si / 1000 Ang^3
#
#
#
# Elastic Constant Matrix: (Units=GPa)
#
#
# Indices 1 2 3 4 5 6 
#
# 1 12.2219 17.2258 6.6676 0.0001 2.8100 0.0000
# 2 17.2258 140.4974 73.7601 0.0001 0.1008 0.0000
# 3 6.6676 73.7601 198.1536 0.0006 7.8774 -0.0004
# 4 0.0001 0.0001 0.0006 31.8092 -0.0002 -3.4088
# 5 2.8100 0.1008 7.8774 -0.0002 35.0513 0.0002
# 6 0.0000 0.0000 -0.0004 -3.4088 0.0002 12.5673
#
#
#
# Elastic Compliance Matrix: (Units=1/GPa)
#
#
# Indices 1 2 3 4 5 6 
#
# 1 0.101734 -0.013483 0.001936 0.000000 -0.008552 0.000000
# 2 -0.013483 0.010651 -0.003585 0.000000 0.001856 0.000000
# 3 0.001936 -0.003585 0.006379 0.000000 -0.001578 0.000000
# 4 0.000000 0.000000 0.000000 0.032379 0.000000 0.008783
# 5 -0.008552 0.001856 -0.001578 0.000000 0.029565 0.000000
# 6 0.000000 0.000000 0.000000 0.008783 0.000000 0.081954
#
#
# Mechanical properties :
#
#
# Convention : Reuss Voigt Hill
#
# Bulk Modulus (GPa) = 11.29951 60.68665 35.99308
# Shear Modulus (GPa) = 15.50741 32.76684 24.13713
#
# Velocity S-wave (km/s) = 2.60255 3.78308 3.24692
# Velocity P-wave (km/s) = 3.73716 6.75194 5.45688
#
# Compressibility (1/GPa) = 0.08849945
#
# Stress axis : x y z
#
# Youngs Moduli (GPa) = 9.82951 93.88407 156.77295
#
# Poissons Ratio (x) = 1.26587 -0.30347
# Poissons Ratio (y) = 0.13253 0.56202
# Poissons Ratio (z) = -0.01903 0.33657
#
# Static dielectric constant tensor:
#      x y z
#    x 3.771730 0.000000 0.052900 
#    y 0.000000 4.540210 0.000000 
#    z 0.052900 0.000000 4.127230 
# 
# 
# High freq. dielectric constant tensor:
#      x y z
#    x 1.881420 0.000000 0.004540 
#    y 0.000000 1.908390 0.000000 
#    z 0.004540 0.000000 1.910660 
# 
# From -- ./inp_files/234544.got.cif
#   From: 2010.06.25/outbox.cif.g09.slc.cpg/sg15_118_cif.got.tgz:234544.got - 2010.06.28 07:06:18.
