data_PCOD8135158
_publ_section_title
;
Structure prediction by ZEFSAII (Michael W. Deem and Ramdas Pophale) SiO2 
 PCOD8135158
Probable space group: C 2/C
;
_chemical_formula_sum "Si O2"
_cell_formula_units_Z 60
_cell_length_a 15.973798
_cell_length_b 11.317929
_cell_length_c 24.830945
_cell_angle_alpha 90.000000
_cell_angle_beta 43.953296
_cell_angle_gamma 90.000000
_cell_volume 3115.823059
_symmetry_space_group_name_H-M "C 2/C"
_symmetry_group_IT_number 15
_symmetry_cell_setting 'monoclinic'
loop_
_space_group_symop_operation_xyz
x,y,z
-x,y,1/2-z
-x,-y,-z
x,-y,1/2+z
1/2+x,1/2+y,z
1/2-x,1/2+y,1/2-z
1/2-x,1/2-y,-z
1/2+x,1/2-y,1/2+z
loop_
_atom_site_type_symbol
_atom_site_label
_atom_site_fract_x
_atom_site_fract_y
_atom_site_fract_z
Si Si1 0.837794 0.067235 0.654162
Si Si2 0.548528 0.289645 0.012065
Si Si3 0.912254 0.395677 0.184899
Si Si4 0.440168 0.977230 0.971315
Si Si5 0.763039 0.537434 0.401032
Si Si6 0.000000 0.488876 0.750000
Si Si7 0.241238 0.110145 0.008361
Si Si8 0.016455 0.842582 0.902630
O O1 0.734574 0.107109 0.744105
O O2 0.948338 0.159277 0.599683
O O3 0.792763 0.057421 0.613848
O O4 0.875824 0.934974 0.653420
O O5 0.586137 0.162176 0.017049
O O6 0.671430 0.362473 0.961186
O O7 0.502836 0.296743 0.970932
O O8 0.959504 0.267544 0.146520
O O9 0.960159 0.491149 0.119846
O O10 0.961779 0.423124 0.220519
O O11 0.500000 0.000000 0.000000
O O12 0.314612 0.054972 0.025376
O O13 0.809778 0.458505 0.428996
O O14 0.886079 0.593854 0.318963
O O15 0.099183 0.084587 0.066785
O O16 0.250000 0.250000 0.000000
#
# Coordination Sequence:
#
# PCOD8135158 Si02
#       8
#     8   8   8   8   8   4   8   8
#     4  10  22  37  65  92 125 167 212 261 318 382
#     4  11  21  40  65  92 125 165 217 258 312 394
#     4  11  23  39  62  93 128 163 214 268 320 376
#     4  12  25  40  61  95 127 166 210 264 330 373
#     4  10  19  37  63  91 118 164 214 256 312 383
#     4  10  20  40  58  94 124 162 214 264 318 366
#     4  12  20  37  63  89 121 160 214 265 306 373
#     4  11  20  42  64  92 123 170 216 263 317 387
#
# _framework density 19.256549
#
# number of rings (size 3 to 8) (size 9 to 14) (size 15 to 20)
#    0.000    1.067    6.667    0.800    1.867    0.533 
#    0.000    0.000    0.000    0.000    0.000    0.000 
#    0.000    0.000    0.000    0.000    0.000    0.000 
#
# Total GULP energy -371694.499302 kJ/mol
# GULP energy per Si atom -12389.816643 kJ/mol
# Density = 1.921272 g / cm^3
# Si number density = 19.256549 Si / 1000 Ang^3
#
#
#
# Elastic Constant Matrix: (Units=GPa)
#
#
# Indices 1 2 3 4 5 6 
#
# 1 107.7885 41.4369 47.5424 0.0000 -5.0572 0.0000
# 2 41.4369 113.9200 54.2421 0.0000 -7.3548 0.0000
# 3 47.5424 54.2421 130.9127 0.0000 -23.5795 0.0000
# 4 0.0000 0.0000 0.0000 18.7056 0.0000 -4.4004
# 5 -5.0572 -7.3548 -23.5795 0.0000 36.4185 0.0000
# 6 0.0000 0.0000 0.0000 -4.4004 0.0000 26.8216
#
#
#
# Elastic Compliance Matrix: (Units=1/GPa)
#
#
# Indices 1 2 3 4 5 6 
#
# 1 0.011753 -0.002765 -0.003316 0.000000 -0.001073 0.000000
# 2 -0.002765 0.011608 -0.003908 0.000000 -0.000570 0.000000
# 3 -0.003316 -0.003908 0.011588 0.000000 0.006253 0.000000
# 4 0.000000 0.000000 0.000000 0.055606 0.000000 0.009123
# 5 -0.001073 -0.000570 0.006253 0.000000 0.031243 0.000000
# 6 0.000000 0.000000 0.000000 0.009123 0.000000 0.038780
#
#
# Mechanical properties :
#
#
# Convention : Reuss Voigt Hill
#
# Bulk Modulus (GPa) = 66.79639 71.00712 68.90175
# Shear Modulus (GPa) = 26.94743 30.34911 28.64827
#
# Velocity S-wave (km/s) = 3.74490 3.97425 3.86128
# Velocity P-wave (km/s) = 7.31177 7.61668 7.46578
#
# Compressibility (1/GPa) = 0.01497087
#
# Stress axis : x y z
#
# Youngs Moduli (GPa) = 85.08759 86.14795 86.29397
#
# Poissons Ratio (x) = 0.23824 0.28611
# Poissons Ratio (y) = 0.23531 0.33723
# Poissons Ratio (z) = 0.28211 0.33666
#
# Static dielectric constant tensor:
#      x y z
#    x 3.794750 0.000000 -0.369210 
#    y 0.000000 -6.675000 0.000000 
#    z -0.369210 0.000000 3.766150 
# 
# 
# High freq. dielectric constant tensor:
#      x y z
#    x 1.759180 0.000000 -0.016540 
#    y 0.000000 1.736370 0.000000 
#    z -0.016540 0.000000 1.744550 
# 
# From -- ./inp_files/273848.got.cif
#   From: 2010.06.25/outbox.cif.g09.slc.cpg/sg15_137_cif.got.tgz:273848.got - 2010.06.28 07:06:18.
