data_PCOD8135803
_publ_section_title
;
Structure prediction by ZEFSAII (Michael W. Deem and Ramdas Pophale) SiO2 
 PCOD8135803
Probable space group: C 2/C
;
_chemical_formula_sum "Si O2"
_cell_formula_units_Z 60
_cell_length_a 11.741441
_cell_length_b 16.311089
_cell_length_c 27.934227
_cell_angle_alpha 90.000000
_cell_angle_beta 32.835185
_cell_angle_gamma 90.000000
_cell_volume 2900.814706
_symmetry_space_group_name_H-M "C 2/C"
_symmetry_group_IT_number 15
_symmetry_cell_setting 'monoclinic'
loop_
_space_group_symop_operation_xyz
x,y,z
-x,y,1/2-z
-x,-y,-z
x,-y,1/2+z
1/2+x,1/2+y,z
1/2-x,1/2+y,1/2-z
1/2-x,1/2-y,-z
1/2+x,1/2-y,1/2+z
loop_
_atom_site_type_symbol
_atom_site_label
_atom_site_fract_x
_atom_site_fract_y
_atom_site_fract_z
Si Si1 0.227815 0.439984 0.264729
Si Si2 0.562980 0.217400 0.868000
Si Si3 0.000000 0.004175 0.250000
Si Si4 0.225607 0.850854 0.553420
Si Si5 0.789555 0.343755 0.850835
Si Si6 0.860126 0.569427 0.418845
Si Si7 0.421718 0.927446 0.562344
Si Si8 0.985419 0.014139 0.093137
O O1 0.173225 0.344229 0.292058
O O2 0.414820 0.449819 0.236665
O O3 0.318866 0.455303 0.179299
O O4 0.027801 0.499970 0.343008
O O5 0.475314 0.292541 0.867346
O O6 0.706272 0.254758 0.861127
O O7 0.358932 0.170916 0.959657
O O8 0.193367 0.058338 0.164993
O O9 0.386029 0.847908 0.541453
O O10 0.138207 0.943510 0.578421
O O11 0.846684 0.352279 0.887489
O O12 0.623680 0.414196 0.898152
O O13 0.000000 0.366565 0.750000
O O14 0.623843 0.534942 0.505802
O O15 0.919838 0.597714 0.451501
O O16 0.500000 0.000000 0.500000
#
# Coordination Sequence:
#
# PCOD8135803 Si02
#       8
#     8   8   4   8   8   8   8   8
#     4  11  20  37  64  99 125 166 223 275 313 393
#     4  10  23  37  65  90 134 171 214 261 343 399
#     4  10  20  30  60  94 114 150 202 270 312 352
#     4  10  19  40  61  94 123 174 209 267 334 389
#     4  11  24  42  62  93 132 177 214 269 333 402
#     4  11  22  39  67  95 123 168 225 269 322 383
#     4  11  19  35  63  95 124 153 215 272 310 377
#     4  11  20  39  69  92 127 163 224 278 318 382
#
# _framework density 20.683844000000001
#
# number of rings (size 3 to 8) (size 9 to 14) (size 15 to 20)
#    0.000    1.333    5.333    1.200    0.933    0.000 
#    0.000    0.667    2.933    0.000    0.000    0.000 
#    0.000    0.000    0.000    0.000    0.000    0.000 
#
# Total GULP energy -371655.657728 kJ/mol
# GULP energy per Si atom -12388.521924 kJ/mol
# Density = 2.063677 g / cm^3
# Si number density = 20.683844 Si / 1000 Ang^3
#
#
#
# Elastic Constant Matrix: (Units=GPa)
#
#
# Indices 1 2 3 4 5 6 
#
# 1 97.2048 27.8613 10.2036 -0.0054 6.6418 0.0112
# 2 27.8613 74.8117 18.6156 0.0041 6.6997 -0.0035
# 3 10.2036 18.6156 95.5625 0.0207 -2.6533 -0.0004
# 4 -0.0054 0.0041 0.0207 25.6937 -0.0038 2.7985
# 5 6.6418 6.6997 -2.6533 -0.0038 27.8192 -0.0060
# 6 0.0112 -0.0035 -0.0004 2.7985 -0.0060 25.9346
#
#
#
# Elastic Compliance Matrix: (Units=1/GPa)
#
#
# Indices 1 2 3 4 5 6 
#
# 1 0.011624 -0.004037 -0.000506 0.000004 -0.001851 -0.000006
# 2 -0.004037 0.015831 -0.002739 -0.000002 -0.003110 0.000003
# 3 -0.000506 -0.002739 0.011103 -0.000008 0.001839 0.000001
# 4 0.000004 -0.000002 -0.000008 0.039383 0.000003 -0.004250
# 5 -0.001851 -0.003110 0.001839 0.000003 0.037313 0.000009
# 6 -0.000006 0.000003 0.000001 -0.004250 0.000009 0.039017
#
#
# Mechanical properties :
#
#
# Convention : Reuss Voigt Hill
#
# Bulk Modulus (GPa) = 41.67905 42.32666 42.00286
# Shear Modulus (GPa) = 28.27520 29.94942 29.11231
#
# Velocity S-wave (km/s) = 3.70133 3.80934 3.75572
# Velocity P-wave (km/s) = 6.20167 6.31317 6.25767
#
# Compressibility (1/GPa) = 0.02399287
#
# Stress axis : x y z
#
# Youngs Moduli (GPa) = 86.02596 63.16893 90.06551
#
# Poissons Ratio (x) = 0.25504 0.04558
# Poissons Ratio (y) = 0.34732 0.24669
# Poissons Ratio (z) = 0.04354 0.17302
#
# Static dielectric constant tensor:
#      x y z
#    x 4.109240 0.000000 -0.044860 
#    y 0.000000 3.576150 0.000000 
#    z -0.044860 0.000000 3.539980 
# 
# 
# High freq. dielectric constant tensor:
#      x y z
#    x 1.812500 0.000000 -0.014970 
#    y 0.000000 1.773370 0.000000 
#    z -0.014970 0.000000 1.817940 
# 
# From -- ./inp_files/293537.got.cif
#   From: 2010.06.25/outbox.cif.g09.slc.cpg/sg15_147_cif.got.tgz:293537.got - 2010.06.28 07:06:18.
