data_PCOD8135268
_publ_section_title
;
Structure prediction by ZEFSAII (Michael W. Deem and Ramdas Pophale) SiO2 
 PCOD8135268
Probable space group: C 2/C
;
_chemical_formula_sum "Si O2"
_cell_formula_units_Z 48
_cell_length_a 21.858162
_cell_length_b 19.444132
_cell_length_c 10.809763
_cell_angle_alpha 90.000000
_cell_angle_beta 149.438583
_cell_angle_gamma 90.000000
_cell_volume 2336.020224
_symmetry_space_group_name_H-M "C 2/C"
_symmetry_group_IT_number 15
_symmetry_cell_setting 'monoclinic'
loop_
_space_group_symop_operation_xyz
x,y,z
-x,y,1/2-z
-x,-y,-z
x,-y,1/2+z
1/2+x,1/2+y,z
1/2-x,1/2+y,1/2-z
1/2-x,1/2-y,-z
1/2+x,1/2-y,1/2+z
loop_
_atom_site_type_symbol
_atom_site_label
_atom_site_fract_x
_atom_site_fract_y
_atom_site_fract_z
Si Si1 0.194728 0.603987 0.605157
Si Si2 0.035072 0.052126 0.449812
Si Si3 0.504918 0.928083 0.573237
Si Si4 0.073476 0.323145 0.489628
Si Si5 0.579618 0.301559 0.711848
Si Si6 0.224927 0.255166 0.256860
O O1 0.133438 0.588634 0.632003
O O2 0.196616 0.687714 0.601795
O O3 0.100307 0.569301 0.349051
O O4 0.322542 0.568028 0.805121
O O5 0.000000 0.025036 0.250000
O O6 0.961279 0.120186 0.353766
O O7 0.000000 0.000000 0.500000
O O8 0.559728 0.869018 0.583974
O O9 0.500000 0.000000 0.500000
O O10 0.212590 0.311889 0.695734
O O11 0.000000 0.359157 0.250000
O O12 0.028166 0.245283 0.428191
O O13 0.608637 0.276750 0.622308
O O14 0.694591 0.293741 0.000144
#
# Coordination Sequence:
#
# PCOD8135268 Si02
#       6
#     8   8   8   8   8   8
#     4  11  24  45  66  93 136 178 220 288 341 398
#     4  12  26  46  71 101 140 181 227 286 355 422
#     4  11  27  43  63  95 137 184 223 274 343 409
#     4  10  20  37  65  96 123 172 227 275 330 402
#     4  10  19  39  66  98 128 172 224 275 340 410
#     4  10  19  37  71  97 128 173 229 280 338 405
#
# _framework density 20.547768000000001
#
# number of rings (size 3 to 8) (size 9 to 14) (size 15 to 20)
#    0.000    1.333    5.000    0.500    4.667    2.000 
#    0.000    0.000    0.000    0.000    0.000    0.000 
#    0.000    0.000    0.000    0.000    0.000    0.000 
#
# Total GULP energy -297432.742852 kJ/mol
# GULP energy per Si atom -12393.030952 kJ/mol
# Density = 2.050100 g / cm^3
# Si number density = 20.547768 Si / 1000 Ang^3
#
#
#
# Elastic Constant Matrix: (Units=GPa)
#
#
# Indices 1 2 3 4 5 6 
#
# 1 135.8051 49.8379 43.3971 0.0000 15.3482 0.0000
# 2 49.8379 102.1502 27.9593 0.0000 -5.6544 0.0000
# 3 43.3971 27.9593 68.4241 0.0000 10.3880 0.0000
# 4 0.0000 0.0000 0.0000 22.2748 0.0000 -4.9443
# 5 15.3482 -5.6544 10.3880 0.0000 33.0325 0.0000
# 6 0.0000 0.0000 0.0000 -4.9443 0.0000 46.4711
#
#
#
# Elastic Compliance Matrix: (Units=1/GPa)
#
#
# Indices 1 2 3 4 5 6 
#
# 1 0.010873 -0.004327 -0.004462 0.000000 -0.004390 0.000000
# 2 -0.004327 0.013136 -0.003434 0.000000 0.005339 0.000000
# 3 -0.004462 -0.003434 0.019556 0.000000 -0.004665 0.000000
# 4 0.000000 0.000000 0.000000 0.045980 0.000000 0.004892
# 5 -0.004390 0.005339 -0.004665 0.000000 0.034694 0.000000
# 6 0.000000 0.000000 0.000000 0.004892 0.000000 0.022039
#
#
# Mechanical properties :
#
#
# Convention : Reuss Voigt Hill
#
# Bulk Modulus (GPa) = 52.30087 60.97421 56.63754
# Shear Modulus (GPa) = 28.23335 32.70137 30.46736
#
# Velocity S-wave (km/s) = 3.71082 3.99366 3.85484
# Velocity P-wave (km/s) = 6.62335 7.14175 6.88743
#
# Compressibility (1/GPa) = 0.01912014
#
# Stress axis : x y z
#
# Youngs Moduli (GPa) = 91.96949 76.12760 51.13548
#
# Poissons Ratio (x) = 0.32938 0.22816
# Poissons Ratio (y) = 0.39792 0.17560
# Poissons Ratio (z) = 0.41035 0.26142
#
# Static dielectric constant tensor:
#      x y z
#    x 4.164580 0.000000 0.089750 
#    y 0.000000 3.414690 0.000000 
#    z 0.089750 0.000000 3.654020 
# 
# 
# High freq. dielectric constant tensor:
#      x y z
#    x 1.826940 0.000000 0.015140 
#    y 0.000000 1.792180 0.000000 
#    z 0.015140 0.000000 1.784670 
# 
# From -- ./inp_files/119496.got.cif
#   From: 2010.06.25/outbox.cif.g09.slc.cpg/sg15_60_cif.got.tgz:119496.got - 2010.06.28 07:06:18.
