data_PCOD8135592
_publ_section_title
;
Structure prediction by ZEFSAII (Michael W. Deem and Ramdas Pophale) SiO2 
 PCOD8135592
Probable space group: C 2/C
;
_chemical_formula_sum "Si O2"
_cell_formula_units_Z 60
_cell_length_a 9.156165
_cell_length_b 10.344997
_cell_length_c 29.760866
_cell_angle_alpha 90.000000
_cell_angle_beta 87.138742
_cell_angle_gamma 90.000000
_cell_volume 2815.449798
_symmetry_space_group_name_H-M "C 2/C"
_symmetry_group_IT_number 15
_symmetry_cell_setting 'monoclinic'
loop_
_space_group_symop_operation_xyz
x,y,z
-x,y,1/2-z
-x,-y,-z
x,-y,1/2+z
1/2+x,1/2+y,z
1/2-x,1/2+y,1/2-z
1/2-x,1/2-y,-z
1/2+x,1/2-y,1/2+z
loop_
_atom_site_type_symbol
_atom_site_label
_atom_site_fract_x
_atom_site_fract_y
_atom_site_fract_z
Si Si1 0.500000 0.427560 0.250000
Si Si2 0.519953 0.311716 0.895444
Si Si3 0.719203 0.017300 0.805156
Si Si4 0.511518 0.237983 0.701773
Si Si5 0.660353 0.265125 0.317953
Si Si6 0.318574 0.784393 0.583673
Si Si7 0.988064 0.055833 0.549433
Si Si8 0.715322 0.067189 0.907158
O O1 0.640950 0.503182 0.229268
O O2 0.543665 0.343920 0.292175
O O3 0.529982 0.326578 0.840690
O O4 0.356320 0.286129 0.914423
O O5 0.578870 0.444447 0.916588
O O6 0.608624 0.188630 0.911650
O O7 0.638779 0.881630 0.802760
O O8 0.770902 0.043380 0.855440
O O9 0.605221 0.123782 0.790343
O O10 0.500000 0.315468 0.750000
O O11 0.674141 0.182720 0.691976
O O12 0.619144 0.273691 0.370835
O O13 0.384220 0.682973 0.546822
O O14 0.367146 0.934540 0.575133
O O15 0.147098 0.099951 0.563858
O O16 0.000000 0.000000 0.500000
#
# Coordination Sequence:
#
# PCOD8135592 Si02
#       8
#     4   8   8   8   8   8   8   8
#     4  12  22  30  52  84 108 148 202 234 282 340
#     4   9  21  39  62  88 119 162 202 243 302 360
#     4  10  22  37  55  80 115 155 197 246 289 341
#     4  10  19  39  57  80 119 156 199 246 289 342
#     4  10  22  36  54  80 113 155 195 240 290 341
#     4   9  20  41  60  82 120 158 196 243 304 356
#     4  11  23  40  64  93 123 153 197 256 312 370
#     4   9  20  41  61  84 121 157 197 248 299 359
#
# _framework density 21.310981999999999
#
# number of rings (size 3 to 8) (size 9 to 14) (size 15 to 20)
#    0.000    2.133    1.333    1.600    1.867    3.733 
#    0.000    8.000    0.000    0.000    0.000    0.000 
#    0.000    0.000    0.000    0.000    0.000    0.000 
#
# Total GULP energy -371805.668781 kJ/mol
# GULP energy per Si atom -12393.522293 kJ/mol
# Density = 2.126248 g / cm^3
# Si number density = 21.310982 Si / 1000 Ang^3
#
#
#
# Elastic Constant Matrix: (Units=GPa)
#
#
# Indices 1 2 3 4 5 6 
#
# 1 53.4572 27.9964 11.8486 0.0000 6.7462 0.0000
# 2 27.9964 105.2640 23.0269 0.0000 -5.4810 0.0000
# 3 11.8486 23.0269 67.0231 0.0000 1.7658 0.0000
# 4 0.0000 0.0000 0.0000 29.0968 0.0000 -8.9460
# 5 6.7462 -5.4810 1.7658 0.0000 22.9143 0.0000
# 6 0.0000 0.0000 0.0000 -8.9460 0.0000 7.1808
#
#
#
# Elastic Compliance Matrix: (Units=1/GPa)
#
#
# Indices 1 2 3 4 5 6 
#
# 1 0.023427 -0.006274 -0.001768 0.000000 -0.008262 0.000000
# 2 -0.006274 0.012126 -0.003189 0.000000 0.004993 0.000000
# 3 -0.001768 -0.003189 0.016368 0.000000 -0.001503 0.000000
# 4 0.000000 0.000000 0.000000 0.055705 0.000000 0.069399
# 5 -0.008262 0.004993 -0.001503 0.000000 0.047383 0.000000
# 6 0.000000 0.000000 0.000000 0.069399 0.000000 0.225720
#
#
# Mechanical properties :
#
#
# Convention : Reuss Voigt Hill
#
# Bulk Modulus (GPa) = 33.94528 39.05423 36.49976
# Shear Modulus (GPa) = 12.10623 22.69654 17.40138
#
# Velocity S-wave (km/s) = 2.38602 3.26700 2.86063
# Velocity P-wave (km/s) = 4.85324 5.70935 5.29861
#
# Compressibility (1/GPa) = 0.02945917
#
# Stress axis : x y z
#
# Youngs Moduli (GPa) = 42.68592 82.46674 61.09519
#
# Poissons Ratio (x) = 0.51740 0.10803
# Poissons Ratio (y) = 0.26781 0.19480
# Poissons Ratio (z) = 0.07548 0.26295
#
# Static dielectric constant tensor:
#      x y z
#    x 3.664420 0.000000 0.125920 
#    y 0.000000 3.951930 0.000000 
#    z 0.125920 0.000000 3.879050 
# 
# 
# High freq. dielectric constant tensor:
#      x y z
#    x 1.823240 0.000000 0.009700 
#    y 0.000000 1.841740 0.000000 
#    z 0.009700 0.000000 1.830930 
# 
# From -- ./inp_files/307114.got.cif
#   From: 2010.06.25/outbox.cif.g09.slc.cpg/sg15_154_cif.got.tgz:307114.got - 2010.06.28 07:06:18.
