data_PCOD8135264
_publ_section_title
;
Structure prediction by ZEFSAII (Michael W. Deem and Ramdas Pophale) SiO2 
 PCOD8135264
Probable space group: C 2/C
;
_chemical_formula_sum "Si O2"
_cell_formula_units_Z 48
_cell_length_a 20.035708
_cell_length_b 8.931212
_cell_length_c 15.163974
_cell_angle_alpha 90.000000
_cell_angle_beta 125.281941
_cell_angle_gamma 90.000000
_cell_volume 2215.074777
_symmetry_space_group_name_H-M "C 2/C"
_symmetry_group_IT_number 15
_symmetry_cell_setting 'monoclinic'
loop_
_space_group_symop_operation_xyz
x,y,z
-x,y,1/2-z
-x,-y,-z
x,-y,1/2+z
1/2+x,1/2+y,z
1/2-x,1/2+y,1/2-z
1/2-x,1/2-y,-z
1/2+x,1/2-y,1/2+z
loop_
_atom_site_type_symbol
_atom_site_label
_atom_site_fract_x
_atom_site_fract_y
_atom_site_fract_z
Si Si1 0.606205 0.478551 0.008857
Si Si2 0.845102 0.613796 0.802752
Si Si3 0.070529 0.608972 0.241027
Si Si4 0.703532 0.564001 0.248170
Si Si5 0.999486 0.246660 0.515763
Si Si6 0.595324 0.567389 0.815437
O O1 0.568429 0.313785 0.999854
O O2 0.640049 0.494311 0.934634
O O3 0.679528 0.519005 0.130264
O O4 0.534703 0.602563 0.959447
O O5 0.863013 0.520984 0.726239
O O6 0.792224 0.511793 0.831041
O O7 0.789955 0.757503 0.735868
O O8 0.929624 0.662876 0.911729
O O9 0.109414 0.753274 0.319530
O O10 0.000000 0.542552 0.250000
O O11 0.038377 0.647051 0.118605
O O12 0.632651 0.505945 0.257353
O O13 0.500000 0.527097 0.750000
#
# Coordination Sequence:
#
# PCOD8135264 Si02
#       6
#     8   8   8   8   8   8
#     4  10  19  37  69  99 122 169 212 263 318 385
#     4  11  25  41  62  89 133 175 208 264 328 367
#     4  11  21  39  65  98 128 159 218 272 308 385
#     4  11  24  43  62  93 136 169 213 265 324 381
#     4  10  19  39  66  97 125 164 214 262 324 377
#     4  11  19  38  70  95 127 162 215 263 318 382
#
# _framework density 21.669695999999998
#
# number of rings (size 3 to 8) (size 9 to 14) (size 15 to 20)
#    0.000    1.333    5.000    3.500    0.000    2.000 
#    3.000    3.333    0.000    0.000    0.000    0.000 
#    0.000    0.000    0.000    0.000    0.000    0.000 
#
# Total GULP energy -297568.228435 kJ/mol
# GULP energy per Si atom -12398.676185 kJ/mol
# Density = 2.162038 g / cm^3
# Si number density = 21.669696 Si / 1000 Ang^3
#
#
#
# Elastic Constant Matrix: (Units=GPa)
#
#
# Indices 1 2 3 4 5 6 
#
# 1 107.2860 72.4896 26.4045 0.0000 -21.2034 0.0000
# 2 72.4896 125.3145 27.3518 0.0000 -7.0869 0.0000
# 3 26.4045 27.3518 82.5318 0.0000 -19.9607 0.0000
# 4 0.0000 0.0000 0.0000 24.7306 0.0000 -2.3511
# 5 -21.2034 -7.0869 -19.9607 0.0000 24.8024 0.0000
# 6 0.0000 0.0000 0.0000 -2.3511 0.0000 37.4896
#
#
#
# Elastic Compliance Matrix: (Units=1/GPa)
#
#
# Indices 1 2 3 4 5 6 
#
# 1 0.018769 -0.010236 0.000696 0.000000 0.013681 0.000000
# 2 -0.010236 0.014185 -0.003182 0.000000 -0.007258 0.000000
# 3 0.000696 -0.003182 0.015983 0.000000 0.012549 0.000000
# 4 0.000000 0.000000 0.000000 0.040678 0.000000 0.002551
# 5 0.013681 -0.007258 0.012549 0.000000 0.060040 0.000000
# 6 0.000000 0.000000 0.000000 0.002551 0.000000 0.026834
#
#
# Mechanical properties :
#
#
# Convention : Reuss Voigt Hill
#
# Bulk Modulus (GPa) = 42.56153 63.06935 52.81544
# Shear Modulus (GPa) = 23.83635 29.99696 26.91665
#
# Velocity S-wave (km/s) = 3.32020 3.72463 3.52821
# Velocity P-wave (km/s) = 5.86362 6.90400 6.40497
#
# Compressibility (1/GPa) = 0.02349540
#
# Stress axis : x y z
#
# Youngs Moduli (GPa) = 53.27867 70.49819 62.56525
#
# Poissons Ratio (x) = 0.72158 -0.04356
# Poissons Ratio (y) = 0.54533 0.19906
# Poissons Ratio (z) = -0.03709 0.22430
#
# Static dielectric constant tensor:
#      x y z
#    x 3.848450 0.000000 -0.189460 
#    y 0.000000 4.123390 0.000000 
#    z -0.189460 0.000000 3.736840 
# 
# 
# High freq. dielectric constant tensor:
#      x y z
#    x 1.843730 0.000000 -0.010020 
#    y 0.000000 1.853760 0.000000 
#    z -0.010020 0.000000 1.828000 
# 
# From -- ./inp_files/166389.got.cif
#   From: 2010.06.25/outbox.cif.g09.slc.cpg/sg15_84_cif.got.tgz:166389.got - 2010.06.28 07:06:18.
