data_PCOD8135776
_publ_section_title
;
Structure prediction by ZEFSAII (Michael W. Deem and Ramdas Pophale) SiO2 
 PCOD8135776
Probable space group: C 2/C
;
_chemical_formula_sum "Si O2"
_cell_formula_units_Z 48
_cell_length_a 12.217588
_cell_length_b 7.364307
_cell_length_c 23.453895
_cell_angle_alpha 90.000000
_cell_angle_beta 89.817944
_cell_angle_gamma 90.000000
_cell_volume 2110.231710
_symmetry_space_group_name_H-M "C 2/C"
_symmetry_group_IT_number 15
_symmetry_cell_setting 'monoclinic'
loop_
_space_group_symop_operation_xyz
x,y,z
-x,y,1/2-z
-x,-y,-z
x,-y,1/2+z
1/2+x,1/2+y,z
1/2-x,1/2+y,1/2-z
1/2-x,1/2-y,-z
1/2+x,1/2-y,1/2+z
loop_
_atom_site_type_symbol
_atom_site_label
_atom_site_fract_x
_atom_site_fract_y
_atom_site_fract_z
Si Si1 0.056712 0.078886 0.599755
Si Si2 0.305441 0.255025 0.305422
Si Si3 0.894008 0.471786 0.224486
Si Si4 0.680079 0.492853 0.893409
Si Si5 0.238345 0.959320 0.514696
Si Si6 0.603980 0.875321 0.897592
O O1 0.128070 0.097631 0.657380
O O2 0.010719 0.281613 0.583116
O O3 0.126447 0.996877 0.548597
O O4 0.950943 0.947717 0.610161
O O5 0.215164 0.355705 0.267239
O O6 0.385612 0.158052 0.260771
O O7 0.246914 0.108286 0.345366
O O8 0.914975 0.505379 0.157947
O O9 0.000000 0.367332 0.250000
O O10 0.691941 0.712023 0.885052
O O11 0.730735 0.431065 0.954990
O O12 0.250000 0.750000 0.500000
O O13 0.344480 0.008248 0.553722
#
# Coordination Sequence:
#
# PCOD8135776 Si02
#       6
#     8   8   8   8   8   8
#     4  10  21  40  65  90 131 162 204 262 323 365
#     4  12  25  42  65  92 128 165 216 271 309 384
#     4  12  24  44  64  90 125 166 219 263 322 369
#     4   9  22  40  62  96 127 163 209 249 325 377
#     4  10  19  39  69  94 128 172 206 256 320 386
#     4   9  20  41  65  91 125 167 208 258 319 376
#
# _framework density 22.746317000000001
#
# number of rings (size 3 to 8) (size 9 to 14) (size 15 to 20)
#    1.000    0.667    3.333    1.500    0.000    2.000 
#    6.000    0.833    0.000    0.000    0.000    0.000 
#    0.000    0.000    0.000    0.000    0.000    0.000 
#
# Total GULP energy -297401.633017 kJ/mol
# GULP energy per Si atom -12391.734709 kJ/mol
# Density = 2.269455 g / cm^3
# Si number density = 22.746317 Si / 1000 Ang^3
#
#
#
# Elastic Constant Matrix: (Units=GPa)
#
#
# Indices 1 2 3 4 5 6 
#
# 1 127.6537 17.4928 47.9412 0.0000 30.1578 0.0000
# 2 17.4928 27.3267 22.6030 0.0000 1.2143 0.0000
# 3 47.9412 22.6030 110.5314 0.0000 35.0469 0.0000
# 4 0.0000 0.0000 0.0000 24.7414 0.0000 0.4500
# 5 30.1578 1.2143 35.0469 0.0000 44.0050 0.0000
# 6 0.0000 0.0000 0.0000 0.4500 0.0000 32.7239
#
#
#
# Elastic Compliance Matrix: (Units=1/GPa)
#
#
# Indices 1 2 3 4 5 6 
#
# 1 0.010519 -0.005057 -0.001722 0.000000 -0.005698 0.000000
# 2 -0.005057 0.048668 -0.011281 0.000000 0.011107 0.000000
# 3 -0.001722 -0.011281 0.015556 0.000000 -0.010898 0.000000
# 4 0.000000 0.000000 0.000000 0.040428 0.000000 -0.000556
# 5 -0.005698 0.011107 -0.010898 0.000000 0.035003 0.000000
# 6 0.000000 0.000000 0.000000 -0.000556 0.000000 0.030566
#
#
# Mechanical properties :
#
#
# Convention : Reuss Voigt Hill
#
# Bulk Modulus (GPa) = 25.88932 49.06509 37.47721
# Shear Modulus (GPa) = 21.76411 32.12573 26.94492
#
# Velocity S-wave (km/s) = 3.09660 3.76220 3.44551
# Velocity P-wave (km/s) = 4.91851 6.36314 5.68689
#
# Compressibility (1/GPa) = 0.03862596
#
# Stress axis : x y z
#
# Youngs Moduli (GPa) = 95.06179 20.54719 64.28188
#
# Poissons Ratio (x) = 0.10390 0.11068
# Poissons Ratio (y) = 0.48068 0.72516
# Poissons Ratio (z) = 0.16367 0.23179
#
# Static dielectric constant tensor:
#      x y z
#    x 4.288430 0.000000 0.602420 
#    y 0.000000 3.751050 0.000000 
#    z 0.602420 0.000000 4.419380 
# 
# 
# High freq. dielectric constant tensor:
#      x y z
#    x 1.901320 0.000000 0.023400 
#    y 0.000000 1.861090 0.000000 
#    z 0.023400 0.000000 1.904090 
# 
# From -- ./inp_files/267739.got.cif
#   From: 2010.06.25/outbox.cif.g09.slc.cpg/sg15_134_cif.got.tgz:267739.got - 2010.06.28 07:06:18.
