data_PCOD8135285
_publ_section_title
;
Structure prediction by ZEFSAII (Michael W. Deem and Ramdas Pophale) SiO2 
 PCOD8135285
Probable space group: C 2/C
;
_chemical_formula_sum "Si O2"
_cell_formula_units_Z 56
_cell_length_a 9.917089
_cell_length_b 22.629652
_cell_length_c 14.445271
_cell_angle_alpha 90.000000
_cell_angle_beta 108.157510
_cell_angle_gamma 90.000000
_cell_volume 3080.380510
_symmetry_space_group_name_H-M "C 2/C"
_symmetry_group_IT_number 15
_symmetry_cell_setting 'monoclinic'
loop_
_space_group_symop_operation_xyz
x,y,z
-x,y,1/2-z
-x,-y,-z
x,-y,1/2+z
1/2+x,1/2+y,z
1/2-x,1/2+y,1/2-z
1/2-x,1/2-y,-z
1/2+x,1/2-y,1/2+z
loop_
_atom_site_type_symbol
_atom_site_label
_atom_site_fract_x
_atom_site_fract_y
_atom_site_fract_z
Si Si1 0.120032 0.189762 0.203039
Si Si2 0.921791 0.718871 0.327388
Si Si3 0.926159 0.941423 0.855600
Si Si4 0.383689 0.289890 0.006721
Si Si5 0.788074 0.078456 0.508014
Si Si6 0.206699 0.017668 0.343178
Si Si7 0.984913 0.414487 0.855793
O O1 0.255415 0.223417 0.272978
O O2 0.147032 0.119674 0.195935
O O3 0.000000 0.204897 0.250000
O O4 0.080385 0.214433 0.093918
O O5 0.957608 0.653803 0.371271
O O6 0.000000 0.733642 0.250000
O O7 0.973899 0.767216 0.412612
O O8 0.851879 0.991016 0.774414
O O9 0.095901 0.939746 0.875345
O O10 0.892447 0.953038 0.955730
O O11 0.341585 0.354989 0.032291
O O12 0.250000 0.250000 0.000000
O O13 0.630546 0.070177 0.436638
O O14 0.795269 0.046043 0.608142
O O15 0.362648 0.046005 0.376569
O O16 0.000000 0.427522 0.750000
#
# Coordination Sequence:
#
# PCOD8135285 Si02
#       7
#     8   8   8   8   8   8   8
#     4  11  20  37  62  85 112 150 198 248 291 348
#     4  11  19  35  63  86 111 157 199 243 289 347
#     4  10  19  38  56  79 115 147 190 236 285 357
#     4  11  21  38  59  85 118 155 198 244 288 351
#     4  11  22  35  58  84 114 151 196 238 290 350
#     4  11  20  34  57  85 112 146 184 244 291 336
#     4  11  18  34  59  85 111 149 198 238 283 342
#
# _framework density 18.179573000000001
#
# number of rings (size 3 to 8) (size 9 to 14) (size 15 to 20)
#    0.000    1.143    7.143    2.571    0.000    0.571 
#    2.571    0.000    0.000    2.571    0.000    0.000 
#    0.000    0.000    0.000    0.000    0.000    0.000 
#
# Total GULP energy -347140.188093 kJ/mol
# GULP energy per Si atom -12397.863860 kJ/mol
# Density = 1.813820 g / cm^3
# Si number density = 18.179573 Si / 1000 Ang^3
#
#
#
# Elastic Constant Matrix: (Units=GPa)
#
#
# Indices 1 2 3 4 5 6 
#
# 1 120.7533 45.3849 48.3210 0.0000 0.2530 0.0000
# 2 45.3849 88.2803 68.7095 0.0000 -5.7198 0.0000
# 3 48.3210 68.7095 96.6430 0.0000 -4.3349 0.0000
# 4 0.0000 0.0000 0.0000 35.0850 0.0000 -2.5135
# 5 0.2530 -5.7198 -4.3349 0.0000 35.3857 0.0000
# 6 0.0000 0.0000 0.0000 -2.5135 0.0000 21.6453
#
#
#
# Elastic Compliance Matrix: (Units=1/GPa)
#
#
# Indices 1 2 3 4 5 6 
#
# 1 0.010727 -0.003066 -0.003227 0.000000 -0.000968 0.000000
# 2 -0.003066 0.026365 -0.017114 0.000000 0.002187 0.000000
# 3 -0.003227 -0.017114 0.024138 0.000000 0.000214 0.000000
# 4 0.000000 0.000000 0.000000 0.028741 0.000000 0.003338
# 5 -0.000968 0.002187 0.000214 0.000000 0.028647 0.000000
# 6 0.000000 0.000000 0.000000 0.003338 0.000000 0.046587
#
#
# Mechanical properties :
#
#
# Convention : Reuss Voigt Hill
#
# Bulk Modulus (GPa) = 69.36421 70.05637 69.71029
# Shear Modulus (GPa) = 23.06025 27.97394 25.51709
#
# Velocity S-wave (km/s) = 3.56542 3.92695 3.75055
# Velocity P-wave (km/s) = 7.42883 7.69290 7.56202
#
# Compressibility (1/GPa) = 0.01441666
#
# Stress axis : x y z
#
# Youngs Moduli (GPa) = 93.22238 37.92910 41.42890
#
# Poissons Ratio (x) = 0.11627 0.13371
# Poissons Ratio (y) = 0.28578 0.70900
# Poissons Ratio (z) = 0.30086 0.64910
#
# Static dielectric constant tensor:
#      x y z
#    x 3.537740 0.000000 -0.040540 
#    y 0.000000 3.221080 0.000000 
#    z -0.040540 0.000000 3.442210 
# 
# 
# High freq. dielectric constant tensor:
#      x y z
#    x 1.717440 0.000000 0.002280 
#    y 0.000000 1.676360 0.000000 
#    z 0.002280 0.000000 1.705350 
# 
# From -- ./inp_files/137436.got.cif
#   From: 2010.06.25/outbox.cif.g09.slc.cpg/sg15_69_cif.got.tgz:137436.got - 2010.06.28 07:06:18.
