data_PCOD8135339
_publ_section_title
;
Structure prediction by ZEFSAII (Michael W. Deem and Ramdas Pophale) SiO2 
 PCOD8135339
Probable space group: C 2/C
;
_chemical_formula_sum "Si O2"
_cell_formula_units_Z 60
_cell_length_a 18.633272
_cell_length_b 19.612303
_cell_length_c 8.432175
_cell_angle_alpha 90.000000
_cell_angle_beta 67.143285
_cell_angle_gamma 90.000000
_cell_volume 2839.506221
_symmetry_space_group_name_H-M "C 2/C"
_symmetry_group_IT_number 15
_symmetry_cell_setting 'monoclinic'
loop_
_space_group_symop_operation_xyz
x,y,z
-x,y,1/2-z
-x,-y,-z
x,-y,1/2+z
1/2+x,1/2+y,z
1/2-x,1/2+y,1/2-z
1/2-x,1/2-y,-z
1/2+x,1/2-y,1/2+z
loop_
_atom_site_type_symbol
_atom_site_label
_atom_site_fract_x
_atom_site_fract_y
_atom_site_fract_z
Si Si1 0.345326 0.539607 0.400947
Si Si2 0.197091 0.340049 0.503729
Si Si3 0.892254 0.449388 0.079086
Si Si4 0.456056 0.349137 0.936633
Si Si5 0.758513 0.460800 0.804521
Si Si6 0.641270 0.290656 0.195139
Si Si7 0.432724 0.596553 0.921497
Si Si8 0.000000 0.486883 0.250000
O O1 0.383691 0.606800 0.437582
O O2 0.264119 0.522872 0.558585
O O3 0.319848 0.550804 0.238248
O O4 0.401849 0.475621 0.384583
O O5 0.153275 0.379169 0.400245
O O6 0.225971 0.391758 0.615013
O O7 0.267257 0.303754 0.346770
O O8 0.136699 0.286809 0.636046
O O9 0.835267 0.514357 0.149393
O O10 0.956849 0.439417 0.159455
O O11 0.935275 0.463970 0.878125
O O12 0.500000 0.311118 0.750000
O O13 0.417297 0.299312 0.102455
O O14 0.526013 0.399676 0.940537
O O15 0.628136 0.342600 0.058985
O O16 0.500000 0.620633 0.750000
#
# Coordination Sequence:
#
# PCOD8135339 Si02
#       8
#     8   8   8   8   8   8   8   4
#     4  12  21  34  63  99 128 164 202 269 316 368
#     4  11  22  42  70  87 122 169 224 256 314 374
#     4  11  20  40  61  96 122 162 200 274 319 378
#     4  11  23  38  63  95 135 166 210 261 316 377
#     4  12  21  36  65  94 128 156 217 263 319 366
#     4  10  23  43  66  86 124 178 217 252 302 390
#     4  10  19  38  59  90 131 170 211 246 307 383
#     4  10  22  36  62  90 134 144 202 268 334 376
#
# _framework density 21.130436
#
# number of rings (size 3 to 8) (size 9 to 14) (size 15 to 20)
#    0.000    1.067    4.000    4.000    0.000    0.000 
#    3.600    0.667    8.800    0.000    0.000    0.000 
#    0.000    0.000    0.000    0.000    0.000    0.000 
#
# Total GULP energy -371661.858567 kJ/mol
# GULP energy per Si atom -12388.728619 kJ/mol
# Density = 2.108234 g / cm^3
# Si number density = 21.130436 Si / 1000 Ang^3
#
#
#
# Elastic Constant Matrix: (Units=GPa)
#
#
# Indices 1 2 3 4 5 6 
#
# 1 67.3038 21.1689 0.3740 0.0000 6.6761 0.0000
# 2 21.1689 73.3482 27.0820 0.0000 -3.5649 0.0000
# 3 0.3740 27.0820 55.6610 0.0000 -2.1787 0.0000
# 4 0.0000 0.0000 0.0000 11.0315 0.0000 10.3064
# 5 6.6761 -3.5649 -2.1787 0.0000 40.3833 0.0000
# 6 0.0000 0.0000 0.0000 10.3064 0.0000 7.8407
#
#
#
# Elastic Compliance Matrix: (Units=1/GPa)
#
#
# Indices 1 2 3 4 5 6 
#
# 1 0.017077 -0.006090 0.002723 0.000000 -0.003214 0.000000
# 2 -0.006090 0.018834 -0.009037 0.000000 0.002182 0.000000
# 3 0.002723 -0.009037 0.022343 0.000000 -0.000042 0.000000
# 4 0.000000 0.000000 0.000000 -0.397449 0.000000 0.522439
# 5 -0.003214 0.002182 -0.000042 0.000000 0.025484 0.000000
# 6 0.000000 0.000000 0.000000 0.522439 0.000000 -0.559196
#
#
# Mechanical properties :
#
#
# Convention : Reuss Voigt Hill
#
# Bulk Modulus (GPa) = 29.90023 32.61809 31.25916
# Shear Modulus (GPa) = -5.97409 21.69696 7.86144
#
# Velocity S-wave (km/s) = -1.68326 3.20787 1.93094
# Velocity P-wave (km/s) = 3.22540 5.40283 4.44937
#
# Compressibility (1/GPa) = 0.03344456
#
# Stress axis : x y z
#
# Youngs Moduli (GPa) = 58.55770 53.09509 44.75647
#
# Poissons Ratio (x) = 0.32335 -0.12185
# Poissons Ratio (y) = 0.35662 0.40448
# Poissons Ratio (z) = -0.15943 0.47984
#
# Static dielectric constant tensor:
#      x y z
#    x 5.068770 0.000000 0.267680 
#    y 0.000000 3.408190 0.000000 
#    z 0.267680 0.000000 4.211340 
# 
# 
# High freq. dielectric constant tensor:
#      x y z
#    x 1.850680 0.000000 -0.009930 
#    y 0.000000 1.784010 0.000000 
#    z -0.009930 0.000000 1.837000 
# 
# From -- ./inp_files/50186.got.cif
#   From: 2010.06.25/outbox.cif.g09.slc.cpg/sg15_26_cif.got.tgz:50186.got - 2010.06.28 07:06:18.
