data_PCOD8135315
_publ_section_title
;
Structure prediction by ZEFSAII (Michael W. Deem and Ramdas Pophale) SiO2 
 PCOD8135315
Probable space group: C 2/C
;
_chemical_formula_sum "Si O2"
_cell_formula_units_Z 60
_cell_length_a 12.599420
_cell_length_b 30.553883
_cell_length_c 18.609630
_cell_angle_alpha 90.000000
_cell_angle_beta 153.821280
_cell_angle_gamma 90.000000
_cell_volume 3160.553967
_symmetry_space_group_name_H-M "C 2/C"
_symmetry_group_IT_number 15
_symmetry_cell_setting 'monoclinic'
loop_
_space_group_symop_operation_xyz
x,y,z
-x,y,1/2-z
-x,-y,-z
x,-y,1/2+z
1/2+x,1/2+y,z
1/2-x,1/2+y,1/2-z
1/2-x,1/2-y,-z
1/2+x,1/2-y,1/2+z
loop_
_atom_site_type_symbol
_atom_site_label
_atom_site_fract_x
_atom_site_fract_y
_atom_site_fract_z
Si Si1 0.694420 0.416026 0.427336
Si Si2 0.297493 0.464775 0.374871
Si Si3 0.320457 0.010906 0.543154
Si Si4 0.500000 0.568242 0.250000
Si Si5 0.376351 0.203303 0.749533
Si Si6 0.433058 0.119298 0.454469
Si Si7 0.164737 0.880510 0.187013
Si Si8 0.721998 0.209432 0.094205
O O1 0.500000 0.429737 0.250000
O O2 0.753418 0.459733 0.508216
O O3 0.571301 0.380110 0.405032
O O4 0.936460 0.396133 0.539396
O O5 0.500000 0.500000 0.500000
O O6 0.207478 0.461594 0.401234
O O7 0.380274 0.416788 0.401071
O O8 0.104663 0.484298 0.200355
O O9 0.173707 0.035319 0.394618
O O10 0.668626 0.597641 0.300913
O O11 0.500000 0.187964 0.750000
O O12 0.194591 0.166249 0.667251
O O13 0.211435 0.245718 0.633265
O O14 0.582516 0.214194 0.933449
O O15 0.595621 0.107274 0.622340
O O16 0.400442 0.171711 0.432122
O O17 0.000000 0.197261 0.250000
#
# Coordination Sequence:
#
# PCOD8135315 Si02
#       8
#     8   8   8   4   8   8   8   8
#     4  10  21  39  59  83 114 160 200 244 285 347
#     4  11  23  39  55  80 122 162 195 243 295 351
#     4  11  24  36  58  85 117 156 205 248 298 337
#     4  12  22  38  60  92 112 152 206 260 290 348
#     4  10  21  35  62  89 117 149 188 241 297 352
#     4  10  22  36  63  87 118 151 200 249 296 345
#     4  10  21  40  58  85 120 158 201 234 297 360
#     4  10  19  38  58  90 119 145 187 242 301 351
#
# _framework density 18.984013999999998
#
# number of rings (size 3 to 8) (size 9 to 14) (size 15 to 20)
#    0.000    1.600    4.000    1.600    3.733    0.533 
#    2.400    0.667    0.000    0.000    0.000    0.000 
#    0.000    0.000    0.000    0.000    0.000    0.000 
#
# Total GULP energy -371824.293302 kJ/mol
# GULP energy per Si atom -12394.143110 kJ/mol
# Density = 1.894081 g / cm^3
# Si number density = 18.984014 Si / 1000 Ang^3
#
#
#
# Elastic Constant Matrix: (Units=GPa)
#
#
# Indices 1 2 3 4 5 6 
#
# 1 103.9579 67.1349 43.4695 -0.0005 10.3792 -0.0004
# 2 67.1349 136.5649 49.6277 -0.0002 5.6494 0.0002
# 3 43.4695 49.6277 105.8376 -0.0045 2.3269 -0.0030
# 4 -0.0005 -0.0002 -0.0045 27.0553 -0.0015 3.0471
# 5 10.3792 5.6494 2.3269 -0.0015 31.5741 -0.0012
# 6 -0.0004 0.0002 -0.0030 3.0471 -0.0012 27.0756
#
#
#
# Elastic Compliance Matrix: (Units=1/GPa)
#
#
# Indices 1 2 3 4 5 6 
#
# 1 0.015385 -0.006200 -0.003331 -0.000001 -0.003703 0.000000
# 2 -0.006200 0.011377 -0.002793 0.000000 0.000208 0.000000
# 3 -0.003331 -0.002793 0.012110 0.000002 0.000702 0.000001
# 4 -0.000001 0.000000 0.000002 0.037436 0.000002 -0.004213
# 5 -0.003703 0.000208 0.000702 0.000002 0.032800 0.000001
# 6 0.000000 0.000000 0.000001 -0.004213 0.000001 0.037408
#
#
# Mechanical properties :
#
#
# Convention : Reuss Voigt Hill
#
# Bulk Modulus (GPa) = 70.29283 74.09162 72.19222
# Shear Modulus (GPa) = 28.42456 29.54957 28.98706
#
# Velocity S-wave (km/s) = 3.87368 3.94959 3.91182
# Velocity P-wave (km/s) = 7.55744 7.74030 7.64942
#
# Compressibility (1/GPa) = 0.01422620
#
# Stress axis : x y z
#
# Youngs Moduli (GPa) = 64.99636 87.89922 82.57355
#
# Poissons Ratio (x) = 0.54497 0.27501
# Poissons Ratio (y) = 0.40298 0.23060
# Poissons Ratio (z) = 0.21647 0.24548
#
# Static dielectric constant tensor:
#      x y z
#    x 2.946970 -0.000010 0.029400 
#    y -0.000010 3.560800 0.000070 
#    z 0.029400 0.000070 3.318900 
# 
# 
# High freq. dielectric constant tensor:
#      x y z
#    x 1.726500 0.000000 0.000730 
#    y 0.000000 1.736260 0.000000 
#    z 0.000730 0.000000 1.740810 
# 
# From -- ./inp_files/245846.got.cif
#   From: 2010.06.25/outbox.cif.g09.slc.cpg/sg15_123_cif.got.tgz:245846.got - 2010.06.28 07:06:18.
