data_PCOD8135206
_publ_section_title
;
Structure prediction by ZEFSAII (Michael W. Deem and Ramdas Pophale) SiO2 
 PCOD8135206
Probable space group: C 2/C
;
_chemical_formula_sum "Si O2"
_cell_formula_units_Z 56
_cell_length_a 15.008155
_cell_length_b 16.882869
_cell_length_c 16.990796
_cell_angle_alpha 90.000000
_cell_angle_beta 139.462671
_cell_angle_gamma 90.000000
_cell_volume 2798.097032
_symmetry_space_group_name_H-M "C 2/C"
_symmetry_group_IT_number 15
_symmetry_cell_setting 'monoclinic'
loop_
_space_group_symop_operation_xyz
x,y,z
-x,y,1/2-z
-x,-y,-z
x,-y,1/2+z
1/2+x,1/2+y,z
1/2-x,1/2+y,1/2-z
1/2-x,1/2-y,-z
1/2+x,1/2-y,1/2+z
loop_
_atom_site_type_symbol
_atom_site_label
_atom_site_fract_x
_atom_site_fract_y
_atom_site_fract_z
Si Si1 0.985010 0.852619 0.824597
Si Si2 0.722717 0.848181 0.223921
Si Si3 0.182058 0.684515 0.160362
Si Si4 0.066745 0.685558 0.912361
Si Si5 0.122060 0.948618 0.051160
Si Si6 0.363421 0.974356 0.111086
Si Si7 0.058657 0.429963 0.985131
O O1 0.828395 0.857117 0.747883
O O2 0.000000 0.897075 0.750000
O O3 0.053886 0.766227 0.854657
O O4 0.072399 0.888599 0.952293
O O5 0.794651 0.761653 0.268824
O O6 0.586196 0.849037 0.184836
O O7 0.826210 0.907379 0.334992
O O8 0.678797 0.879180 0.108205
O O9 0.126090 0.708503 0.037250
O O10 0.070727 0.625864 0.125760
O O11 0.156010 0.617933 0.929065
O O12 0.240586 0.999237 0.087272
O O13 0.000000 0.000000 0.000000
O O14 0.500000 0.986889 0.250000
O O15 0.365875 0.033199 0.038970
O O16 0.000000 0.500000 0.000000
#
# Coordination Sequence:
#
# PCOD8135206 Si02
#       7
#     8   8   8   8   8   8   8
#     4  11  24  34  58  95 137 165 200 264 335 402
#     4  10  21  41  61  94 130 170 214 268 326 390
#     4  10  21  38  62  94 128 170 213 262 324 387
#     4  10  19  37  64  96 128 167 210 259 327 410
#     4  12  27  40  60  93 135 170 210 273 337 382
#     4  12  23  40  67  97 131 173 218 265 323 396
#     4  11  22  40  70  94 127 175 226 264 317 401
#
# _framework density 20.013601000000001
#
# number of rings (size 3 to 8) (size 9 to 14) (size 15 to 20)
#    0.000    1.143    5.714    1.286    6.000    1.143 
#    0.000    0.000    0.000    3.429    0.000    0.000 
#    0.000    0.000    0.000    0.000    0.000    0.000 
#
# Total GULP energy -347088.439860 kJ/mol
# GULP energy per Si atom -12396.015709 kJ/mol
# Density = 1.996805 g / cm^3
# Si number density = 20.013601 Si / 1000 Ang^3
#
#
#
# Elastic Constant Matrix: (Units=GPa)
#
#
# Indices 1 2 3 4 5 6 
#
# 1 109.9696 54.1609 39.9175 0.0002 12.5053 0.0001
# 2 54.1609 90.1386 53.8655 0.0001 6.9528 0.0001
# 3 39.9175 53.8655 116.0494 0.0004 5.8437 0.0003
# 4 0.0002 0.0001 0.0004 23.6210 0.0003 6.3930
# 5 12.5053 6.9528 5.8437 0.0003 30.1049 0.0002
# 6 0.0001 0.0001 0.0003 6.3930 0.0002 16.0253
#
#
#
# Elastic Compliance Matrix: (Units=1/GPa)
#
#
# Indices 1 2 3 4 5 6 
#
# 1 0.013426 -0.007103 -0.001134 0.000000 -0.003716 0.000000
# 2 -0.007103 0.019253 -0.006482 0.000000 -0.000238 0.000000
# 3 -0.001134 -0.006482 0.012034 0.000000 -0.000368 0.000000
# 4 0.000000 0.000000 0.000000 0.047460 0.000000 -0.018933
# 5 -0.003716 -0.000238 -0.000368 0.000000 0.034887 0.000000
# 6 0.000000 0.000000 0.000000 -0.018933 0.000000 0.069955
#
#
# Mechanical properties :
#
#
# Convention : Reuss Voigt Hill
#
# Bulk Modulus (GPa) = 65.45962 68.00506 66.73234
# Shear Modulus (GPa) = 21.59416 25.16446 23.37931
#
# Velocity S-wave (km/s) = 3.28834 3.54979 3.42156
# Velocity P-wave (km/s) = 6.86994 7.13123 7.00181
#
# Compressibility (1/GPa) = 0.01527659
#
# Stress axis : x y z
#
# Youngs Moduli (GPa) = 74.48315 51.93882 83.09676
#
# Poissons Ratio (x) = 0.36890 0.09425
# Poissons Ratio (y) = 0.52903 0.53860
# Poissons Ratio (z) = 0.08448 0.33665
#
# Static dielectric constant tensor:
#      x y z
#    x 3.547940 0.000000 0.062820 
#    y 0.000000 3.877820 0.000000 
#    z 0.062820 0.000000 4.120510 
# 
# 
# High freq. dielectric constant tensor:
#      x y z
#    x 1.750110 0.000000 0.005410 
#    y 0.000000 1.763390 0.000000 
#    z 0.005410 0.000000 1.810430 
# 
# From -- ./inp_files/206281.got.cif
#   From: 2010.06.25/outbox.cif.g09.slc.cpg/sg15_104_cif.got.tgz:206281.got - 2010.06.28 07:06:18.
