data_PCOD8135409
_publ_section_title
;
Structure prediction by ZEFSAII (Michael W. Deem and Ramdas Pophale) SiO2 
 PCOD8135409
Probable space group: C 2/C
;
_chemical_formula_sum "Si O2"
_cell_formula_units_Z 56
_cell_length_a 13.750265
_cell_length_b 12.862097
_cell_length_c 18.570186
_cell_angle_alpha 90.000000
_cell_angle_beta 60.911534
_cell_angle_gamma 90.000000
_cell_volume 2870.027024
_symmetry_space_group_name_H-M "C 2/C"
_symmetry_group_IT_number 15
_symmetry_cell_setting 'monoclinic'
loop_
_space_group_symop_operation_xyz
x,y,z
-x,y,1/2-z
-x,-y,-z
x,-y,1/2+z
1/2+x,1/2+y,z
1/2-x,1/2+y,1/2-z
1/2-x,1/2-y,-z
1/2+x,1/2-y,1/2+z
loop_
_atom_site_type_symbol
_atom_site_label
_atom_site_fract_x
_atom_site_fract_y
_atom_site_fract_z
Si Si1 0.420113 0.181051 0.133106
Si Si2 0.786378 0.213605 0.377583
Si Si3 0.879884 0.701966 0.529214
Si Si4 0.500000 0.833331 0.750000
Si Si5 0.500000 0.816396 0.250000
Si Si6 0.772919 0.407637 0.474918
Si Si7 0.467744 0.935970 0.121641
Si Si8 0.714012 0.880729 0.585575
O O1 0.290965 0.200406 0.164632
O O2 0.451645 0.232527 0.199741
O O3 0.441628 0.057533 0.131621
O O4 0.495823 0.232699 0.042956
O O5 0.911220 0.235734 0.311407
O O6 0.737931 0.309744 0.439869
O O7 0.784351 0.108277 0.426468
O O8 0.889074 0.621446 0.591908
O O9 0.806999 0.800850 0.582142
O O10 0.821314 0.650007 0.482157
O O11 0.607381 0.895253 0.677577
O O12 0.445056 0.889439 0.209057
O O13 0.729018 0.506967 0.446007
O O14 0.904193 0.416822 0.444234
#
# Coordination Sequence:
#
# PCOD8135409 Si02
#       8
#     8   8   8   4   4   8   8   8
#     4  11  20  36  62  89 112 151 200 249 283 349
#     4  10  22  36  61  86 118 154 198 244 297 350
#     4  10  20  34  59  88 114 150 196 239 292 342
#     4  10  21  34  56  91 122 146 193 250 296 325
#     4  10  25  38  56  91 124 146 193 252 304 341
#     4  10  19  38  62  84 113 153 200 245 282 346
#     4  11  19  36  63  87 107 149 205 249 278 340
#     4  10  21  36  57  88 121 152 193 246 291 347
#
# _framework density 19.512011000000001
#
# number of rings (size 3 to 8) (size 9 to 14) (size 15 to 20)
#    0.000    1.714    4.286    1.714    4.000    0.000 
#    0.000    0.714    3.143    4.286    0.000    0.000 
#    0.000    0.000    0.000    0.000    0.000    0.000 
#
# Total GULP energy -346909.254559 kJ/mol
# GULP energy per Si atom -12389.616234 kJ/mol
# Density = 1.946760 g / cm^3
# Si number density = 19.512011 Si / 1000 Ang^3
#
#
#
# Elastic Constant Matrix: (Units=GPa)
#
#
# Indices 1 2 3 4 5 6 
#
# 1 75.0528 31.9317 29.8311 0.0000 9.8497 0.0000
# 2 31.9317 78.1191 29.5566 0.0000 -10.0071 0.0000
# 3 29.8311 29.5566 102.7926 0.0000 0.6902 0.0000
# 4 0.0000 0.0000 0.0000 19.3222 0.0000 -0.5993
# 5 9.8497 -10.0071 0.6902 0.0000 27.9207 0.0000
# 6 0.0000 0.0000 0.0000 -0.5993 0.0000 32.0496
#
#
#
# Elastic Compliance Matrix: (Units=1/GPa)
#
#
# Indices 1 2 3 4 5 6 
#
# 1 0.019196 -0.007832 -0.003255 0.000000 -0.009499 0.000000
# 2 -0.007832 0.018372 -0.003073 0.000000 0.009424 0.000000
# 3 -0.003255 -0.003073 0.011558 0.000000 -0.000239 0.000000
# 4 0.000000 0.000000 0.000000 0.051784 0.000000 0.000968
# 5 -0.009499 0.009424 -0.000239 0.000000 0.042550 0.000000
# 6 0.000000 0.000000 0.000000 0.000968 0.000000 0.031220
#
#
# Mechanical properties :
#
#
# Convention : Reuss Voigt Hill
#
# Bulk Modulus (GPa) = 48.06172 48.73370 48.39771
# Shear Modulus (GPa) = 23.81675 26.83484 25.32580
#
# Velocity S-wave (km/s) = 3.49753 3.71253 3.60663
# Velocity P-wave (km/s) = 6.40278 6.58844 6.49628
#
# Compressibility (1/GPa) = 0.02080658
#
# Stress axis : x y z
#
# Youngs Moduli (GPa) = 52.09293 54.43030 86.51832
#
# Poissons Ratio (x) = 0.42629 0.28164
# Poissons Ratio (y) = 0.40798 0.26588
# Poissons Ratio (z) = 0.16958 0.16727
#
# Static dielectric constant tensor:
#      x y z
#    x 3.585030 0.000000 0.164270 
#    y 0.000000 3.516550 0.000000 
#    z 0.164270 0.000000 3.859860 
# 
# 
# High freq. dielectric constant tensor:
#      x y z
#    x 1.749080 0.000000 0.014090 
#    y 0.000000 1.732970 0.000000 
#    z 0.014090 0.000000 1.766470 
# 
# From -- ./inp_files/203967.got.cif
#   From: 2010.06.25/outbox.cif.g09.slc.cpg/sg15_102_cif.got.tgz:203967.got - 2010.06.28 07:06:18.
