data_PCOD8135280
_publ_section_title
;
Structure prediction by ZEFSAII (Michael W. Deem and Ramdas Pophale) SiO2 
 PCOD8135280
Probable space group: C 2/C
;
_chemical_formula_sum "Si O2"
_cell_formula_units_Z 48
_cell_length_a 16.118607
_cell_length_b 18.188465
_cell_length_c 9.334106
_cell_angle_alpha 90.000000
_cell_angle_beta 79.931466
_cell_angle_gamma 90.000000
_cell_volume 2694.361252
_symmetry_space_group_name_H-M "C 2/C"
_symmetry_group_IT_number 15
_symmetry_cell_setting 'monoclinic'
loop_
_space_group_symop_operation_xyz
x,y,z
-x,y,1/2-z
-x,-y,-z
x,-y,1/2+z
1/2+x,1/2+y,z
1/2-x,1/2+y,1/2-z
1/2-x,1/2-y,-z
1/2+x,1/2-y,1/2+z
loop_
_atom_site_type_symbol
_atom_site_label
_atom_site_fract_x
_atom_site_fract_y
_atom_site_fract_z
Si Si1 0.933806 0.674198 0.388208
Si Si2 0.956603 0.392591 0.413247
Si Si3 0.699212 0.809799 0.103346
Si Si4 0.319161 0.734338 0.094863
Si Si5 0.292134 0.040713 0.018311
Si Si6 0.232071 0.592380 0.161588
O O1 0.907986 0.744773 0.493673
O O2 0.854476 0.637643 0.331741
O O3 0.000000 0.701692 0.250000
O O4 0.975257 0.614706 0.481874
O O5 0.898440 0.318053 0.420117
O O6 0.894380 0.460702 0.470297
O O7 0.000000 0.410446 0.250000
O O8 0.699169 0.789344 0.269157
O O9 0.743690 0.889244 0.061939
O O10 0.750000 0.750000 0.000000
O O11 0.311655 0.648731 0.142039
O O12 0.250000 0.750000 0.000000
O O13 0.253612 0.964952 0.971512
O O14 0.268436 0.047352 0.191405
#
# Coordination Sequence:
#
# PCOD8135280 Si02
#       6
#     8   8   8   8   8   8
#     4  11  20  37  54  82 115 147 191 232 285 329
#     4  10  20  34  53  80 110 147 184 224 285 333
#     4  10  19  38  55  76 109 147 192 235 271 332
#     4  10  21  35  57  77 113 147 195 234 271 330
#     4  10  23  34  53  80 116 147 189 217 288 336
#     4  11  23  37  52  83 118 155 182 227 281 347
#
# _framework density 17.814983999999999
#
# number of rings (size 3 to 8) (size 9 to 14) (size 15 to 20)
#    1.000    0.667    5.000    0.000    9.333    1.333 
#    0.000    0.000    0.000    0.000    0.000    5.833 
#    0.000    0.000    0.000    0.000    0.000    0.000 
#
# Total GULP energy -297382.407201 kJ/mol
# GULP energy per Si atom -12390.933633 kJ/mol
# Density = 1.777444 g / cm^3
# Si number density = 17.814984 Si / 1000 Ang^3
#
#
#
# Elastic Constant Matrix: (Units=GPa)
#
#
# Indices 1 2 3 4 5 6 
#
# 1 18.0810 17.7811 16.6946 0.0000 4.9096 0.0000
# 2 17.7811 83.0845 30.6902 0.0000 -3.9363 0.0000
# 3 16.6946 30.6902 128.8623 0.0000 -4.3214 0.0000
# 4 0.0000 0.0000 0.0000 33.0344 0.0000 5.3528
# 5 4.9096 -3.9363 -4.3214 0.0000 25.7462 0.0000
# 6 0.0000 0.0000 0.0000 5.3528 0.0000 20.0084
#
#
#
# Elastic Compliance Matrix: (Units=1/GPa)
#
#
# Indices 1 2 3 4 5 6 
#
# 1 0.083394 -0.015946 -0.007664 0.000000 -0.019627 0.000000
# 2 -0.015946 0.016304 -0.001641 0.000000 0.005258 0.000000
# 3 -0.007664 -0.001641 0.009237 0.000000 0.002761 0.000000
# 4 0.000000 0.000000 0.000000 0.031643 0.000000 -0.008465
# 5 -0.019627 0.005258 0.002761 0.000000 0.043851 0.000000
# 6 0.000000 0.000000 0.000000 -0.008465 0.000000 0.052244
#
#
# Mechanical properties :
#
#
# Convention : Reuss Voigt Hill
#
# Bulk Modulus (GPa) = 17.11388 40.03995 28.57692
# Shear Modulus (GPa) = 16.30510 26.74859 21.52685
#
# Velocity S-wave (km/s) = 3.02859 3.87908 3.47991
# Velocity P-wave (km/s) = 4.67516 6.52589 5.67646
#
# Compressibility (1/GPa) = 0.05843209
#
# Stress axis : x y z
#
# Youngs Moduli (GPa) = 11.99120 61.33549 108.26559
#
# Poissons Ratio (x) = 0.97806 0.82980
# Poissons Ratio (y) = 0.19121 0.17764
# Poissons Ratio (z) = 0.09191 0.10064
#
# Static dielectric constant tensor:
#      x y z
#    x 3.488720 0.000000 -0.040920 
#    y 0.000000 3.394520 0.000000 
#    z -0.040920 0.000000 3.584230 
# 
# 
# High freq. dielectric constant tensor:
#      x y z
#    x 1.649280 0.000000 0.003340 
#    y 0.000000 1.672490 0.000000 
#    z 0.003340 0.000000 1.713720 
# 
# From -- ./inp_files/105904.got.cif
#   From: 2010.06.25/outbox.cif.g09.slc.cpg/sg15_53_cif.got.tgz:105904.got - 2010.06.28 07:06:18.
