data_PCOD8135463
_publ_section_title
;
Structure prediction by ZEFSAII (Michael W. Deem and Ramdas Pophale) SiO2 
 PCOD8135463
Probable space group: C 2/C
;
_chemical_formula_sum "Si O2"
_cell_formula_units_Z 64
_cell_length_a 26.066019
_cell_length_b 13.178119
_cell_length_c 13.696583
_cell_angle_alpha 90.000000
_cell_angle_beta 139.313906
_cell_angle_gamma 90.000000
_cell_volume 3067.121129
_symmetry_space_group_name_H-M "C 2/C"
_symmetry_group_IT_number 15
_symmetry_cell_setting 'monoclinic'
loop_
_space_group_symop_operation_xyz
x,y,z
-x,y,1/2-z
-x,-y,-z
x,-y,1/2+z
1/2+x,1/2+y,z
1/2-x,1/2+y,1/2-z
1/2-x,1/2-y,-z
1/2+x,1/2-y,1/2+z
loop_
_atom_site_type_symbol
_atom_site_label
_atom_site_fract_x
_atom_site_fract_y
_atom_site_fract_z
Si Si1 0.672777 0.035330 0.180162
Si Si2 0.414053 0.569660 0.576666
Si Si3 0.473710 0.864344 0.102852
Si Si4 0.855661 0.356493 0.222448
Si Si5 0.959118 0.142998 0.089817
Si Si6 0.739376 0.358579 0.534438
Si Si7 0.603927 0.638797 0.162228
Si Si8 0.744338 0.039148 0.076087
O O1 0.703285 0.129473 0.289905
O O2 0.726725 0.030585 0.164099
O O3 0.682032 0.929894 0.251064
O O4 0.583091 0.048741 0.018360
O O5 0.500000 0.577003 0.750000
O O6 0.398867 0.451444 0.519035
O O7 0.349347 0.610963 0.559716
O O8 0.410585 0.637380 0.474672
O O9 0.500000 0.888311 0.250000
O O10 0.551235 0.873730 0.149926
O O11 0.426351 0.756274 0.019559
O O12 0.847868 0.241016 0.244265
O O13 0.809520 0.374211 0.053459
O O14 0.000000 0.164826 0.250000
O O15 0.021475 0.116662 0.095592
O O16 0.750000 0.250000 0.500000
O O17 0.772113 0.433229 0.499289
O O18 0.662073 0.555909 0.292180
#
# Coordination Sequence:
#
# PCOD8135463 Si02
#       8
#     8   8   8   8   8   8   8   8
#     4  11  23  41  64  94 129 175 212 268 331 380
#     4  11  23  43  64  95 132 169 215 264 331 400
#     4  10  19  38  63  92 124 168 216 264 316 383
#     4  10  23  39  62  95 128 162 222 270 318 387
#     4   9  20  37  64  95 127 159 211 270 323 380
#     4  11  27  46  65  97 137 173 218 269 337 406
#     4  11  22  40  66  96 126 169 214 270 329 387
#     4  11  22  41  66  92 128 168 217 268 322 391
#
# _framework density 20.866472999999999
#
# number of rings (size 3 to 8) (size 9 to 14) (size 15 to 20)
#    0.000    1.500    2.500    2.625    1.750    3.000 
#    4.500    0.625    0.000    0.000    0.000    0.000 
#    0.000    0.000    0.000    0.000    0.000    0.000 
#
# Total GULP energy -396554.778290 kJ/mol
# GULP energy per Si atom -12392.336822 kJ/mol
# Density = 2.081898 g / cm^3
# Si number density = 20.866473 Si / 1000 Ang^3
#
#
#
# Elastic Constant Matrix: (Units=GPa)
#
#
# Indices 1 2 3 4 5 6 
#
# 1 82.4075 35.4536 30.5689 0.0000 -25.9742 0.0000
# 2 35.4536 82.6040 31.9227 0.0000 -17.5771 0.0000
# 3 30.5689 31.9227 92.1938 0.0000 -6.2503 0.0000
# 4 0.0000 0.0000 0.0000 32.3490 0.0000 -0.0610
# 5 -25.9742 -17.5771 -6.2503 0.0000 31.4364 0.0000
# 6 0.0000 0.0000 0.0000 -0.0610 0.0000 27.2715
#
#
#
# Elastic Compliance Matrix: (Units=1/GPa)
#
#
# Indices 1 2 3 4 5 6 
#
# 1 0.019528 -0.003970 -0.004214 0.000000 0.013077 0.000000
# 2 -0.003970 0.016459 -0.004035 0.000000 0.005120 0.000000
# 3 -0.004214 -0.004035 0.013433 0.000000 -0.003067 0.000000
# 4 0.000000 0.000000 0.000000 0.030913 0.000000 0.000069
# 5 0.013077 0.005120 -0.003067 0.000000 0.044868 0.000000
# 6 0.000000 0.000000 0.000000 0.000069 0.000000 0.036668
#
#
# Mechanical properties :
#
#
# Convention : Reuss Voigt Hill
#
# Bulk Modulus (GPa) = 40.03001 50.34397 45.18699
# Shear Modulus (GPa) = 25.68907 28.82872 27.25889
#
# Velocity S-wave (km/s) = 3.51253 3.72099 3.61827
# Velocity P-wave (km/s) = 5.97294 6.52994 6.25764
#
# Compressibility (1/GPa) = 0.02498126
#
# Stress axis : x y z
#
# Youngs Moduli (GPa) = 51.20918 60.75700 74.44236
#
# Poissons Ratio (x) = 0.24122 0.31367
# Poissons Ratio (y) = 0.20332 0.30041
# Poissons Ratio (z) = 0.21577 0.24518
#
# Static dielectric constant tensor:
#      x y z
#    x 3.735250 0.000000 -0.041750 
#    y 0.000000 3.855540 0.000000 
#    z -0.041750 0.000000 3.734010 
# 
# 
# High freq. dielectric constant tensor:
#      x y z
#    x 1.825290 0.000000 -0.009790 
#    y 0.000000 1.809980 0.000000 
#    z -0.009790 0.000000 1.815930 
# 
# From -- ./inp_files/177845.got.cif
#   From: 2010.06.25/outbox.cif.g09.slc.cpg/sg15_89_cif.got.tgz:177845.got - 2010.06.28 07:06:18.
