data_PCOD8135655
_publ_section_title
;
Structure prediction by ZEFSAII (Michael W. Deem and Ramdas Pophale) SiO2 
 PCOD8135655
Probable space group: C 2/C
;
_chemical_formula_sum "Si O2"
_cell_formula_units_Z 56
_cell_length_a 21.610297
_cell_length_b 7.884602
_cell_length_c 15.978561
_cell_angle_alpha 90.000000
_cell_angle_beta 88.035510
_cell_angle_gamma 90.000000
_cell_volume 2720.964347
_symmetry_space_group_name_H-M "C 2/C"
_symmetry_group_IT_number 15
_symmetry_cell_setting 'monoclinic'
loop_
_space_group_symop_operation_xyz
x,y,z
-x,y,1/2-z
-x,-y,-z
x,-y,1/2+z
1/2+x,1/2+y,z
1/2-x,1/2+y,1/2-z
1/2-x,1/2-y,-z
1/2+x,1/2-y,1/2+z
loop_
_atom_site_type_symbol
_atom_site_label
_atom_site_fract_x
_atom_site_fract_y
_atom_site_fract_z
Si Si1 0.457982 0.843680 0.582018
Si Si2 0.669379 0.152828 0.483314
Si Si3 0.762673 0.305607 0.363869
Si Si4 0.052001 0.986143 0.315942
Si Si5 0.803421 0.295607 0.063433
Si Si6 0.057372 0.721869 0.944058
Si Si7 0.307494 0.422439 0.724041
O O1 0.402851 0.808467 0.519308
O O2 0.450900 0.713482 0.659372
O O3 0.521224 0.798269 0.532528
O O4 0.452775 0.044177 0.608371
O O5 0.707456 0.301483 0.435776
O O6 0.680863 0.125517 0.581910
O O7 0.693843 0.996682 0.426778
O O8 0.738937 0.423868 0.291078
O O9 0.788628 0.138381 0.317435
O O10 0.000000 0.021185 0.250000
O O11 0.035376 0.115492 0.392084
O O12 0.120488 0.024936 0.277717
O O13 0.872211 0.242301 0.029534
O O14 0.791858 0.217324 0.154709
O O15 0.750000 0.250000 0.000000
#
# Coordination Sequence:
#
# PCOD8135655 Si02
#       7
#     8   8   8   8   8   8   8
#     4  10  20  43  63  92 122 162 217 261 310 373
#     4  10  21  38  65  84 120 164 205 263 316 370
#     4  11  22  38  59  90 119 161 204 260 315 374
#     4  11  24  42  61  91 130 170 204 260 321 378
#     4  10  19  39  62  90 122 160 203 257 318 381
#     4   9  22  38  66  91 122 162 213 262 307 378
#     4  11  23  41  59  92 128 161 212 262 320 383
#
# _framework density 20.580939000000001
#
# number of rings (size 3 to 8) (size 9 to 14) (size 15 to 20)
#    0.000    1.714    2.857    1.286    2.000    0.571 
#    5.143    0.000    0.000    0.000    0.000    0.000 
#    0.000    0.000    0.000    0.000    0.000    0.000 
#
# Total GULP energy -346926.529406 kJ/mol
# GULP energy per Si atom -12390.233193 kJ/mol
# Density = 2.053410 g / cm^3
# Si number density = 20.580939 Si / 1000 Ang^3
#
#
#
# Elastic Constant Matrix: (Units=GPa)
#
#
# Indices 1 2 3 4 5 6 
#
# 1 103.3794 16.6540 48.4949 0.0000 14.3181 0.0000
# 2 16.6540 81.0285 21.7144 0.0000 5.0120 0.0000
# 3 48.4949 21.7144 67.4523 0.0000 7.3621 0.0000
# 4 0.0000 0.0000 0.0000 38.2933 0.0000 -2.3751
# 5 14.3181 5.0120 7.3621 0.0000 35.0195 0.0000
# 6 0.0000 0.0000 0.0000 -2.3751 0.0000 28.4811
#
#
#
# Elastic Compliance Matrix: (Units=1/GPa)
#
#
# Indices 1 2 3 4 5 6 
#
# 1 0.015121 -0.000071 -0.010414 0.000000 -0.003983 0.000000
# 2 -0.000071 0.013544 -0.004197 0.000000 -0.001027 0.000000
# 3 -0.010414 -0.004197 0.023677 0.000000 -0.000119 0.000000
# 4 0.000000 0.000000 0.000000 0.026250 0.000000 0.002189
# 5 -0.003983 -0.001027 -0.000119 0.000000 0.030356 0.000000
# 6 0.000000 0.000000 0.000000 0.002189 0.000000 0.035294
#
#
# Mechanical properties :
#
#
# Convention : Reuss Voigt Hill
#
# Bulk Modulus (GPa) = 43.51943 47.28740 45.40341
# Shear Modulus (GPa) = 27.58393 31.35858 29.47126
#
# Velocity S-wave (km/s) = 3.66494 3.90766 3.78824
# Velocity P-wave (km/s) = 6.25303 6.58680 6.42208
#
# Compressibility (1/GPa) = 0.02297824
#
# Stress axis : x y z
#
# Youngs Moduli (GPa) = 66.13179 73.83239 42.23585
#
# Poissons Ratio (x) = 0.00522 0.43984
# Poissons Ratio (y) = 0.00468 0.17727
# Poissons Ratio (z) = 0.68869 0.30989
#
# Static dielectric constant tensor:
#      x y z
#    x 3.846860 0.000000 0.117260 
#    y 0.000000 3.939780 0.000000 
#    z 0.117260 0.000000 3.386570 
# 
# 
# High freq. dielectric constant tensor:
#      x y z
#    x 1.817130 0.000000 0.002540 
#    y 0.000000 1.812030 0.000000 
#    z 0.002540 0.000000 1.779340 
# 
# From -- ./inp_files/166681.got.cif
#   From: 2010.06.25/outbox.cif.g09.slc.cpg/sg15_84_cif.got.tgz:166681.got - 2010.06.28 07:06:18.
