data_PCOD8135948
_publ_section_title
;
Structure prediction by ZEFSAII (Michael W. Deem and Ramdas Pophale) SiO2 
 PCOD8135948
Probable space group: C 2/C
;
_chemical_formula_sum "Si O2"
_cell_formula_units_Z 56
_cell_length_a 16.100713
_cell_length_b 15.135773
_cell_length_c 11.757338
_cell_angle_alpha 90.000000
_cell_angle_beta 114.021886
_cell_angle_gamma 90.000000
_cell_volume 2617.067849
_symmetry_space_group_name_H-M "C 2/C"
_symmetry_group_IT_number 15
_symmetry_cell_setting 'monoclinic'
loop_
_space_group_symop_operation_xyz
x,y,z
-x,y,1/2-z
-x,-y,-z
x,-y,1/2+z
1/2+x,1/2+y,z
1/2-x,1/2+y,1/2-z
1/2-x,1/2-y,-z
1/2+x,1/2-y,1/2+z
loop_
_atom_site_type_symbol
_atom_site_label
_atom_site_fract_x
_atom_site_fract_y
_atom_site_fract_z
Si Si1 0.686033 0.598313 0.724950
Si Si2 0.640135 0.964362 0.057355
Si Si3 0.641868 0.234731 0.322084
Si Si4 0.095689 0.921574 0.738881
Si Si5 0.782283 0.038404 0.996913
Si Si6 0.533844 0.920233 0.660156
Si Si7 0.337446 0.650567 0.453291
O O1 0.775530 0.594978 0.855035
O O2 0.640286 0.690769 0.724940
O O3 0.612053 0.521317 0.703381
O O4 0.718493 0.598991 0.613761
O O5 0.616718 0.032745 0.144185
O O6 0.552076 0.906495 0.973926
O O7 0.677002 0.018631 0.969070
O O8 0.563185 0.170988 0.235100
O O9 0.619452 0.278733 0.433667
O O10 0.733998 0.178557 0.373898
O O11 0.107547 0.854721 0.637163
O O12 0.000000 0.909619 0.750000
O O13 0.173221 0.904490 0.876392
O O14 0.838284 0.946870 0.010179
O O15 0.500000 0.978787 0.750000
#
# Coordination Sequence:
#
# PCOD8135948 Si02
#       7
#     8   8   8   8   8   8   8
#     4  10  21  37  63  91 121 167 209 256 319 381
#     4  10  20  40  62  89 124 167 211 266 306 380
#     4  11  21  39  60  94 123 163 209 267 320 373
#     4  10  21  39  60  90 125 165 214 258 307 384
#     4  10  19  41  66  87 117 172 217 248 311 395
#     4  11  23  36  61  94 126 158 215 266 316 366
#     4  10  21  37  64  87 125 171 207 257 320 373
#
# _framework density 21.397995000000002
#
# number of rings (size 3 to 8) (size 9 to 14) (size 15 to 20)
#    0.000    1.714    2.857    4.286    2.000    2.857 
#    2.571    2.857    0.000    0.857    0.000    0.000 
#    0.000    0.000    0.000    0.000    0.000    0.000 
#
# Total GULP energy -346932.668848 kJ/mol
# GULP energy per Si atom -12390.452459 kJ/mol
# Density = 2.134929 g / cm^3
# Si number density = 21.397995 Si / 1000 Ang^3
#
#
#
# Elastic Constant Matrix: (Units=GPa)
#
#
# Indices 1 2 3 4 5 6 
#
# 1 127.8368 34.9228 50.7537 0.0000 -24.0510 0.0000
# 2 34.9228 69.4868 55.6250 0.0000 -7.6176 0.0000
# 3 50.7537 55.6250 114.5215 0.0000 -27.8608 0.0000
# 4 0.0000 0.0000 0.0000 39.5839 0.0000 -1.9863
# 5 -24.0510 -7.6176 -27.8608 0.0000 45.0033 0.0000
# 6 0.0000 0.0000 0.0000 -1.9863 0.0000 16.7481
#
#
#
# Elastic Compliance Matrix: (Units=1/GPa)
#
#
# Indices 1 2 3 4 5 6 
#
# 1 0.010178 -0.002959 -0.002204 0.000000 0.003574 0.000000
# 2 -0.002959 0.024926 -0.011954 0.000000 -0.004763 0.000000
# 3 -0.002204 -0.011954 0.017349 0.000000 0.007539 0.000000
# 4 0.000000 0.000000 0.000000 0.025414 0.000000 0.003014
# 5 0.003574 -0.004763 0.007539 0.000000 0.027992 0.000000
# 6 0.000000 0.000000 0.000000 0.003014 0.000000 0.060066
#
#
# Mechanical properties :
#
#
# Convention : Reuss Voigt Hill
#
# Bulk Modulus (GPa) = 54.88886 66.04978 60.46932
# Shear Modulus (GPa) = 24.24443 31.63662 27.94053
#
# Velocity S-wave (km/s) = 3.36969 3.84928 3.61744
# Velocity P-wave (km/s) = 6.39116 7.11971 6.76525
#
# Compressibility (1/GPa) = 0.01821863
#
# Stress axis : x y z
#
# Youngs Moduli (GPa) = 98.24756 40.11901 57.63956
#
# Poissons Ratio (x) = 0.11873 0.12703
# Poissons Ratio (y) = 0.29075 0.68903
# Poissons Ratio (z) = 0.21652 0.47959
#
# Static dielectric constant tensor:
#      x y z
#    x 4.059050 0.000000 -0.360870 
#    y 0.000000 3.571530 0.000000 
#    z -0.360870 0.000000 4.074520 
# 
# 
# High freq. dielectric constant tensor:
#      x y z
#    x 1.848720 0.000000 -0.014460 
#    y 0.000000 1.798720 0.000000 
#    z -0.014460 0.000000 1.852030 
# 
# From -- ./inp_files/105795.got.cif
#   From: 2010.06.25/outbox.cif.g09.slc.cpg/sg15_53_cif.got.tgz:105795.got - 2010.06.28 07:06:18.
