data_PCOD8135987
_publ_section_title
;
Structure prediction by ZEFSAII (Michael W. Deem and Ramdas Pophale) SiO2 
 PCOD8135987
Probable space group: C 2/C
;
_chemical_formula_sum "Si O2"
_cell_formula_units_Z 60
_cell_length_a 11.021780
_cell_length_b 16.525569
_cell_length_c 14.489053
_cell_angle_alpha 90.000000
_cell_angle_beta 93.326295
_cell_angle_gamma 90.000000
_cell_volume 2634.607265
_symmetry_space_group_name_H-M "C 2/C"
_symmetry_group_IT_number 15
_symmetry_cell_setting 'monoclinic'
loop_
_space_group_symop_operation_xyz
x,y,z
-x,y,1/2-z
-x,-y,-z
x,-y,1/2+z
1/2+x,1/2+y,z
1/2-x,1/2+y,1/2-z
1/2-x,1/2-y,-z
1/2+x,1/2-y,1/2+z
loop_
_atom_site_type_symbol
_atom_site_label
_atom_site_fract_x
_atom_site_fract_y
_atom_site_fract_z
Si Si1 0.780742 0.185444 0.318184
Si Si2 0.209098 0.300469 0.622474
Si Si3 0.590822 0.830028 0.090342
Si Si4 0.943874 0.254209 0.603144
Si Si5 0.822068 0.368365 0.070798
Si Si6 0.831321 0.976707 0.904873
Si Si7 0.156728 0.911041 0.403210
Si Si8 0.000000 0.015536 0.750000
O O1 0.785146 0.159553 0.210348
O O2 0.890645 0.246375 0.350759
O O3 0.656225 0.235576 0.322092
O O4 0.762618 0.107449 0.382554
O O5 0.199020 0.367625 0.541177
O O6 0.278179 0.219172 0.599426
O O7 0.075438 0.273482 0.648788
O O8 0.463245 0.874085 0.109311
O O9 0.701440 0.892267 0.108094
O O10 0.587838 0.811165 0.982994
O O11 0.930117 0.162229 0.567440
O O12 0.750807 0.443090 0.114666
O O13 0.865556 0.976385 0.015437
O O14 0.942684 0.969231 0.836287
O O15 0.110533 0.935539 0.299717
#
# Coordination Sequence:
#
# PCOD8135987 Si02
#       8
#     8   8   8   8   8   8   8   4
#     4  11  22  41  69 103 135 179 240 283 343 419
#     4  10  23  42  69  98 137 183 237 278 340 427
#     4  10  21  43  71  96 135 186 223 276 352 421
#     4  10  19  41  70  99 129 183 225 284 333 418
#     4  10  25  45  68  99 140 185 226 291 357 412
#     4  12  26  47  67 103 143 179 233 298 357 413
#     4  11  23  45  69  99 136 177 231 287 346 423
#     4  12  30  42  68  96 130 182 228 284 358 402
#
# _framework density 22.773792
#
# number of rings (size 3 to 8) (size 9 to 14) (size 15 to 20)
#    0.000    1.333    2.667    2.400    9.333    2.133 
#    0.000    1.333    0.000    0.000    0.000    0.000 
#    0.000    0.000    0.000    0.000    0.000    0.000 
#
# Total GULP energy -371686.154891 kJ/mol
# GULP energy per Si atom -12389.538496 kJ/mol
# Density = 2.272196 g / cm^3
# Si number density = 22.773792 Si / 1000 Ang^3
#
#
#
# Elastic Constant Matrix: (Units=GPa)
#
#
# Indices 1 2 3 4 5 6 
#
# 1 75.3022 40.6088 48.0823 0.0000 9.3398 0.0000
# 2 40.6088 65.5017 21.5960 0.0000 -3.8488 0.0000
# 3 48.0823 21.5960 121.0263 0.0000 20.8210 0.0000
# 4 0.0000 0.0000 0.0000 20.6578 0.0000 -1.6407
# 5 9.3398 -3.8488 20.8210 0.0000 30.6332 0.0000
# 6 0.0000 0.0000 0.0000 -1.6407 0.0000 14.8767
#
#
#
# Elastic Compliance Matrix: (Units=1/GPa)
#
#
# Indices 1 2 3 4 5 6 
#
# 1 0.025905 -0.014067 -0.006929 0.000000 -0.004956 0.000000
# 2 -0.014067 0.024436 -0.000043 0.000000 0.007388 0.000000
# 3 -0.006929 -0.000043 0.012072 0.000000 -0.006098 0.000000
# 4 0.000000 0.000000 0.000000 0.048836 0.000000 0.005386
# 5 -0.004956 0.007388 -0.006098 0.000000 0.039228 0.000000
# 6 0.000000 0.000000 0.000000 0.005386 0.000000 0.067813
#
#
# Mechanical properties :
#
#
# Convention : Reuss Voigt Hill
#
# Bulk Modulus (GPa) = 49.17441 53.60048 51.38745
# Shear Modulus (GPa) = 18.71637 23.33641 21.02639
#
# Velocity S-wave (km/s) = 2.86988 3.20457 3.04183
# Velocity P-wave (km/s) = 5.71148 6.10570 5.91188
#
# Compressibility (1/GPa) = 0.02033578
#
# Stress axis : x y z
#
# Youngs Moduli (GPa) = 38.60308 40.92340 82.83494
#
# Poissons Ratio (x) = 0.57566 0.57396
# Poissons Ratio (y) = 0.54302 0.00355
# Poissons Ratio (z) = 0.26748 0.00175
#
# Static dielectric constant tensor:
#      x y z
#    x 4.287120 0.000000 0.091720 
#    y 0.000000 3.854450 0.000000 
#    z 0.091720 0.000000 4.213100 
# 
# 
# High freq. dielectric constant tensor:
#      x y z
#    x 1.897890 0.000000 0.006380 
#    y 0.000000 1.875310 0.000000 
#    z 0.006380 0.000000 1.910160 
# 
# From -- ./inp_files/145719.got.cif
#   From: 2010.06.25/outbox.cif.g09.slc.cpg/sg15_73_cif.got.tgz:145719.got - 2010.06.28 07:06:18.
