data_PCOD8135804
_publ_section_title
;
Structure prediction by ZEFSAII (Michael W. Deem and Ramdas Pophale) SiO2 
 PCOD8135804
Probable space group: C 2/C
;
_chemical_formula_sum "Si O2"
_cell_formula_units_Z 48
_cell_length_a 16.835194
_cell_length_b 12.556173
_cell_length_c 14.611223
_cell_angle_alpha 90.000000
_cell_angle_beta 48.447053
_cell_angle_gamma 90.000000
_cell_volume 2311.334112
_symmetry_space_group_name_H-M "C 2/C"
_symmetry_group_IT_number 15
_symmetry_cell_setting 'monoclinic'
loop_
_space_group_symop_operation_xyz
x,y,z
-x,y,1/2-z
-x,-y,-z
x,-y,1/2+z
1/2+x,1/2+y,z
1/2-x,1/2+y,1/2-z
1/2-x,1/2-y,-z
1/2+x,1/2-y,1/2+z
loop_
_atom_site_type_symbol
_atom_site_label
_atom_site_fract_x
_atom_site_fract_y
_atom_site_fract_z
Si Si1 0.000000 0.388085 0.750000
Si Si2 0.506461 0.853063 0.937926
Si Si3 0.169607 0.035217 0.857194
Si Si4 0.473353 0.341759 0.573325
Si Si5 0.000000 0.249445 0.250000
Si Si6 0.330205 0.021364 0.092915
Si Si7 0.829717 0.566869 0.894862
O O1 0.006006 0.310323 0.833649
O O2 0.897884 0.463203 0.821641
O O3 0.627053 0.880338 0.877573
O O4 0.448555 0.774065 0.051831
O O5 0.436499 0.959148 0.985030
O O6 0.229785 0.056383 0.905310
O O7 0.127138 0.915520 0.871947
O O8 0.247210 0.053531 0.710955
O O9 0.071906 0.116295 0.936725
O O10 0.496529 0.328450 0.663967
O O11 0.104652 0.323830 0.170203
O O12 0.282397 0.066318 0.034520
#
# Coordination Sequence:
#
# PCOD8135804 Si02
#       7
#     4   8   8   8   4   8   8
#     4   9  18  36  65  88 124 152 201 262 321 378
#     4  10  19  40  61  95 119 161 209 268 319 376
#     4  11  25  43  57  89 134 172 201 262 327 387
#     4  11  26  42  58  91 134 170 212 263 322 384
#     4  11  22  42  73  98 124 162 231 278 315 380
#     4  10  20  38  68  90 123 159 210 269 319 379
#     4  10  20  39  68  96 117 162 211 270 325 368
#
# _framework density 20.767226000000001
#
# number of rings (size 3 to 8) (size 9 to 14) (size 15 to 20)
#    0.000    1.667    3.333    1.000    2.333    3.333 
#    3.000    1.667    0.000    0.000    0.000    0.000 
#    0.000    0.000    0.000    0.000    0.000    0.000 
#
# Total GULP energy -297431.743626 kJ/mol
# GULP energy per Si atom -12392.989318 kJ/mol
# Density = 2.071996 g / cm^3
# Si number density = 20.767226 Si / 1000 Ang^3
#
#
#
# Elastic Constant Matrix: (Units=GPa)
#
#
# Indices 1 2 3 4 5 6 
#
# 1 118.1417 23.9390 41.3956 0.0000 16.7832 0.0000
# 2 23.9390 50.9712 7.0249 0.0000 7.0698 0.0000
# 3 41.3956 7.0249 103.0269 0.0000 24.1244 0.0000
# 4 0.0000 0.0000 0.0000 30.1998 0.0000 0.0122
# 5 16.7832 7.0698 24.1244 0.0000 37.9811 0.0000
# 6 0.0000 0.0000 0.0000 0.0122 0.0000 24.4522
#
#
#
# Elastic Compliance Matrix: (Units=1/GPa)
#
#
# Indices 1 2 3 4 5 6 
#
# 1 0.010876 -0.004371 -0.003685 0.000000 -0.001652 0.000000
# 2 -0.004371 0.021925 0.000898 0.000000 -0.002720 0.000000
# 3 -0.003685 0.000898 0.012667 0.000000 -0.006585 0.000000
# 4 0.000000 0.000000 0.000000 0.033113 0.000000 -0.000017
# 5 -0.001652 -0.002720 -0.006585 0.000000 0.031747 0.000000
# 6 0.000000 0.000000 0.000000 -0.000017 0.000000 0.040896
#
#
# Mechanical properties :
#
#
# Convention : Reuss Voigt Hill
#
# Bulk Modulus (GPa) = 32.09967 46.31763 39.20865
# Shear Modulus (GPa) = 28.42117 31.84532 30.13324
#
# Velocity S-wave (km/s) = 3.70342 3.92017 3.81333
# Velocity P-wave (km/s) = 5.81184 6.54537 6.18948
#
# Compressibility (1/GPa) = 0.03115296
#
# Stress axis : x y z
#
# Youngs Moduli (GPa) = 91.94588 45.60937 78.94226
#
# Poissons Ratio (x) = 0.19936 0.29091
# Poissons Ratio (y) = 0.40190 -0.07091
# Poissons Ratio (z) = 0.33883 -0.04097
#
# Static dielectric constant tensor:
#      x y z
#    x 3.919480 0.000000 0.240370 
#    y 0.000000 3.425780 0.000000 
#    z 0.240370 0.000000 3.826910 
# 
# 
# High freq. dielectric constant tensor:
#      x y z
#    x 1.819420 0.000000 0.015380 
#    y 0.000000 1.781200 0.000000 
#    z 0.015380 0.000000 1.818700 
# 
# From -- ./inp_files/153824.got.cif
#   From: 2010.06.25/outbox.cif.g09.slc.cpg/sg15_77_cif.got.tgz:153824.got - 2010.06.28 07:06:18.
