data_PCOD8135676
_publ_section_title
;
Structure prediction by ZEFSAII (Michael W. Deem and Ramdas Pophale) SiO2 
 PCOD8135676
Probable space group: C 2/C
;
_chemical_formula_sum "Si O2"
_cell_formula_units_Z 60
_cell_length_a 11.499947
_cell_length_b 14.710946
_cell_length_c 19.326493
_cell_angle_alpha 90.000000
_cell_angle_beta 64.636413
_cell_angle_gamma 90.000000
_cell_volume 2954.400865
_symmetry_space_group_name_H-M "C 2/C"
_symmetry_group_IT_number 15
_symmetry_cell_setting 'monoclinic'
loop_
_space_group_symop_operation_xyz
x,y,z
-x,y,1/2-z
-x,-y,-z
x,-y,1/2+z
1/2+x,1/2+y,z
1/2-x,1/2+y,1/2-z
1/2-x,1/2-y,-z
1/2+x,1/2-y,1/2+z
loop_
_atom_site_type_symbol
_atom_site_label
_atom_site_fract_x
_atom_site_fract_y
_atom_site_fract_z
Si Si1 0.122684 0.995217 0.674058
Si Si2 0.627991 0.717340 0.342564
Si Si3 0.000000 0.692729 0.750000
Si Si4 0.950304 0.450799 0.913938
Si Si5 0.459682 0.525478 0.086522
Si Si6 0.188800 0.386224 0.790241
Si Si7 0.363052 0.102648 0.580146
Si Si8 0.810645 0.532353 0.821464
O O1 0.188748 0.905210 0.690396
O O2 0.000000 0.025085 0.750000
O O3 0.082313 0.981480 0.605121
O O4 0.228694 0.073396 0.647995
O O5 0.525572 0.743839 0.309529
O O6 0.589801 0.627933 0.394058
O O7 0.767470 0.697831 0.269805
O O8 0.627946 0.792920 0.401339
O O9 0.124543 0.630828 0.701584
O O10 0.853695 0.475286 0.877376
O O11 0.056564 0.372393 0.866816
O O12 0.019805 0.543943 0.919131
O O13 0.864840 0.407819 0.996864
O O14 0.344198 0.457068 0.137601
O O15 0.500000 0.500000 0.000000
O O16 0.151039 0.476042 0.756128
#
# Coordination Sequence:
#
# PCOD8135676 Si02
#       8
#     8   8   4   8   8   8   8   8
#     4  11  19  40  65  89 120 177 211 243 317 396
#     4  11  22  39  62  98 123 158 209 276 306 354
#     4  12  20  38  68  98 122 148 220 282 298 352
#     4  10  19  39  63  90 126 170 203 249 326 389
#     4  11  25  43  63  88 132 174 206 250 325 392
#     4  10  20  37  64  89 123 165 211 254 315 375
#     4  10  22  37  63  92 128 161 209 261 313 372
#     4  11  19  37  68  93 119 166 212 253 310 379
#
# _framework density 20.308686999999999
#
# number of rings (size 3 to 8) (size 9 to 14) (size 15 to 20)
#    0.000    1.333    5.333    2.400    0.000    0.000 
#    2.400    9.333    0.000    0.000    0.000    0.000 
#    0.000    0.000    0.000    0.000    0.000    0.000 
#
# Total GULP energy -371890.178500 kJ/mol
# GULP energy per Si atom -12396.339283 kJ/mol
# Density = 2.026246 g / cm^3
# Si number density = 20.308687 Si / 1000 Ang^3
#
#
#
# Elastic Constant Matrix: (Units=GPa)
#
#
# Indices 1 2 3 4 5 6 
#
# 1 65.6447 9.4429 22.8478 0.0000 9.9488 0.0000
# 2 9.4429 71.5732 30.4226 0.0000 -6.2937 0.0000
# 3 22.8478 30.4226 113.6756 0.0000 6.3073 0.0000
# 4 0.0000 0.0000 0.0000 34.1893 0.0000 0.7289
# 5 9.9488 -6.2937 6.3073 0.0000 41.1216 0.0000
# 6 0.0000 0.0000 0.0000 0.7289 0.0000 24.8495
#
#
#
# Elastic Compliance Matrix: (Units=1/GPa)
#
#
# Indices 1 2 3 4 5 6 
#
# 1 0.017008 -0.001382 -0.002833 0.000000 -0.003892 0.000000
# 2 -0.001382 0.016276 -0.004271 0.000000 0.003481 0.000000
# 3 -0.002833 -0.004271 0.010598 0.000000 -0.001594 0.000000
# 4 0.000000 0.000000 0.000000 0.029267 0.000000 -0.000859
# 5 -0.003892 0.003481 -0.001594 0.000000 0.026037 0.000000
# 6 0.000000 0.000000 0.000000 -0.000859 0.000000 0.040268
#
#
# Mechanical properties :
#
#
# Convention : Reuss Voigt Hill
#
# Bulk Modulus (GPa) = 37.16131 41.81335 39.48733
# Shear Modulus (GPa) = 30.23071 32.57741 31.40406
#
# Velocity S-wave (km/s) = 3.86237 4.00948 3.93661
# Velocity P-wave (km/s) = 6.18292 6.48600 6.33627
#
# Compressibility (1/GPa) = 0.02690971
#
# Stress axis : x y z
#
# Youngs Moduli (GPa) = 58.79555 61.44175 94.35925
#
# Poissons Ratio (x) = 0.08492 0.26729
# Poissons Ratio (y) = 0.08126 0.40302
# Poissons Ratio (z) = 0.16655 0.26242
#
# Static dielectric constant tensor:
#      x y z
#    x 3.893500 0.000000 0.053960 
#    y 0.000000 3.375970 0.000000 
#    z 0.053960 0.000000 3.872920 
# 
# 
# High freq. dielectric constant tensor:
#      x y z
#    x 1.801680 0.000000 0.007560 
#    y 0.000000 1.759230 0.000000 
#    z 0.007560 0.000000 1.805810 
# 
# From -- ./inp_files/198308.got.cif
#   From: 2010.06.25/outbox.cif.g09.slc.cpg/sg15_100_cif.got.tgz:198308.got - 2010.06.28 07:06:18.
