data_PCOD8135152
_publ_section_title
;
Structure prediction by ZEFSAII (Michael W. Deem and Ramdas Pophale) SiO2 
 PCOD8135152
Probable space group: C 2/C
;
_chemical_formula_sum "Si O2"
_cell_formula_units_Z 48
_cell_length_a 28.481513
_cell_length_b 8.463731
_cell_length_c 18.933444
_cell_angle_alpha 90.000000
_cell_angle_beta 31.549981
_cell_angle_gamma 90.000000
_cell_volume 2388.126076
_symmetry_space_group_name_H-M "C 2/C"
_symmetry_group_IT_number 15
_symmetry_cell_setting 'monoclinic'
loop_
_space_group_symop_operation_xyz
x,y,z
-x,y,1/2-z
-x,-y,-z
x,-y,1/2+z
1/2+x,1/2+y,z
1/2-x,1/2+y,1/2-z
1/2-x,1/2-y,-z
1/2+x,1/2-y,1/2+z
loop_
_atom_site_type_symbol
_atom_site_label
_atom_site_fract_x
_atom_site_fract_y
_atom_site_fract_z
Si Si1 0.994820 0.538986 0.923619
Si Si2 0.804305 0.407518 0.142439
Si Si3 0.313309 0.051541 0.865495
Si Si4 0.305206 0.551994 0.098008
Si Si5 0.557701 0.685777 0.104229
Si Si6 0.734347 0.136144 0.423111
O O1 0.987847 0.722095 0.903945
O O2 0.088353 0.475891 0.772155
O O3 0.909296 0.450055 0.001286
O O4 0.000000 0.500000 0.000000
O O5 0.762701 0.437292 0.272263
O O6 0.798691 0.222881 0.138894
O O7 0.742562 0.506267 0.166264
O O8 0.312624 0.236138 0.839334
O O9 0.237095 0.946023 0.925822
O O10 0.289419 0.036349 0.977536
O O11 0.408538 0.487967 0.965354
O O12 0.500000 0.674796 0.250000
O O13 0.648662 0.768992 0.008477
#
# Coordination Sequence:
#
# PCOD8135152 Si02
#       6
#     8   8   8   8   8   8
#     4  11  21  36  63  89 119 154 203 248 294 353
#     4  11  23  40  60  87 120 161 195 245 303 356
#     4  10  19  37  63  90 113 157 199 247 293 354
#     4  11  23  40  61  85 122 158 200 243 300 360
#     4  10  20  39  60  86 119 161 196 238 300 358
#     4   9  20  37  64  85 117 157 200 237 298 362
#
# _framework density 20.099443000000001
#
# number of rings (size 3 to 8) (size 9 to 14) (size 15 to 20)
#    0.000    1.667    3.333    3.000    0.000    0.667 
#    3.000    2.500    0.000    0.000    0.000    0.000 
#    0.000    0.000    0.000    0.000    0.000    0.000 
#
# Total GULP energy -297352.939714 kJ/mol
# GULP energy per Si atom -12389.705821 kJ/mol
# Density = 2.005370 g / cm^3
# Si number density = 20.099443 Si / 1000 Ang^3
#
#
#
# Elastic Constant Matrix: (Units=GPa)
#
#
# Indices 1 2 3 4 5 6 
#
# 1 74.2735 7.0590 10.2102 0.0001 11.1862 0.0005
# 2 7.0590 77.1593 13.2863 0.0029 7.3720 0.0008
# 3 10.2102 13.2863 86.7969 0.0009 4.1455 0.0004
# 4 0.0001 0.0029 0.0009 19.4413 0.0002 14.0081
# 5 11.1862 7.3720 4.1455 0.0002 30.3528 -0.0003
# 6 0.0005 0.0008 0.0004 14.0081 -0.0003 15.9736
#
#
#
# Elastic Compliance Matrix: (Units=1/GPa)
#
#
# Indices 1 2 3 4 5 6 
#
# 1 0.014462 -0.000610 -0.001369 0.000001 -0.004995 -0.000002
# 2 -0.000610 0.013609 -0.001877 -0.000004 -0.002824 0.000003
# 3 -0.001369 -0.001877 0.012002 0.000000 -0.000679 0.000000
# 4 0.000001 -0.000004 0.000000 0.139727 -0.000002 -0.122534
# 5 -0.004995 -0.002824 -0.000679 -0.000002 0.035565 0.000003
# 6 -0.000002 0.000003 0.000000 -0.122534 0.000003 0.170060
#
#
# Mechanical properties :
#
#
# Convention : Reuss Voigt Hill
#
# Bulk Modulus (GPa) = 30.90118 33.26009 32.08064
# Shear Modulus (GPa) = 12.37857 26.99848 19.68853
#
# Velocity S-wave (km/s) = 2.48436 3.66901 3.13318
# Velocity P-wave (km/s) = 4.86178 5.87644 5.39302
#
# Compressibility (1/GPa) = 0.03236122
#
# Stress axis : x y z
#
# Youngs Moduli (GPa) = 69.14571 73.48097 83.32026
#
# Poissons Ratio (x) = 0.04483 0.11409
# Poissons Ratio (y) = 0.04219 0.15635
# Poissons Ratio (z) = 0.09468 0.13789
#
# Static dielectric constant tensor:
#      x y z
#    x 3.986620 0.000000 -0.012900 
#    y 0.000000 3.970840 0.000000 
#    z -0.012900 0.000000 3.866350 
# 
# 
# High freq. dielectric constant tensor:
#      x y z
#    x 1.794380 0.000000 0.007950 
#    y 0.000000 1.759610 0.000000 
#    z 0.007950 0.000000 1.783490 
# 
# From -- ./inp_files/258688.got.cif
#   From: 2010.06.25/outbox.cif.g09.slc.cpg/sg15_130_cif.got.tgz:258688.got - 2010.06.28 07:06:18.
