data_PCOD8135897
_publ_section_title
;
Structure prediction by ZEFSAII (Michael W. Deem and Ramdas Pophale) SiO2 
 PCOD8135897
Probable space group: C 2/C
;
_chemical_formula_sum "Si O2"
_cell_formula_units_Z 40
_cell_length_a 11.508816
_cell_length_b 12.173900
_cell_length_c 27.195122
_cell_angle_alpha 90.000000
_cell_angle_beta 28.240178
_cell_angle_gamma 90.000000
_cell_volume 1802.882208
_symmetry_space_group_name_H-M "C 2/C"
_symmetry_group_IT_number 15
_symmetry_cell_setting 'monoclinic'
loop_
_space_group_symop_operation_xyz
x,y,z
-x,y,1/2-z
-x,-y,-z
x,-y,1/2+z
1/2+x,1/2+y,z
1/2-x,1/2+y,1/2-z
1/2-x,1/2-y,-z
1/2+x,1/2-y,1/2+z
loop_
_atom_site_type_symbol
_atom_site_label
_atom_site_fract_x
_atom_site_fract_y
_atom_site_fract_z
Si Si1 0.245568 0.479944 0.437930
Si Si2 0.733863 0.393419 0.965433
Si Si3 0.019242 0.177911 0.102423
Si Si4 0.265910 0.504999 0.631943
Si Si5 0.471545 0.281418 0.203917
O O1 0.156326 0.426303 0.522794
O O2 0.384649 0.594967 0.392054
O O3 0.442830 0.406279 0.334652
O O4 0.000000 0.500000 0.500000
O O5 0.768932 0.493056 0.913687
O O6 0.853713 0.283910 0.899414
O O7 0.434921 0.388729 0.082481
O O8 0.813720 0.259093 0.202776
O O9 0.250000 0.250000 0.000000
O O10 0.890187 0.106445 0.107423
O O11 0.000000 0.530909 0.750000
O O12 0.500000 0.244225 0.250000
#
# Coordination Sequence:
#
# PCOD8135897 Si02
#       5
#     8   8   8   8   8
#     4  11  27  44  67 105 144 183 232 297 363 422
#     4  10  21  41  71  98 138 179 240 285 349 421
#     4  11  23  43  70  99 133 188 240 280 354 416
#     4  10  19  40  72 103 129 177 242 295 339 413
#     4  12  23  46  72  99 142 187 232 296 357 418
#
# _framework density 22.186696000000001
#
# number of rings (size 3 to 8) (size 9 to 14) (size 15 to 20)
#    0.000    1.200    4.000    1.800    0.000    4.800 
#    3.600    0.000    0.000    0.000    0.000    0.000 
#    0.000    0.000    0.000    0.000    0.000    0.000 
#
# Total GULP energy -247807.544877 kJ/mol
# GULP energy per Si atom -12390.377244 kJ/mol
# Density = 2.213620 g / cm^3
# Si number density = 22.186696 Si / 1000 Ang^3
#
#
#
# Elastic Constant Matrix: (Units=GPa)
#
#
# Indices 1 2 3 4 5 6 
#
# 1 142.1499 43.8032 70.8426 0.0072 -5.1799 -0.0013
# 2 43.8032 113.1263 83.7292 -0.0071 -28.5742 -0.0085
# 3 70.8426 83.7292 194.3397 0.0050 -39.2803 0.0213
# 4 0.0072 -0.0071 0.0050 50.1461 -0.0077 -3.2989
# 5 -5.1799 -28.5742 -39.2803 -0.0077 36.6467 -0.0039
# 6 -0.0013 -0.0085 0.0213 -3.2989 -0.0039 15.4324
#
#
#
# Elastic Compliance Matrix: (Units=1/GPa)
#
#
# Indices 1 2 3 4 5 6 
#
# 1 0.009139 -0.002147 -0.003171 -0.000002 -0.003781 0.000003
# 2 -0.002147 0.014331 -0.004078 0.000005 0.006500 0.000016
# 3 -0.003171 -0.004078 0.009351 -0.000001 0.006395 -0.000014
# 4 -0.000002 0.000005 -0.000001 0.020226 0.000007 0.004324
# 5 -0.003781 0.006500 0.006395 0.000007 0.038676 0.000006
# 6 0.000003 0.000016 -0.000014 0.004324 0.000006 0.065723
#
#
# Mechanical properties :
#
#
# Convention : Reuss Voigt Hill
#
# Bulk Modulus (GPa) = 71.27698 94.04066 82.65882
# Shear Modulus (GPa) = 27.63759 37.19443 32.41601
#
# Velocity S-wave (km/s) = 3.53325 4.09886 3.82652
# Velocity P-wave (km/s) = 6.98863 8.05475 7.54055
#
# Compressibility (1/GPa) = 0.01402978
#
# Stress axis : x y z
#
# Youngs Moduli (GPa) = 109.42490 69.77874 106.94108
#
# Poissons Ratio (x) = 0.14981 0.33906
# Poissons Ratio (y) = 0.23492 0.43611
# Poissons Ratio (z) = 0.34693 0.28456
#
# Static dielectric constant tensor:
#      x y z
#    x 4.136720 0.000000 -0.082280 
#    y 0.000000 3.949550 0.000020 
#    z -0.082280 0.000020 4.412970 
# 
# 
# High freq. dielectric constant tensor:
#      x y z
#    x 1.874680 0.000000 -0.004470 
#    y 0.000000 1.856080 0.000000 
#    z -0.004470 0.000000 1.885520 
# 
# From -- ./inp_files/292372.got.cif
#   From: 2010.06.25/outbox.cif.g09.slc.cpg/sg15_147_cif.got.tgz:292372.got - 2010.06.28 07:06:18.
