data_PCOD8135591
_publ_section_title
;
Structure prediction by ZEFSAII (Michael W. Deem and Ramdas Pophale) SiO2 
 PCOD8135591
Probable space group: C 2/C
;
_chemical_formula_sum "Si O2"
_cell_formula_units_Z 60
_cell_length_a 10.142390
_cell_length_b 9.391717
_cell_length_c 28.624973
_cell_angle_alpha 90.000000
_cell_angle_beta 91.153335
_cell_angle_gamma 90.000000
_cell_volume 2726.103851
_symmetry_space_group_name_H-M "C 2/C"
_symmetry_group_IT_number 15
_symmetry_cell_setting 'monoclinic'
loop_
_space_group_symop_operation_xyz
x,y,z
-x,y,1/2-z
-x,-y,-z
x,-y,1/2+z
1/2+x,1/2+y,z
1/2-x,1/2+y,1/2-z
1/2-x,1/2-y,-z
1/2+x,1/2-y,1/2+z
loop_
_atom_site_type_symbol
_atom_site_label
_atom_site_fract_x
_atom_site_fract_y
_atom_site_fract_z
Si Si1 0.478242 0.627216 0.318700
Si Si2 0.937062 0.912732 0.921392
Si Si3 0.954877 0.833886 0.198167
Si Si4 0.500000 0.120097 0.750000
Si Si5 0.327839 0.757417 0.048326
Si Si6 0.305083 0.939333 0.692228
Si Si7 0.146009 0.551735 0.412308
Si Si8 0.420661 0.268156 0.395832
O O1 0.473873 0.662501 0.372804
O O2 0.585925 0.502115 0.308009
O O3 0.487691 0.778473 0.294371
O O4 0.348956 0.542882 0.298964
O O5 0.783835 0.875727 0.931171
O O6 0.047047 0.848731 0.956795
O O7 0.952344 0.082066 0.920533
O O8 0.065825 0.785827 0.160264
O O9 0.000000 0.795944 0.250000
O O10 0.829879 0.731424 0.189191
O O11 0.378534 0.017699 0.735705
O O12 0.226846 0.717883 0.090412
O O13 0.385794 0.914987 0.056415
O O14 0.250000 0.750000 0.000000
O O15 0.339314 0.002535 0.641382
O O16 0.026298 0.659375 0.417786
#
# Coordination Sequence:
#
# PCOD8135591 Si02
#       8
#     8   8   8   4   8   8   8   8
#     4  10  22  36  55  80 113 154 200 240 289 346
#     4   9  20  41  60  84 120 159 194 246 304 358
#     4  10  19  39  57  80 119 156 199 243 285 337
#     4  12  22  30  52  84 108 148 202 236 284 344
#     4  11  23  40  64  93 121 152 196 254 312 364
#     4  10  22  37  54  80 115 156 193 244 294 335
#     4   9  20  41  61  83 122 157 196 246 299 362
#     4   9  21  39  62  88 119 163 199 244 300 353
#
# _framework density 22.009433000000001
#
# number of rings (size 3 to 8) (size 9 to 14) (size 15 to 20)
#    0.000    2.133    1.333    1.600    1.867    3.733 
#    0.000    8.000    0.000    0.000    0.000    0.000 
#    0.000    0.000    0.000    0.000    0.000    0.000 
#
# Total GULP energy -371717.442721 kJ/mol
# GULP energy per Si atom -12390.581424 kJ/mol
# Density = 2.195934 g / cm^3
# Si number density = 22.009433 Si / 1000 Ang^3
#
#
#
# Elastic Constant Matrix: (Units=GPa)
#
#
# Indices 1 2 3 4 5 6 
#
# 1 81.3969 41.5750 2.3999 0.0000 12.0448 0.0000
# 2 41.5750 92.2511 7.5948 0.0000 10.8820 0.0000
# 3 2.3999 7.5948 50.5567 0.0000 11.3704 0.0000
# 4 0.0000 0.0000 0.0000 23.1077 0.0000 12.1643
# 5 12.0448 10.8820 11.3704 0.0000 29.8904 0.0000
# 6 0.0000 0.0000 0.0000 12.1643 0.0000 29.4752
#
#
#
# Elastic Compliance Matrix: (Units=1/GPa)
#
#
# Indices 1 2 3 4 5 6 
#
# 1 0.016504 -0.007003 0.001302 0.000000 -0.004596 0.000000
# 2 -0.007003 0.014331 -0.001402 0.000000 -0.001862 0.000000
# 3 0.001302 -0.001402 0.021797 0.000000 -0.008306 0.000000
# 4 0.000000 0.000000 0.000000 0.055287 0.000000 -0.022816
# 5 -0.004596 -0.001862 -0.008306 0.000000 0.039145 0.000000
# 6 0.000000 0.000000 0.000000 -0.022816 0.000000 0.043343
#
#
# Mechanical properties :
#
#
# Convention : Reuss Voigt Hill
#
# Bulk Modulus (GPa) = 26.02314 36.37156 31.19735
# Shear Modulus (GPa) = 22.99691 28.00366 25.50028
#
# Velocity S-wave (km/s) = 3.23595 3.57087 3.40752
# Velocity P-wave (km/s) = 5.08046 5.79334 5.44857
#
# Compressibility (1/GPa) = 0.03842733
#
# Stress axis : x y z
#
# Youngs Moduli (GPa) = 60.59080 69.77832 45.87882
#
# Poissons Ratio (x) = 0.48866 -0.05975
# Poissons Ratio (y) = 0.42432 0.06430
# Poissons Ratio (z) = -0.07891 0.09780
#
# Static dielectric constant tensor:
#      x y z
#    x 4.024550 0.000000 -0.006190 
#    y 0.000000 3.937270 0.000000 
#    z -0.006190 0.000000 3.844340 
# 
# 
# High freq. dielectric constant tensor:
#      x y z
#    x 1.850460 0.000000 0.006260 
#    y 0.000000 1.866150 0.000000 
#    z 0.006260 0.000000 1.854550 
# 
# From -- ./inp_files/310027.got.cif
#   From: 2010.06.25/outbox.cif.g09.slc.cpg/sg15_156_cif.got.tgz:310027.got - 2010.06.28 07:06:18.
