data_PCOD8135786
_publ_section_title
;
Structure prediction by ZEFSAII (Michael W. Deem and Ramdas Pophale) SiO2 
 PCOD8135786
Probable space group: C 2/C
;
_chemical_formula_sum "Si O2"
_cell_formula_units_Z 52
_cell_length_a 8.032438
_cell_length_b 27.997085
_cell_length_c 14.818063
_cell_angle_alpha 90.000000
_cell_angle_beta 134.600840
_cell_angle_gamma 90.000000
_cell_volume 2372.691292
_symmetry_space_group_name_H-M "C 2/C"
_symmetry_group_IT_number 15
_symmetry_cell_setting 'monoclinic'
loop_
_space_group_symop_operation_xyz
x,y,z
-x,y,1/2-z
-x,-y,-z
x,-y,1/2+z
1/2+x,1/2+y,z
1/2-x,1/2+y,1/2-z
1/2-x,1/2-y,-z
1/2+x,1/2-y,1/2+z
loop_
_atom_site_type_symbol
_atom_site_label
_atom_site_fract_x
_atom_site_fract_y
_atom_site_fract_z
Si Si1 0.000000 0.722799 0.750000
Si Si2 0.163787 0.902875 0.731591
Si Si3 0.000000 0.537909 0.750000
Si Si4 0.896764 0.205853 0.346449
Si Si5 0.518312 0.679275 0.588946
Si Si6 0.549105 0.027965 0.426576
Si Si7 0.500000 0.731984 0.750000
Si Si8 0.990307 0.074529 0.524838
O O1 0.922702 0.760336 0.640703
O O2 0.202561 0.686697 0.794592
O O3 0.145059 0.845890 0.713249
O O4 0.421352 0.920593 0.861918
O O5 0.000000 0.920382 0.750000
O O6 0.082659 0.927400 0.607792
O O7 0.067662 0.506176 0.690864
O O8 0.768029 0.567836 0.638981
O O9 0.656280 0.234248 0.247405
O O10 0.956043 0.206347 0.473819
O O11 0.384069 0.698591 0.627577
O O12 0.438476 0.624953 0.550829
O O13 0.828402 0.035658 0.515808
O O14 0.500000 0.000000 0.500000
#
# Coordination Sequence:
#
# PCOD8135786 Si02
#       8
#     4   8   4   8   8   8   4   8
#     4  10  19  40  58  96 128 174 218 270 333 398
#     4  11  23  43  69 102 137 176 228 282 347 411
#     4  12  25  45  70  96 136 174 232 283 351 412
#     4  10  21  37  63  93 131 170 222 270 326 399
#     4  10  22  38  63  88 132 174 218 272 329 397
#     4  12  27  44  72 100 137 181 226 288 346 419
#     4  10  22  37  60  92 130 176 218 269 328 392
#     4  11  25  46  68 101 136 179 225 290 343 415
#
# _framework density 21.916042000000001
#
# number of rings (size 3 to 8) (size 9 to 14) (size 15 to 20)
#    0.000    1.231    2.308    2.769    6.462    1.231 
#    0.000    3.077    0.000    0.000    0.000    0.000 
#    0.000    0.000    0.000    0.000    0.000    0.000 
#
# Total GULP energy -322105.121757 kJ/mol
# GULP energy per Si atom -12388.658529 kJ/mol
# Density = 2.186616 g / cm^3
# Si number density = 21.916042 Si / 1000 Ang^3
#
#
#
# Elastic Constant Matrix: (Units=GPa)
#
#
# Indices 1 2 3 4 5 6 
#
# 1 112.1854 38.3063 42.3016 0.0000 -14.8436 0.0000
# 2 38.3063 71.3580 39.5263 0.0000 -12.5205 0.0000
# 3 42.3016 39.5263 103.7010 0.0000 -12.4299 0.0000
# 4 0.0000 0.0000 0.0000 16.6229 0.0000 1.8764
# 5 -14.8436 -12.5205 -12.4299 0.0000 48.4298 0.0000
# 6 0.0000 0.0000 0.0000 1.8764 0.0000 31.0507
#
#
#
# Elastic Compliance Matrix: (Units=1/GPa)
#
#
# Indices 1 2 3 4 5 6 
#
# 1 0.011736 -0.004387 -0.002909 0.000000 0.001716 0.000000
# 2 -0.004387 0.019821 -0.005481 0.000000 0.002373 0.000000
# 3 -0.002909 -0.005481 0.013044 0.000000 0.001039 0.000000
# 4 0.000000 0.000000 0.000000 0.060571 0.000000 -0.003660
# 5 0.001716 0.002373 0.001039 0.000000 0.022055 0.000000
# 6 0.000000 0.000000 0.000000 -0.003660 0.000000 0.032427
#
#
# Mechanical properties :
#
#
# Convention : Reuss Voigt Hill
#
# Bulk Modulus (GPa) = 52.50580 58.61253 55.55917
# Shear Modulus (GPa) = 26.10189 30.36137 28.23163
#
# Velocity S-wave (km/s) = 3.45482 3.72607 3.59300
# Velocity P-wave (km/s) = 6.31855 6.73154 6.52831
#
# Compressibility (1/GPa) = 0.01904551
#
# Stress axis : x y z
#
# Youngs Moduli (GPa) = 85.20780 50.45041 76.66651
#
# Poissons Ratio (x) = 0.22135 0.22305
# Poissons Ratio (y) = 0.37385 0.42020
# Poissons Ratio (z) = 0.24790 0.27651
#
# Static dielectric constant tensor:
#      x y z
#    x 4.052330 0.000000 -0.315720 
#    y 0.000000 3.930850 0.000000 
#    z -0.315720 0.000000 3.738640 
# 
# 
# High freq. dielectric constant tensor:
#      x y z
#    x 1.866880 0.000000 -0.016410 
#    y 0.000000 1.868460 0.000000 
#    z -0.016410 0.000000 1.854020 
# 
# From -- ./inp_files/139912.got.cif
#   From: 2010.06.25/outbox.cif.g09.slc.cpg/sg15_70_cif.got.tgz:139912.got - 2010.06.28 07:06:18.
