data_PCOD8135958
_publ_section_title
;
Structure prediction by ZEFSAII (Michael W. Deem and Ramdas Pophale) SiO2 
 PCOD8135958
Probable space group: C 2/C
;
_chemical_formula_sum "Si O2"
_cell_formula_units_Z 52
_cell_length_a 17.114009
_cell_length_b 17.111572
_cell_length_c 10.012039
_cell_angle_alpha 90.000000
_cell_angle_beta 124.033343
_cell_angle_gamma 90.000000
_cell_volume 2429.784917
_symmetry_space_group_name_H-M "C 2/C"
_symmetry_group_IT_number 15
_symmetry_cell_setting 'monoclinic'
loop_
_space_group_symop_operation_xyz
x,y,z
-x,y,1/2-z
-x,-y,-z
x,-y,1/2+z
1/2+x,1/2+y,z
1/2-x,1/2+y,1/2-z
1/2-x,1/2-y,-z
1/2+x,1/2-y,1/2+z
loop_
_atom_site_type_symbol
_atom_site_label
_atom_site_fract_x
_atom_site_fract_y
_atom_site_fract_z
Si Si1 0.278307 0.380286 0.869722
Si Si2 0.281169 0.392144 0.357870
Si Si3 0.435535 0.518003 0.561465
Si Si4 0.500000 0.178950 0.250000
Si Si5 0.652919 0.935503 0.986642
Si Si6 0.360039 0.762680 0.826984
Si Si7 0.824316 0.393742 0.980318
O O1 0.242091 0.289528 0.835694
O O2 0.262612 0.413216 0.704151
O O3 0.388720 0.394360 0.011334
O O4 0.212327 0.427585 0.908348
O O5 0.346131 0.460816 0.477424
O O6 0.217591 0.418954 0.175291
O O7 0.351017 0.323612 0.375945
O O8 0.214584 0.363312 0.414908
O O9 0.500000 0.508055 0.750000
O O10 0.500000 0.500000 0.500000
O O11 0.565044 0.123179 0.403185
O O12 0.559475 0.234921 0.208798
O O13 0.616316 0.025644 0.950998
O O14 0.386257 0.824199 0.971558
#
# Coordination Sequence:
#
# PCOD8135958 Si02
#       7
#     8   8   8   4   8   8   8
#     4   9  20  41  63  89 130 172 216 259 328 393
#     4  12  22  42  68  95 130 179 213 268 344 391
#     4  12  23  39  64 100 129 170 223 275 319 389
#     4  10  24  44  62 102 130 166 226 282 316 390
#     4  11  20  41  71  92 127 174 228 262 322 402
#     4   9  23  43  66  91 136 171 218 269 337 404
#     4  10  19  41  66  94 122 170 221 259 325 399
#
# _framework density 21.401071000000002
#
# number of rings (size 3 to 8) (size 9 to 14) (size 15 to 20)
#    0.923    0.615    3.077    2.308    0.000    3.077 
#    6.923    0.000    0.000    0.000    0.000    0.000 
#    0.000    0.000    0.000    0.000    0.000    0.000 
#
# Total GULP energy -322135.364477 kJ/mol
# GULP energy per Si atom -12389.821711 kJ/mol
# Density = 2.135236 g / cm^3
# Si number density = 21.401071 Si / 1000 Ang^3
#
#
#
# Elastic Constant Matrix: (Units=GPa)
#
#
# Indices 1 2 3 4 5 6 
#
# 1 94.9520 24.8480 24.6420 0.0000 -21.1935 0.0000
# 2 24.8480 51.5987 33.5344 0.0000 -11.7102 0.0000
# 3 24.6420 33.5344 95.7900 0.0000 -3.9133 0.0000
# 4 0.0000 0.0000 0.0000 21.3128 0.0000 -11.3629
# 5 -21.1935 -11.7102 -3.9133 0.0000 39.0988 0.0000
# 6 0.0000 0.0000 0.0000 -11.3629 0.0000 15.3659
#
#
#
# Elastic Compliance Matrix: (Units=1/GPa)
#
#
# Indices 1 2 3 4 5 6 
#
# 1 0.013339 -0.003903 -0.001825 0.000000 0.005879 0.000000
# 2 -0.003903 0.028087 -0.008607 0.000000 0.005435 0.000000
# 3 -0.001825 -0.008607 0.013833 0.000000 -0.002182 0.000000
# 4 0.000000 0.000000 0.000000 0.077459 0.000000 0.057281
# 5 0.005879 0.005435 -0.002182 0.000000 0.030172 0.000000
# 6 0.000000 0.000000 0.000000 0.057281 0.000000 0.107438
#
#
# Mechanical properties :
#
#
# Convention : Reuss Voigt Hill
#
# Bulk Modulus (GPa) = 37.60943 45.37661 41.49302
# Shear Modulus (GPa) = 16.24114 25.77658 21.00886
#
# Velocity S-wave (km/s) = 2.75779 3.47429 3.13657
# Velocity P-wave (km/s) = 5.26805 6.11091 5.70507
#
# Compressibility (1/GPa) = 0.02658908
#
# Stress axis : x y z
#
# Youngs Moduli (GPa) = 74.96939 35.60374 72.29212
#
# Poissons Ratio (x) = 0.13898 0.13191
# Poissons Ratio (y) = 0.29264 0.62219
# Poissons Ratio (z) = 0.13680 0.30643
#
# Static dielectric constant tensor:
#      x y z
#    x 3.797220 0.000000 -0.088120 
#    y 0.000000 3.875670 0.000000 
#    z -0.088120 0.000000 3.857560 
# 
# 
# High freq. dielectric constant tensor:
#      x y z
#    x 1.829020 0.000000 -0.024590 
#    y 0.000000 1.835990 0.000000 
#    z -0.024590 0.000000 1.836600 
# 
# From -- ./inp_files/49213.got.cif
#   From: 2010.06.25/outbox.cif.g09.slc.cpg/sg15_25_cif.got.tgz:49213.got - 2010.06.28 07:06:18.
