data_PCOD8135195
_publ_section_title
;
Structure prediction by ZEFSAII (Michael W. Deem and Ramdas Pophale) SiO2 
 PCOD8135195
Probable space group: C 2/C
;
_chemical_formula_sum "Si O2"
_cell_formula_units_Z 44
_cell_length_a 12.682918
_cell_length_b 25.534922
_cell_length_c 8.613094
_cell_angle_alpha 90.000000
_cell_angle_beta 44.075372
_cell_angle_gamma 90.000000
_cell_volume 1940.327375
_symmetry_space_group_name_H-M "C 2/C"
_symmetry_group_IT_number 15
_symmetry_cell_setting 'monoclinic'
loop_
_space_group_symop_operation_xyz
x,y,z
-x,y,1/2-z
-x,-y,-z
x,-y,1/2+z
1/2+x,1/2+y,z
1/2-x,1/2+y,1/2-z
1/2-x,1/2-y,-z
1/2+x,1/2-y,1/2+z
loop_
_atom_site_type_symbol
_atom_site_label
_atom_site_fract_x
_atom_site_fract_y
_atom_site_fract_z
Si Si1 0.644899 0.532960 0.280375
Si Si2 0.775637 0.550474 0.813458
Si Si3 0.500000 0.880828 0.250000
Si Si4 0.463994 0.612076 0.616306
Si Si5 0.470650 0.272519 0.452091
Si Si6 0.181853 0.286526 0.937675
O O1 0.500000 0.500000 0.500000
O O2 0.793908 0.505249 0.201588
O O3 0.612469 0.593178 0.362442
O O4 0.668078 0.535787 0.072471
O O5 0.931915 0.579403 0.693128
O O6 0.691605 0.589033 0.783517
O O7 0.360797 0.845083 0.459537
O O8 0.500000 0.592052 0.750000
O O9 0.435875 0.673843 0.638386
O O10 0.500000 0.247411 0.250000
O O11 0.295521 0.286596 0.670500
O O12 0.524816 0.235723 0.535408
O O13 0.250000 0.250000 0.000000
#
# Coordination Sequence:
#
# PCOD8135195 Si02
#       6
#     8   8   4   8   8   8
#     4  10  19  37  64  93 124 170 221 281 333 404
#     4  11  23  39  64  95 136 174 229 277 345 413
#     4  12  26  42  68 100 140 184 232 284 354 412
#     4  10  20  37  64  96 129 172 226 280 337 406
#     4  11  24  41  68 100 136 175 229 293 352 407
#     4  12  23  44  68  97 134 184 234 284 346 421
#
# _framework density 22.676586
#
# number of rings (size 3 to 8) (size 9 to 14) (size 15 to 20)
#    0.000    1.091    1.818    7.091    0.000    2.182 
#    0.000    0.000    0.000    0.000    0.000    0.000 
#    0.000    0.000    0.000    0.000    0.000    0.000 
#
# Total GULP energy -272538.514117 kJ/mol
# GULP energy per Si atom -12388.114278 kJ/mol
# Density = 2.262497 g / cm^3
# Si number density = 22.676586 Si / 1000 Ang^3
#
#
#
# Elastic Constant Matrix: (Units=GPa)
#
#
# Indices 1 2 3 4 5 6 
#
# 1 134.1812 31.4093 7.8006 0.0000 7.6746 0.0000
# 2 31.4093 39.1033 -14.3357 0.0000 -1.3245 0.0000
# 3 7.8006 -14.3357 83.6279 0.0000 4.4767 0.0000
# 4 0.0000 0.0000 0.0000 29.1983 0.0000 -8.1779
# 5 7.6746 -1.3245 4.4767 0.0000 36.5188 0.0000
# 6 0.0000 0.0000 0.0000 -8.1779 0.0000 46.8771
#
#
#
# Elastic Compliance Matrix: (Units=1/GPa)
#
#
# Indices 1 2 3 4 5 6 
#
# 1 0.009753 -0.008747 -0.002298 0.000000 -0.002085 0.000000
# 2 -0.008747 0.035139 0.006717 0.000000 0.002289 0.000000
# 3 -0.002298 0.006717 0.013372 0.000000 -0.000913 0.000000
# 4 0.000000 0.000000 0.000000 0.036008 0.000000 0.006282
# 5 -0.002085 0.002289 -0.000913 0.000000 0.028016 0.000000
# 6 0.000000 0.000000 0.000000 0.006282 0.000000 0.022428
#
#
# Mechanical properties :
#
#
# Convention : Reuss Voigt Hill
#
# Bulk Modulus (GPa) = 20.15737 34.07342 27.11539
# Shear Modulus (GPa) = 29.42768 37.98806 33.70787
#
# Velocity S-wave (km/s) = 3.60629 4.09737 3.85965
# Velocity P-wave (km/s) = 5.12335 6.11907 5.64322
#
# Compressibility (1/GPa) = 0.04960964
#
# Stress axis : x y z
#
# Youngs Moduli (GPa) = 102.53353 28.45833 74.78119
#
# Poissons Ratio (x) = 0.24892 0.17181
# Poissons Ratio (y) = 0.89684 -0.50230
# Poissons Ratio (z) = 0.23557 -0.19115
#
# Static dielectric constant tensor:
#      x y z
#    x 4.190130 0.000000 0.066010 
#    y 0.000000 4.417320 0.000000 
#    z 0.066010 0.000000 4.009810 
# 
# 
# High freq. dielectric constant tensor:
#      x y z
#    x 1.894590 0.000000 0.015890 
#    y 0.000000 1.898970 0.000000 
#    z 0.015890 0.000000 1.882380 
# 
# From -- ./inp_files/33990.got.cif
#   From: 2010.06.25/outbox.cif.g09.slc.cpg/sg15_17_cif.got.tgz:33990.got - 2010.06.28 07:06:18.
