data_PCOD8135426
_publ_section_title
;
Structure prediction by ZEFSAII (Michael W. Deem and Ramdas Pophale) SiO2 
 PCOD8135426
Probable space group: C 2/C
;
_chemical_formula_sum "Si O2"
_cell_formula_units_Z 48
_cell_length_a 12.101594
_cell_length_b 16.768389
_cell_length_c 17.691714
_cell_angle_alpha 90.000000
_cell_angle_beta 135.254915
_cell_angle_gamma 90.000000
_cell_volume 2527.248728
_symmetry_space_group_name_H-M "C 2/C"
_symmetry_group_IT_number 15
_symmetry_cell_setting 'monoclinic'
loop_
_space_group_symop_operation_xyz
x,y,z
-x,y,1/2-z
-x,-y,-z
x,-y,1/2+z
1/2+x,1/2+y,z
1/2-x,1/2+y,1/2-z
1/2-x,1/2-y,-z
1/2+x,1/2-y,1/2+z
loop_
_atom_site_type_symbol
_atom_site_label
_atom_site_fract_x
_atom_site_fract_y
_atom_site_fract_z
Si Si1 0.296988 0.967488 0.472539
Si Si2 0.933663 0.740341 0.577974
Si Si3 0.000000 0.990604 0.250000
Si Si4 0.408217 0.120637 0.441185
Si Si5 0.637752 0.393850 0.697102
Si Si6 0.825873 0.521616 0.157437
Si Si7 0.500000 0.131843 0.750000
O O1 0.441684 0.909580 0.530679
O O2 0.253436 0.964992 0.539359
O O3 0.149783 0.938071 0.349172
O O4 0.344095 0.056796 0.470664
O O5 0.750000 0.750000 0.500000
O O6 0.961054 0.699227 0.510700
O O7 0.004752 0.687096 0.679096
O O8 0.021802 0.824157 0.615543
O O9 0.036488 0.043819 0.194975
O O10 0.275484 0.142277 0.315821
O O11 0.706905 0.439520 0.658499
O O12 0.000000 0.561239 0.250000
O O13 0.845919 0.425784 0.180425
#
# Coordination Sequence:
#
# PCOD8135426 Si02
#       7
#     8   8   4   8   8   8   4
#     4  10  19  38  62  90 120 160 215 260 313 371
#     4  12  23  38  58  94 130 168 202 266 331 387
#     4  10  23  36  58  93 128 158 198 266 323 366
#     4  10  19  38  64  84 120 170 206 254 314 379
#     4  11  23  39  62  94 131 162 208 263 327 377
#     4  10  20  39  67  93 115 168 218 268 305 377
#     4  10  21  38  64  91 118 162 228 256 307 382
#
# _framework density 18.992985000000001
#
# number of rings (size 3 to 8) (size 9 to 14) (size 15 to 20)
#    0.500    1.000    3.333    3.500    4.667    0.667 
#    0.000    2.500    1.833    0.000    0.000    0.000 
#    0.000    0.000    0.000    0.000    0.000    0.000 
#
# Total GULP energy -297546.980834 kJ/mol
# GULP energy per Si atom -12397.790868 kJ/mol
# Density = 1.894976 g / cm^3
# Si number density = 18.992985 Si / 1000 Ang^3
#
#
#
# Elastic Constant Matrix: (Units=GPa)
#
#
# Indices 1 2 3 4 5 6 
#
# 1 112.4501 36.9554 30.6556 0.0000 -12.3045 0.0000
# 2 36.9554 55.6186 19.8931 0.0000 -2.6283 0.0000
# 3 30.6556 19.8931 91.6492 0.0000 -0.9697 0.0000
# 4 0.0000 0.0000 0.0000 25.2211 0.0000 3.0158
# 5 -12.3045 -2.6283 -0.9697 0.0000 40.5754 0.0000
# 6 0.0000 0.0000 0.0000 3.0158 0.0000 15.4991
#
#
#
# Elastic Compliance Matrix: (Units=1/GPa)
#
#
# Indices 1 2 3 4 5 6 
#
# 1 0.012263 -0.007093 -0.002529 0.000000 0.003199 0.000000
# 2 -0.007093 0.023650 -0.002768 0.000000 -0.000685 0.000000
# 3 -0.002529 -0.002768 0.012351 0.000000 -0.000651 0.000000
# 4 0.000000 0.000000 0.000000 0.040594 0.000000 -0.007899
# 5 0.003199 -0.000685 -0.000651 0.000000 0.025556 0.000000
# 6 0.000000 0.000000 0.000000 -0.007899 0.000000 0.066057
#
#
# Mechanical properties :
#
#
# Convention : Reuss Voigt Hill
#
# Bulk Modulus (GPa) = 42.57990 48.30290 45.44140
# Shear Modulus (GPa) = 23.46566 27.74003 25.60285
#
# Velocity S-wave (km/s) = 3.51877 3.82585 3.67552
# Velocity P-wave (km/s) = 6.24311 6.70845 6.47996
#
# Compressibility (1/GPa) = 0.02348526
#
# Stress axis : x y z
#
# Youngs Moduli (GPa) = 81.54566 42.28339 80.96566
#
# Poissons Ratio (x) = 0.29990 0.20472
# Poissons Ratio (y) = 0.57837 0.22413
# Poissons Ratio (z) = 0.20619 0.11705
#
# Static dielectric constant tensor:
#      x y z
#    x 3.344780 0.000000 0.048940 
#    y 0.000000 4.030940 0.000000 
#    z 0.048940 0.000000 3.719910 
# 
# 
# High freq. dielectric constant tensor:
#      x y z
#    x 1.733190 0.000000 -0.002690 
#    y 0.000000 1.704430 0.000000 
#    z -0.002690 0.000000 1.759920 
# 
# From -- ./inp_files/199341.got.cif
#   From: 2010.06.25/outbox.cif.g09.slc.cpg/sg15_100_cif.got.tgz:199341.got - 2010.06.28 07:06:18.
