data_PCOD8135874
_publ_section_title
;
Structure prediction by ZEFSAII (Michael W. Deem and Ramdas Pophale) SiO2 
 PCOD8135874
Probable space group: C 2/C
;
_chemical_formula_sum "Si O2"
_cell_formula_units_Z 60
_cell_length_a 24.225843
_cell_length_b 8.026358
_cell_length_c 21.599777
_cell_angle_alpha 90.000000
_cell_angle_beta 138.759987
_cell_angle_gamma 90.000000
_cell_volume 2768.685408
_symmetry_space_group_name_H-M "C 2/C"
_symmetry_group_IT_number 15
_symmetry_cell_setting 'monoclinic'
loop_
_space_group_symop_operation_xyz
x,y,z
-x,y,1/2-z
-x,-y,-z
x,-y,1/2+z
1/2+x,1/2+y,z
1/2-x,1/2+y,1/2-z
1/2-x,1/2-y,-z
1/2+x,1/2-y,1/2+z
loop_
_atom_site_type_symbol
_atom_site_label
_atom_site_fract_x
_atom_site_fract_y
_atom_site_fract_z
Si Si1 0.533945 0.231011 0.126250
Si Si2 0.746546 0.840584 0.932432
Si Si3 0.313861 0.259969 0.763181
Si Si4 0.084635 0.016454 0.432336
Si Si5 0.605869 0.954571 0.263963
Si Si6 0.500000 0.692715 0.250000
Si Si7 0.213038 0.875847 0.291391
Si Si8 0.998823 0.822280 0.967881
O O1 0.455906 0.338657 0.084320
O O2 0.615203 0.337652 0.211422
O O3 0.537203 0.054079 0.164621
O O4 0.528109 0.194574 0.046858
O O5 0.759679 0.703087 0.889681
O O6 0.654134 0.922560 0.851181
O O7 0.750000 0.750000 0.000000
O O8 0.816199 0.985262 0.985753
O O9 0.320342 0.116212 0.717475
O O10 0.249298 0.203503 0.760100
O O11 0.276654 0.425612 0.700198
O O12 0.406015 0.282547 0.868230
O O13 0.054789 0.073736 0.339620
O O14 0.061813 0.164259 0.462235
O O15 0.561540 0.806165 0.262050
O O16 0.000000 0.000000 0.000000
#
# Coordination Sequence:
#
# PCOD8135874 Si02
#       8
#     8   8   8   8   8   4   8   8
#     4  10  22  40  73  96 137 177 230 286 344 413
#     4  11  28  46  70 102 139 186 235 282 346 417
#     4  12  23  43  68 102 140 177 230 286 353 405
#     4  11  24  45  74  97 135 189 231 284 347 417
#     4  11  27  46  64 109 138 179 237 286 346 417
#     4  12  26  46  72  98 142 188 224 286 348 416
#     4  11  22  42  68 101 138 182 220 290 346 407
#     4  10  19  40  68 100 130 170 231 276 339 410
#
# _framework density 21.670933999999999
#
# number of rings (size 3 to 8) (size 9 to 14) (size 15 to 20)
#    0.000    1.067    4.000    3.200    9.333    1.067 
#    0.000    1.333    0.000    0.000    0.000    0.000 
#    0.000    0.000    0.000    0.000    0.000    0.000 
#
# Total GULP energy -372033.933454 kJ/mol
# GULP energy per Si atom -12401.131115 kJ/mol
# Density = 2.162161 g / cm^3
# Si number density = 21.670934 Si / 1000 Ang^3
#
#
#
# Elastic Constant Matrix: (Units=GPa)
#
#
# Indices 1 2 3 4 5 6 
#
# 1 70.8967 13.8388 25.2824 0.0000 -11.7072 0.0000
# 2 13.8388 81.4558 34.4566 -0.0001 -12.8805 0.0002
# 3 25.2824 34.4566 118.9203 0.0000 -19.8513 0.0000
# 4 0.0000 -0.0001 0.0000 25.4687 0.0000 -1.1824
# 5 -11.7072 -12.8805 -19.8513 0.0000 39.6454 0.0000
# 6 0.0000 0.0002 0.0000 -1.1824 0.0000 28.3510
#
#
#
# Elastic Compliance Matrix: (Units=1/GPa)
#
#
# Indices 1 2 3 4 5 6 
#
# 1 0.015719 -0.001132 -0.002510 0.000000 0.003017 0.000000
# 2 -0.001132 0.014352 -0.003487 0.000000 0.002583 0.000000
# 3 -0.002510 -0.003487 0.010519 0.000000 0.003393 0.000000
# 4 0.000000 0.000000 0.000000 0.039340 0.000000 0.001641
# 5 0.003017 0.002583 0.003393 0.000000 0.028653 0.000000
# 6 0.000000 0.000000 0.000000 0.001641 0.000000 0.035341
#
#
# Mechanical properties :
#
#
# Convention : Reuss Voigt Hill
#
# Bulk Modulus (GPa) = 37.97442 46.49203 42.23322
# Shear Modulus (GPa) = 29.94734 31.87267 30.91000
#
# Velocity S-wave (km/s) = 3.72144 3.83920 3.78078
# Velocity P-wave (km/s) = 6.00223 6.41505 6.21207
#
# Compressibility (1/GPa) = 0.02633351
#
# Stress axis : x y z
#
# Youngs Moduli (GPa) = 63.61574 69.67571 95.06258
#
# Poissons Ratio (x) = 0.07884 0.23864
# Poissons Ratio (y) = 0.07199 0.33146
# Poissons Ratio (z) = 0.15970 0.24294
#
# Static dielectric constant tensor:
#      x y z
#    x 4.015160 0.000000 -0.313500 
#    y 0.000000 3.895060 0.000000 
#    z -0.313500 0.000000 4.406900 
# 
# 
# High freq. dielectric constant tensor:
#      x y z
#    x 1.851650 0.000000 -0.009190 
#    y 0.000000 1.848410 0.000000 
#    z -0.009190 0.000000 1.857860 
# 
# From -- ./inp_files/255207.got.cif
#   From: 2010.06.25/outbox.cif.g09.slc.cpg/sg15_128_cif.got.tgz:255207.got - 2010.06.28 07:06:18.
