data_PCOD8135085
_publ_section_title
;
Structure prediction by ZEFSAII (Michael W. Deem and Ramdas Pophale) SiO2 
 PCOD8135085
Probable space group: C 2/C
;
_chemical_formula_sum "Si O2"
_cell_formula_units_Z 56
_cell_length_a 24.307473
_cell_length_b 11.299974
_cell_length_c 19.236061
_cell_angle_alpha 90.000000
_cell_angle_beta 34.128008
_cell_angle_gamma 90.000000
_cell_volume 2964.354232
_symmetry_space_group_name_H-M "C 2/C"
_symmetry_group_IT_number 15
_symmetry_cell_setting 'monoclinic'
loop_
_space_group_symop_operation_xyz
x,y,z
-x,y,1/2-z
-x,-y,-z
x,-y,1/2+z
1/2+x,1/2+y,z
1/2-x,1/2+y,1/2-z
1/2-x,1/2-y,-z
1/2+x,1/2-y,1/2+z
loop_
_atom_site_type_symbol
_atom_site_label
_atom_site_fract_x
_atom_site_fract_y
_atom_site_fract_z
Si Si1 0.000000 0.575593 0.250000
Si Si2 0.633244 0.971203 0.994190
Si Si3 0.308703 0.612421 0.768698
Si Si4 0.855422 0.227271 0.861299
Si Si5 0.626145 0.270800 0.436673
Si Si6 0.442235 0.404819 0.674237
Si Si7 0.261989 0.715448 0.409598
Si Si8 0.500000 0.460349 0.250000
O O1 0.957418 0.501498 0.360107
O O2 0.915032 0.652054 0.304476
O O3 0.601602 0.871113 0.969599
O O4 0.718701 0.917515 0.953352
O O5 0.691430 0.081576 0.897791
O O6 0.349264 0.692834 0.787776
O O7 0.317475 0.695429 0.692287
O O8 0.378246 0.495121 0.693721
O O9 0.904544 0.123412 0.855730
O O10 0.750000 0.250000 0.000000
O O11 0.528148 0.348708 0.538635
O O12 0.699863 0.302405 0.423750
O O13 0.375289 0.294051 0.768788
O O14 0.493140 0.461641 0.688314
O O15 0.250000 0.750000 0.500000
#
# Coordination Sequence:
#
# PCOD8135085 Si02
#       8
#     4   8   8   8   8   8   8   4
#     4  11  20  39  62  92 120 159 198 267 302 352
#     4   9  22  37  59  87 123 152 197 249 309 348
#     4  10  20  43  58  83 125 159 202 246 299 370
#     4  10  20  38  60  87 116 157 205 250 295 355
#     4  10  22  38  59  87 122 159 198 243 308 360
#     4  10  19  37  61  87 118 157 205 245 298 361
#     4   9  20  35  58  87 117 154 191 249 299 354
#     4   9  20  33  60  92 108 149 214 241 292 358
#
# _framework density 18.89113
#
# number of rings (size 3 to 8) (size 9 to 14) (size 15 to 20)
#    0.857    1.429    1.429    1.286    2.000    0.000 
#    5.143    0.714    0.000    0.000    0.000    0.000 
#    0.000    0.000    0.000    0.000    0.000    0.000 
#
# Total GULP energy -346889.584239 kJ/mol
# GULP energy per Si atom -12388.913723 kJ/mol
# Density = 1.884813 g / cm^3
# Si number density = 18.891130 Si / 1000 Ang^3
#
#
#
# Elastic Constant Matrix: (Units=GPa)
#
#
# Indices 1 2 3 4 5 6 
#
# 1 80.5559 26.0148 42.1794 0.0000 4.9324 0.0000
# 2 26.0148 70.7126 51.0865 -0.0002 5.2232 0.0001
# 3 42.1794 51.0865 143.4238 -0.0001 0.7797 0.0000
# 4 0.0000 -0.0002 -0.0001 26.0160 0.0000 4.6113
# 5 4.9324 5.2232 0.7797 0.0000 28.1843 0.0000
# 6 0.0000 0.0001 0.0000 4.6113 0.0000 32.4313
#
#
#
# Elastic Compliance Matrix: (Units=1/GPa)
#
#
# Indices 1 2 3 4 5 6 
#
# 1 0.015299 -0.003011 -0.003416 0.000000 -0.002025 0.000000
# 2 -0.003011 0.019954 -0.006206 0.000000 -0.002999 0.000000
# 3 -0.003416 -0.006206 0.010179 0.000000 0.001466 0.000000
# 4 0.000000 0.000000 0.000000 0.039432 0.000000 -0.005607
# 5 -0.002025 -0.002999 0.001466 0.000000 0.036350 0.000000
# 6 0.000000 0.000000 0.000000 -0.005607 0.000000 0.031632
#
#
# Mechanical properties :
#
#
# Convention : Reuss Voigt Hill
#
# Bulk Modulus (GPa) = 49.58505 59.25040 54.41772
# Shear Modulus (GPa) = 27.05141 29.02044 28.03593
#
# Velocity S-wave (km/s) = 3.78823 3.92368 3.85655
# Velocity P-wave (km/s) = 6.74085 7.20828 6.97848
#
# Compressibility (1/GPa) = 0.02016737
#
# Stress axis : x y z
#
# Youngs Moduli (GPa) = 65.36571 50.11414 98.23839
#
# Poissons Ratio (x) = 0.15090 0.33554
# Poissons Ratio (y) = 0.19682 0.60965
# Poissons Ratio (z) = 0.22326 0.31100
#
# Static dielectric constant tensor:
#      x y z
#    x 3.198970 0.000000 -0.262280 
#    y 0.000000 3.456490 0.000000 
#    z -0.262280 0.000000 3.302970 
# 
# 
# High freq. dielectric constant tensor:
#      x y z
#    x 1.719140 0.000000 -0.008750 
#    y 0.000000 1.723260 0.000000 
#    z -0.008750 0.000000 1.738810 
# 
# From -- ./inp_files/257400.got.cif
#   From: 2010.06.25/outbox.cif.g09.slc.cpg/sg15_129_cif.got.tgz:257400.got - 2010.06.28 07:06:18.
