data_PCOD8135575
_publ_section_title
;
Structure prediction by ZEFSAII (Michael W. Deem and Ramdas Pophale) SiO2 
 PCOD8135575
Probable space group: C 2/C
;
_chemical_formula_sum "Si O2"
_cell_formula_units_Z 56
_cell_length_a 12.988826
_cell_length_b 12.550721
_cell_length_c 26.932076
_cell_angle_alpha 90.000000
_cell_angle_beta 32.892710
_cell_angle_gamma 90.000000
_cell_volume 2384.307761
_symmetry_space_group_name_H-M "C 2/C"
_symmetry_group_IT_number 15
_symmetry_cell_setting 'monoclinic'
loop_
_space_group_symop_operation_xyz
x,y,z
-x,y,1/2-z
-x,-y,-z
x,-y,1/2+z
1/2+x,1/2+y,z
1/2-x,1/2+y,1/2-z
1/2-x,1/2-y,-z
1/2+x,1/2-y,1/2+z
loop_
_atom_site_type_symbol
_atom_site_label
_atom_site_fract_x
_atom_site_fract_y
_atom_site_fract_z
Si Si1 0.634938 0.584136 0.847093
Si Si2 0.843890 0.034042 0.773101
Si Si3 0.228806 0.732605 0.566522
Si Si4 0.251346 0.499000 0.036144
Si Si5 0.693844 0.299482 0.740730
Si Si6 0.423060 0.099669 0.229977
Si Si7 0.038265 0.421873 0.029026
O O1 0.581841 0.567932 0.810775
O O2 0.692757 0.706564 0.834089
O O3 0.810171 0.507822 0.789932
O O4 0.453498 0.557580 0.954173
O O5 0.793351 0.908285 0.795717
O O6 0.000000 0.064176 0.750000
O O7 0.652633 0.099473 0.862281
O O8 0.250000 0.750000 0.500000
O O9 0.268880 0.608592 0.562559
O O10 0.384924 0.812103 0.526866
O O11 0.021825 0.763842 0.668454
O O12 0.195581 0.471007 0.002179
O O13 0.095866 0.576416 0.122751
O O14 0.782832 0.317086 0.759713
O O15 0.500000 0.150962 0.250000
O O16 0.000000 0.500000 0.000000
#
# Coordination Sequence:
#
# PCOD8135575 Si02
#       7
#     8   8   8   8   8   8   8
#     4  11  23  43  70  95 135 176 223 288 334 403
#     4  11  22  40  65 100 136 169 218 279 341 400
#     4  10  19  38  69  95 129 182 225 266 339 410
#     4  11  22  44  68  95 135 180 226 281 338 411
#     4  11  22  43  66  96 133 178 219 284 339 398
#     4  11  24  45  66  95 137 178 228 279 339 410
#     4  11  20  37  64 104 135 170 225 284 337 404
#
# _framework density 23.486899999999999
#
# number of rings (size 3 to 8) (size 9 to 14) (size 15 to 20)
#    0.000    1.143    4.286    6.000    0.000    2.286 
#    2.571    4.286    3.143    0.000    0.000    0.000 
#    0.000    0.000    0.000    0.000    0.000    0.000 
#
# Total GULP energy -347262.095406 kJ/mol
# GULP energy per Si atom -12402.217693 kJ/mol
# Density = 2.343344 g / cm^3
# Si number density = 23.486900 Si / 1000 Ang^3
#
#
#
# Elastic Constant Matrix: (Units=GPa)
#
#
# Indices 1 2 3 4 5 6 
#
# 1 58.5927 7.3378 14.6615 0.0009 -15.2721 -0.0003
# 2 7.3378 119.1191 56.1337 0.0026 -24.0008 0.0000
# 3 14.6615 56.1337 150.7396 0.0088 -32.9689 -0.0002
# 4 0.0009 0.0026 0.0088 39.3503 0.0008 -4.9882
# 5 -15.2721 -24.0008 -32.9689 0.0008 29.2132 -0.0002
# 6 -0.0003 0.0000 -0.0002 -4.9882 -0.0002 28.2611
#
#
#
# Elastic Compliance Matrix: (Units=1/GPa)
#
#
# Indices 1 2 3 4 5 6 
#
# 1 0.019871 0.000983 0.000199 -0.000001 0.011420 0.000000
# 2 0.000983 0.010922 -0.002772 0.000000 0.006359 0.000000
# 3 0.000199 -0.002772 0.009522 -0.000002 0.008573 0.000000
# 4 -0.000001 0.000000 -0.000002 0.025994 -0.000004 0.004588
# 5 0.011420 0.006359 0.008573 -0.000004 0.055100 0.000000
# 6 0.000000 0.000000 0.000000 0.004588 0.000000 0.036194
#
#
# Mechanical properties :
#
#
# Convention : Reuss Voigt Hill
#
# Bulk Modulus (GPa) = 26.92893 53.85749 40.39321
# Shear Modulus (GPa) = 28.87480 36.05282 32.46381
#
# Velocity S-wave (km/s) = 3.51008 3.92218 3.72184
# Velocity P-wave (km/s) = 5.28375 6.59485 5.97537
#
# Compressibility (1/GPa) = 0.03713478
#
# Stress axis : x y z
#
# Youngs Moduli (GPa) = 50.32511 91.55920 105.02175
#
# Poissons Ratio (x) = -0.09002 -0.02090
# Poissons Ratio (y) = -0.04948 0.29113
# Poissons Ratio (z) = -0.01001 0.25381
#
# Static dielectric constant tensor:
#      x y z
#    x 4.131000 0.000000 -0.155270 
#    y 0.000000 4.235850 0.000020 
#    z -0.155270 0.000020 3.773070 
# 
# 
# High freq. dielectric constant tensor:
#      x y z
#    x 1.920840 0.000000 -0.006760 
#    y 0.000000 1.924300 0.000000 
#    z -0.006760 0.000000 1.934960 
# 
# From -- ./inp_files/313698.got.cif
#   From: 2010.06.25/outbox.cif.g09.slc.cpg/sg15_157_cif.got.tgz:313698.got - 2010.06.28 07:06:18.
