data_PCOD8135552
_publ_section_title
;
Structure prediction by ZEFSAII (Michael W. Deem and Ramdas Pophale) SiO2 
 PCOD8135552
Probable space group: C 2/C
;
_chemical_formula_sum "Si O2"
_cell_formula_units_Z 40
_cell_length_a 11.937438
_cell_length_b 8.561091
_cell_length_c 15.812495
_cell_angle_alpha 90.000000
_cell_angle_beta 63.429699
_cell_angle_gamma 90.000000
_cell_volume 1445.325744
_symmetry_space_group_name_H-M "C 2/C"
_symmetry_group_IT_number 15
_symmetry_cell_setting 'monoclinic'
loop_
_space_group_symop_operation_xyz
x,y,z
-x,y,1/2-z
-x,-y,-z
x,-y,1/2+z
1/2+x,1/2+y,z
1/2-x,1/2+y,1/2-z
1/2-x,1/2-y,-z
1/2+x,1/2-y,1/2+z
loop_
_atom_site_type_symbol
_atom_site_label
_atom_site_fract_x
_atom_site_fract_y
_atom_site_fract_z
Si Si1 0.365547 0.206447 0.188986
Si Si2 0.061439 0.239330 0.489818
Si Si3 0.640248 0.479062 0.705429
Si Si4 0.984672 0.604781 0.844984
Si Si5 0.749157 0.975460 0.510952
O O1 0.424540 0.272189 0.080485
O O2 0.356886 0.342848 0.261576
O O3 0.225079 0.139925 0.229932
O O4 0.452792 0.064667 0.189861
O O5 0.053128 0.305686 0.398355
O O6 0.138131 0.076150 0.463479
O O7 0.146563 0.345829 0.521305
O O8 0.500000 0.416666 0.750000
O O9 0.686193 0.463257 0.594440
O O10 0.000000 0.693979 0.750000
O O11 0.834901 0.604307 0.913161
#
# Coordination Sequence:
#
# PCOD8135552 Si02
#       5
#     8   8   8   8   8
#     4  11  23  40  69 111 152 193 256 309 376 456
#     4  10  19  38  67 111 140 191 261 311 359 460
#     4  12  23  43  74 112 148 200 250 308 383 456
#     4  11  22  37  68 114 142 196 258 310 373 449
#     4  10  20  38  71 110 143 190 256 308 370 456
#
# _framework density 27.675422000000001
#
# number of rings (size 3 to 8) (size 9 to 14) (size 15 to 20)
#    0.000    1.200    6.000    1.800    5.600    0.000 
#    0.000    2.000    0.000   14.400    5.200    1.400 
#    0.000    0.000    0.000    0.000    0.000    0.000 
#
# Total GULP energy -247896.438335 kJ/mol
# GULP energy per Si atom -12394.821917 kJ/mol
# Density = 2.761243 g / cm^3
# Si number density = 27.675422 Si / 1000 Ang^3
#
#
#
# Elastic Constant Matrix: (Units=GPa)
#
#
# Indices 1 2 3 4 5 6 
#
# 1 171.6738 56.5785 75.6925 0.0000 -22.5124 0.0000
# 2 56.5785 97.5129 43.9427 0.0000 6.1282 0.0000
# 3 75.6925 43.9427 209.2767 0.0000 -0.6930 0.0000
# 4 0.0000 0.0000 0.0000 -39.3740 0.0000 23.7798
# 5 -22.5124 6.1282 -0.6930 0.0000 59.8039 0.0000
# 6 0.0000 0.0000 0.0000 23.7798 0.0000 34.0472
#
#
#
# Elastic Compliance Matrix: (Units=1/GPa)
#
#
# Indices 1 2 3 4 5 6 
#
# 1 0.008704 -0.004273 -0.002239 0.000000 0.003688 0.000000
# 2 -0.004273 0.013510 -0.001301 0.000000 -0.003008 0.000000
# 3 -0.002239 -0.001301 0.005859 0.000000 -0.000641 0.000000
# 4 0.000000 0.000000 0.000000 -0.017863 0.000000 0.012476
# 5 0.003688 -0.003008 -0.000641 0.000000 0.018411 0.000000
# 6 0.000000 0.000000 0.000000 0.012476 0.000000 0.020657
#
#
# Mechanical properties :
#
#
# Convention : Reuss Voigt Hill
#
# Bulk Modulus (GPa) = 80.34043 92.32118 86.33081
# Shear Modulus (GPa) = 72.40788 31.04539 51.72664
#
# Velocity S-wave (km/s) = 5.12055 3.35291 4.32794
# Velocity P-wave (km/s) = 8.00329 6.95847 7.49910
#
# Compressibility (1/GPa) = 0.01244703
#
# Stress axis : x y z
#
# Youngs Moduli (GPa) = 114.88898 74.02031 170.67377
#
# Poissons Ratio (x) = 0.31630 0.38208
# Poissons Ratio (y) = 0.49094 0.22207
# Poissons Ratio (z) = 0.25720 0.09631
#
# Static dielectric constant tensor:
#      x y z
#    x 5.317140 0.000000 -0.524800 
#    y 0.000000 4.958230 0.000000 
#    z -0.524800 0.000000 5.303730 
# 
# 
# High freq. dielectric constant tensor:
#      x y z
#    x 2.122870 0.000000 -0.017990 
#    y 0.000000 2.116640 0.000000 
#    z -0.017990 0.000000 2.127110 
# 
# From -- ./inp_files/195907.got.cif
#   From: 2010.06.25/outbox.cif.g09.slc.cpg/sg15_98_cif.got.tgz:195907.got - 2010.06.28 07:06:18.
