data_PCOD8135642
_publ_section_title
;
Structure prediction by ZEFSAII (Michael W. Deem and Ramdas Pophale) SiO2 
 PCOD8135642
Probable space group: C 2/C
;
_chemical_formula_sum "Si O2"
_cell_formula_units_Z 48
_cell_length_a 10.003783
_cell_length_b 18.223450
_cell_length_c 21.512152
_cell_angle_alpha 90.000000
_cell_angle_beta 145.772589
_cell_angle_gamma 90.000000
_cell_volume 2205.895994
_symmetry_space_group_name_H-M "C 2/C"
_symmetry_group_IT_number 15
_symmetry_cell_setting 'monoclinic'
loop_
_space_group_symop_operation_xyz
x,y,z
-x,y,1/2-z
-x,-y,-z
x,-y,1/2+z
1/2+x,1/2+y,z
1/2-x,1/2+y,1/2-z
1/2-x,1/2-y,-z
1/2+x,1/2-y,1/2+z
loop_
_atom_site_type_symbol
_atom_site_label
_atom_site_fract_x
_atom_site_fract_y
_atom_site_fract_z
Si Si1 0.260109 0.933728 0.124958
Si Si2 0.830510 0.058132 0.131265
Si Si3 0.293946 0.462270 0.005021
Si Si4 0.088171 0.779255 0.022588
Si Si5 0.545715 0.303407 0.663633
Si Si6 0.485745 0.833496 0.912351
O O1 0.500000 0.908507 0.250000
O O2 0.116081 0.864951 0.043626
O O3 0.078624 0.969082 0.105002
O O4 0.330357 0.990117 0.097164
O O5 0.629410 0.104735 0.087915
O O6 0.000000 0.024075 0.250000
O O7 0.974888 0.111172 0.139775
O O8 0.727174 0.993825 0.047714
O O9 0.204650 0.377367 0.964852
O O10 0.351005 0.743039 0.127284
O O11 0.928207 0.735674 0.012195
O O12 0.953670 0.770336 0.905360
O O13 0.808194 0.297400 0.793575
#
# Coordination Sequence:
#
# PCOD8135642 Si02
#       6
#     8   8   8   8   8   8
#     4  11  25  40  63  85 127 168 210 257 309 382
#     4   9  18  36  62  90 123 161 201 253 314 371
#     4  11  24  40  58  95 126 165 205 259 322 370
#     4  10  19  39  61  91 119 168 211 248 303 375
#     4   9  18  35  65  89 121 161 209 244 305 381
#     4  10  21  36  64  94 126 159 207 266 311 365
#
# _framework density 21.759865000000001
#
# number of rings (size 3 to 8) (size 9 to 14) (size 15 to 20)
#    0.000    2.000    1.667    3.000    4.667    0.667 
#    0.000    0.000    0.000    2.000    0.000    0.000 
#    0.000    0.000    0.000    0.000    0.000    0.000 
#
# Total GULP energy -297495.413181 kJ/mol
# GULP energy per Si atom -12395.642216 kJ/mol
# Density = 2.171034 g / cm^3
# Si number density = 21.759865 Si / 1000 Ang^3
#
#
#
# Elastic Constant Matrix: (Units=GPa)
#
#
# Indices 1 2 3 4 5 6 
#
# 1 59.4219 27.1460 38.6006 0.0000 -15.9089 0.0001
# 2 27.1460 96.4613 25.7174 0.0000 -15.2755 -0.0001
# 3 38.6006 25.7174 89.9519 0.0000 -16.8981 0.0010
# 4 0.0000 0.0000 0.0000 35.6889 0.0001 0.1567
# 5 -15.9089 -15.2755 -16.8981 0.0001 21.3816 0.0005
# 6 0.0001 -0.0001 0.0010 0.1567 0.0005 34.2800
#
#
#
# Elastic Compliance Matrix: (Units=1/GPa)
#
#
# Indices 1 2 3 4 5 6 
#
# 1 0.026848 -0.003600 -0.008482 0.000000 0.010701 0.000000
# 2 -0.003600 0.012514 -0.001006 0.000000 0.005467 0.000000
# 3 -0.008482 -0.001006 0.016117 0.000000 0.005708 -0.000001
# 4 0.000000 0.000000 0.000000 0.028021 0.000000 -0.000128
# 5 0.010701 0.005467 0.005708 0.000000 0.063148 -0.000001
# 6 0.000000 0.000000 -0.000001 -0.000128 -0.000001 0.029172
#
#
# Mechanical properties :
#
#
# Convention : Reuss Voigt Hill
#
# Bulk Modulus (GPa) = 34.12534 47.64034 40.88284
# Shear Modulus (GPa) = 23.61144 28.56149 26.08646
#
# Velocity S-wave (km/s) = 3.29765 3.62688 3.46617
# Velocity P-wave (km/s) = 5.49691 6.28333 5.90323
#
# Compressibility (1/GPa) = 0.02930374
#
# Stress axis : x y z
#
# Youngs Moduli (GPa) = 37.24664 79.91197 62.04776
#
# Poissons Ratio (x) = 0.28765 0.52627
# Poissons Ratio (y) = 0.13407 0.06242
# Poissons Ratio (z) = 0.31591 0.08040
#
# Static dielectric constant tensor:
#      x y z
#    x 3.842200 0.000000 -0.116910 
#    y 0.000000 3.917190 0.000000 
#    z -0.116910 0.000000 3.626520 
# 
# 
# High freq. dielectric constant tensor:
#      x y z
#    x 1.846580 0.000000 -0.013580 
#    y 0.000000 1.855040 0.000000 
#    z -0.013580 0.000000 1.837010 
# 
# From -- ./inp_files/270652.got.cif
#   From: 2010.06.25/outbox.cif.g09.slc.cpg/sg15_136_cif.got.tgz:270652.got - 2010.06.28 07:06:18.
