data_PCOD8135157
_publ_section_title
;
Structure prediction by ZEFSAII (Michael W. Deem and Ramdas Pophale) SiO2 
 PCOD8135157
Probable space group: C 2/C
;
_chemical_formula_sum "Si O2"
_cell_formula_units_Z 32
_cell_length_a 21.381839
_cell_length_b 9.684241
_cell_length_c 10.716183
_cell_angle_alpha 90.000000
_cell_angle_beta 132.708757
_cell_angle_gamma 90.000000
_cell_volume 1630.520928
_symmetry_space_group_name_H-M "C 2/C"
_symmetry_group_IT_number 15
_symmetry_cell_setting 'monoclinic'
loop_
_space_group_symop_operation_xyz
x,y,z
-x,y,1/2-z
-x,-y,-z
x,-y,1/2+z
1/2+x,1/2+y,z
1/2-x,1/2+y,1/2-z
1/2-x,1/2-y,-z
1/2+x,1/2-y,1/2+z
loop_
_atom_site_type_symbol
_atom_site_label
_atom_site_fract_x
_atom_site_fract_y
_atom_site_fract_z
Si Si1 0.719405 0.206340 0.324660
Si Si2 0.385021 0.203126 0.658448
Si Si3 0.737033 0.596850 0.624996
Si Si4 0.455465 0.130845 0.503117
O O1 0.750000 0.250000 0.500000
O O2 0.751116 0.321570 0.271841
O O3 0.767095 0.064926 0.350099
O O4 0.615860 0.194105 0.185166
O O5 0.348079 0.349364 0.559855
O O6 0.317123 0.117149 0.643955
O O7 0.407817 0.102663 0.571433
O O8 0.467562 0.236023 0.856571
O O9 0.500000 0.000000 0.500000
#
# Coordination Sequence:
#
# PCOD8135157 Si02
#       4
#     8   8   8   8
#     4  11  25  38  65  92 126 164 214 255 315 377
#     4   9  20  36  64  84 124 158 204 263 308 352
#     4  10  22  40  61  91 124 165 205 258 316 370
#     4  10  19  37  63  91 117 161 214 252 303 371
#
# _framework density 19.625630999999998
#
# number of rings (size 3 to 8) (size 9 to 14) (size 15 to 20)
#    0.000    2.000    2.500    0.000   10.500    0.000 
#    0.000    1.250   11.000    0.000    0.000    0.000 
#    0.000    0.000    0.000    0.000    0.000    0.000 
#
# Total GULP energy -198256.303744 kJ/mol
# GULP energy per Si atom -12391.018984 kJ/mol
# Density = 1.958096 g / cm^3
# Si number density = 19.625631 Si / 1000 Ang^3
#
#
#
# Elastic Constant Matrix: (Units=GPa)
#
#
# Indices 1 2 3 4 5 6 
#
# 1 120.4749 49.1494 61.1819 0.0000 0.1920 0.0000
# 2 49.1494 130.7690 64.8484 0.0000 -11.1406 0.0000
# 3 61.1819 64.8484 196.2939 0.0000 7.3641 0.0000
# 4 0.0000 0.0000 0.0000 29.4405 0.0000 -3.0008
# 5 0.1920 -11.1406 7.3641 0.0000 28.7497 0.0000
# 6 0.0000 0.0000 0.0000 -3.0008 0.0000 35.2596
#
#
#
# Elastic Compliance Matrix: (Units=1/GPa)
#
#
# Indices 1 2 3 4 5 6 
#
# 1 0.010676 -0.002899 -0.002348 0.000000 -0.000593 0.000000
# 2 -0.002899 0.010508 -0.002748 0.000000 0.004795 0.000000
# 3 -0.002348 -0.002748 0.006839 0.000000 -0.002801 0.000000
# 4 0.000000 0.000000 0.000000 0.034264 0.000000 0.002916
# 5 -0.000593 0.004795 -0.002801 0.000000 0.037362 0.000000
# 6 0.000000 0.000000 0.000000 0.002916 0.000000 0.028609
#
#
# Mechanical properties :
#
#
# Convention : Reuss Voigt Hill
#
# Bulk Modulus (GPa) = 83.09590 88.65525 85.87557
# Shear Modulus (GPa) = 33.72475 36.84716 35.28595
#
# Velocity S-wave (km/s) = 4.14986 4.33772 4.24483
# Velocity P-wave (km/s) = 8.08667 8.38802 8.23872
#
# Compressibility (1/GPa) = 0.01203429
#
# Stress axis : x y z
#
# Youngs Moduli (GPa) = 93.66477 95.16783 146.22136
#
# Poissons Ratio (x) = 0.27590 0.34328
# Poissons Ratio (y) = 0.27154 0.40177
# Poissons Ratio (z) = 0.21989 0.26149
#
# Static dielectric constant tensor:
#      x y z
#    x 3.778060 0.000000 0.152280 
#    y 0.000000 3.528440 0.000000 
#    z 0.152280 0.000000 4.114630 
# 
# 
# High freq. dielectric constant tensor:
#      x y z
#    x 1.769510 0.000000 0.000820 
#    y 0.000000 1.726830 0.000000 
#    z 0.000820 0.000000 1.787900 
# 
# From -- ./inp_files/102155.got.cif
#   From: 2010.06.25/outbox.cif.g09.slc.cpg/sg15_52_cif.got.tgz:102155.got - 2010.06.28 07:06:18.
