data_PCOD8135722
_publ_section_title
;
Structure prediction by ZEFSAII (Michael W. Deem and Ramdas Pophale) SiO2 
 PCOD8135722
Probable space group: C 2/C
;
_chemical_formula_sum "Si O2"
_cell_formula_units_Z 52
_cell_length_a 14.204535
_cell_length_b 29.325000
_cell_length_c 8.780759
_cell_angle_alpha 90.000000
_cell_angle_beta 45.970583
_cell_angle_gamma 90.000000
_cell_volume 2629.757804
_symmetry_space_group_name_H-M "C 2/C"
_symmetry_group_IT_number 15
_symmetry_cell_setting 'monoclinic'
loop_
_space_group_symop_operation_xyz
x,y,z
-x,y,1/2-z
-x,-y,-z
x,-y,1/2+z
1/2+x,1/2+y,z
1/2-x,1/2+y,1/2-z
1/2-x,1/2-y,-z
1/2+x,1/2-y,1/2+z
loop_
_atom_site_type_symbol
_atom_site_label
_atom_site_fract_x
_atom_site_fract_y
_atom_site_fract_z
Si Si1 0.479908 0.933894 0.452888
Si Si2 0.612577 0.522998 0.221481
Si Si3 0.500000 0.612015 0.250000
Si Si4 0.119355 0.723119 0.506480
Si Si5 0.981997 0.340987 0.949330
Si Si6 0.274721 0.680329 0.591736
Si Si7 0.712985 0.007860 0.736325
O O1 0.500000 0.939347 0.250000
O O2 0.456466 0.882377 0.525864
O O3 0.607471 0.953396 0.400762
O O4 0.351467 0.958946 0.660894
O O5 0.500000 0.497514 0.250000
O O6 0.573761 0.577102 0.285969
O O7 0.644613 0.493584 0.337119
O O8 0.751775 0.518518 0.977324
O O9 0.393023 0.643860 0.453274
O O10 0.217073 0.688523 0.486105
O O11 0.184015 0.770773 0.387882
O O12 0.000000 0.735074 0.750000
O O13 0.066926 0.702207 0.407965
O O14 0.000000 0.347285 0.750000
O O15 0.830500 0.338033 0.168902
#
# Coordination Sequence:
#
# PCOD8135722 Si02
#       7
#     8   8   4   8   8   8   8
#     4  11  23  39  64  86 119 162 214 264 302 361
#     4  10  23  37  58  86 123 159 201 248 306 373
#     4  10  22  36  64  92 116 168 204 252 298 360
#     4   9  19  37  66  93 116 160 209 252 299 365
#     4  11  25  38  59  96 125 160 200 262 318 358
#     4  10  19  39  65  89 123 157 209 250 297 372
#     4  11  22  40  59  87 115 161 202 258 307 362
#
# _framework density 19.773683999999999
#
# number of rings (size 3 to 8) (size 9 to 14) (size 15 to 20)
#    0.462    1.231    2.308    2.769    4.308    0.615 
#    0.000    0.000    0.000    0.000    0.000    0.000 
#    0.000    0.000    0.000    0.000    0.000    0.000 
#
# Total GULP energy -322133.435519 kJ/mol
# GULP energy per Si atom -12389.747520 kJ/mol
# Density = 1.972868 g / cm^3
# Si number density = 19.773684 Si / 1000 Ang^3
#
#
#
# Elastic Constant Matrix: (Units=GPa)
#
#
# Indices 1 2 3 4 5 6 
#
# 1 89.5207 36.0898 25.2545 0.0000 -10.3197 0.0000
# 2 36.0898 85.9779 43.0976 0.0000 2.1815 0.0000
# 3 25.2545 43.0976 91.9612 0.0000 -3.7254 0.0000
# 4 0.0000 0.0000 0.0000 29.7854 0.0000 -10.5081
# 5 -10.3197 2.1815 -3.7254 0.0000 14.0126 0.0000
# 6 0.0000 0.0000 0.0000 -10.5081 0.0000 28.7095
#
#
#
# Elastic Compliance Matrix: (Units=1/GPa)
#
#
# Indices 1 2 3 4 5 6 
#
# 1 0.015344 -0.006380 -0.000734 0.000000 0.012099 0.000000
# 2 -0.006380 0.018117 -0.007119 0.000000 -0.009412 0.000000
# 3 -0.000734 -0.007119 0.014592 0.000000 0.004448 0.000000
# 4 0.000000 0.000000 0.000000 0.038552 0.000000 0.014110
# 5 0.012099 -0.009412 0.004448 0.000000 0.082922 0.000000
# 6 0.000000 0.000000 0.000000 0.014110 0.000000 0.039996
#
#
# Mechanical properties :
#
#
# Convention : Reuss Voigt Hill
#
# Bulk Modulus (GPa) = 51.05517 52.92707 51.99112
# Shear Modulus (GPa) = 20.44835 25.36936 22.90886
#
# Velocity S-wave (km/s) = 3.21926 3.58577 3.40744
# Velocity P-wave (km/s) = 6.30032 6.63085 6.46769
#
# Compressibility (1/GPa) = 0.01958666
#
# Stress axis : x y z
#
# Youngs Moduli (GPa) = 65.17039 55.19821 68.52895
#
# Poissons Ratio (x) = 0.35217 0.05028
# Poissons Ratio (y) = 0.41579 0.48789
# Poissons Ratio (z) = 0.04782 0.39298
#
# Static dielectric constant tensor:
#      x y z
#    x 3.659250 0.000000 -0.282320 
#    y 0.000000 3.539130 0.000000 
#    z -0.282320 0.000000 3.488690 
# 
# 
# High freq. dielectric constant tensor:
#      x y z
#    x 1.769810 0.000000 -0.026180 
#    y 0.000000 1.766800 0.000000 
#    z -0.026180 0.000000 1.763190 
# 
# From -- ./inp_files/44216.got.cif
#   From: 2010.06.25/outbox.cif.g09.slc.cpg/sg15_23_cif.got.tgz:44216.got - 2010.06.28 07:06:18.
