data_PCOD8135334
_publ_section_title
;
Structure prediction by ZEFSAII (Michael W. Deem and Ramdas Pophale) SiO2 
 PCOD8135334
Probable space group: C 2/C
;
_chemical_formula_sum "Si O2"
_cell_formula_units_Z 56
_cell_length_a 15.470302
_cell_length_b 18.184714
_cell_length_c 17.773404
_cell_angle_alpha 90.000000
_cell_angle_beta 35.001270
_cell_angle_gamma 90.000000
_cell_volume 2868.011766
_symmetry_space_group_name_H-M "C 2/C"
_symmetry_group_IT_number 15
_symmetry_cell_setting 'monoclinic'
loop_
_space_group_symop_operation_xyz
x,y,z
-x,y,1/2-z
-x,-y,-z
x,-y,1/2+z
1/2+x,1/2+y,z
1/2-x,1/2+y,1/2-z
1/2-x,1/2-y,-z
1/2+x,1/2-y,1/2+z
loop_
_atom_site_type_symbol
_atom_site_label
_atom_site_fract_x
_atom_site_fract_y
_atom_site_fract_z
Si Si1 0.659969 0.545299 0.227206
Si Si2 0.596604 0.794604 0.335353
Si Si3 0.186377 0.944332 0.541310
Si Si4 0.643946 0.052271 0.188586
Si Si5 0.342113 0.311322 0.038245
Si Si6 0.606406 0.037917 0.863669
Si Si7 0.648670 0.347044 0.865483
O O1 0.485538 0.530623 0.340125
O O2 0.742669 0.555640 0.087624
O O3 0.724342 0.474762 0.226135
O O4 0.695950 0.617005 0.251895
O O5 0.428673 0.760188 0.442091
O O6 0.691625 0.792477 0.190839
O O7 0.576573 0.875665 0.381783
O O8 0.683565 0.740784 0.333415
O O9 0.209466 0.862230 0.493966
O O10 0.279306 0.002072 0.427828
O O11 0.500000 0.089463 0.250000
O O12 0.758940 0.116441 0.132463
O O13 0.587559 0.000074 0.296124
O O14 0.464852 0.355830 0.003918
O O15 0.500000 0.000000 0.000000
#
# Coordination Sequence:
#
# PCOD8135334 Si02
#       7
#     8   8   8   8   8   8   8
#     4   9  20  35  61  85 119 160 199 249 303 362
#     4  10  21  38  62  91 121 161 205 243 310 366
#     4  10  19  38  59  87 120 156 205 250 305 364
#     4  11  22  37  60  89 120 159 205 257 307 357
#     4   9  20  37  62  88 121 163 199 253 301 372
#     4  11  23  37  63  89 120 158 203 257 304 364
#     4   8  21  36  62  81 122 159 200 247 307 361
#
# _framework density 19.525722999999999
#
# number of rings (size 3 to 8) (size 9 to 14) (size 15 to 20)
#    0.857    1.429    1.429    0.857    6.000    1.714 
#    0.000    2.143    3.143    2.571    0.000    0.000 
#    0.000    0.000    0.000    0.000    0.000    0.000 
#
# Total GULP energy -346909.217814 kJ/mol
# GULP energy per Si atom -12389.614922 kJ/mol
# Density = 1.948128 g / cm^3
# Si number density = 19.525723 Si / 1000 Ang^3
#
#
#
# Elastic Constant Matrix: (Units=GPa)
#
#
# Indices 1 2 3 4 5 6 
#
# 1 78.8360 7.8064 13.0329 -0.0010 16.4660 0.0010
# 2 7.8064 52.7901 16.6545 0.0033 9.5005 -0.0014
# 3 13.0329 16.6545 116.1769 -0.0018 14.4327 -0.0012
# 4 -0.0010 0.0033 -0.0018 30.8821 -0.0012 0.8733
# 5 16.4660 9.5005 14.4327 -0.0012 12.6826 0.0014
# 6 0.0010 -0.0014 -0.0012 0.8733 0.0014 11.2405
#
#
#
# Elastic Compliance Matrix: (Units=1/GPa)
#
#
# Indices 1 2 3 4 5 6 
#
# 1 0.017623 0.001630 0.000912 -0.000001 -0.025140 0.000002
# 2 0.001630 0.022211 -0.001208 -0.000003 -0.017381 0.000005
# 3 0.000912 -0.001208 0.010148 0.000000 -0.011828 0.000002
# 4 -0.000001 -0.000003 0.000000 0.032452 0.000006 -0.002521
# 5 -0.025140 -0.017381 -0.011828 0.000006 0.137968 -0.000019
# 6 0.000002 0.000005 0.000002 -0.002521 -0.000019 0.089160
#
#
# Mechanical properties :
#
#
# Convention : Reuss Voigt Hill
#
# Bulk Modulus (GPa) = 18.99261 35.86561 27.42911
# Shear Modulus (GPa) = 15.41105 24.98165 20.19635
#
# Velocity S-wave (km/s) = 2.81244 3.58078 3.21961
# Velocity P-wave (km/s) = 4.50494 5.95855 5.28199
#
# Compressibility (1/GPa) = 0.05265206
#
# Stress axis : x y z
#
# Youngs Moduli (GPa) = 56.74353 45.02314 98.54431
#
# Poissons Ratio (x) = -0.07341 -0.08992
# Poissons Ratio (y) = -0.09252 0.11902
# Poissons Ratio (z) = -0.05178 0.05438
#
# Static dielectric constant tensor:
#      x y z
#    x 3.680740 0.000000 -0.087390 
#    y 0.000000 3.485760 0.000010 
#    z -0.087390 0.000010 3.629330 
# 
# 
# High freq. dielectric constant tensor:
#      x y z
#    x 1.748630 0.000000 -0.008910 
#    y 0.000000 1.744660 0.000000 
#    z -0.008910 0.000000 1.768860 
# 
# From -- ./inp_files/156170.got.cif
#   From: 2010.06.25/outbox.cif.g09.slc.cpg/sg15_79_cif.got.tgz:156170.got - 2010.06.28 07:06:18.
