data_PCOD8135017
_publ_section_title
;
Structure prediction by ZEFSAII (Michael W. Deem and Ramdas Pophale) SiO2 
 PCOD8135017
Probable space group: C 2/C
;
_chemical_formula_sum "Si O2"
_cell_formula_units_Z 64
_cell_length_a 11.720095
_cell_length_b 14.502420
_cell_length_c 26.369526
_cell_angle_alpha 90.000000
_cell_angle_beta 137.191782
_cell_angle_gamma 90.000000
_cell_volume 3045.742177
_symmetry_space_group_name_H-M "C 2/C"
_symmetry_group_IT_number 15
_symmetry_cell_setting 'monoclinic'
loop_
_space_group_symop_operation_xyz
x,y,z
-x,y,1/2-z
-x,-y,-z
x,-y,1/2+z
1/2+x,1/2+y,z
1/2-x,1/2+y,1/2-z
1/2-x,1/2-y,-z
1/2+x,1/2-y,1/2+z
loop_
_atom_site_type_symbol
_atom_site_label
_atom_site_fract_x
_atom_site_fract_y
_atom_site_fract_z
Si Si1 0.533424 0.311568 0.468882
Si Si2 0.767452 0.787410 0.122226
Si Si3 0.257786 0.190545 0.553953
Si Si4 0.194333 0.506154 0.574369
Si Si5 0.921446 0.263181 0.828144
Si Si6 0.136120 0.664489 0.687042
Si Si7 0.790473 0.995033 0.000147
Si Si8 0.405287 0.958361 0.855429
O O1 0.678177 0.281634 0.554284
O O2 0.361351 0.276838 0.439563
O O3 0.529520 0.258417 0.414048
O O4 0.566967 0.420488 0.468482
O O5 0.748326 0.889208 0.095931
O O6 0.693736 0.782449 0.154690
O O7 0.963805 0.759290 0.183638
O O8 0.250000 0.250000 0.500000
O O9 0.446036 0.193026 0.636231
O O10 0.187001 0.086999 0.524434
O O11 0.305566 0.469005 0.563846
O O12 0.215193 0.450959 0.633911
O O13 0.000000 0.500000 0.500000
O O14 0.755039 0.199525 0.771185
O O15 0.864742 0.370284 0.807478
O O16 0.146411 0.553642 0.688493
O O17 0.603243 0.954297 0.932683
#
# Coordination Sequence:
#
# PCOD8135017 Si02
#       8
#     8   8   8   8   8   8   8   8
#     4  12  22  37  66  98 125 163 219 275 312 381
#     4  11  20  39  66  97 125 163 212 266 320 388
#     4  11  24  41  62  85 126 178 217 256 319 398
#     4   9  17  31  59  93 123 153 195 262 319 369
#     4  12  23  39  68  98 130 163 217 275 328 392
#     4  10  24  45  62  91 133 174 212 261 335 395
#     4  10  19  37  59  95 124 157 217 267 316 375
#     4   9  20  37  64  89 128 166 205 263 333 381
#
# _framework density 21.012941000000001
#
# number of rings (size 3 to 8) (size 9 to 14) (size 15 to 20)
#    0.000    1.500    3.750    3.375    1.750    0.500 
#    2.250    0.000    8.250    0.000    0.000    0.000 
#    0.000    0.000    0.000    0.000    0.000    0.000 
#
# Total GULP energy -396526.822262 kJ/mol
# GULP energy per Si atom -12391.463196 kJ/mol
# Density = 2.096511 g / cm^3
# Si number density = 21.012941 Si / 1000 Ang^3
#
#
#
# Elastic Constant Matrix: (Units=GPa)
#
#
# Indices 1 2 3 4 5 6 
#
# 1 102.4529 31.3273 8.2668 0.0000 15.2802 0.0000
# 2 31.3273 103.3312 37.9660 0.0000 7.6701 0.0000
# 3 8.2668 37.9660 54.0322 0.0000 11.4471 0.0000
# 4 0.0000 0.0000 0.0000 27.5860 0.0000 2.9648
# 5 15.2802 7.6701 11.4471 0.0000 25.1980 0.0000
# 6 0.0000 0.0000 0.0000 2.9648 0.0000 34.0431
#
#
#
# Elastic Compliance Matrix: (Units=1/GPa)
#
#
# Indices 1 2 3 4 5 6 
#
# 1 0.011833 -0.003974 0.002485 0.000000 -0.007095 0.000000
# 2 -0.003974 0.014381 -0.010047 0.000000 0.002597 0.000000
# 3 0.002485 -0.010047 0.027506 0.000000 -0.010944 0.000000
# 4 0.000000 0.000000 0.000000 0.036593 0.000000 -0.003187
# 5 -0.007095 0.002597 -0.010944 0.000000 0.048170 0.000000
# 6 0.000000 0.000000 0.000000 -0.003187 0.000000 0.029652
#
#
# Mechanical properties :
#
#
# Convention : Reuss Voigt Hill
#
# Bulk Modulus (GPa) = 32.62863 46.10404 39.36634
# Shear Modulus (GPa) = 24.82343 29.51584 27.16963
#
# Velocity S-wave (km/s) = 3.44079 3.75193 3.59973
# Velocity P-wave (km/s) = 5.59884 6.38418 6.00436
#
# Compressibility (1/GPa) = 0.03064793
#
# Stress axis : x y z
#
# Youngs Moduli (GPa) = 84.50664 69.53526 36.35635
#
# Poissons Ratio (x) = 0.27633 -0.09034
# Poissons Ratio (y) = 0.33583 0.36528
# Poissons Ratio (z) = -0.21000 0.69863
#
# Static dielectric constant tensor:
#      x y z
#    x 4.020660 0.000000 -0.064000 
#    y 0.000000 3.752510 0.000000 
#    z -0.064000 0.000000 3.507940 
# 
# 
# High freq. dielectric constant tensor:
#      x y z
#    x 1.832240 0.000000 0.001850 
#    y 0.000000 1.823150 0.000000 
#    z 0.001850 0.000000 1.791110 
# 
# From -- ./inp_files/311214.got.cif
#   From: 2010.06.25/outbox.cif.g09.slc.cpg/sg15_156_cif.got.tgz:311214.got - 2010.06.28 07:06:18.
