data_PCOD8135134
_publ_section_title
;
Structure prediction by ZEFSAII (Michael W. Deem and Ramdas Pophale) SiO2 
 PCOD8135134
Probable space group: C 2/C
;
_chemical_formula_sum "Si O2"
_cell_formula_units_Z 64
_cell_length_a 29.644592
_cell_length_b 11.942602
_cell_length_c 14.038137
_cell_angle_alpha 90.000000
_cell_angle_beta 138.336786
_cell_angle_gamma 90.000000
_cell_volume 3303.792884
_symmetry_space_group_name_H-M "C 2/C"
_symmetry_group_IT_number 15
_symmetry_cell_setting 'monoclinic'
loop_
_space_group_symop_operation_xyz
x,y,z
-x,y,1/2-z
-x,-y,-z
x,-y,1/2+z
1/2+x,1/2+y,z
1/2-x,1/2+y,1/2-z
1/2-x,1/2-y,-z
1/2+x,1/2-y,1/2+z
loop_
_atom_site_type_symbol
_atom_site_label
_atom_site_fract_x
_atom_site_fract_y
_atom_site_fract_z
Si Si1 0.123963 0.152614 0.289243
Si Si2 0.350715 0.918141 0.745582
Si Si3 0.198021 0.013009 0.035635
Si Si4 0.420629 0.890489 0.244064
Si Si5 0.476508 0.603026 0.111968
Si Si6 0.320297 0.690592 0.632349
Si Si7 0.070457 0.651017 0.956570
Si Si8 0.652198 0.505497 0.672655
O O1 0.165159 0.102104 0.444828
O O2 0.127378 0.286959 0.298984
O O3 0.044609 0.120135 0.159444
O O4 0.158586 0.105692 0.247613
O O5 0.368121 0.796991 0.725994
O O6 0.274621 0.966784 0.620379
O O7 0.397846 0.000738 0.762798
O O8 0.369984 0.901007 0.886037
O O9 0.195639 0.014447 0.145802
O O10 0.155481 0.115840 0.919891
O O11 0.416610 0.906651 0.124376
O O12 0.499215 0.876686 0.394701
O O13 0.500000 0.551524 0.250000
O O14 0.431663 0.714800 0.062049
O O15 0.427143 0.519325 0.978521
O O16 0.250000 0.750000 0.500000
O O17 0.318118 0.612077 0.723180
#
# Coordination Sequence:
#
# PCOD8135134 Si02
#       8
#     8   8   8   8   8   8   8   8
#     4  10  21  37  58  91 120 148 195 249 298 349
#     4  11  22  38  60  83 116 163 195 231 299 351
#     4  10  22  39  58  87 117 157 195 243 295 360
#     4  10  21  39  59  88 118 144 199 254 285 351
#     4  11  17  35  65  85 115 152 200 241 297 363
#     4   9  21  39  58  81 115 157 198 233 282 363
#     4  10  19  37  63  83 109 159 198 235 297 354
#     4  11  20  37  62  86 121 153 194 249 301 350
#
# _framework density 19.371675
#
# number of rings (size 3 to 8) (size 9 to 14) (size 15 to 20)
#    0.000    1.750    5.000    0.750    0.000    3.500 
#    6.750    0.000    0.000    0.000    0.000    0.000 
#    0.000    0.000    0.000    0.000    0.000    0.000 
#
# Total GULP energy -396554.634321 kJ/mol
# GULP energy per Si atom -12392.332323 kJ/mol
# Density = 1.932758 g / cm^3
# Si number density = 19.371675 Si / 1000 Ang^3
#
#
#
# Elastic Constant Matrix: (Units=GPa)
#
#
# Indices 1 2 3 4 5 6 
#
# 1 54.9834 27.4166 17.5786 0.0000 -18.4891 0.0000
# 2 27.4166 99.7017 30.6992 0.0000 -13.1897 0.0000
# 3 17.5786 30.6992 93.2419 0.0000 -13.5339 0.0000
# 4 0.0000 0.0000 0.0000 22.0930 0.0000 1.4970
# 5 -18.4891 -13.1897 -13.5339 0.0000 29.9365 0.0000
# 6 0.0000 0.0000 0.0000 1.4970 0.0000 24.4908
#
#
#
# Elastic Compliance Matrix: (Units=1/GPa)
#
#
# Indices 1 2 3 4 5 6 
#
# 1 0.025383 -0.004866 -0.001305 0.000000 0.012943 0.000000
# 2 -0.004866 0.012445 -0.003018 0.000000 0.001113 0.000000
# 3 -0.001305 -0.003018 0.012473 0.000000 0.003503 0.000000
# 4 0.000000 0.000000 0.000000 0.045451 0.000000 -0.002778
# 5 0.012943 0.001113 0.003503 0.000000 0.043472 0.000000
# 6 0.000000 0.000000 0.000000 -0.002778 0.000000 0.041001
#
#
# Mechanical properties :
#
#
# Convention : Reuss Voigt Hill
#
# Bulk Modulus (GPa) = 31.32566 44.36843 37.84704
# Shear Modulus (GPa) = 23.89549 26.78625 25.34087
#
# Velocity S-wave (km/s) = 3.51597 3.72257 3.62075
# Velocity P-wave (km/s) = 5.71740 6.43663 6.08765
#
# Compressibility (1/GPa) = 0.03192271
#
# Stress axis : x y z
#
# Youngs Moduli (GPa) = 39.39630 80.35588 80.17305
#
# Poissons Ratio (x) = 0.39101 0.10460
# Poissons Ratio (y) = 0.19170 0.24199
# Poissons Ratio (z) = 0.05140 0.24254
#
# Static dielectric constant tensor:
#      x y z
#    x 3.279510 0.000000 -0.122100 
#    y 0.000000 3.716660 0.000000 
#    z -0.122100 0.000000 3.762110 
# 
# 
# High freq. dielectric constant tensor:
#      x y z
#    x 1.732430 0.000000 -0.010760 
#    y 0.000000 1.745440 0.000000 
#    z -0.010760 0.000000 1.766710 
# 
# From -- ./inp_files/181790.got.cif
#   From: 2010.06.25/outbox.cif.g09.slc.cpg/sg15_91_cif.got.tgz:181790.got - 2010.06.28 07:06:18.
