data_PCOD8135364
_publ_section_title
;
Structure prediction by ZEFSAII (Michael W. Deem and Ramdas Pophale) SiO2 
 PCOD8135364
Probable space group: C 2/C
;
_chemical_formula_sum "Si O2"
_cell_formula_units_Z 56
_cell_length_a 8.304565
_cell_length_b 30.488523
_cell_length_c 11.818013
_cell_angle_alpha 90.000000
_cell_angle_beta 111.873892
_cell_angle_gamma 90.000000
_cell_volume 2776.825422
_symmetry_space_group_name_H-M "C 2/C"
_symmetry_group_IT_number 15
_symmetry_cell_setting 'monoclinic'
loop_
_space_group_symop_operation_xyz
x,y,z
-x,y,1/2-z
-x,-y,-z
x,-y,1/2+z
1/2+x,1/2+y,z
1/2-x,1/2+y,1/2-z
1/2-x,1/2-y,-z
1/2+x,1/2-y,1/2+z
loop_
_atom_site_type_symbol
_atom_site_label
_atom_site_fract_x
_atom_site_fract_y
_atom_site_fract_z
Si Si1 0.830283 0.542629 0.585879
Si Si2 0.275224 0.072001 0.812487
Si Si3 0.495543 0.231792 0.884442
Si Si4 0.193807 0.170691 0.772124
Si Si5 0.858635 0.036259 0.497941
Si Si6 0.444169 0.407009 0.609666
Si Si7 0.161553 0.815172 0.003827
O O1 0.725556 0.559688 0.670931
O O2 0.822334 0.489146 0.580006
O O3 0.725443 0.563347 0.454488
O O4 0.025089 0.558335 0.624929
O O5 0.253976 0.123384 0.831769
O O6 0.151063 0.048126 0.871089
O O7 0.500000 0.236847 0.750000
O O8 0.316319 0.206796 0.864500
O O9 0.506494 0.279673 0.945951
O O10 0.653473 0.205039 0.984859
O O11 0.201350 0.169512 0.640042
O O12 0.000000 0.183456 0.750000
O O13 0.896744 0.079735 0.433701
O O14 0.000000 0.000000 0.500000
O O15 0.500000 0.417268 0.750000
O O16 0.394044 0.356353 0.585119
#
# Coordination Sequence:
#
# PCOD8135364 Si02
#       7
#     8   8   8   8   8   8   8
#     4  10  23  39  64  90 115 161 204 267 306 372
#     4  11  22  41  66  89 121 157 213 261 309 370
#     4   9  20  36  62  89 120 157 205 259 303 366
#     4  11  22  35  61  91 124 154 204 258 313 375
#     4  10  24  38  60  88 122 160 200 259 310 372
#     4  11  22  37  59  87 125 162 203 250 316 376
#     4  10  19  38  60  88 120 160 212 248 307 372
#
# _framework density 20.166913999999998
#
# number of rings (size 3 to 8) (size 9 to 14) (size 15 to 20)
#    0.000    1.714    1.429    2.571   10.000    0.571 
#    0.000    0.000    0.000    0.000    0.000    0.000 
#    0.000    0.000    0.000    0.000    0.000    0.000 
#
# Total GULP energy -346969.078768 kJ/mol
# GULP energy per Si atom -12391.752813 kJ/mol
# Density = 2.012101 g / cm^3
# Si number density = 20.166914 Si / 1000 Ang^3
#
#
#
# Elastic Constant Matrix: (Units=GPa)
#
#
# Indices 1 2 3 4 5 6 
#
# 1 89.2092 39.5085 30.6744 0.0000 -0.8380 0.0000
# 2 39.5085 118.5543 36.0564 0.0000 9.6866 0.0000
# 3 30.6744 36.0564 104.3551 0.0000 0.4778 0.0000
# 4 0.0000 0.0000 0.0000 39.2269 0.0000 2.8181
# 5 -0.8380 9.6866 0.4778 0.0000 31.0279 0.0000
# 6 0.0000 0.0000 0.0000 2.8181 0.0000 24.9742
#
#
#
# Elastic Compliance Matrix: (Units=1/GPa)
#
#
# Indices 1 2 3 4 5 6 
#
# 1 0.013910 -0.003938 -0.002736 0.000000 0.001647 0.000000
# 2 -0.003938 0.010807 -0.002561 0.000000 -0.003441 0.000000
# 3 -0.002736 -0.002561 0.011269 0.000000 0.000552 0.000000
# 4 0.000000 0.000000 0.000000 0.025701 0.000000 -0.002900
# 5 0.001647 -0.003441 0.000552 0.000000 0.033339 0.000000
# 6 0.000000 0.000000 0.000000 -0.002900 0.000000 0.040368
#
#
# Mechanical properties :
#
#
# Convention : Reuss Voigt Hill
#
# Bulk Modulus (GPa) = 57.08649 58.28859 57.68754
# Shear Modulus (GPa) = 31.30816 32.77109 32.03962
#
# Velocity S-wave (km/s) = 3.94439 4.03549 3.99020
# Velocity P-wave (km/s) = 7.00805 7.11895 7.06372
#
# Compressibility (1/GPa) = 0.01751728
#
# Stress axis : x y z
#
# Youngs Moduli (GPa) = 71.89191 92.53010 88.73883
#
# Poissons Ratio (x) = 0.36439 0.24275
# Poissons Ratio (y) = 0.28312 0.22724
# Poissons Ratio (z) = 0.19666 0.23695
#
# Static dielectric constant tensor:
#      x y z
#    x 4.133120 0.000000 -0.043750 
#    y 0.000000 3.965060 0.000000 
#    z -0.043750 0.000000 3.780040 
# 
# 
# High freq. dielectric constant tensor:
#      x y z
#    x 1.777680 0.000000 0.012250 
#    y 0.000000 1.796230 0.000000 
#    z 0.012250 0.000000 1.781910 
# 
# From -- ./inp_files/82274.got.cif
#   From: 2010.06.25/outbox.cif.g09.slc.cpg/sg15_42_cif.got.tgz:82274.got - 2010.06.28 07:06:18.
