data_PCOD8135544
_publ_section_title
;
Structure prediction by ZEFSAII (Michael W. Deem and Ramdas Pophale) SiO2 
 PCOD8135544
Probable space group: C 2/C
;
_chemical_formula_sum "Si O2"
_cell_formula_units_Z 40
_cell_length_a 10.111141
_cell_length_b 39.555293
_cell_length_c 4.886424
_cell_angle_alpha 90.000000
_cell_angle_beta 73.226889
_cell_angle_gamma 90.000000
_cell_volume 1871.174578
_symmetry_space_group_name_H-M "C 2/C"
_symmetry_group_IT_number 15
_symmetry_cell_setting 'monoclinic'
loop_
_space_group_symop_operation_xyz
x,y,z
-x,y,1/2-z
-x,-y,-z
x,-y,1/2+z
1/2+x,1/2+y,z
1/2-x,1/2+y,1/2-z
1/2-x,1/2-y,-z
1/2+x,1/2-y,1/2+z
loop_
_atom_site_type_symbol
_atom_site_label
_atom_site_fract_x
_atom_site_fract_y
_atom_site_fract_z
Si Si1 0.665197 0.282705 0.136756
Si Si2 0.231069 0.174363 0.088111
Si Si3 0.500000 0.475372 0.250000
Si Si4 0.312454 0.415390 0.468402
Si Si5 0.146934 0.391654 0.059284
Si Si6 0.000000 0.124618 0.250000
O O1 0.500000 0.275300 0.250000
O O2 0.731239 0.293389 0.388044
O O3 0.750000 0.250000 0.000000
O O4 0.699851 0.313025 0.911179
O O5 0.113804 0.149046 0.054162
O O6 0.363953 0.149087 0.004754
O O7 0.500000 0.500000 0.500000
O O8 0.360107 0.453076 0.360319
O O9 0.263210 0.397512 0.220481
O O10 0.445372 0.397622 0.529150
O O11 0.188076 0.413230 0.765350
O O12 0.000000 0.404904 0.250000
#
# Coordination Sequence:
#
# PCOD8135544 Si02
#       6
#     8   8   4   8   8   4
#     4  12  25  41  58  85 120 167 213 267 321 397
#     4  11  22  38  65  87 116 155 206 264 326 387
#     4  12  23  40  66  98 136 170 220 268 312 368
#     4  11  23  39  66 100 132 168 207 271 328 374
#     4  11  24  41  65  97 133 166 209 265 335 393
#     4  10  19  38  66  96 122 146 214 272 338 376
#
# _framework density 21.376947999999999
#
# number of rings (size 3 to 8) (size 9 to 14) (size 15 to 20)
#    0.000    0.800    2.000    7.800    0.000    1.600 
#    0.000    0.000    0.000   12.000    0.000    0.000 
#    0.000    0.000    0.000    0.000    0.000    0.000 
#
# Total GULP energy -247857.005194 kJ/mol
# GULP energy per Si atom -12392.850260 kJ/mol
# Density = 2.132829 g / cm^3
# Si number density = 21.376948 Si / 1000 Ang^3
#
#
#
# Elastic Constant Matrix: (Units=GPa)
#
#
# Indices 1 2 3 4 5 6 
#
# 1 51.7307 33.7239 14.1760 0.0000 -11.6691 0.0000
# 2 33.7239 122.9613 57.5662 0.0000 -12.2822 0.0000
# 3 14.1760 57.5662 122.4157 0.0000 -4.1974 0.0000
# 4 0.0000 0.0000 0.0000 129.0358 0.0000 -49.8160
# 5 -11.6691 -12.2822 -4.1974 0.0000 40.1545 0.0000
# 6 0.0000 0.0000 0.0000 -49.8160 0.0000 53.8185
#
#
#
# Elastic Compliance Matrix: (Units=1/GPa)
#
#
# Indices 1 2 3 4 5 6 
#
# 1 0.024573 -0.006372 0.000330 0.000000 0.005227 0.000000
# 2 -0.006372 0.012378 -0.005035 0.000000 0.001408 0.000000
# 3 0.000330 -0.005035 0.010486 0.000000 -0.000348 0.000000
# 4 0.000000 0.000000 0.000000 0.012059 0.000000 0.011162
# 5 0.005227 0.001408 -0.000348 0.000000 0.026817 0.000000
# 6 0.000000 0.000000 0.000000 0.011162 0.000000 0.028913
#
#
# Mechanical properties :
#
#
# Convention : Reuss Voigt Hill
#
# Bulk Modulus (GPa) = 39.55003 56.44888 47.99945
# Shear Modulus (GPa) = 34.29160 57.37786 45.83473
#
# Velocity S-wave (km/s) = 4.00952 5.18645 4.63549
# Velocity P-wave (km/s) = 6.32269 7.89490 7.15213
#
# Compressibility (1/GPa) = 0.02528443
#
# Stress axis : x y z
#
# Youngs Moduli (GPa) = 40.69431 80.78896 95.36298
#
# Poissons Ratio (x) = 0.51479 -0.03147
# Poissons Ratio (y) = 0.25931 0.48011
# Poissons Ratio (z) = -0.01343 0.40674
#
# Static dielectric constant tensor:
#      x y z
#    x 2.237550 0.000000 0.587000 
#    y 0.000000 3.975610 0.000000 
#    z 0.587000 0.000000 3.829410 
# 
# 
# High freq. dielectric constant tensor:
#      x y z
#    x 1.818780 0.000000 -0.002980 
#    y 0.000000 1.826980 0.000000 
#    z -0.002980 0.000000 1.872710 
# 
# From -- ./inp_files/5723.got.cif
#   From: 2010.06.25/outbox.cif.g09.slc.cpg/sg15_3_cif.got.tgz:5723.got - 2010.06.28 07:06:18.
