data_PCOD8135004
_publ_section_title
;
Structure prediction by ZEFSAII (Michael W. Deem and Ramdas Pophale) SiO2 
 PCOD8135004
Probable space group: C 2/C
;
_chemical_formula_sum "Si O2"
_cell_formula_units_Z 60
_cell_length_a 32.724343
_cell_length_b 5.183248
_cell_length_c 17.725251
_cell_angle_alpha 90.000000
_cell_angle_beta 101.608140
_cell_angle_gamma 90.000000
_cell_volume 2945.034945
_symmetry_space_group_name_H-M "C 2/C"
_symmetry_group_IT_number 15
_symmetry_cell_setting 'monoclinic'
loop_
_space_group_symop_operation_xyz
x,y,z
-x,y,1/2-z
-x,-y,-z
x,-y,1/2+z
1/2+x,1/2+y,z
1/2-x,1/2+y,1/2-z
1/2-x,1/2-y,-z
1/2+x,1/2-y,1/2+z
loop_
_atom_site_type_symbol
_atom_site_label
_atom_site_fract_x
_atom_site_fract_y
_atom_site_fract_z
Si Si1 0.562536 0.675987 0.421739
Si Si2 0.753529 0.771505 0.205137
Si Si3 0.927471 0.051788 0.726154
Si Si4 0.657871 0.635587 0.742602
Si Si5 0.000000 0.406102 0.750000
Si Si6 0.665385 0.865500 0.145631
Si Si7 0.589135 0.822177 0.016165
Si Si8 0.970455 0.767890 0.870476
O O1 0.572714 0.678645 0.335470
O O2 0.586801 0.451087 0.473966
O O3 0.513518 0.625054 0.421064
O O4 0.578566 0.950723 0.455183
O O5 0.752160 0.469164 0.226198
O O6 0.799872 0.836881 0.190424
O O7 0.713890 0.832083 0.136243
O O8 0.881559 0.173775 0.716977
O O9 0.961245 0.244775 0.702834
O O10 0.943443 0.980067 0.815909
O O11 0.654676 0.353579 0.703528
O O12 0.657962 0.853839 0.678637
O O13 0.016887 0.556421 0.685165
O O14 0.636601 0.844276 0.061866
O O15 0.557753 0.850443 0.074720
#
# Coordination Sequence:
#
# PCOD8135004 Si02
#       8
#     8   8   8   8   4   8   8   8
#     4  12  26  42  55  89 123 161 198 248 300 348
#     4   8  16  31  56  88 120 141 185 253 298 340
#     4  12  24  39  64  84 122 156 207 254 296 350
#     4  10  20  35  62  92 113 151 201 248 296 349
#     4  12  22  40  64  86 118 154 206 252 302 324
#     4  10  19  37  59  90 120 152 193 245 303 353
#     4  12  26  40  62  85 123 161 199 242 297 366
#     4  12  24  42  61  85 114 165 206 252 288 352
#
# _framework density 20.373272
#
# number of rings (size 3 to 8) (size 9 to 14) (size 15 to 20)
#    0.000    1.067    4.000    3.200    1.867    0.000 
#    0.000    0.000    0.000    1.600    0.000    0.000 
#    0.000    0.000    0.000    0.000    0.000    0.000 
#
# Total GULP energy -371848.607341 kJ/mol
# GULP energy per Si atom -12394.953578 kJ/mol
# Density = 2.032690 g / cm^3
# Si number density = 20.373272 Si / 1000 Ang^3
#
#
#
# Elastic Constant Matrix: (Units=GPa)
#
#
# Indices 1 2 3 4 5 6 
#
# 1 152.1162 9.7925 27.8857 0.0000 38.3710 0.0000
# 2 9.7925 82.6150 10.8226 0.0000 3.6475 0.0000
# 3 27.8857 10.8226 59.2152 0.0000 22.7137 0.0000
# 4 0.0000 0.0000 0.0000 1709.5524 0.0000-1679.3364
# 5 38.3710 3.6475 22.7137 0.0000 29.0013 0.0000
# 6 0.0000 0.0000 0.0000-1679.3364 0.0000 1703.6387
#
#
#
# Elastic Compliance Matrix: (Units=1/GPa)
#
#
# Indices 1 2 3 4 5 6 
#
# 1 0.009913 -0.000662 0.000646 0.000000 -0.013538 0.000000
# 2 -0.000662 0.012447 -0.002428 0.000000 0.001212 0.000000
# 3 0.000646 -0.002428 0.024640 0.000000 -0.019847 0.000000
# 4 0.000000 0.000000 0.000000 0.018460 0.000000 0.018197
# 5 -0.013538 0.001212 -0.019847 0.000000 0.067785 0.000000
# 6 0.000000 0.000000 0.000000 0.018197 0.000000 0.018524
#
#
# Mechanical properties :
#
#
# Convention : Reuss Voigt Hill
#
# Bulk Modulus (GPa) = 23.74621 43.43867 33.59244
# Shear Modulus (GPa) = 29.29190 704.80153 367.04671
#
# Velocity S-wave (km/s) = 3.79590 18.61975 13.43696
# Velocity P-wave (km/s) = 5.55811 21.99154 16.03934
#
# Compressibility (1/GPa) = 0.04211199
#
# Stress axis : x y z
#
# Youngs Moduli (GPa) = 100.87556 80.33827 40.58420
#
# Poissons Ratio (x) = 0.05317 -0.02620
# Poissons Ratio (y) = 0.06677 0.09854
# Poissons Ratio (z) = -0.06513 0.19507
#
# Static dielectric constant tensor:
#      x y z
#    x 4.196830 0.000000 0.431070 
#    y 0.000000 3.775940 0.000000 
#    z 0.431070 0.000000 3.609400 
# 
# 
# High freq. dielectric constant tensor:
#      x y z
#    x 1.805180 0.000000 0.029040 
#    y 0.000000 1.811520 0.000000 
#    z 0.029040 0.000000 1.757940 
# 
# From -- ./inp_files/223670.got.cif
#   From: 2010.06.25/outbox.cif.g09.slc.cpg/sg15_112_cif.got.tgz:223670.got - 2010.06.28 07:06:18.
