data_PCOD8135055
_publ_section_title
;
Structure prediction by ZEFSAII (Michael W. Deem and Ramdas Pophale) SiO2 
 PCOD8135055
Probable space group: C 2/C
;
_chemical_formula_sum "Si O2"
_cell_formula_units_Z 56
_cell_length_a 8.272062
_cell_length_b 22.571916
_cell_length_c 17.442205
_cell_angle_alpha 90.000000
_cell_angle_beta 125.829844
_cell_angle_gamma 90.000000
_cell_volume 2640.434393
_symmetry_space_group_name_H-M "C 2/C"
_symmetry_group_IT_number 15
_symmetry_cell_setting 'monoclinic'
loop_
_space_group_symop_operation_xyz
x,y,z
-x,y,1/2-z
-x,-y,-z
x,-y,1/2+z
1/2+x,1/2+y,z
1/2-x,1/2+y,1/2-z
1/2-x,1/2-y,-z
1/2+x,1/2-y,1/2+z
loop_
_atom_site_type_symbol
_atom_site_label
_atom_site_fract_x
_atom_site_fract_y
_atom_site_fract_z
Si Si1 0.453206 0.917157 0.653636
Si Si2 0.725009 0.078334 0.783184
Si Si3 0.657477 0.206417 0.729296
Si Si4 0.215601 0.986618 0.830626
Si Si5 0.834520 0.687032 0.937574
Si Si6 0.994286 0.714308 0.135946
Si Si7 0.349242 0.564839 0.550958
O O1 0.500000 0.946922 0.750000
O O2 0.442351 0.847140 0.662669
O O3 0.242992 0.939980 0.560384
O O4 0.624600 0.935231 0.640714
O O5 0.500000 0.067085 0.750000
O O6 0.772436 0.147305 0.785584
O O7 0.745337 0.044800 0.709069
O O8 0.909368 0.060169 0.890185
O O9 0.500000 0.222682 0.750000
O O10 0.566251 0.191201 0.619657
O O11 0.803106 0.262519 0.770244
O O12 0.226826 0.008005 0.921664
O O13 0.000000 0.959520 0.750000
O O14 0.672909 0.738395 0.892591
O O15 0.729387 0.624660 0.928930
O O16 0.006185 0.702209 0.047410
#
# Coordination Sequence:
#
# PCOD8135055 Si02
#       7
#     8   8   8   8   8   8   8
#     4  11  23  40  59  89 126 164 206 246 308 380
#     4  10  20  36  61  94 117 147 202 261 306 350
#     4  11  21  34  59  89 122 153 196 257 315 354
#     4  10  21  39  63  86 116 164 202 253 306 360
#     4  10  19  37  60  88 118 155 210 248 301 375
#     4  10  22  36  60  86 118 166 200 247 305 372
#     4  10  20  38  65  89 118 161 206 259 308 360
#
# _framework density 21.208632000000001
#
# number of rings (size 3 to 8) (size 9 to 14) (size 15 to 20)
#    0.000    1.714    2.857    2.143    0.000    1.143 
#    0.000    7.857    0.000    0.000    0.000    0.000 
#    0.000    0.000    0.000    0.000    0.000    0.000 
#
# Total GULP energy -346955.971527 kJ/mol
# GULP energy per Si atom -12391.284697 kJ/mol
# Density = 2.116036 g / cm^3
# Si number density = 21.208632 Si / 1000 Ang^3
#
#
#
# Elastic Constant Matrix: (Units=GPa)
#
#
# Indices 1 2 3 4 5 6 
#
# 1 64.3861 -2.7326 45.4657 0.0000 -4.6535 0.0000
# 2 -2.7326 47.3284 2.6032 0.0000 4.1907 0.0000
# 3 45.4657 2.6032 159.7637 0.0000 -10.4519 0.0000
# 4 0.0000 0.0000 0.0000 12.4249 0.0000 1.7866
# 5 -4.6535 4.1907 -10.4519 0.0000 28.3985 0.0000
# 6 0.0000 0.0000 0.0000 1.7866 0.0000 23.6049
#
#
#
# Elastic Compliance Matrix: (Units=1/GPa)
#
#
# Indices 1 2 3 4 5 6 
#
# 1 0.019560 0.001347 -0.005525 0.000000 0.000973 0.000000
# 2 0.001347 0.021552 -0.000951 0.000000 -0.003310 0.000000
# 3 -0.005525 -0.000951 0.007989 0.000000 0.002175 0.000000
# 4 0.000000 0.000000 0.000000 0.081369 0.000000 -0.006159
# 5 0.000973 -0.003310 0.002175 0.000000 0.036662 0.000000
# 6 0.000000 0.000000 0.000000 -0.006159 0.000000 0.042830
#
#
# Mechanical properties :
#
#
# Convention : Reuss Voigt Hill
#
# Bulk Modulus (GPa) = 25.74398 40.23899 32.99149
# Shear Modulus (GPa) = 21.44375 27.96176 24.70276
#
# Velocity S-wave (km/s) = 3.18321 3.63494 3.41655
# Velocity P-wave (km/s) = 5.06707 6.05237 5.58150
#
# Compressibility (1/GPa) = 0.03884403
#
# Stress axis : x y z
#
# Youngs Moduli (GPa) = 51.12469 46.39916 125.16774
#
# Poissons Ratio (x) = -0.06250 0.69151
# Poissons Ratio (y) = -0.06887 0.11904
# Poissons Ratio (z) = 0.28245 0.04413
#
# Static dielectric constant tensor:
#      x y z
#    x 3.727960 0.000000 -0.049830 
#    y 0.000000 3.794750 0.000000 
#    z -0.049830 0.000000 4.102180 
# 
# 
# High freq. dielectric constant tensor:
#      x y z
#    x 1.803400 0.000000 -0.005700 
#    y 0.000000 1.835390 0.000000 
#    z -0.005700 0.000000 1.839500 
# 
# From -- ./inp_files/193298.got.cif
#   From: 2010.06.25/outbox.cif.g09.slc.cpg/sg15_97_cif.got.tgz:193298.got - 2010.06.28 07:06:18.
