data_PCOD8135131
_publ_section_title
;
Structure prediction by ZEFSAII (Michael W. Deem and Ramdas Pophale) SiO2 
 PCOD8135131
Probable space group: C 2/C
;
_chemical_formula_sum "Si O2"
_cell_formula_units_Z 48
_cell_length_a 18.720061
_cell_length_b 8.867705
_cell_length_c 14.476291
_cell_angle_alpha 90.000000
_cell_angle_beta 97.646915
_cell_angle_gamma 90.000000
_cell_volume 2381.750730
_symmetry_space_group_name_H-M "C 2/C"
_symmetry_group_IT_number 15
_symmetry_cell_setting 'monoclinic'
loop_
_space_group_symop_operation_xyz
x,y,z
-x,y,1/2-z
-x,-y,-z
x,-y,1/2+z
1/2+x,1/2+y,z
1/2-x,1/2+y,1/2-z
1/2-x,1/2-y,-z
1/2+x,1/2-y,1/2+z
loop_
_atom_site_type_symbol
_atom_site_label
_atom_site_fract_x
_atom_site_fract_y
_atom_site_fract_z
Si Si1 0.312018 0.867009 0.203457
Si Si2 0.613165 0.029452 0.967517
Si Si3 0.557149 0.681479 0.687190
Si Si4 0.482317 0.763567 0.496669
Si Si5 0.932981 0.154040 0.300528
Si Si6 0.309672 0.872410 0.839433
O O1 0.368167 0.765424 0.268532
O O2 0.248199 0.759634 0.157719
O O3 0.281357 0.993990 0.268035
O O4 0.347316 0.950196 0.122768
O O5 0.544075 0.136362 0.960369
O O6 0.671730 0.062371 0.056966
O O7 0.583481 0.860049 0.971957
O O8 0.500000 0.746136 0.750000
O O9 0.517316 0.661290 0.582074
O O10 0.587733 0.519338 0.725282
O O11 0.618943 0.805401 0.694851
O O12 0.450492 0.658253 0.411885
O O13 0.000000 0.205851 0.250000
#
# Coordination Sequence:
#
# PCOD8135131 Si02
#       6
#     8   8   8   8   8   8
#     4  12  23  41  63  84 126 163 203 250 301 362
#     4  10  21  37  64  92 120 156 206 247 300 358
#     4  10  22  38  62  92 124 155 200 250 303 355
#     4  10  19  37  62  96 120 154 198 253 298 356
#     4  11  21  37  62  93 121 161 199 248 302 356
#     4  11  24  41  61  88 121 163 204 249 304 361
#
# _framework density 20.153243
#
# number of rings (size 3 to 8) (size 9 to 14) (size 15 to 20)
#    0.000    1.333    3.333    3.000    0.000    0.667 
#    0.000    0.833    0.000    0.000    0.000    0.000 
#    0.000    0.000    0.000    0.000    0.000    0.000 
#
# Total GULP energy -297661.637138 kJ/mol
# GULP energy per Si atom -12402.568214 kJ/mol
# Density = 2.010737 g / cm^3
# Si number density = 20.153243 Si / 1000 Ang^3
#
#
#
# Elastic Constant Matrix: (Units=GPa)
#
#
# Indices 1 2 3 4 5 6 
#
# 1 64.8146 20.1193 29.2065 0.0000 1.6829 0.0000
# 2 20.1193 72.7590 21.0037 0.0000 1.0195 0.0000
# 3 29.2065 21.0037 81.2936 0.0000 -2.2022 0.0000
# 4 0.0000 0.0000 0.0000 32.3222 0.0000 2.3289
# 5 1.6829 1.0195 -2.2022 0.0000 26.3433 0.0000
# 6 0.0000 0.0000 0.0000 2.3289 0.0000 7.8589
#
#
#
# Elastic Compliance Matrix: (Units=1/GPa)
#
#
# Indices 1 2 3 4 5 6 
#
# 1 0.019308 -0.003568 -0.006058 0.000000 -0.001602 0.000000
# 2 -0.003568 0.015532 -0.002748 0.000000 -0.000603 0.000000
# 3 -0.006058 -0.002748 0.015235 0.000000 0.001767 0.000000
# 4 0.000000 0.000000 0.000000 0.031613 0.000000 -0.009368
# 5 -0.001602 -0.000603 0.001767 0.000000 0.038234 0.000000
# 6 0.000000 0.000000 0.000000 -0.009368 0.000000 0.130020
#
#
# Mechanical properties :
#
#
# Convention : Reuss Voigt Hill
#
# Bulk Modulus (GPa) = 39.48180 39.94736 39.71458
# Shear Modulus (GPa) = 17.65963 23.20742 20.43352
#
# Velocity S-wave (km/s) = 2.96339 3.39713 3.18765
# Velocity P-wave (km/s) = 5.59842 5.93735 5.77037
#
# Compressibility (1/GPa) = 0.02532812
#
# Stress axis : x y z
#
# Youngs Moduli (GPa) = 51.79307 64.38263 65.63645
#
# Poissons Ratio (x) = 0.22969 0.39765
# Poissons Ratio (y) = 0.18478 0.18034
# Poissons Ratio (z) = 0.31378 0.17690
#
# Static dielectric constant tensor:
#      x y z
#    x 3.535610 0.000000 0.026850 
#    y 0.000000 3.531060 0.000000 
#    z 0.026850 0.000000 3.668640 
# 
# 
# High freq. dielectric constant tensor:
#      x y z
#    x 1.775510 0.000000 -0.001280 
#    y 0.000000 1.789210 0.000000 
#    z -0.001280 0.000000 1.796310 
# 
# From -- ./inp_files/159740.got.cif
#   From: 2010.06.25/outbox.cif.g09.slc.cpg/sg15_80_cif.got.tgz:159740.got - 2010.06.28 07:06:18.
