data_PCOD8135135
_publ_section_title
;
Structure prediction by ZEFSAII (Michael W. Deem and Ramdas Pophale) SiO2 
 PCOD8135135
Probable space group: C 2/C
;
_chemical_formula_sum "Si O2"
_cell_formula_units_Z 64
_cell_length_a 25.692483
_cell_length_b 17.234877
_cell_length_c 20.631570
_cell_angle_alpha 90.000000
_cell_angle_beta 20.046053
_cell_angle_gamma 90.000000
_cell_volume 3131.526625
_symmetry_space_group_name_H-M "C 2/C"
_symmetry_group_IT_number 15
_symmetry_cell_setting 'monoclinic'
loop_
_space_group_symop_operation_xyz
x,y,z
-x,y,1/2-z
-x,-y,-z
x,-y,1/2+z
1/2+x,1/2+y,z
1/2-x,1/2+y,1/2-z
1/2-x,1/2-y,-z
1/2+x,1/2-y,1/2+z
loop_
_atom_site_type_symbol
_atom_site_label
_atom_site_fract_x
_atom_site_fract_y
_atom_site_fract_z
Si Si1 0.543944 0.117295 0.769160
Si Si2 0.561286 0.368407 0.924863
Si Si3 0.671593 0.034122 0.071042
Si Si4 0.056747 0.295696 0.380612
Si Si5 0.290635 0.869051 0.184269
Si Si6 0.781846 0.512019 0.118164
Si Si7 0.230315 0.205281 0.333124
Si Si8 0.317288 0.318753 0.464694
O O1 0.500000 0.152901 0.750000
O O2 0.587095 0.185198 0.769147
O O3 0.668095 0.048258 0.614075
O O4 0.399636 0.080769 0.972698
O O5 0.616927 0.292387 0.819022
O O6 0.632755 0.449771 0.821653
O O7 0.605133 0.352324 0.948721
O O8 0.386356 0.381884 0.118661
O O9 0.500000 0.056881 0.250000
O O10 0.755946 0.098813 0.013049
O O11 0.766763 0.024865 0.893659
O O12 0.160448 0.357741 0.298372
O O13 0.885378 0.301402 0.609526
O O14 0.340160 0.791886 0.087687
O O15 0.362124 0.946861 0.070027
O O16 0.253257 0.186602 0.381160
O O17 0.500000 0.315788 0.250000
O O18 0.250000 0.250000 0.500000
#
# Coordination Sequence:
#
# PCOD8135135 Si02
#       8
#     8   8   8   8   8   8   8   8
#     4   9  20  40  63  88 117 162 203 251 306 369
#     4  10  21  39  60  91 121 157 198 254 311 359
#     4   9  22  41  61  84 124 161 208 248 307 366
#     4  10  21  39  65  91 118 155 210 254 295 361
#     4  10  22  34  60  91 122 151 198 258 299 359
#     4  10  19  37  63  83 123 163 195 249 316 364
#     4  10  23  39  63  86 124 158 207 245 299 364
#     4  12  27  41  62  91 126 169 205 250 305 368
#
# _framework density 20.437317
#
# number of rings (size 3 to 8) (size 9 to 14) (size 15 to 20)
#    0.000    2.250    1.250    1.500   10.500    1.500 
#    2.250    2.500    0.000    0.000    0.000    0.000 
#    0.000    0.000    0.000    0.000    0.000    0.000 
#
# Total GULP energy -396519.850231 kJ/mol
# GULP energy per Si atom -12391.245320 kJ/mol
# Density = 2.039080 g / cm^3
# Si number density = 20.437317 Si / 1000 Ang^3
#
#
#
# Elastic Constant Matrix: (Units=GPa)
#
#
# Indices 1 2 3 4 5 6 
#
# 1 137.3367 52.9122 22.7199 -0.0059 17.3953 0.0022
# 2 52.9122 68.6228 15.8564 -0.0072 14.7103 -0.0006
# 3 22.7199 15.8564 46.2812 -0.0182 -0.9272 0.0047
# 4 -0.0059 -0.0072 -0.0182 14.5904 0.0062 -3.8083
# 5 17.3953 14.7103 -0.9272 0.0062 33.8169 0.0005
# 6 0.0022 -0.0006 0.0047 -3.8083 0.0005 24.4644
#
#
#
# Elastic Compliance Matrix: (Units=1/GPa)
#
#
# Indices 1 2 3 4 5 6 
#
# 1 0.010837 -0.007132 -0.002927 -0.000002 -0.002552 -0.000001
# 2 -0.007132 0.022391 -0.004294 0.000006 -0.006189 0.000003
# 3 -0.002927 -0.004294 0.024596 0.000025 0.004048 -0.000001
# 4 -0.000002 0.000006 0.000025 0.071441 -0.000014 0.011121
# 5 -0.002552 -0.006189 0.004048 -0.000014 0.033687 -0.000004
# 6 -0.000001 0.000003 -0.000001 0.011121 -0.000004 0.042607
#
#
# Mechanical properties :
#
#
# Convention : Reuss Voigt Hill
#
# Bulk Modulus (GPa) = 34.34473 48.35752 41.35112
# Shear Modulus (GPa) = 20.49420 25.29116 22.89268
#
# Velocity S-wave (km/s) = 3.17011 3.52163 3.35048
# Velocity P-wave (km/s) = 5.49917 6.34418 5.93673
#
# Compressibility (1/GPa) = 0.02911655
#
# Stress axis : x y z
#
# Youngs Moduli (GPa) = 92.27803 44.66142 40.65634
#
# Poissons Ratio (x) = 0.31854 0.11902
# Poissons Ratio (y) = 0.65815 0.17458
# Poissons Ratio (z) = 0.27014 0.19177
#
# Static dielectric constant tensor:
#      x y z
#    x 3.885450 -0.000030 0.051540 
#    y -0.000030 3.908740 0.000040 
#    z 0.051540 0.000040 3.528540 
# 
# 
# High freq. dielectric constant tensor:
#      x y z
#    x 1.798840 0.000000 0.002300 
#    y 0.000000 1.802610 0.000000 
#    z 0.002300 0.000000 1.781260 
# 
# From -- ./inp_files/258054.got.cif
#   From: 2010.06.25/outbox.cif.g09.slc.cpg/sg15_130_cif.got.tgz:258054.got - 2010.06.28 07:06:18.
