data_PCOD8135717
_publ_section_title
;
Structure prediction by ZEFSAII (Michael W. Deem and Ramdas Pophale) SiO2 
 PCOD8135717
Probable space group: C 2/C
;
_chemical_formula_sum "Si O2"
_cell_formula_units_Z 48
_cell_length_a 20.578939
_cell_length_b 18.846297
_cell_length_c 9.185043
_cell_angle_alpha 90.000000
_cell_angle_beta 136.443120
_cell_angle_gamma 90.000000
_cell_volume 2454.687928
_symmetry_space_group_name_H-M "C 2/C"
_symmetry_group_IT_number 15
_symmetry_cell_setting 'monoclinic'
loop_
_space_group_symop_operation_xyz
x,y,z
-x,y,1/2-z
-x,-y,-z
x,-y,1/2+z
1/2+x,1/2+y,z
1/2-x,1/2+y,1/2-z
1/2-x,1/2-y,-z
1/2+x,1/2-y,1/2+z
loop_
_atom_site_type_symbol
_atom_site_label
_atom_site_fract_x
_atom_site_fract_y
_atom_site_fract_z
Si Si1 0.994236 0.348359 0.454274
Si Si2 0.000000 0.228379 0.250000
Si Si3 0.187397 0.832073 0.021608
Si Si4 0.816272 0.448701 0.156053
Si Si5 0.317033 0.292904 0.819133
Si Si6 0.317979 0.912874 0.834557
Si Si7 0.500000 0.228924 0.250000
O O1 0.078335 0.378629 0.492287
O O2 0.957930 0.277665 0.311695
O O3 0.912554 0.406027 0.344663
O O4 0.032542 0.323148 0.672908
O O5 0.086678 0.177531 0.439184
O O6 0.230667 0.910874 0.104549
O O7 0.260334 0.780277 0.219074
O O8 0.170138 0.820039 0.822986
O O9 0.818598 0.529914 0.207407
O O10 0.798558 0.451122 0.955457
O O11 0.259114 0.351481 0.818281
O O12 0.414805 0.279645 0.061127
#
# Coordination Sequence:
#
# PCOD8135717 Si02
#       7
#     8   4   8   8   8   8   4
#     4  12  22  37  62  92 124 158 200 254 310 361
#     4  12  18  40  68  92 112 166 212 244 302 366
#     4  10  19  39  65  85 120 165 205 243 301 368
#     4  11  23  41  60  88 124 164 201 248 303 365
#     4  10  20  40  61  89 125 159 200 255 300 357
#     4  11  24  40  61  87 124 164 204 244 304 366
#     4  12  24  36  64  98 124 152 204 266 304 342
#
# _framework density 19.55442
#
# number of rings (size 3 to 8) (size 9 to 14) (size 15 to 20)
#    0.000    1.000    6.667    1.500    2.333    0.667 
#    3.000    0.833    0.000    4.000    0.000    0.000 
#    0.000    0.000    0.000    0.000    0.000    0.000 
#
# Total GULP energy -297547.612857 kJ/mol
# GULP energy per Si atom -12397.817202 kJ/mol
# Density = 1.950991 g / cm^3
# Si number density = 19.554420 Si / 1000 Ang^3
#
#
#
# Elastic Constant Matrix: (Units=GPa)
#
#
# Indices 1 2 3 4 5 6 
#
# 1 54.6625 34.3813 17.3581 0.0000 5.6408 0.0000
# 2 34.3813 63.3742 16.8858 0.0000 8.8040 0.0000
# 3 17.3581 16.8858 89.7166 0.0000 11.6424 0.0000
# 4 0.0000 0.0000 0.0000 14.6921 0.0000 -3.2539
# 5 5.6408 8.8040 11.6424 0.0000 33.7464 0.0000
# 6 0.0000 0.0000 0.0000 -3.2539 0.0000 39.7358
#
#
#
# Elastic Compliance Matrix: (Units=1/GPa)
#
#
# Indices 1 2 3 4 5 6 
#
# 1 0.028392 -0.014678 -0.002734 0.000000 0.000027 0.000000
# 2 -0.014678 0.024584 -0.001333 0.000000 -0.003500 0.000000
# 3 -0.002734 -0.001333 0.012376 0.000000 -0.003465 0.000000
# 4 0.000000 0.000000 0.000000 0.069321 0.000000 0.005677
# 5 0.000027 -0.003500 -0.003465 0.000000 0.031737 0.000000
# 6 0.000000 0.000000 0.000000 0.005677 0.000000 0.025631
#
#
# Mechanical properties :
#
#
# Convention : Reuss Voigt Hill
#
# Bulk Modulus (GPa) = 35.89232 38.33376 37.11304
# Shear Modulus (GPa) = 20.93653 26.91005 23.92329
#
# Velocity S-wave (km/s) = 3.27567 3.71369 3.50154
# Velocity P-wave (km/s) = 5.71854 6.16724 5.94712
#
# Compressibility (1/GPa) = 0.02786111
#
# Stress axis : x y z
#
# Youngs Moduli (GPa) = 35.22168 40.67736 80.80368
#
# Poissons Ratio (x) = 0.59706 0.22092
# Poissons Ratio (y) = 0.51699 0.10770
# Poissons Ratio (z) = 0.09630 0.05422
#
# Static dielectric constant tensor:
#      x y z
#    x 3.636900 0.000000 0.080930 
#    y 0.000000 3.474650 0.000000 
#    z 0.080930 0.000000 3.433310 
# 
# 
# High freq. dielectric constant tensor:
#      x y z
#    x 1.762460 0.000000 0.005150 
#    y 0.000000 1.748060 0.000000 
#    z 0.005150 0.000000 1.753120 
# 
# From -- ./inp_files/40713.got.cif
#   From: 2010.06.25/outbox.cif.g09.slc.cpg/sg15_21_cif.got.tgz:40713.got - 2010.06.28 07:06:18.
