data_PCOD8135714
_publ_section_title
;
Structure prediction by ZEFSAII (Michael W. Deem and Ramdas Pophale) SiO2 
 PCOD8135714
Probable space group: C 2/C
;
_chemical_formula_sum "Si O2"
_cell_formula_units_Z 64
_cell_length_a 29.227242
_cell_length_b 14.380199
_cell_length_c 9.417361
_cell_angle_alpha 90.000000
_cell_angle_beta 131.769386
_cell_angle_gamma 90.000000
_cell_volume 2952.045056
_symmetry_space_group_name_H-M "C 2/C"
_symmetry_group_IT_number 15
_symmetry_cell_setting 'monoclinic'
loop_
_space_group_symop_operation_xyz
x,y,z
-x,y,1/2-z
-x,-y,-z
x,-y,1/2+z
1/2+x,1/2+y,z
1/2-x,1/2+y,1/2-z
1/2-x,1/2-y,-z
1/2+x,1/2-y,1/2+z
loop_
_atom_site_type_symbol
_atom_site_label
_atom_site_fract_x
_atom_site_fract_y
_atom_site_fract_z
Si Si1 0.068461 0.762019 0.895247
Si Si2 0.116395 0.277697 0.807332
Si Si3 0.321582 0.610312 0.436649
Si Si4 0.887625 0.601299 0.695952
Si Si5 0.824842 0.896725 0.431195
Si Si6 0.762989 0.607583 0.996460
Si Si7 0.930236 0.436281 0.602679
Si Si8 0.257025 0.105370 0.483349
O O1 0.067808 0.674324 0.788127
O O2 0.000000 0.803861 0.750000
O O3 0.086442 0.731262 0.091223
O O4 0.113306 0.839200 0.922311
O O5 0.182955 0.324793 0.935760
O O6 0.073427 0.338549 0.821035
O O7 0.123815 0.177418 0.898969
O O8 0.342854 0.503683 0.500739
O O9 0.257813 0.630121 0.387210
O O10 0.301928 0.629167 0.234487
O O11 0.886745 0.510455 0.592518
O O12 0.821053 0.654230 0.572526
O O13 0.910100 0.573399 0.898443
O O14 0.767243 0.866981 0.411762
O O15 0.799403 0.876970 0.222104
O O16 0.781454 0.500481 0.021371
O O17 0.000000 0.471799 0.750000
#
# Coordination Sequence:
#
# PCOD8135714 Si02
#       8
#     8   8   8   8   8   8   8   8
#     4  12  27  46  66  93 133 185 232 275 325 396
#     4  12  23  42  71  97 131 177 229 269 342 397
#     4  10  22  38  66  98 130 169 212 278 339 399
#     4  12  25  43  68  99 133 175 218 275 342 397
#     4  10  23  42  63  96 138 168 222 273 336 394
#     4  10  19  39  64  97 124 167 211 268 335 406
#     4  12  26  45  66  95 135 179 227 273 321 405
#     4  10  22  37  65  97 137 158 208 277 342 393
#
# _framework density 21.679887000000001
#
# number of rings (size 3 to 8) (size 9 to 14) (size 15 to 20)
#    0.000    1.000    2.500    4.125    7.000    0.500 
#    0.000    1.250    0.000    0.000    0.000    0.000 
#    0.000    0.000    0.000    0.000    0.000    0.000 
#
# Total GULP energy -396784.878857 kJ/mol
# GULP energy per Si atom -12399.527464 kJ/mol
# Density = 2.163054 g / cm^3
# Si number density = 21.679887 Si / 1000 Ang^3
#
#
#
# Elastic Constant Matrix: (Units=GPa)
#
#
# Indices 1 2 3 4 5 6 
#
# 1 83.0554 40.3268 48.5876 0.0000 12.9234 0.0000
# 2 40.3268 67.6264 33.7915 0.0000 -3.8961 0.0000
# 3 48.5876 33.7915 106.4849 0.0000 -10.2517 0.0000
# 4 0.0000 0.0000 0.0000 28.8024 0.0000 -2.4503
# 5 12.9234 -3.8961 -10.2517 0.0000 36.8944 0.0000
# 6 0.0000 0.0000 0.0000 -2.4503 0.0000 34.3138
#
#
#
# Elastic Compliance Matrix: (Units=1/GPa)
#
#
# Indices 1 2 3 4 5 6 
#
# 1 0.024346 -0.010794 -0.008851 0.000000 -0.012127 0.000000
# 2 -0.010794 0.022363 -0.001623 0.000000 0.005691 0.000000
# 3 -0.008851 -0.001623 0.014618 0.000000 0.006991 0.000000
# 4 0.000000 0.000000 0.000000 0.034932 0.000000 0.002494
# 5 -0.012127 0.005691 0.006991 0.000000 0.033896 0.000000
# 6 0.000000 0.000000 0.000000 0.002494 0.000000 0.029321
#
#
# Mechanical properties :
#
#
# Convention : Reuss Voigt Hill
#
# Bulk Modulus (GPa) = 53.22027 55.84204 54.53115
# Shear Modulus (GPa) = 24.00679 28.96616 26.48648
#
# Velocity S-wave (km/s) = 3.33127 3.65921 3.49909
# Velocity P-wave (km/s) = 6.27678 6.60807 6.44455
#
# Compressibility (1/GPa) = 0.01878983
#
# Stress axis : x y z
#
# Youngs Moduli (GPa) = 41.07486 44.71709 68.40994
#
# Poissons Ratio (x) = 0.48267 0.60549
# Poissons Ratio (y) = 0.44336 0.11106
# Poissons Ratio (z) = 0.36355 0.07260
#
# Static dielectric constant tensor:
#      x y z
#    x 3.903870 0.000000 -0.191930 
#    y 0.000000 3.922530 0.000000 
#    z -0.191930 0.000000 3.792220 
# 
# 
# High freq. dielectric constant tensor:
#      x y z
#    x 1.851960 0.000000 -0.019410 
#    y 0.000000 1.848630 0.000000 
#    z -0.019410 0.000000 1.848830 
# 
# From -- ./inp_files/70151.got.cif
#   From: 2010.06.25/outbox.cif.g09.slc.cpg/sg15_36_cif.got.tgz:70151.got - 2010.06.28 07:06:18.
