data_PCOD8135599
_publ_section_title
;
Structure prediction by ZEFSAII (Michael W. Deem and Ramdas Pophale) SiO2 
 PCOD8135599
Probable space group: C 2/C
;
_chemical_formula_sum "Si O2"
_cell_formula_units_Z 52
_cell_length_a 15.084649
_cell_length_b 11.055068
_cell_length_c 17.308453
_cell_angle_alpha 90.000000
_cell_angle_beta 87.967574
_cell_angle_gamma 90.000000
_cell_volume 2884.573350
_symmetry_space_group_name_H-M "C 2/C"
_symmetry_group_IT_number 15
_symmetry_cell_setting 'monoclinic'
loop_
_space_group_symop_operation_xyz
x,y,z
-x,y,1/2-z
-x,-y,-z
x,-y,1/2+z
1/2+x,1/2+y,z
1/2-x,1/2+y,1/2-z
1/2-x,1/2-y,-z
1/2+x,1/2-y,1/2+z
loop_
_atom_site_type_symbol
_atom_site_label
_atom_site_fract_x
_atom_site_fract_y
_atom_site_fract_z
Si Si1 0.500000 0.782611 0.750000
Si Si2 0.425055 0.030029 0.359371
Si Si3 0.839841 0.641966 0.738536
Si Si4 0.144481 0.884335 0.190124
Si Si5 0.966171 0.314846 0.091704
Si Si6 0.924130 0.848475 0.814513
Si Si7 0.158391 0.722351 0.044730
O O1 0.507291 0.865461 0.672808
O O2 0.414206 0.694938 0.748628
O O3 0.344277 0.093447 0.409526
O O4 0.387174 0.964922 0.284378
O O5 0.476558 0.938380 0.414125
O O6 0.739993 0.604004 0.725502
O O7 0.889240 0.664647 0.656648
O O8 0.841814 0.764446 0.789731
O O9 0.144879 0.829366 0.105208
O O10 0.105367 0.015618 0.176157
O O11 0.033028 0.204053 0.108201
O O12 0.923312 0.281218 0.011796
O O13 0.000000 0.832752 0.750000
O O14 0.250000 0.750000 0.000000
#
# Coordination Sequence:
#
# PCOD8135599 Si02
#       7
#     4   8   8   8   8   8   8
#     4  10  20  34  52  88 112 138 194 238 282 318
#     4  10  20  37  62  83 109 152 200 238 275 335
#     4  10  20  35  63  84 111 150 195 242 275 337
#     4  11  22  35  56  86 118 146 187 243 286 336
#     4  10  19  39  58  82 116 154 189 231 285 346
#     4   9  20  36  57  84 111 149 190 232 291 330
#     4  11  23  36  55  88 116 154 190 230 295 343
#
# _framework density 18.02693
#
# number of rings (size 3 to 8) (size 9 to 14) (size 15 to 20)
#    0.000    1.846    3.846    1.385    4.308    0.615 
#    0.000    0.000    0.000    1.846    0.000    0.000 
#    0.000    0.000    0.000    0.000    0.000    0.000 
#
# Total GULP energy -322272.099433 kJ/mol
# GULP energy per Si atom -12395.080747 kJ/mol
# Density = 1.798590 g / cm^3
# Si number density = 18.026930 Si / 1000 Ang^3
#
#
#
# Elastic Constant Matrix: (Units=GPa)
#
#
# Indices 1 2 3 4 5 6 
#
# 1 77.1745 33.5725 18.7787 0.0000 7.1102 0.0000
# 2 33.5725 116.1238 24.0950 0.0000 6.5418 0.0000
# 3 18.7787 24.0950 68.2567 0.0000 9.7146 0.0000
# 4 0.0000 0.0000 0.0000 18.3059 0.0000 -3.9937
# 5 7.1102 6.5418 9.7146 0.0000 25.9105 0.0000
# 6 0.0000 0.0000 0.0000 -3.9937 0.0000 25.7113
#
#
#
# Elastic Compliance Matrix: (Units=1/GPa)
#
#
# Indices 1 2 3 4 5 6 
#
# 1 0.015452 -0.003802 -0.002580 0.000000 -0.002313 0.000000
# 2 -0.003802 0.010262 -0.002489 0.000000 -0.000614 0.000000
# 3 -0.002580 -0.002489 0.016953 0.000000 -0.005020 0.000000
# 4 0.000000 0.000000 0.000000 0.056543 0.000000 0.008783
# 5 -0.002313 -0.000614 -0.005020 0.000000 0.041266 0.000000
# 6 0.000000 0.000000 0.000000 0.008783 0.000000 0.040258
#
#
# Mechanical properties :
#
#
# Convention : Reuss Voigt Hill
#
# Bulk Modulus (GPa) = 40.11881 46.04970 43.08425
# Shear Modulus (GPa) = 24.17968 26.32612 25.25290
#
# Velocity S-wave (km/s) = 3.66636 3.82563 3.74684
# Velocity P-wave (km/s) = 6.34241 6.71672 6.53225
#
# Compressibility (1/GPa) = 0.02492596
#
# Stress axis : x y z
#
# Youngs Moduli (GPa) = 64.71484 97.44967 58.98491
#
# Poissons Ratio (x) = 0.37048 0.15218
# Poissons Ratio (y) = 0.24603 0.14682
# Poissons Ratio (z) = 0.16696 0.24256
#
# Static dielectric constant tensor:
#      x y z
#    x 3.380070 0.000000 -0.026380 
#    y 0.000000 3.826490 0.000000 
#    z -0.026380 0.000000 3.346970 
# 
# 
# High freq. dielectric constant tensor:
#      x y z
#    x 1.691630 0.000000 0.003490 
#    y 0.000000 1.710310 0.000000 
#    z 0.003490 0.000000 1.687150 
# 
# From -- ./inp_files/203562.got.cif
#   From: 2010.06.25/outbox.cif.g09.slc.cpg/sg15_102_cif.got.tgz:203562.got - 2010.06.28 07:06:18.
