data_PCOD8135421
_publ_section_title
;
Structure prediction by ZEFSAII (Michael W. Deem and Ramdas Pophale) SiO2 
 PCOD8135421
Probable space group: C 2/C
;
_chemical_formula_sum "Si O2"
_cell_formula_units_Z 48
_cell_length_a 9.173380
_cell_length_b 17.605978
_cell_length_c 15.529240
_cell_angle_alpha 90.000000
_cell_angle_beta 118.103139
_cell_angle_gamma 90.000000
_cell_volume 2212.371651
_symmetry_space_group_name_H-M "C 2/C"
_symmetry_group_IT_number 15
_symmetry_cell_setting 'monoclinic'
loop_
_space_group_symop_operation_xyz
x,y,z
-x,y,1/2-z
-x,-y,-z
x,-y,1/2+z
1/2+x,1/2+y,z
1/2-x,1/2+y,1/2-z
1/2-x,1/2-y,-z
1/2+x,1/2-y,1/2+z
loop_
_atom_site_type_symbol
_atom_site_label
_atom_site_fract_x
_atom_site_fract_y
_atom_site_fract_z
Si Si1 0.346478 0.949844 0.755228
Si Si2 0.551352 0.085077 0.030192
Si Si3 0.549787 0.451762 0.139170
Si Si4 0.810565 0.181331 0.395641
Si Si5 0.788256 0.836949 0.089907
Si Si6 0.124567 0.099211 0.477119
O O1 0.500000 0.991972 0.750000
O O2 0.395509 0.906117 0.855740
O O3 0.298287 0.886683 0.671395
O O4 0.200879 0.010751 0.735546
O O5 0.696396 0.117230 0.010391
O O6 0.396683 0.133530 0.959103
O O7 0.500000 0.000000 0.000000
O O8 0.432213 0.394914 0.162930
O O9 0.428711 0.517675 0.074082
O O10 0.633141 0.407519 0.082725
O O11 0.832511 0.178988 0.503924
O O12 0.721778 0.262149 0.350915
O O13 0.997428 0.166324 0.412082
#
# Coordination Sequence:
#
# PCOD8135421 Si02
#       6
#     8   8   8   8   8   8
#     4  11  21  37  61  91 122 166 212 260 317 371
#     4  12  22  35  61  95 124 159 213 265 308 369
#     4   9  18  36  60  84 122 158 203 258 307 370
#     4   9  20  37  61  85 118 167 204 244 310 391
#     4  10  19  38  62  88 120 157 209 249 313 376
#     4   9  18  34  58  89 118 161 203 251 315 364
#
# _framework density 21.696173000000002
#
# number of rings (size 3 to 8) (size 9 to 14) (size 15 to 20)
#    0.000    2.000    3.333    2.000    0.000    3.333 
#    0.000    1.667    0.000    0.000    0.000    0.000 
#    0.000    0.000    0.000    0.000    0.000    0.000 
#
# Total GULP energy -297341.919675 kJ/mol
# GULP energy per Si atom -12389.246653 kJ/mol
# Density = 2.164679 g / cm^3
# Si number density = 21.696173 Si / 1000 Ang^3
#
#
#
# Elastic Constant Matrix: (Units=GPa)
#
#
# Indices 1 2 3 4 5 6 
#
# 1 175.6104 55.6611 23.5460 0.0000 27.5668 0.0000
# 2 55.6611 118.3934 17.8219 0.0000 19.1665 0.0000
# 3 23.5460 17.8219 55.4758 0.0000 11.2449 0.0000
# 4 0.0000 0.0000 0.0000 7.9361 0.0000 1.9067
# 5 27.5668 19.1665 11.2449 0.0000 27.4539 0.0000
# 6 0.0000 0.0000 0.0000 1.9067 0.0000 39.1143
#
#
#
# Elastic Compliance Matrix: (Units=1/GPa)
#
#
# Indices 1 2 3 4 5 6 
#
# 1 0.007477 -0.002468 -0.001317 0.000000 -0.005245 0.000000
# 2 -0.002468 0.010518 -0.001467 0.000000 -0.004264 0.000000
# 3 -0.001317 -0.001467 0.020263 0.000000 -0.005952 0.000000
# 4 0.000000 0.000000 0.000000 0.127500 0.000000 -0.006215
# 5 -0.005245 -0.004264 -0.005952 0.000000 0.047106 0.000000
# 6 0.000000 0.000000 0.000000 -0.006215 0.000000 0.025869
#
#
# Mechanical properties :
#
#
# Convention : Reuss Voigt Hill
#
# Bulk Modulus (GPa) = 36.03253 60.39307 48.21280
# Shear Modulus (GPa) = 19.34324 31.73088 25.53706
#
# Velocity S-wave (km/s) = 2.98912 3.82843 3.43451
# Velocity P-wave (km/s) = 5.34387 6.88758 6.16424
#
# Compressibility (1/GPa) = 0.02775270
#
# Stress axis : x y z
#
# Youngs Moduli (GPa) = 133.75201 95.07799 49.35113
#
# Poissons Ratio (x) = 0.23461 0.06502
# Poissons Ratio (y) = 0.33004 0.07241
# Poissons Ratio (z) = 0.17621 0.13950
#
# Static dielectric constant tensor:
#      x y z
#    x 4.122870 0.000000 0.176440 
#    y 0.000000 4.159040 0.000000 
#    z 0.176440 0.000000 3.763510 
# 
# 
# High freq. dielectric constant tensor:
#      x y z
#    x 1.865600 0.000000 0.014770 
#    y 0.000000 1.829070 0.000000 
#    z 0.014770 0.000000 1.837000 
# 
# From -- ./inp_files/190607.got.cif
#   From: 2010.06.25/outbox.cif.g09.slc.cpg/sg15_96_cif.got.tgz:190607.got - 2010.06.28 07:06:18.
