data_PCOD8135835
_publ_section_title
;
Structure prediction by ZEFSAII (Michael W. Deem and Ramdas Pophale) SiO2 
 PCOD8135835
Probable space group: C 2/C
;
_chemical_formula_sum "Si O2"
_cell_formula_units_Z 52
_cell_length_a 9.244460
_cell_length_b 14.640211
_cell_length_c 26.330431
_cell_angle_alpha 90.000000
_cell_angle_beta 44.747449
_cell_angle_gamma 90.000000
_cell_volume 2508.702067
_symmetry_space_group_name_H-M "C 2/C"
_symmetry_group_IT_number 15
_symmetry_cell_setting 'monoclinic'
loop_
_space_group_symop_operation_xyz
x,y,z
-x,y,1/2-z
-x,-y,-z
x,-y,1/2+z
1/2+x,1/2+y,z
1/2-x,1/2+y,1/2-z
1/2-x,1/2-y,-z
1/2+x,1/2-y,1/2+z
loop_
_atom_site_type_symbol
_atom_site_label
_atom_site_fract_x
_atom_site_fract_y
_atom_site_fract_z
Si Si1 0.543219 0.280632 0.025421
Si Si2 0.000000 0.637358 0.250000
Si Si3 0.645098 0.532056 0.918824
Si Si4 0.500000 0.536233 0.250000
Si Si5 0.347120 0.314685 0.864070
Si Si6 0.885250 0.478258 0.209328
Si Si7 0.606268 0.337874 0.894038
Si Si8 0.000000 0.667361 0.750000
O O1 0.446186 0.370551 0.077011
O O2 0.398557 0.191894 0.069211
O O3 0.750000 0.250000 0.000000
O O4 0.569112 0.300982 0.959397
O O5 0.892910 0.578524 0.232027
O O6 0.824590 0.701171 0.318809
O O7 0.625870 0.448873 0.883573
O O8 0.888931 0.543403 0.872278
O O9 0.500000 0.500000 0.000000
O O10 0.575261 0.595177 0.183214
O O11 0.697509 0.475248 0.216068
O O12 0.428880 0.304856 0.900892
O O13 0.407525 0.226112 0.817527
O O14 0.834698 0.402340 0.265413
#
# Coordination Sequence:
#
# PCOD8135835 Si02
#       8
#     8   4   8   4   8   8   8   4
#     4  11  24  40  65  94 130 168 215 266 323 382
#     4   9  18  35  65  86 115 164 214 247 318 377
#     4   9  20  39  68  87 122 172 215 248 328 393
#     4  11  24  35  67  95 124 162 230 271 314 377
#     4  11  23  40  60  94 130 166 208 272 323 372
#     4  10  19  40  64  90 123 165 212 268 311 393
#     4  10  21  40  65  89 128 173 213 254 320 392
#     4  10  22  40  68  85 129 168 206 254 340 368
#
# _framework density 20.727851000000001
#
# number of rings (size 3 to 8) (size 9 to 14) (size 15 to 20)
#    0.000    1.846    3.077    0.462    6.462    0.000 
#    0.000    4.615    0.000    0.000    0.000    0.000 
#    0.000    0.000    0.000    0.000    0.000    0.000 
#
# Total GULP energy -322093.691167 kJ/mol
# GULP energy per Si atom -12388.218891 kJ/mol
# Density = 2.068067 g / cm^3
# Si number density = 20.727851 Si / 1000 Ang^3
#
#
#
# Elastic Constant Matrix: (Units=GPa)
#
#
# Indices 1 2 3 4 5 6 
#
# 1 172.0845 48.3893 64.1261 -0.0003 -21.2010 -0.0001
# 2 48.3893 64.0980 38.8375 -0.0008 -10.9978 0.0000
# 3 64.1261 38.8375 101.1977 -0.0037 -19.2885 0.0001
# 4 -0.0003 -0.0008 -0.0037 25.0052 0.0006 -8.2258
# 5 -21.2010 -10.9978 -19.2885 0.0006 40.8100 0.0000
# 6 -0.0001 0.0000 0.0001 -8.2258 0.0000 19.5526
#
#
#
# Elastic Compliance Matrix: (Units=1/GPa)
#
#
# Indices 1 2 3 4 5 6 
#
# 1 0.008436 -0.003957 -0.003512 -0.000001 0.001657 0.000000
# 2 -0.003957 0.022329 -0.005832 0.000000 0.001205 0.000000
# 3 -0.003512 -0.005832 0.015054 0.000002 0.003719 0.000001
# 4 -0.000001 0.000000 0.000002 0.046415 0.000000 0.019527
# 5 0.001657 0.001205 0.003719 0.000000 0.027447 0.000000
# 6 0.000000 0.000000 0.000001 0.019527 0.000000 0.059359
#
#
# Mechanical properties :
#
#
# Convention : Reuss Voigt Hill
#
# Bulk Modulus (GPa) = 52.03504 71.12067 61.57785
# Shear Modulus (GPa) = 23.57952 29.47538 26.52745
#
# Velocity S-wave (km/s) = 3.37646 3.77506 3.58131
# Velocity P-wave (km/s) = 6.35288 7.30668 6.84641
#
# Compressibility (1/GPa) = 0.01921782
#
# Stress axis : x y z
#
# Youngs Moduli (GPa) = 118.53336 44.78495 66.42761
#
# Poissons Ratio (x) = 0.17721 0.23326
# Poissons Ratio (y) = 0.46903 0.38742
# Poissons Ratio (z) = 0.41624 0.26120
#
# Static dielectric constant tensor:
#      x y z
#    x 3.547650 0.000000 0.002570 
#    y 0.000000 3.851770 0.000000 
#    z 0.002570 0.000000 4.229490 
# 
# 
# High freq. dielectric constant tensor:
#      x y z
#    x 1.789400 0.000000 -0.002370 
#    y 0.000000 1.791850 0.000000 
#    z -0.002370 0.000000 1.834600 
# 
# From -- ./inp_files/231186.got.cif
#   From: 2010.06.25/outbox.cif.g09.slc.cpg/sg15_116_cif.got.tgz:231186.got - 2010.06.28 07:06:18.
