data_PCOD8135291
_publ_section_title
;
Structure prediction by ZEFSAII (Michael W. Deem and Ramdas Pophale) SiO2 
 PCOD8135291
Probable space group: C 2/C
;
_chemical_formula_sum "Si O2"
_cell_formula_units_Z 44
_cell_length_a 13.323675
_cell_length_b 13.852473
_cell_length_c 16.655222
_cell_angle_alpha 90.000000
_cell_angle_beta 137.549391
_cell_angle_gamma 90.000000
_cell_volume 2074.799812
_symmetry_space_group_name_H-M "C 2/C"
_symmetry_group_IT_number 15
_symmetry_cell_setting 'monoclinic'
loop_
_space_group_symop_operation_xyz
x,y,z
-x,y,1/2-z
-x,-y,-z
x,-y,1/2+z
1/2+x,1/2+y,z
1/2-x,1/2+y,1/2-z
1/2-x,1/2-y,-z
1/2+x,1/2-y,1/2+z
loop_
_atom_site_type_symbol
_atom_site_label
_atom_site_fract_x
_atom_site_fract_y
_atom_site_fract_z
Si Si1 0.628306 0.041816 0.633459
Si Si2 0.382977 0.625296 0.109535
Si Si3 0.279304 0.579230 0.568867
Si Si4 0.000000 0.226438 0.750000
Si Si5 0.451509 0.144669 0.356238
Si Si6 0.071049 0.709477 0.979340
O O1 0.770493 0.060284 0.660926
O O2 0.561240 0.139390 0.634160
O O3 0.500000 0.000000 0.500000
O O4 0.655355 0.951280 0.709176
O O5 0.500000 0.632293 0.250000
O O6 0.347669 0.514507 0.064742
O O7 0.446990 0.683692 0.069755
O O8 0.230490 0.670442 0.049490
O O9 0.395237 0.665919 0.628588
O O10 0.121317 0.610169 0.439670
O O11 0.899651 0.291376 0.750581
O O12 0.441539 0.208969 0.431417
#
# Coordination Sequence:
#
# PCOD8135291 Si02
#       6
#     8   8   8   4   8   8
#     4   8  15  36  58  71 108 152 175 213 282 333
#     4  11  19  33  61  89 109 141 186 232 285 325
#     4  10  19  38  57  79 114 151 178 231 290 320
#     4  12  24  34  58  84 114 148 192 230 274 330
#     4  10  20  40  56  80 112 157 187 219 275 342
#     4   9  19  36  59  82 113 147 182 232 276 329
#
# _framework density 21.206866000000002
#
# number of rings (size 3 to 8) (size 9 to 14) (size 15 to 20)
#    0.000    2.545    6.364    0.545    0.000    2.909 
#    1.636    2.727    0.000    0.000    0.000    0.000 
#    0.000    0.000    0.000    0.000    0.000    0.000 
#
# Total GULP energy -272541.312437 kJ/mol
# GULP energy per Si atom -12388.241474 kJ/mol
# Density = 2.115860 g / cm^3
# Si number density = 21.206866 Si / 1000 Ang^3
#
#
#
# Elastic Constant Matrix: (Units=GPa)
#
#
# Indices 1 2 3 4 5 6 
#
# 1 71.4925 52.5026 0.6896 0.0000 -13.8042 0.0000
# 2 52.5026 137.1902 14.6884 0.0000 -14.8848 0.0000
# 3 0.6896 14.6884 16.4554 0.0001 -9.6088 0.0001
# 4 0.0000 0.0000 0.0001 20.2422 0.0001 -8.4641
# 5 -13.8042 -14.8848 -9.6088 0.0001 20.3904 0.0000
# 6 0.0000 0.0000 0.0001 -8.4641 0.0000 47.3233
#
#
#
# Elastic Compliance Matrix: (Units=1/GPa)
#
#
# Indices 1 2 3 4 5 6 
#
# 1 0.023950 -0.009109 0.017538 0.000000 0.017830 0.000000
# 2 -0.009109 0.011703 -0.011971 0.000000 -0.003265 0.000000
# 3 0.017538 -0.011971 0.100094 -0.000001 0.050303 0.000000
# 4 0.000000 0.000000 -0.000001 0.053395 -0.000001 0.009550
# 5 0.017830 -0.003265 0.050303 -0.000001 0.082435 0.000000
# 6 0.000000 0.000000 0.000000 0.009550 0.000000 0.022839
#
#
# Mechanical properties :
#
#
# Convention : Reuss Voigt Hill
#
# Bulk Modulus (GPa) = 7.77219 40.09993 23.93606
# Shear Modulus (GPa) = 14.51855 28.07501 21.29678
#
# Velocity S-wave (km/s) = 2.61935 3.64244 3.17241
# Velocity P-wave (km/s) = 3.58063 6.05308 4.97296
#
# Compressibility (1/GPa) = 0.12866394
#
# Stress axis : x y z
#
# Youngs Moduli (GPa) = 41.75279 85.45091 9.99061
#
# Poissons Ratio (x) = 0.77838 -0.17522
# Poissons Ratio (y) = 0.38033 0.11960
# Poissons Ratio (z) = -0.73228 1.02292
#
# Static dielectric constant tensor:
#      x y z
#    x 4.131440 0.000000 0.020410 
#    y 0.000000 5.003130 0.000000 
#    z 0.020410 0.000000 3.295240 
# 
# 
# High freq. dielectric constant tensor:
#      x y z
#    x 1.823320 0.000000 0.018930 
#    y 0.000000 1.848150 0.000000 
#    z 0.018930 0.000000 1.773580 
# 
# From -- ./inp_files/198077.got.cif
#   From: 2010.06.25/outbox.cif.g09.slc.cpg/sg15_100_cif.got.tgz:198077.got - 2010.06.28 07:06:18.
