data_PCOD8135551
_publ_section_title
;
Structure prediction by ZEFSAII (Michael W. Deem and Ramdas Pophale) SiO2 
 PCOD8135551
Probable space group: C 2/C
;
_chemical_formula_sum "Si O2"
_cell_formula_units_Z 64
_cell_length_a 8.619257
_cell_length_b 17.563415
_cell_length_c 28.471830
_cell_angle_alpha 90.000000
_cell_angle_beta 140.428594
_cell_angle_gamma 90.000000
_cell_volume 2745.746599
_symmetry_space_group_name_H-M "C 2/C"
_symmetry_group_IT_number 15
_symmetry_cell_setting 'monoclinic'
loop_
_space_group_symop_operation_xyz
x,y,z
-x,y,1/2-z
-x,-y,-z
x,-y,1/2+z
1/2+x,1/2+y,z
1/2-x,1/2+y,1/2-z
1/2-x,1/2-y,-z
1/2+x,1/2-y,1/2+z
loop_
_atom_site_type_symbol
_atom_site_label
_atom_site_fract_x
_atom_site_fract_y
_atom_site_fract_z
Si Si1 0.301236 0.179985 0.546136
Si Si2 0.696364 0.771786 0.719320
Si Si3 0.068034 0.430066 0.578648
Si Si4 0.513286 0.486258 0.147752
Si Si5 0.259381 0.736939 0.129351
Si Si6 0.098623 0.020121 0.472788
Si Si7 0.746156 0.934782 0.715047
Si Si8 0.367480 0.354708 0.174743
O O1 0.250000 0.250000 0.500000
O O2 0.195073 0.201801 0.573279
O O3 0.166842 0.108655 0.491153
O O4 0.583743 0.158127 0.616183
O O5 0.712034 0.732505 0.671101
O O6 0.601218 0.858434 0.695064
O O7 0.498779 0.726524 0.702752
O O8 0.951131 0.776676 0.806951
O O9 0.282384 0.457305 0.595031
O O10 0.090535 0.338396 0.583753
O O11 0.099423 0.471931 0.637481
O O12 0.808113 0.462032 0.502922
O O13 0.604336 0.500053 0.115135
O O14 0.724867 0.510147 0.233727
O O15 0.421801 0.402132 0.140108
O O16 0.000000 0.000000 0.500000
O O17 0.000000 0.906795 0.750000
O O18 0.500000 0.397938 0.250000
#
# Coordination Sequence:
#
# PCOD8135551 Si02
#       8
#     8   8   8   8   8   8   8   8
#     4  12  28  45  68 103 148 188 234 290 353 422
#     4  10  19  38  67 102 134 171 220 286 350 407
#     4  10  19  42  74  97 129 179 236 277 344 423
#     4  11  22  41  70  96 130 180 233 276 352 420
#     4  10  20  40  70 101 134 178 224 284 351 416
#     4  12  29  47  66  97 144 186 233 294 347 420
#     4   9  17  36  70  98 122 168 227 277 332 414
#     4  12  25  40  68 109 136 178 239 299 347 416
#
# _framework density 23.308781
#
# number of rings (size 3 to 8) (size 9 to 14) (size 15 to 20)
#    0.000    1.250    6.250    2.250    3.500    2.000 
#    0.000    1.875    0.000    0.000    0.000    0.000 
#    0.000    0.000    0.000    0.000    0.000    0.000 
#
# Total GULP energy -396487.965410 kJ/mol
# GULP energy per Si atom -12390.248919 kJ/mol
# Density = 2.325573 g / cm^3
# Si number density = 23.308781 Si / 1000 Ang^3
#
#
#
# Elastic Constant Matrix: (Units=GPa)
#
#
# Indices 1 2 3 4 5 6 
#
# 1 57.9808 30.4217 23.7919 0.0006 -31.9917 0.0005
# 2 30.4217 101.2142 34.2017 0.0003 -10.8886 0.0003
# 3 23.7919 34.2017 89.0383 0.0013 -33.4638 0.0009
# 4 0.0006 0.0003 0.0013 31.4201 0.0008 -7.5761
# 5 -31.9917 -10.8886 -33.4638 0.0008 40.3014 0.0006
# 6 0.0005 0.0003 0.0009 -7.5761 0.0006 29.5599
#
#
#
# Elastic Compliance Matrix: (Units=1/GPa)
#
#
# Indices 1 2 3 4 5 6 
#
# 1 0.037753 -0.009839 0.005750 -0.000002 0.032085 -0.000002
# 2 -0.009839 0.013936 -0.006170 0.000001 -0.009168 0.000001
# 3 0.005750 -0.006170 0.019121 -0.000002 0.018774 -0.000001
# 4 -0.000002 0.000001 -0.000002 0.033923 -0.000004 0.008694
# 5 0.032085 -0.009168 0.018774 -0.000004 0.063395 -0.000003
# 6 -0.000002 0.000001 -0.000001 0.008694 -0.000003 0.036058
#
#
# Mechanical properties :
#
#
# Convention : Reuss Voigt Hill
#
# Bulk Modulus (GPa) = 19.88346 47.22934 33.55640
# Shear Modulus (GPa) = 20.70680 30.91081 25.80880
#
# Velocity S-wave (km/s) = 2.98379 3.64558 3.33116
# Velocity P-wave (km/s) = 4.51881 6.16658 5.40585
#
# Compressibility (1/GPa) = 0.05029305
#
# Stress axis : x y z
#
# Youngs Moduli (GPa) = 26.48764 71.75770 52.29980
#
# Poissons Ratio (x) = 0.70601 -0.30073
# Poissons Ratio (y) = 0.26060 0.32267
# Poissons Ratio (z) = -0.15231 0.44272
#
# Static dielectric constant tensor:
#      x y z
#    x 4.074290 0.000000 -0.396770 
#    y 0.000000 4.211470 0.000000 
#    z -0.396770 0.000000 4.608960 
# 
# 
# High freq. dielectric constant tensor:
#      x y z
#    x 1.900080 0.000000 -0.033690 
#    y 0.000000 1.917680 0.000000 
#    z -0.033690 0.000000 1.924380 
# 
# From -- ./inp_files/308829.got.cif
#   From: 2010.06.25/outbox.cif.g09.slc.cpg/sg15_155_cif.got.tgz:308829.got - 2010.06.28 07:06:18.
