data_PCOD8135909
_publ_section_title
;
Structure prediction by ZEFSAII (Michael W. Deem and Ramdas Pophale) SiO2 
 PCOD8135909
Probable space group: C 2/C
;
_chemical_formula_sum "Si O2"
_cell_formula_units_Z 48
_cell_length_a 9.601416
_cell_length_b 11.506877
_cell_length_c 22.024558
_cell_angle_alpha 90.000000
_cell_angle_beta 72.698891
_cell_angle_gamma 90.000000
_cell_volume 2323.228466
_symmetry_space_group_name_H-M "C 2/C"
_symmetry_group_IT_number 15
_symmetry_cell_setting 'monoclinic'
loop_
_space_group_symop_operation_xyz
x,y,z
-x,y,1/2-z
-x,-y,-z
x,-y,1/2+z
1/2+x,1/2+y,z
1/2-x,1/2+y,1/2-z
1/2-x,1/2-y,-z
1/2+x,1/2-y,1/2+z
loop_
_atom_site_type_symbol
_atom_site_label
_atom_site_fract_x
_atom_site_fract_y
_atom_site_fract_z
Si Si1 0.500000 0.178381 0.750000
Si Si2 0.002509 0.361894 0.382483
Si Si3 0.802837 0.732644 0.179427
Si Si4 0.500000 0.348591 0.250000
Si Si5 0.520598 0.395886 0.573748
Si Si6 0.811122 0.911021 0.068506
Si Si7 0.223593 0.008640 0.643005
O O1 0.494767 0.101450 0.689348
O O2 0.355127 0.256678 0.768932
O O3 0.148626 0.405074 0.396527
O O4 0.001589 0.221816 0.386213
O O5 0.858017 0.419659 0.430815
O O6 0.932031 0.763821 0.208575
O O7 0.820160 0.814736 0.119142
O O8 0.813461 0.599618 0.158203
O O9 0.374818 0.431187 0.293014
O O10 0.590323 0.366622 0.499729
O O11 0.367586 0.463827 0.584958
O O12 0.627867 0.479403 0.597008
#
# Coordination Sequence:
#
# PCOD8135909 Si02
#       7
#     4   8   8   4   8   8   8
#     4  10  19  41  60  90 124 159 209 254 310 368
#     4  11  24  41  64  96 126 166 211 261 313 372
#     4  11  23  42  65  92 129 162 209 261 312 376
#     4  12  25  43  62  96 130 165 207 258 320 372
#     4  11  23  44  67  88 130 168 211 260 313 371
#     4  10  23  44  65  93 125 170 209 262 314 365
#     4  12  25  39  68  95 124 170 208 256 320 374
#
# _framework density 20.660903999999999
#
# number of rings (size 3 to 8) (size 9 to 14) (size 15 to 20)
#    0.000    1.000    6.667    1.000    0.000    2.667 
#    0.000    1.667    0.000    0.000    0.000    0.000 
#    0.000    0.000    0.000    0.000    0.000    0.000 
#
# Total GULP energy -297623.291006 kJ/mol
# GULP energy per Si atom -12400.970459 kJ/mol
# Density = 2.061388 g / cm^3
# Si number density = 20.660904 Si / 1000 Ang^3
#
#
#
# Elastic Constant Matrix: (Units=GPa)
#
#
# Indices 1 2 3 4 5 6 
#
# 1 125.0928 57.8700 29.1088 0.0000 -14.6721 0.0000
# 2 57.8700 74.5160 32.0118 0.0000 -13.6170 0.0000
# 3 29.1088 32.0118 74.8525 0.0000 -4.0390 0.0000
# 4 0.0000 0.0000 0.0000 11.9947 0.0000 1.3619
# 5 -14.6721 -13.6170 -4.0390 0.0000 29.6353 0.0000
# 6 0.0000 0.0000 0.0000 1.3619 0.0000 38.1630
#
#
#
# Elastic Compliance Matrix: (Units=1/GPa)
#
#
# Indices 1 2 3 4 5 6 
#
# 1 0.012627 -0.009044 -0.000936 0.000000 0.001968 0.000000
# 2 -0.009044 0.024329 -0.006574 0.000000 0.005805 0.000000
# 3 -0.000936 -0.006574 0.016468 0.000000 -0.001240 0.000000
# 4 0.000000 0.000000 0.000000 0.083710 0.000000 -0.002987
# 5 0.001968 0.005805 -0.001240 0.000000 0.037216 0.000000
# 6 0.000000 0.000000 0.000000 -0.002987 0.000000 0.026310
#
#
# Mechanical properties :
#
#
# Convention : Reuss Voigt Hill
#
# Bulk Modulus (GPa) = 49.22565 56.93805 53.08185
# Shear Modulus (GPa) = 20.78649 26.32330 23.55489
#
# Velocity S-wave (km/s) = 3.17531 3.57327 3.38016
# Velocity P-wave (km/s) = 6.10907 6.68151 6.40169
#
# Compressibility (1/GPa) = 0.02031461
#
# Stress axis : x y z
#
# Youngs Moduli (GPa) = 79.19667 41.10337 60.72248
#
# Poissons Ratio (x) = 0.37175 0.05685
# Poissons Ratio (y) = 0.71628 0.39920
# Poissons Ratio (z) = 0.07415 0.27022
#
# Static dielectric constant tensor:
#      x y z
#    x 4.036850 0.000000 -0.104760 
#    y 0.000000 3.562400 0.000000 
#    z -0.104760 0.000000 3.753220 
# 
# 
# High freq. dielectric constant tensor:
#      x y z
#    x 1.820750 0.000000 -0.003520 
#    y 0.000000 1.794620 0.000000 
#    z -0.003520 0.000000 1.809810 
# 
# From -- ./inp_files/263130.got.cif
#   From: 2010.06.25/outbox.cif.g09.slc.cpg/sg15_132_cif.got.tgz:263130.got - 2010.06.28 07:06:18.
