data_PCOD8135040
_publ_section_title
;
Structure prediction by ZEFSAII (Michael W. Deem and Ramdas Pophale) SiO2 
 PCOD8135040
Probable space group: C 2/C
;
_chemical_formula_sum "Si O2"
_cell_formula_units_Z 52
_cell_length_a 30.441320
_cell_length_b 9.364591
_cell_length_c 15.013978
_cell_angle_alpha 90.000000
_cell_angle_beta 140.492672
_cell_angle_gamma 90.000000
_cell_volume 2722.864114
_symmetry_space_group_name_H-M "C 2/C"
_symmetry_group_IT_number 15
_symmetry_cell_setting 'monoclinic'
loop_
_space_group_symop_operation_xyz
x,y,z
-x,y,1/2-z
-x,-y,-z
x,-y,1/2+z
1/2+x,1/2+y,z
1/2-x,1/2+y,1/2-z
1/2-x,1/2-y,-z
1/2+x,1/2-y,1/2+z
loop_
_atom_site_type_symbol
_atom_site_label
_atom_site_fract_x
_atom_site_fract_y
_atom_site_fract_z
Si Si1 0.048669 0.414807 0.645315
Si Si2 0.794164 0.815692 0.491485
Si Si3 0.562341 0.347260 0.058474
Si Si4 0.158496 0.425065 0.225776
Si Si5 0.000000 0.520902 0.750000
Si Si6 0.869798 0.355058 0.968593
Si Si7 0.405913 0.362818 0.804559
O O1 0.053960 0.247419 0.634190
O O2 0.124879 0.483562 0.754001
O O3 0.018030 0.421188 0.695253
O O4 0.000000 0.500000 0.500000
O O5 0.750000 0.750000 0.500000
O O6 0.741838 0.929491 0.365112
O O7 0.809871 0.694348 0.442072
O O8 0.862050 0.883638 0.644217
O O9 0.616335 0.275186 0.076418
O O10 0.595752 0.498568 0.134858
O O11 0.485201 0.348034 0.895772
O O12 0.144842 0.498243 0.108222
O O13 0.123680 0.267139 0.180533
O O14 0.936341 0.623554 0.633081
#
# Coordination Sequence:
#
# PCOD8135040 Si02
#       7
#     8   8   8   8   4   8   8
#     4  11  19  37  60  90 122 150 209 252 292 357
#     4  10  22  36  55  82 115 157 198 238 302 370
#     4  10  20  36  59  90 119 151 191 258 305 343
#     4  10  20  39  58  84 119 155 200 253 292 358
#     4  12  18  32  66  88 110 156 204 254 296 344
#     4  11  21  36  61  85 108 156 210 239 293 365
#     4  10  19  37  60  84 121 153 186 250 314 350
#
# _framework density 19.097538
#
# number of rings (size 3 to 8) (size 9 to 14) (size 15 to 20)
#    0.000    1.538    4.615    2.769    0.000    2.462 
#    0.000    9.231    0.000    0.923    0.000    0.000 
#    0.000    0.000    0.000    0.000    0.000    0.000 
#
# Total GULP energy -322156.846146 kJ/mol
# GULP energy per Si atom -12390.647929 kJ/mol
# Density = 1.905407 g / cm^3
# Si number density = 19.097538 Si / 1000 Ang^3
#
#
#
# Elastic Constant Matrix: (Units=GPa)
#
#
# Indices 1 2 3 4 5 6 
#
# 1 128.0808 37.3084 41.4020 0.0000 -10.2358 0.0000
# 2 37.3084 102.0961 52.2095 0.0000 4.3033 0.0000
# 3 41.4020 52.2095 119.0076 0.0000 6.4666 0.0000
# 4 0.0000 0.0000 0.0000 21.5413 0.0000 4.2889
# 5 -10.2358 4.3033 6.4666 0.0000 27.5084 0.0000
# 6 0.0000 0.0000 0.0000 4.2889 0.0000 30.0124
#
#
#
# Elastic Compliance Matrix: (Units=1/GPa)
#
#
# Indices 1 2 3 4 5 6 
#
# 1 0.009711 -0.002433 -0.002561 0.000000 0.004596 0.000000
# 2 -0.002433 0.013250 -0.004867 0.000000 -0.001834 0.000000
# 3 -0.002561 -0.004867 0.011587 0.000000 -0.002916 0.000000
# 4 0.000000 0.000000 0.000000 0.047782 0.000000 -0.006828
# 5 0.004596 -0.001834 -0.002916 0.000000 0.039035 0.000000
# 6 0.000000 0.000000 0.000000 -0.006828 0.000000 0.034295
#
#
# Mechanical properties :
#
#
# Convention : Reuss Voigt Hill
#
# Bulk Modulus (GPa) = 67.44333 67.89157 67.66745
# Shear Modulus (GPa) = 27.72785 30.36341 29.04563
#
# Velocity S-wave (km/s) = 3.81452 3.99170 3.90411
# Velocity P-wave (km/s) = 7.40221 7.54135 7.47210
#
# Compressibility (1/GPa) = 0.01482726
#
# Stress axis : x y z
#
# Youngs Moduli (GPa) = 102.97196 75.47318 86.30176
#
# Poissons Ratio (x) = 0.18362 0.22101
# Poissons Ratio (y) = 0.25052 0.42001
# Poissons Ratio (z) = 0.26371 0.36731
#
# Static dielectric constant tensor:
#      x y z
#    x 3.802770 0.000000 0.398880 
#    y 0.000000 3.544990 0.000000 
#    z 0.398880 0.000000 4.724950 
# 
# 
# High freq. dielectric constant tensor:
#      x y z
#    x 1.742570 0.000000 0.008730 
#    y 0.000000 1.727180 0.000000 
#    z 0.008730 0.000000 1.742820 
# 
# From -- ./inp_files/181245.got.cif
#   From: 2010.06.25/outbox.cif.g09.slc.cpg/sg15_91_cif.got.tgz:181245.got - 2010.06.28 07:06:18.
