data_PCOD8135740
_publ_section_title
;
Structure prediction by ZEFSAII (Michael W. Deem and Ramdas Pophale) SiO2 
 PCOD8135740
Probable space group: C 2/C
;
_chemical_formula_sum "Si O2"
_cell_formula_units_Z 52
_cell_length_a 13.503675
_cell_length_b 12.521330
_cell_length_c 23.376146
_cell_angle_alpha 90.000000
_cell_angle_beta 141.997844
_cell_angle_gamma 90.000000
_cell_volume 2433.538630
_symmetry_space_group_name_H-M "C 2/C"
_symmetry_group_IT_number 15
_symmetry_cell_setting 'monoclinic'
loop_
_space_group_symop_operation_xyz
x,y,z
-x,y,1/2-z
-x,-y,-z
x,-y,1/2+z
1/2+x,1/2+y,z
1/2-x,1/2+y,1/2-z
1/2-x,1/2-y,-z
1/2+x,1/2-y,1/2+z
loop_
_atom_site_type_symbol
_atom_site_label
_atom_site_fract_x
_atom_site_fract_y
_atom_site_fract_z
Si Si1 0.744652 0.990064 0.283752
Si Si2 0.030444 0.149140 0.550119
Si Si3 0.476579 0.397833 0.303037
Si Si4 0.566204 0.188206 0.163606
Si Si5 0.500000 0.871071 0.250000
Si Si6 0.246692 0.063448 0.014622
Si Si7 0.743198 0.673389 0.550421
O O1 0.885156 0.966139 0.394942
O O2 0.806100 0.937307 0.252042
O O3 0.582403 0.942864 0.237851
O O4 0.712585 0.114075 0.252854
O O5 0.109899 0.239264 0.628056
O O6 0.067476 0.179410 0.501080
O O7 0.840387 0.133721 0.474748
O O8 0.500000 0.440529 0.250000
O O9 0.478800 0.268733 0.305485
O O10 0.629112 0.442943 0.406993
O O11 0.414039 0.117861 0.075252
O O12 0.627708 0.795657 0.341333
O O13 0.286359 0.945112 0.051819
O O14 0.750000 0.750000 0.500000
#
# Coordination Sequence:
#
# PCOD8135740 Si02
#       7
#     8   8   8   8   4   8   8
#     4   9  19  38  61  87 121 161 204 251 302 366
#     4   9  21  39  60  91 126 157 205 257 306 368
#     4  10  23  40  58  94 129 158 205 259 316 365
#     4  10  19  39  66  90 117 165 209 253 307 364
#     4  10  20  42  62  88 124 160 216 252 288 382
#     4  10  20  42  62  89 122 161 212 248 310 369
#     4  11  23  41  61  92 123 166 208 248 314 368
#
# _framework density 21.36806
#
# number of rings (size 3 to 8) (size 9 to 14) (size 15 to 20)
#    0.000    2.462    1.538    2.308    1.077    1.231 
#   23.538    1.538    0.000    0.000    0.000    0.000 
#    0.000    0.000    0.000    0.000    0.000    0.000 
#
# Total GULP energy -322099.200880 kJ/mol
# GULP energy per Si atom -12388.430803 kJ/mol
# Density = 2.131943 g / cm^3
# Si number density = 21.368060 Si / 1000 Ang^3
#
#
#
# Elastic Constant Matrix: (Units=GPa)
#
#
# Indices 1 2 3 4 5 6 
#
# 1 121.7358 27.3258 33.7448 0.0000 -21.5558 0.0000
# 2 27.3258 71.9952 33.8085 0.0000 -6.9045 0.0000
# 3 33.7448 33.8085 75.5348 0.0000 -4.9012 0.0000
# 4 0.0000 0.0000 0.0000 18.9879 0.0000 7.8069
# 5 -21.5558 -6.9045 -4.9012 0.0000 30.1285 0.0000
# 6 0.0000 0.0000 0.0000 7.8069 0.0000 15.7923
#
#
#
# Elastic Compliance Matrix: (Units=1/GPa)
#
#
# Indices 1 2 3 4 5 6 
#
# 1 0.010801 -0.001763 -0.003599 0.000000 0.006738 0.000000
# 2 -0.001763 0.018107 -0.007206 0.000000 0.001716 0.000000
# 3 -0.003599 -0.007206 0.017987 0.000000 -0.001300 0.000000
# 4 0.000000 0.000000 0.000000 0.066100 0.000000 -0.032677
# 5 0.006738 0.001716 -0.001300 0.000000 0.038194 0.000000
# 6 0.000000 0.000000 0.000000 -0.032677 0.000000 0.079476
#
#
# Mechanical properties :
#
#
# Convention : Reuss Voigt Hill
#
# Bulk Modulus (GPa) = 45.95506 51.00268 48.47887
# Shear Modulus (GPa) = 19.00743 24.60750 21.80746
#
# Velocity S-wave (km/s) = 2.98573 3.39721 3.19809
# Velocity P-wave (km/s) = 5.78266 6.26965 6.03107
#
# Compressibility (1/GPa) = 0.02176039
#
# Stress axis : x y z
#
# Youngs Moduli (GPa) = 92.58355 55.22633 55.59433
#
# Poissons Ratio (x) = 0.09738 0.20008
# Poissons Ratio (y) = 0.16326 0.40059
# Poissons Ratio (z) = 0.33319 0.39793
#
# Static dielectric constant tensor:
#      x y z
#    x 4.051000 0.000000 0.104270 
#    y 0.000000 3.801780 0.000000 
#    z 0.104270 0.000000 3.930010 
# 
# 
# High freq. dielectric constant tensor:
#      x y z
#    x 1.844980 0.000000 0.005040 
#    y 0.000000 1.818450 0.000000 
#    z 0.005040 0.000000 1.823050 
# 
# From -- ./inp_files/273897.got.cif
#   From: 2010.06.25/outbox.cif.g09.slc.cpg/sg15_137_cif.got.tgz:273897.got - 2010.06.28 07:06:18.
