data_PCOD8135138
_publ_section_title
;
Structure prediction by ZEFSAII (Michael W. Deem and Ramdas Pophale) SiO2 
 PCOD8135138
Probable space group: C 2/C
;
_chemical_formula_sum "Si O2"
_cell_formula_units_Z 64
_cell_length_a 10.286761
_cell_length_b 12.728694
_cell_length_c 28.074461
_cell_angle_alpha 90.000000
_cell_angle_beta 58.179816
_cell_angle_gamma 90.000000
_cell_volume 3123.511590
_symmetry_space_group_name_H-M "C 2/C"
_symmetry_group_IT_number 15
_symmetry_cell_setting 'monoclinic'
loop_
_space_group_symop_operation_xyz
x,y,z
-x,y,1/2-z
-x,-y,-z
x,-y,1/2+z
1/2+x,1/2+y,z
1/2-x,1/2+y,1/2-z
1/2-x,1/2-y,-z
1/2+x,1/2-y,1/2+z
loop_
_atom_site_type_symbol
_atom_site_label
_atom_site_fract_x
_atom_site_fract_y
_atom_site_fract_z
Si Si1 0.950376 0.555321 0.422391
Si Si2 0.081252 0.772273 0.378310
Si Si3 0.923838 0.334971 0.116663
Si Si4 0.641248 0.416244 0.018366
Si Si5 0.422137 0.160790 0.811720
Si Si6 0.832775 0.440974 0.840641
Si Si7 0.529812 0.619202 0.435010
Si Si8 0.573156 0.715889 0.688970
O O1 0.826101 0.589704 0.486855
O O2 0.862720 0.537411 0.390235
O O3 0.070130 0.649460 0.393432
O O4 0.030705 0.443859 0.418189
O O5 0.256001 0.794822 0.357968
O O6 0.952111 0.838886 0.430070
O O7 0.047478 0.800211 0.330087
O O8 0.740765 0.329170 0.145321
O O9 0.966032 0.330134 0.164574
O O10 0.010491 0.238621 0.073075
O O11 0.611338 0.538913 0.036615
O O12 0.598382 0.378382 0.974213
O O13 0.500000 0.216018 0.750000
O O14 0.391422 0.041391 0.800620
O O15 0.649683 0.425658 0.872693
O O16 0.916388 0.340081 0.803607
O O17 0.500000 0.662136 0.750000
#
# Coordination Sequence:
#
# PCOD8135138 Si02
#       8
#     8   8   8   8   8   8   8   8
#     4   9  20  36  56  83 122 155 183 236 296 353
#     4  11  22  39  60  87 118 153 199 241 285 354
#     4  10  22  40  57  89 124 151 194 244 294 350
#     4  10  19  37  63  86 113 157 201 235 287 350
#     4  11  21  37  61  88 118 153 198 249 295 333
#     4   8  16  34  58  85 108 150 202 240 269 346
#     4   9  18  35  62  87 114 150 197 241 284 344
#     4  10  20  38  61  83 115 159 201 239 288 346
#
# _framework density 20.48976
#
# number of rings (size 3 to 8) (size 9 to 14) (size 15 to 20)
#    0.000    2.250    1.250    2.250    1.750    0.500 
#    2.250    1.875    0.000    0.000    0.000    0.000 
#    0.000    0.000    0.000    0.000    0.000    0.000 
#
# Total GULP energy -396484.140732 kJ/mol
# GULP energy per Si atom -12390.129398 kJ/mol
# Density = 2.044312 g / cm^3
# Si number density = 20.489760 Si / 1000 Ang^3
#
#
#
# Elastic Constant Matrix: (Units=GPa)
#
#
# Indices 1 2 3 4 5 6 
#
# 1 48.9410 17.3632 3.4067 0.0000 -12.4346 0.0000
# 2 17.3632 125.2671 25.8174 0.0000 -1.0741 0.0000
# 3 3.4067 25.8174 83.4003 0.0000 -0.6959 0.0000
# 4 0.0000 0.0000 0.0000 13.3637 0.0000 5.2832
# 5 -12.4346 -1.0741 -0.6959 0.0000 16.7752 0.0000
# 6 0.0000 0.0000 0.0000 5.2832 0.0000 20.0984
#
#
#
# Elastic Compliance Matrix: (Units=1/GPa)
#
#
# Indices 1 2 3 4 5 6 
#
# 1 0.026647 -0.003563 0.000177 0.000000 0.019531 0.000000
# 2 -0.003563 0.009006 -0.002661 0.000000 -0.002174 0.000000
# 3 0.000177 -0.002661 0.012811 0.000000 0.000493 0.000000
# 4 0.000000 0.000000 0.000000 0.083508 0.000000 -0.021952
# 5 0.019531 -0.002174 0.000493 0.000000 0.073970 0.000000
# 6 0.000000 0.000000 0.000000 -0.021952 0.000000 0.055526
#
#
# Mechanical properties :
#
#
# Convention : Reuss Voigt Hill
#
# Bulk Modulus (GPa) = 27.49348 38.97590 33.23469
# Shear Modulus (GPa) = 17.50186 24.11553 20.80870
#
# Velocity S-wave (km/s) = 2.92580 3.43440 3.19025
# Velocity P-wave (km/s) = 4.98608 5.89832 5.46128
#
# Compressibility (1/GPa) = 0.03637226
#
# Stress axis : x y z
#
# Youngs Moduli (GPa) = 37.52808 111.03135 78.05874
#
# Poissons Ratio (x) = 0.39556 -0.01384
# Poissons Ratio (y) = 0.13370 0.20769
# Poissons Ratio (z) = -0.00666 0.29542
#
# Static dielectric constant tensor:
#      x y z
#    x 3.459200 0.000000 -0.126220 
#    y 0.000000 3.819200 0.000000 
#    z -0.126220 0.000000 3.736920 
# 
# 
# High freq. dielectric constant tensor:
#      x y z
#    x 1.775390 0.000000 -0.011710 
#    y 0.000000 1.799720 0.000000 
#    z -0.011710 0.000000 1.805500 
# 
# From -- ./inp_files/308015.got.cif
#   From: 2010.06.25/outbox.cif.g09.slc.cpg/sg15_155_cif.got.tgz:308015.got - 2010.06.28 07:06:18.
