data_PCOD8135144
_publ_section_title
;
Structure prediction by ZEFSAII (Michael W. Deem and Ramdas Pophale) SiO2 
 PCOD8135144
Probable space group: C 2/C
;
_chemical_formula_sum "Si O2"
_cell_formula_units_Z 64
_cell_length_a 19.080478
_cell_length_b 20.213762
_cell_length_c 22.957834
_cell_angle_alpha 90.000000
_cell_angle_beta 158.959961
_cell_angle_gamma 90.000000
_cell_volume 3178.968805
_symmetry_space_group_name_H-M "C 2/C"
_symmetry_group_IT_number 15
_symmetry_cell_setting 'monoclinic'
loop_
_space_group_symop_operation_xyz
x,y,z
-x,y,1/2-z
-x,-y,-z
x,-y,1/2+z
1/2+x,1/2+y,z
1/2-x,1/2+y,1/2-z
1/2-x,1/2-y,-z
1/2+x,1/2-y,1/2+z
loop_
_atom_site_type_symbol
_atom_site_label
_atom_site_fract_x
_atom_site_fract_y
_atom_site_fract_z
Si Si1 0.566412 0.170901 0.593223
Si Si2 0.800020 0.808390 0.770385
Si Si3 0.278425 0.570427 0.333557
Si Si4 0.461287 0.507359 0.155620
Si Si5 0.030480 0.628780 0.861458
Si Si6 0.656433 0.455038 0.202066
Si Si7 0.061752 0.480010 0.862645
Si Si8 0.173828 0.860752 0.005119
O O1 0.408873 0.177754 0.420156
O O2 0.700731 0.235928 0.701732
O O3 0.442527 0.163807 0.556046
O O4 0.705139 0.108153 0.692290
O O5 0.828985 0.859642 0.845076
O O6 0.982844 0.815277 0.867186
O O7 0.250553 0.515830 0.261267
O O8 0.445022 0.555974 0.509777
O O9 0.073903 0.572972 0.210068
O O10 0.500000 0.537390 0.250000
O O11 0.635246 0.471477 0.255098
O O12 0.395272 0.564661 0.060127
O O13 0.285618 0.454608 0.031977
O O14 0.062429 0.550740 0.895800
O O15 0.808663 0.640530 0.667265
O O16 0.193063 0.662522 0.945940
O O17 0.000000 0.496860 0.750000
#
# Coordination Sequence:
#
# PCOD8135144 Si02
#       8
#     8   8   8   8   8   8   8   8
#     4  12  27  43  63  88 128 169 215 262 318 377
#     4  12  27  43  62  90 126 171 213 264 316 378
#     4  11  22  38  69  94 128 164 215 261 315 377
#     4  11  23  35  61  96 137 164 205 264 314 375
#     4  10  19  37  63  88 126 168 206 251 300 385
#     4  11  22  40  65  97 126 170 208 263 318 370
#     4  11  19  37  61  97 128 169 204 253 321 373
#     4  10  20  37  61  89 128 166 209 246 312 368
#
# _framework density 20.132314000000001
#
# number of rings (size 3 to 8) (size 9 to 14) (size 15 to 20)
#    0.000    1.000    6.250    2.250    5.250    1.000 
#    0.000    0.000    0.000    1.500    0.000    0.000 
#    0.000    0.000    0.000    0.000    0.000    0.000 
#
# Total GULP energy -396643.642791 kJ/mol
# GULP energy per Si atom -12395.113837 kJ/mol
# Density = 2.008649 g / cm^3
# Si number density = 20.132314 Si / 1000 Ang^3
#
#
#
# Elastic Constant Matrix: (Units=GPa)
#
#
# Indices 1 2 3 4 5 6 
#
# 1 79.2547 31.7409 17.7676 -0.0341 5.5977 0.0299
# 2 31.7409 84.3047 13.2606 -0.0508 4.5454 0.0345
# 3 17.7676 13.2606 67.5326 -0.1650 11.1360 0.0090
# 4 -0.0341 -0.0508 -0.1650 28.8444 -0.0577 3.4315
# 5 5.5977 4.5454 11.1360 -0.0577 34.1316 -0.0020
# 6 0.0299 0.0345 0.0090 3.4315 -0.0020 18.9269
#
#
#
# Elastic Compliance Matrix: (Units=1/GPa)
#
#
# Indices 1 2 3 4 5 6 
#
# 1 0.015455 -0.005319 -0.002875 -0.000008 -0.000888 -0.000012
# 2 -0.005319 0.014096 -0.001271 0.000012 -0.000590 -0.000019
# 3 -0.002875 -0.001271 0.016601 0.000082 -0.004775 -0.000016
# 4 -0.000008 0.000012 0.000082 0.035434 0.000032 -0.006424
# 5 -0.000888 -0.000590 -0.004775 0.000032 0.031081 0.000002
# 6 -0.000012 -0.000019 -0.000016 -0.006424 0.000002 0.054000
#
#
# Mechanical properties :
#
#
# Convention : Reuss Voigt Hill
#
# Bulk Modulus (GPa) = 36.73499 39.62561 38.18030
# Shear Modulus (GPa) = 25.68437 27.60210 26.64323
#
# Velocity S-wave (km/s) = 3.57568 3.70677 3.64181
# Velocity P-wave (km/s) = 5.94422 6.16810 6.05719
#
# Compressibility (1/GPa) = 0.02722201
#
# Stress axis : x y z
#
# Youngs Moduli (GPa) = 64.70407 70.94205 60.23576
#
# Poissons Ratio (x) = 0.37732 0.17320
# Poissons Ratio (y) = 0.34414 0.07657
# Poissons Ratio (z) = 0.18605 0.09018
#
# Static dielectric constant tensor:
#      x y z
#    x 3.794010 -0.000220 0.142340 
#    y -0.000220 3.360100 -0.000540 
#    z 0.142340 -0.000540 3.836220 
# 
# 
# High freq. dielectric constant tensor:
#      x y z
#    x 1.786660 -0.000020 0.004600 
#    y -0.000020 1.747180 -0.000060 
#    z 0.004600 -0.000060 1.794920 
# 
# From -- ./inp_files/280539.got.cif
#   From: 2010.06.25/outbox.cif.g09.slc.cpg/sg15_141_cif.got.tgz:280539.got - 2010.06.28 07:06:18.
