data_PCOD8135791
_publ_section_title
;
Structure prediction by ZEFSAII (Michael W. Deem and Ramdas Pophale) SiO2 
 PCOD8135791
Probable space group: C 2/C
;
_chemical_formula_sum "Si O2"
_cell_formula_units_Z 44
_cell_length_a 12.934397
_cell_length_b 17.135360
_cell_length_c 9.894521
_cell_angle_alpha 90.000000
_cell_angle_beta 97.688973
_cell_angle_gamma 90.000000
_cell_volume 2173.260462
_symmetry_space_group_name_H-M "C 2/C"
_symmetry_group_IT_number 15
_symmetry_cell_setting 'monoclinic'
loop_
_space_group_symop_operation_xyz
x,y,z
-x,y,1/2-z
-x,-y,-z
x,-y,1/2+z
1/2+x,1/2+y,z
1/2-x,1/2+y,1/2-z
1/2-x,1/2-y,-z
1/2+x,1/2-y,1/2+z
loop_
_atom_site_type_symbol
_atom_site_label
_atom_site_fract_x
_atom_site_fract_y
_atom_site_fract_z
Si Si1 0.235109 0.100473 0.676066
Si Si2 0.714674 0.423466 0.710100
Si Si3 0.302536 0.671476 0.556638
Si Si4 0.534702 0.688198 0.544063
Si Si5 0.679897 0.180150 0.046741
Si Si6 0.000000 0.872889 0.750000
O O1 0.254405 0.150322 0.814052
O O2 0.118848 0.121150 0.599140
O O3 0.323849 0.119579 0.579094
O O4 0.255243 0.011208 0.718853
O O5 0.716872 0.395364 0.556406
O O6 0.598521 0.428948 0.749132
O O7 0.779913 0.363736 0.813228
O O8 0.250000 0.750000 0.500000
O O9 0.426876 0.679187 0.607840
O O10 0.573081 0.777678 0.572822
O O11 0.511119 0.682595 0.380927
O O12 0.750000 0.250000 0.000000
#
# Coordination Sequence:
#
# PCOD8135791 Si02
#       6
#     8   8   8   8   8   4
#     4  11  22  36  59  90 120 153 189 247 301 345
#     4  11  22  36  58  86 126 150 191 242 303 354
#     4  11  24  37  58  90 120 150 200 250 292 340
#     4  10  22  37  62  83 117 162 198 235 293 354
#     4  10  19  40  60  80 116 165 198 225 287 367
#     4  10  20  32  58  86 112 156 194 230 290 358
#
# _framework density 20.246078000000001
#
# number of rings (size 3 to 8) (size 9 to 14) (size 15 to 20)
#    0.000    1.455    3.636    3.818    5.091    1.455 
#    0.000    0.000    0.000    6.545    0.000    0.000 
#    0.000    0.000    0.000    0.000    0.000    0.000 
#
# Total GULP energy -272702.467612 kJ/mol
# GULP energy per Si atom -12395.566710 kJ/mol
# Density = 2.020000 g / cm^3
# Si number density = 20.246078 Si / 1000 Ang^3
#
#
#
# Elastic Constant Matrix: (Units=GPa)
#
#
# Indices 1 2 3 4 5 6 
#
# 1 23.5177 24.8311 19.8871 0.0000 -2.0523 0.0000
# 2 24.8311 117.4893 23.9636 0.0000 15.9931 0.0000
# 3 19.8871 23.9636 86.4228 0.0000 2.1859 0.0000
# 4 0.0000 0.0000 0.0000 38.5721 0.0000 -1.2486
# 5 -2.0523 15.9931 2.1859 0.0000 18.9816 0.0000
# 6 0.0000 0.0000 0.0000 -1.2486 0.0000 17.7063
#
#
#
# Elastic Compliance Matrix: (Units=1/GPa)
#
#
# Indices 1 2 3 4 5 6 
#
# 1 0.071727 -0.015605 -0.012744 0.000000 0.022371 0.000000
# 2 -0.015605 0.013564 0.000162 0.000000 -0.013135 0.000000
# 3 -0.012744 0.000162 0.014539 0.000000 -0.003189 0.000000
# 4 0.000000 0.000000 0.000000 0.025985 0.000000 0.001832
# 5 0.022371 -0.013135 -0.003189 0.000000 0.066535 0.000000
# 6 0.000000 0.000000 0.000000 0.001832 0.000000 0.056606
#
#
# Mechanical properties :
#
#
# Convention : Reuss Voigt Hill
#
# Bulk Modulus (GPa) = 23.01179 40.53260 31.77220
# Shear Modulus (GPa) = 15.63392 25.63518 20.63455
#
# Velocity S-wave (km/s) = 2.78185 3.56220 3.19594
# Velocity P-wave (km/s) = 4.65929 6.08132 5.41717
#
# Compressibility (1/GPa) = 0.04345599
#
# Stress axis : x y z
#
# Youngs Moduli (GPa) = 13.94178 73.72214 68.77878
#
# Poissons Ratio (x) = 1.15045 0.87653
# Poissons Ratio (y) = 0.21756 -0.01114
# Poissons Ratio (z) = 0.17768 -0.01194
#
# Static dielectric constant tensor:
#      x y z
#    x 3.886430 0.000000 -0.282230 
#    y 0.000000 3.665330 0.000000 
#    z -0.282230 0.000000 4.112180 
# 
# 
# High freq. dielectric constant tensor:
#      x y z
#    x 1.753700 0.000000 -0.010990 
#    y 0.000000 1.783880 0.000000 
#    z -0.010990 0.000000 1.816140 
# 
# From -- ./inp_files/39146.got.cif
#   From: 2010.06.25/outbox.cif.g09.slc.cpg/sg15_20_cif.got.tgz:39146.got - 2010.06.28 07:06:18.
