data_PCOD8135888
_publ_section_title
;
Structure prediction by ZEFSAII (Michael W. Deem and Ramdas Pophale) SiO2 
 PCOD8135888
Probable space group: C 2/C
;
_chemical_formula_sum "Si O2"
_cell_formula_units_Z 52
_cell_length_a 21.125992
_cell_length_b 12.475420
_cell_length_c 13.931541
_cell_angle_alpha 90.000000
_cell_angle_beta 41.479453
_cell_angle_gamma 90.000000
_cell_volume 2431.979535
_symmetry_space_group_name_H-M "C 2/C"
_symmetry_group_IT_number 15
_symmetry_cell_setting 'monoclinic'
loop_
_space_group_symop_operation_xyz
x,y,z
-x,y,1/2-z
-x,-y,-z
x,-y,1/2+z
1/2+x,1/2+y,z
1/2-x,1/2+y,1/2-z
1/2-x,1/2-y,-z
1/2+x,1/2-y,1/2+z
loop_
_atom_site_type_symbol
_atom_site_label
_atom_site_fract_x
_atom_site_fract_y
_atom_site_fract_z
Si Si1 0.817966 0.757903 0.244021
Si Si2 0.107369 0.743093 0.546978
Si Si3 0.097258 0.356745 0.246910
Si Si4 0.611625 0.220319 0.931089
Si Si5 0.000000 0.937189 0.750000
Si Si6 0.468923 0.418116 0.113542
Si Si7 0.046526 0.399529 0.800276
O O1 0.704744 0.768356 0.393037
O O2 0.865419 0.873415 0.203346
O O3 0.866719 0.677815 0.265217
O O4 0.828224 0.726303 0.119913
O O5 0.153378 0.682012 0.586917
O O6 0.009027 0.686701 0.632701
O O7 0.082822 0.866197 0.604465
O O8 0.148110 0.300786 0.280508
O O9 0.093508 0.484492 0.253541
O O10 0.547765 0.324253 0.025218
O O11 0.545428 0.115867 0.026236
O O12 0.952115 0.018148 0.730072
O O13 0.500000 0.500000 0.000000
O O14 0.000000 0.370818 0.750000
#
# Coordination Sequence:
#
# PCOD8135888 Si02
#       7
#     8   8   8   8   4   8   8
#     4  11  25  41  63  96 131 162 211 267 316 378
#     4  10  19  41  68  93 118 162 211 265 315 368
#     4  10  19  40  69  92 119 165 210 258 319 373
#     4  11  25  40  63  97 130 161 210 264 319 378
#     4  10  20  38  68  84 120 166 212 252 306 376
#     4  11  21  43  64  88 123 173 207 253 319 376
#     4  11  23  42  66  90 129 173 211 255 318 380
#
# _framework density 21.38176
#
# number of rings (size 3 to 8) (size 9 to 14) (size 15 to 20)
#    0.000    1.538    6.154    1.385    4.308    2.462 
#    0.000    0.000    0.000    0.000    0.000    0.000 
#    0.000    0.000    0.000    0.000    0.000    0.000 
#
# Total GULP energy -322158.953590 kJ/mol
# GULP energy per Si atom -12390.728984 kJ/mol
# Density = 2.133309 g / cm^3
# Si number density = 21.381760 Si / 1000 Ang^3
#
#
#
# Elastic Constant Matrix: (Units=GPa)
#
#
# Indices 1 2 3 4 5 6 
#
# 1 113.8076 37.8499 21.8416 0.0000 -4.7229 0.0000
# 2 37.8499 116.9261 20.0548 0.0000 3.3739 0.0000
# 3 21.8416 20.0548 26.6125 0.0000 6.6931 0.0000
# 4 0.0000 0.0000 0.0000 25.8136 0.0000 17.1177
# 5 -4.7229 3.3739 6.6931 0.0000 42.0128 0.0000
# 6 0.0000 0.0000 0.0000 17.1177 0.0000 26.5805
#
#
#
# Elastic Compliance Matrix: (Units=1/GPa)
#
#
# Indices 1 2 3 4 5 6 
#
# 1 0.011239 -0.002316 -0.008171 0.000000 0.002751 0.000000
# 2 -0.002316 0.010306 -0.005825 0.000000 -0.000160 0.000000
# 3 -0.008171 -0.005825 0.050822 0.000000 -0.008547 0.000000
# 4 0.000000 0.000000 0.000000 0.067614 0.000000 -0.043543
# 5 0.002751 -0.000160 -0.008547 0.000000 0.025486 0.000000
# 6 0.000000 0.000000 0.000000 -0.043543 0.000000 0.065663
#
#
# Mechanical properties :
#
#
# Convention : Reuss Voigt Hill
#
# Bulk Modulus (GPa) = 25.16198 46.31541 35.73870
# Shear Modulus (GPa) = 18.05038 30.72138 24.38588
#
# Velocity S-wave (km/s) = 2.90866 3.79463 3.38079
# Velocity P-wave (km/s) = 4.80353 6.39587 5.65602
#
# Compressibility (1/GPa) = 0.03974250
#
# Stress axis : x y z
#
# Youngs Moduli (GPa) = 88.97277 97.03165 19.67659
#
# Poissons Ratio (x) = 0.22475 0.16078
# Poissons Ratio (y) = 0.20608 0.11462
# Poissons Ratio (z) = 0.72699 0.56523
#
# Static dielectric constant tensor:
#      x y z
#    x 3.965740 0.000000 0.457180 
#    y 0.000000 3.732530 0.000000 
#    z 0.457180 0.000000 4.056150 
# 
# 
# High freq. dielectric constant tensor:
#      x y z
#    x 1.842940 0.000000 0.025230 
#    y 0.000000 1.841080 0.000000 
#    z 0.025230 0.000000 1.824320 
# 
# From -- ./inp_files/172926.got.cif
#   From: 2010.06.25/outbox.cif.g09.slc.cpg/sg15_87_cif.got.tgz:172926.got - 2010.06.28 07:06:18.
