data_PCOD8135082
_publ_section_title
;
Structure prediction by ZEFSAII (Michael W. Deem and Ramdas Pophale) SiO2 
 PCOD8135082
Probable space group: C 2/C
;
_chemical_formula_sum "Si O2"
_cell_formula_units_Z 48
_cell_length_a 8.270157
_cell_length_b 20.578562
_cell_length_c 14.199099
_cell_angle_alpha 90.000000
_cell_angle_beta 82.974839
_cell_angle_gamma 90.000000
_cell_volume 2398.373491
_symmetry_space_group_name_H-M "C 2/C"
_symmetry_group_IT_number 15
_symmetry_cell_setting 'monoclinic'
loop_
_space_group_symop_operation_xyz
x,y,z
-x,y,1/2-z
-x,-y,-z
x,-y,1/2+z
1/2+x,1/2+y,z
1/2-x,1/2+y,1/2-z
1/2-x,1/2-y,-z
1/2+x,1/2-y,1/2+z
loop_
_atom_site_type_symbol
_atom_site_label
_atom_site_fract_x
_atom_site_fract_y
_atom_site_fract_z
Si Si1 0.805522 0.581494 0.152500
Si Si2 0.799764 0.175864 0.496250
Si Si3 0.659186 0.038579 0.959737
Si Si4 0.691158 0.099597 0.140650
Si Si5 0.005860 0.652049 0.639404
Si Si6 0.866918 0.219296 0.066263
O O1 0.744389 0.513992 0.109753
O O2 0.746672 0.572310 0.264264
O O3 0.997530 0.596333 0.140622
O O4 0.727065 0.642097 0.103417
O O5 0.750000 0.250000 0.500000
O O6 0.690164 0.140927 0.585008
O O7 0.994795 0.176349 0.498135
O O8 0.616270 0.103018 0.903962
O O9 0.762026 0.059127 0.045879
O O10 0.500000 0.000000 0.000000
O O11 0.753916 0.173361 0.137398
O O12 0.000000 0.635920 0.750000
O O13 0.947141 0.725661 0.626381
O O14 0.750000 0.250000 0.000000
#
# Coordination Sequence:
#
# PCOD8135082 Si02
#       6
#     8   8   8   8   8   8
#     4  10  21  36  63  90 118 161 211 250 303 372
#     4  10  21  38  59  87 122 155 201 252 303 360
#     4  10  19  37  61  86 123 156 207 250 305 363
#     4  10  20  36  61  91 116 160 202 253 306 361
#     4  11  23  38  63  93 119 159 203 253 308 369
#     4  11  22  41  61  86 127 161 202 257 311 358
#
# _framework density 20.013562
#
# number of rings (size 3 to 8) (size 9 to 14) (size 15 to 20)
#    0.000    1.667    5.000    1.000    9.333    0.000 
#    0.000    0.833    0.000    2.000    0.000    0.000 
#    0.000    0.000    0.000    0.000    0.000    0.000 
#
# Total GULP energy -297336.906767 kJ/mol
# GULP energy per Si atom -12389.037782 kJ/mol
# Density = 1.996801 g / cm^3
# Si number density = 20.013562 Si / 1000 Ang^3
#
#
#
# Elastic Constant Matrix: (Units=GPa)
#
#
# Indices 1 2 3 4 5 6 
#
# 1 58.2423 20.1593 43.2801 0.0000 7.1783 0.0000
# 2 20.1593 122.7382 66.9526 0.0000 5.2344 0.0000
# 3 43.2801 66.9526 182.3083 0.0000 10.1206 0.0000
# 4 0.0000 0.0000 0.0000 34.9931 0.0000 -0.8988
# 5 7.1783 5.2344 10.1206 0.0000 15.8372 0.0000
# 6 0.0000 0.0000 0.0000 -0.8988 0.0000 25.6955
#
#
#
# Elastic Compliance Matrix: (Units=1/GPa)
#
#
# Indices 1 2 3 4 5 6 
#
# 1 0.021585 -0.000835 -0.004448 0.000000 -0.006665 0.000000
# 2 -0.000835 0.010236 -0.003519 0.000000 -0.000756 0.000000
# 3 -0.004448 -0.003519 0.007939 0.000000 -0.001894 0.000000
# 4 0.000000 0.000000 0.000000 0.028603 0.000000 0.001001
# 5 -0.006665 -0.000756 -0.001894 0.000000 0.067624 0.000000
# 6 0.000000 0.000000 0.000000 0.001001 0.000000 0.038952
#
#
# Mechanical properties :
#
#
# Convention : Reuss Voigt Hill
#
# Bulk Modulus (GPa) = 45.13268 69.34141 57.23705
# Shear Modulus (GPa) = 25.00895 30.83161 27.92028
#
# Velocity S-wave (km/s) = 3.53880 3.92922 3.73911
# Velocity P-wave (km/s) = 6.26877 7.43690 6.87768
#
# Compressibility (1/GPa) = 0.02215689
#
# Stress axis : x y z
#
# Youngs Moduli (GPa) = 46.32792 97.69003 125.96575
#
# Poissons Ratio (x) = 0.08156 0.56026
# Poissons Ratio (y) = 0.03868 0.44329
# Poissons Ratio (z) = 0.20605 0.34379
#
# Static dielectric constant tensor:
#      x y z
#    x 3.758790 0.000000 -0.155410 
#    y 0.000000 3.774430 0.000000 
#    z -0.155410 0.000000 4.257320 
# 
# 
# High freq. dielectric constant tensor:
#      x y z
#    x 1.750700 0.000000 -0.000220 
#    y 0.000000 1.789950 0.000000 
#    z -0.000220 0.000000 1.782160 
# 
# From -- ./inp_files/134841.got.cif
#   From: 2010.06.25/outbox.cif.g09.slc.cpg/sg15_68_cif.got.tgz:134841.got - 2010.06.28 07:06:18.
