data_PCOD8135693
_publ_section_title
;
Structure prediction by ZEFSAII (Michael W. Deem and Ramdas Pophale) SiO2 
 PCOD8135693
Probable space group: C 2/C
;
_chemical_formula_sum "Si O2"
_cell_formula_units_Z 48
_cell_length_a 29.677645
_cell_length_b 13.799356
_cell_length_c 12.537938
_cell_angle_alpha 90.000000
_cell_angle_beta 153.451449
_cell_angle_gamma 90.000000
_cell_volume 2294.981250
_symmetry_space_group_name_H-M "C 2/C"
_symmetry_group_IT_number 15
_symmetry_cell_setting 'monoclinic'
loop_
_space_group_symop_operation_xyz
x,y,z
-x,y,1/2-z
-x,-y,-z
x,-y,1/2+z
1/2+x,1/2+y,z
1/2-x,1/2+y,1/2-z
1/2-x,1/2-y,-z
1/2+x,1/2-y,1/2+z
loop_
_atom_site_type_symbol
_atom_site_label
_atom_site_fract_x
_atom_site_fract_y
_atom_site_fract_z
Si Si1 0.389395 0.976673 0.304431
Si Si2 0.742657 0.463150 0.320793
Si Si3 0.387122 0.837434 0.479203
Si Si4 0.151663 0.184914 0.782148
Si Si5 0.812684 0.149104 0.408968
Si Si6 0.597536 0.157404 0.027507
O O1 0.360812 0.061034 0.326909
O O2 0.500000 0.000000 0.500000
O O3 0.375096 0.873447 0.332177
O O4 0.317576 0.973124 0.051007
O O5 0.807300 0.388979 0.387831
O O6 0.665517 0.406430 0.233842
O O7 0.679135 0.538941 0.115588
O O8 0.500000 0.866590 0.750000
O O9 0.369239 0.722112 0.447843
O O10 0.069239 0.257284 0.552838
O O11 0.250000 0.250000 0.000000
O O12 0.126057 0.152042 0.848201
O O13 0.696015 0.186292 0.167306
O O14 0.500000 0.135023 0.750000
#
# Coordination Sequence:
#
# PCOD8135693 Si02
#       6
#     8   8   8   8   8   8
#     4  12  22  34  61  98 127 156 214 282 332 374
#     4  12  20  39  64  89 125 167 214 267 324 380
#     4  12  23  38  63  94 127 172 212 270 324 382
#     4  10  19  39  64  87 119 172 209 259 320 390
#     4  11  23  40  62  93 132 166 214 263 328 388
#     4  11  20  36  62  97 124 164 215 267 321 387
#
# _framework density 20.915203999999999
#
# number of rings (size 3 to 8) (size 9 to 14) (size 15 to 20)
#    0.000    0.667   10.000    1.500    0.000    0.667 
#    0.000    0.833    0.000    2.000    0.000    0.000 
#    0.000    0.000    0.000    0.000    0.000    0.000 
#
# Total GULP energy -297531.353127 kJ/mol
# GULP energy per Si atom -12397.139714 kJ/mol
# Density = 2.086760 g / cm^3
# Si number density = 20.915204 Si / 1000 Ang^3
#
#
#
# Elastic Constant Matrix: (Units=GPa)
#
#
# Indices 1 2 3 4 5 6 
#
# 1 71.5077 38.3502 6.5895 0.0000 -4.9549 0.0000
# 2 38.3502 117.4264 11.0326 0.0000 -7.3975 0.0000
# 3 6.5895 11.0326 28.6474 0.0000 -12.8056 0.0000
# 4 0.0000 0.0000 0.0000 23.8401 0.0000 -14.9688
# 5 -4.9549 -7.3975 -12.8056 0.0000 24.3344 0.0000
# 6 0.0000 0.0000 0.0000 -14.9688 0.0000 47.0055
#
#
#
# Elastic Compliance Matrix: (Units=1/GPa)
#
#
# Indices 1 2 3 4 5 6 
#
# 1 0.017071 -0.005377 -0.001350 0.000000 0.001131 0.000000
# 2 -0.005377 0.010555 -0.002462 0.000000 0.000818 0.000000
# 3 -0.001350 -0.002462 0.046692 0.000000 0.023547 0.000000
# 4 0.000000 0.000000 0.000000 0.052429 0.000000 0.016696
# 5 0.001131 0.000818 0.023547 0.000000 0.053964 0.000000
# 6 0.000000 0.000000 0.000000 0.016696 0.000000 0.026591
#
#
# Mechanical properties :
#
#
# Convention : Reuss Voigt Hill
#
# Bulk Modulus (GPa) = 17.87694 36.61401 27.24548
# Shear Modulus (GPa) = 20.46425 29.80995 25.13710
#
# Velocity S-wave (km/s) = 3.13139 3.77938 3.47054
# Velocity P-wave (km/s) = 4.65189 6.04887 5.39578
#
# Compressibility (1/GPa) = 0.05593798
#
# Stress axis : x y z
#
# Youngs Moduli (GPa) = 58.57847 94.74215 21.41696
#
# Poissons Ratio (x) = 0.50944 0.02892
# Poissons Ratio (y) = 0.31498 0.05274
# Poissons Ratio (z) = 0.07911 0.23329
#
# Static dielectric constant tensor:
#      x y z
#    x 5.151290 0.000000 -0.274110 
#    y 0.000000 4.429490 0.000000 
#    z -0.274110 0.000000 3.670550 
# 
# 
# High freq. dielectric constant tensor:
#      x y z
#    x 1.818170 0.000000 -0.020190 
#    y 0.000000 1.819210 0.000000 
#    z -0.020190 0.000000 1.784200 
# 
# From -- ./inp_files/96378.got.cif
#   From: 2010.06.25/outbox.cif.g09.slc.cpg/sg15_49_cif.got.tgz:96378.got - 2010.06.28 07:06:18.
