data_PCOD8135787
_publ_section_title
;
Structure prediction by ZEFSAII (Michael W. Deem and Ramdas Pophale) SiO2 
 PCOD8135787
Probable space group: C 2/C
;
_chemical_formula_sum "Si O2"
_cell_formula_units_Z 40
_cell_length_a 7.731680
_cell_length_b 16.805642
_cell_length_c 15.590214
_cell_angle_alpha 90.000000
_cell_angle_beta 84.085647
_cell_angle_gamma 90.000000
_cell_volume 2014.944772
_symmetry_space_group_name_H-M "C 2/C"
_symmetry_group_IT_number 15
_symmetry_cell_setting 'monoclinic'
loop_
_space_group_symop_operation_xyz
x,y,z
-x,y,1/2-z
-x,-y,-z
x,-y,1/2+z
1/2+x,1/2+y,z
1/2-x,1/2+y,1/2-z
1/2-x,1/2-y,-z
1/2+x,1/2-y,1/2+z
loop_
_atom_site_type_symbol
_atom_site_label
_atom_site_fract_x
_atom_site_fract_y
_atom_site_fract_z
Si Si1 0.000000 0.657010 0.750000
Si Si2 0.360641 0.594031 0.683367
Si Si3 0.514655 0.727336 0.094148
Si Si4 0.500000 0.850632 0.750000
Si Si5 0.907359 0.746251 0.092513
Si Si6 0.359620 0.415879 0.684232
O O1 0.166569 0.601713 0.730138
O O2 0.956381 0.711199 0.669991
O O3 0.500000 0.609279 0.750000
O O4 0.388960 0.658666 0.607601
O O5 0.378697 0.504787 0.645095
O O6 0.718255 0.706008 0.093673
O O7 0.398532 0.647553 0.107282
O O8 0.484426 0.765371 0.001106
O O9 0.494779 0.794666 0.833910
O O10 0.669629 0.905544 0.736033
O O11 0.500000 0.398864 0.750000
#
# Coordination Sequence:
#
# PCOD8135787 Si02
#       6
#     4   8   8   4   8   8
#     4  10  19  40  59  78 112 152 184 232 279 334
#     4  10  21  36  58  83 113 149 186 229 284 334
#     4  10  20  38  62  83 116 149 186 237 284 323
#     4  12  21  38  61  86 108 150 196 230 271 346
#     4  10  21  37  62  86 111 149 195 229 277 340
#     4  11  21  37  58  83 116 150 181 234 289 327
#
# _framework density 19.851659999999999
#
# number of rings (size 3 to 8) (size 9 to 14) (size 15 to 20)
#    0.000    1.600    4.000    1.800    0.000    1.600 
#    0.000    0.000    0.000    4.800    0.000    0.000 
#    0.000    0.000    0.000    0.000    0.000    0.000 
#
# Total GULP energy -247996.596834 kJ/mol
# GULP energy per Si atom -12399.829842 kJ/mol
# Density = 1.980648 g / cm^3
# Si number density = 19.851660 Si / 1000 Ang^3
#
#
#
# Elastic Constant Matrix: (Units=GPa)
#
#
# Indices 1 2 3 4 5 6 
#
# 1 95.2671 25.5200 15.3276 0.0000 1.5693 0.0000
# 2 25.5200 90.9294 29.0443 0.0000 -1.3560 0.0000
# 3 15.3276 29.0443 113.4888 0.0000 1.4510 0.0000
# 4 0.0000 0.0000 0.0000 -5.9413 0.0000 -27.7365
# 5 1.5693 -1.3560 1.4510 0.0000 22.5751 0.0000
# 6 0.0000 0.0000 0.0000 -27.7365 0.0000 -19.1495
#
#
#
# Elastic Compliance Matrix: (Units=1/GPa)
#
#
# Indices 1 2 3 4 5 6 
#
# 1 0.011433 -0.002976 -0.000771 0.000000 -0.000924 0.000000
# 2 -0.002976 0.012770 -0.002881 0.000000 0.001159 0.000000
# 3 -0.000771 -0.002881 0.009662 0.000000 -0.000741 0.000000
# 4 0.000000 0.000000 0.000000 0.029212 0.000000 -0.042311
# 5 -0.000924 0.001159 -0.000741 0.000000 0.044478 0.000000
# 6 0.000000 0.000000 0.000000 -0.042311 0.000000 0.009063
#
#
# Mechanical properties :
#
#
# Convention : Reuss Voigt Hill
#
# Bulk Modulus (GPa) = 48.52060 48.82991 48.67525
# Shear Modulus (GPa) = 36.56431 14.81643 25.69037
#
# Velocity S-wave (km/s) = 4.29637 2.73492 3.60129
# Velocity P-wave (km/s) = 7.00759 5.88420 6.47032
#
# Compressibility (1/GPa) = 0.02060980
#
# Stress axis : x y z
#
# Youngs Moduli (GPa) = 87.46347 78.30567 103.49486
#
# Poissons Ratio (x) = 0.23308 0.07975
# Poissons Ratio (y) = 0.26033 0.29818
# Poissons Ratio (z) = 0.06740 0.22560
#
# Static dielectric constant tensor:
#      x y z
#    x 3.647900 0.000000 -0.044920 
#    y 0.000000 3.541550 0.000000 
#    z -0.044920 0.000000 3.521710 
# 
# 
# High freq. dielectric constant tensor:
#      x y z
#    x 1.783470 0.000000 -0.002460 
#    y 0.000000 1.766380 0.000000 
#    z -0.002460 0.000000 1.758230 
# 
# From -- ./inp_files/133213.got.cif
#   From: 2010.06.25/outbox.cif.g09.slc.cpg/sg15_67_cif.got.tgz:133213.got - 2010.06.28 07:06:18.
