data_PCOD8135846
_publ_section_title
;
Structure prediction by ZEFSAII (Michael W. Deem and Ramdas Pophale) SiO2 
 PCOD8135846
Probable space group: C 2/C
;
_chemical_formula_sum "Si O2"
_cell_formula_units_Z 48
_cell_length_a 16.636869
_cell_length_b 28.635982
_cell_length_c 9.590958
_cell_angle_alpha 90.000000
_cell_angle_beta 148.876707
_cell_angle_gamma 90.000000
_cell_volume 2361.764362
_symmetry_space_group_name_H-M "C 2/C"
_symmetry_group_IT_number 15
_symmetry_cell_setting 'monoclinic'
loop_
_space_group_symop_operation_xyz
x,y,z
-x,y,1/2-z
-x,-y,-z
x,-y,1/2+z
1/2+x,1/2+y,z
1/2-x,1/2+y,1/2-z
1/2-x,1/2-y,-z
1/2+x,1/2-y,1/2+z
loop_
_atom_site_type_symbol
_atom_site_label
_atom_site_fract_x
_atom_site_fract_y
_atom_site_fract_z
Si Si1 0.297379 0.225027 0.211285
Si Si2 0.825129 0.028744 0.526684
Si Si3 0.645379 0.227102 0.727139
Si Si4 0.667434 0.365490 0.444214
Si Si5 0.660003 0.968441 0.060604
Si Si6 0.157101 0.361608 0.066073
O O1 0.470755 0.235957 0.519067
O O2 0.168809 0.242611 0.125715
O O3 0.292089 0.168946 0.197921
O O4 0.250000 0.250000 0.000000
O O5 0.798382 0.082847 0.448597
O O6 0.796413 0.023562 0.649378
O O7 0.000000 0.012304 0.750000
O O8 0.698947 0.999834 0.251948
O O9 0.681208 0.172749 0.735526
O O10 0.750000 0.250000 0.000000
O O11 0.692121 0.359825 0.313199
O O12 0.500000 0.349117 0.250000
O O13 0.500000 0.984213 0.750000
O O14 0.643170 0.915485 0.093354
O O15 0.000000 0.346468 0.750000
#
# Coordination Sequence:
#
# PCOD8135846 Si02
#       6
#     8   8   8   8   8   8
#     4  12  22  41  67  86 115 164 209 241 295 374
#     4  10  21  39  61  93 128 159 203 255 307 360
#     4  12  25  41  59  92 126 151 195 263 312 350
#     4  10  20  36  64  93 115 160 219 245 284 368
#     4  10  21  38  65  91 122 163 208 251 302 364
#     4  10  19  40  65  86 120 171 210 240 298 384
#
# _framework density 20.323789000000001
#
# number of rings (size 3 to 8) (size 9 to 14) (size 15 to 20)
#    0.000    1.333    3.333    3.000    0.000    0.000 
#    3.000    1.667    0.000    0.000    0.000    0.000 
#    0.000    0.000    0.000    0.000    0.000    0.000 
#
# Total GULP energy -297447.358447 kJ/mol
# GULP energy per Si atom -12393.639935 kJ/mol
# Density = 2.027753 g / cm^3
# Si number density = 20.323789 Si / 1000 Ang^3
#
#
#
# Elastic Constant Matrix: (Units=GPa)
#
#
# Indices 1 2 3 4 5 6 
#
# 1 72.5564 19.3420 18.0577 0.0000 8.8069 0.0000
# 2 19.3420 116.7017 59.8010 0.0000 -9.9279 0.0000
# 3 18.0577 59.8010 101.1928 0.0000 1.0579 0.0000
# 4 0.0000 0.0000 0.0000 37.1939 0.0000 -4.0659
# 5 8.8069 -9.9279 1.0579 0.0000 34.7689 0.0000
# 6 0.0000 0.0000 0.0000 -4.0659 0.0000 32.5526
#
#
#
# Elastic Compliance Matrix: (Units=1/GPa)
#
#
# Indices 1 2 3 4 5 6 
#
# 1 0.015252 -0.002203 -0.001373 0.000000 -0.004450 0.000000
# 2 -0.002203 0.013113 -0.007403 0.000000 0.004527 0.000000
# 3 -0.001373 -0.007403 0.014525 0.000000 -0.002208 0.000000
# 4 0.000000 0.000000 0.000000 0.027258 0.000000 0.003405
# 5 -0.004450 0.004527 -0.002208 0.000000 0.031249 0.000000
# 6 0.000000 0.000000 0.000000 0.003405 0.000000 0.031145
#
#
# Mechanical properties :
#
#
# Convention : Reuss Voigt Hill
#
# Bulk Modulus (GPa) = 47.77636 53.87248 50.82442
# Shear Modulus (GPa) = 30.96414 33.78644 32.37529
#
# Velocity S-wave (km/s) = 3.90749 4.08169 3.99554
# Velocity P-wave (km/s) = 6.62696 6.98414 6.80789
#
# Compressibility (1/GPa) = 0.02093085
#
# Stress axis : x y z
#
# Youngs Moduli (GPa) = 65.56716 76.26161 68.84479
#
# Poissons Ratio (x) = 0.16797 0.09455
# Poissons Ratio (y) = 0.14442 0.50969
# Poissons Ratio (z) = 0.09005 0.56460
#
# Static dielectric constant tensor:
#      x y z
#    x 4.120230 0.000000 0.353450 
#    y 0.000000 3.945940 0.000000 
#    z 0.353450 0.000000 3.238710 
# 
# 
# High freq. dielectric constant tensor:
#      x y z
#    x 1.813040 0.000000 0.022650 
#    y 0.000000 1.803830 0.000000 
#    z 0.022650 0.000000 1.756860 
# 
# From -- ./inp_files/52888.got.cif
#   From: 2010.06.25/outbox.cif.g09.slc.cpg/sg15_27_cif.got.tgz:52888.got - 2010.06.28 07:06:18.
