data_PCOD8135604
_publ_section_title
;
Structure prediction by ZEFSAII (Michael W. Deem and Ramdas Pophale) SiO2 
 PCOD8135604
Probable space group: C 2/C
;
_chemical_formula_sum "Si O2"
_cell_formula_units_Z 56
_cell_length_a 20.138229
_cell_length_b 9.466598
_cell_length_c 19.129242
_cell_angle_alpha 90.000000
_cell_angle_beta 127.358642
_cell_angle_gamma 90.000000
_cell_volume 2898.676173
_symmetry_space_group_name_H-M "C 2/C"
_symmetry_group_IT_number 15
_symmetry_cell_setting 'monoclinic'
loop_
_space_group_symop_operation_xyz
x,y,z
-x,y,1/2-z
-x,-y,-z
x,-y,1/2+z
1/2+x,1/2+y,z
1/2-x,1/2+y,1/2-z
1/2-x,1/2-y,-z
1/2+x,1/2-y,1/2+z
loop_
_atom_site_type_symbol
_atom_site_label
_atom_site_fract_x
_atom_site_fract_y
_atom_site_fract_z
Si Si1 0.522517 0.028375 0.844972
Si Si2 0.015521 0.229855 0.438867
Si Si3 0.618209 0.498000 0.659244
Si Si4 0.234053 0.372002 0.656721
Si Si5 0.566496 0.190884 0.118092
Si Si6 0.214420 0.409072 0.490943
Si Si7 0.314248 0.405298 0.433170
O O1 0.500000 0.037399 0.750000
O O2 0.480599 0.154487 0.862619
O O3 0.620719 0.048718 0.913538
O O4 0.486721 0.883767 0.855183
O O5 0.005663 0.285067 0.512327
O O6 0.113947 0.199062 0.489005
O O7 0.967419 0.086681 0.392001
O O8 0.687016 0.430141 0.752278
O O9 0.598664 0.658770 0.668557
O O10 0.648382 0.484482 0.597996
O O11 0.148587 0.398225 0.646365
O O12 0.231849 0.456590 0.581398
O O13 0.245849 0.204113 0.648250
O O14 0.250000 0.250000 0.500000
O O15 0.268567 0.492295 0.465981
#
# Coordination Sequence:
#
# PCOD8135604 Si02
#       7
#     8   8   8   8   8   8   8
#     4  12  25  37  64  90 118 163 204 248 298 358
#     4  10  20  39  66  90 114 162 207 245 293 365
#     4  10  21  37  67  92 116 160 204 248 300 359
#     4   9  19  35  60  87 118 157 196 242 299 350
#     4  10  22  43  56  89 132 152 198 253 306 355
#     4  10  19  39  58  89 124 151 201 256 298 342
#     4   9  19  37  58  88 125 149 194 263 290 345
#
# _framework density 19.319164000000001
#
# number of rings (size 3 to 8) (size 9 to 14) (size 15 to 20)
#    0.000    2.286    4.286    2.143    6.000    1.143 
#    0.000    3.571    0.000    4.286    0.000    0.000 
#    0.000    0.000    0.000    0.000    0.000    0.000 
#
# Total GULP energy -346896.321049 kJ/mol
# GULP energy per Si atom -12389.154323 kJ/mol
# Density = 1.927519 g / cm^3
# Si number density = 19.319164 Si / 1000 Ang^3
#
#
#
# Elastic Constant Matrix: (Units=GPa)
#
#
# Indices 1 2 3 4 5 6 
#
# 1 83.8405 48.7888 43.5539 0.0000 1.4875 0.0000
# 2 48.7888 77.9693 50.8093 0.0000 1.1423 0.0000
# 3 43.5539 50.8093 125.6871 0.0000 -0.8239 0.0000
# 4 0.0000 0.0000 0.0000 25.3819 0.0000 2.6343
# 5 1.4875 1.1423 -0.8239 0.0000 18.3252 0.0000
# 6 0.0000 0.0000 0.0000 2.6343 0.0000 22.1712
#
#
#
# Elastic Compliance Matrix: (Units=1/GPa)
#
#
# Indices 1 2 3 4 5 6 
#
# 1 0.019318 -0.010462 -0.002471 0.000000 -0.001027 0.000000
# 2 -0.010462 0.023115 -0.005724 0.000000 -0.000849 0.000000
# 3 -0.002471 -0.005724 0.011134 0.000000 0.001058 0.000000
# 4 0.000000 0.000000 0.000000 0.039890 0.000000 -0.004740
# 5 -0.001027 -0.000849 0.001058 0.000000 0.054753 0.000000
# 6 0.000000 0.000000 0.000000 -0.004740 0.000000 0.045667
#
#
# Mechanical properties :
#
#
# Convention : Reuss Voigt Hill
#
# Bulk Modulus (GPa) = 61.53776 63.75566 62.64671
# Shear Modulus (GPa) = 21.13182 22.79868 21.96525
#
# Velocity S-wave (km/s) = 3.31089 3.43900 3.37555
# Velocity P-wave (km/s) = 6.82191 6.98869 6.90580
#
# Compressibility (1/GPa) = 0.01625019
#
# Stress axis : x y z
#
# Youngs Moduli (GPa) = 51.76561 43.26169 89.81738
#
# Poissons Ratio (x) = 0.45262 0.22198
# Poissons Ratio (y) = 0.54160 0.51415
# Poissons Ratio (z) = 0.12793 0.24765
#
# Static dielectric constant tensor:
#      x y z
#    x 3.958770 0.000000 -0.217890 
#    y 0.000000 3.241590 0.000000 
#    z -0.217890 0.000000 3.655370 
# 
# 
# High freq. dielectric constant tensor:
#      x y z
#    x 1.763430 0.000000 -0.004280 
#    y 0.000000 1.715630 0.000000 
#    z -0.004280 0.000000 1.749430 
# 
# From -- ./inp_files/251963.got.cif
#   From: 2010.06.25/outbox.cif.g09.slc.cpg/sg15_126_cif.got.tgz:251963.got - 2010.06.28 07:06:18.
