data_PCOD8135535
_publ_section_title
;
Structure prediction by ZEFSAII (Michael W. Deem and Ramdas Pophale) SiO2 
 PCOD8135535
Probable space group: C 2/C
;
_chemical_formula_sum "Si O2"
_cell_formula_units_Z 64
_cell_length_a 17.012183
_cell_length_b 19.051983
_cell_length_c 9.396286
_cell_angle_alpha 90.000000
_cell_angle_beta 85.174390
_cell_angle_gamma 90.000000
_cell_volume 3034.689799
_symmetry_space_group_name_H-M "C 2/C"
_symmetry_group_IT_number 15
_symmetry_cell_setting 'monoclinic'
loop_
_space_group_symop_operation_xyz
x,y,z
-x,y,1/2-z
-x,-y,-z
x,-y,1/2+z
1/2+x,1/2+y,z
1/2-x,1/2+y,1/2-z
1/2-x,1/2-y,-z
1/2+x,1/2-y,1/2+z
loop_
_atom_site_type_symbol
_atom_site_label
_atom_site_fract_x
_atom_site_fract_y
_atom_site_fract_z
Si Si1 0.089176 0.868301 0.577148
Si Si2 0.153344 0.800716 0.066786
Si Si3 0.588093 0.898815 0.780131
Si Si4 0.699584 0.519286 0.948480
Si Si5 0.419623 0.404021 0.614131
Si Si6 0.329575 0.152993 0.507394
Si Si7 0.425020 0.256569 0.157706
Si Si8 0.191894 0.525160 0.824938
O O1 0.162971 0.905411 0.491400
O O2 0.106508 0.857201 0.743156
O O3 0.070928 0.796055 0.494915
O O4 0.013092 0.920457 0.593533
O O5 0.237788 0.828515 0.005687
O O6 0.148253 0.787507 0.238205
O O7 0.092003 0.858814 0.026481
O O8 0.127165 0.728145 0.989783
O O9 0.500000 0.921723 0.750000
O O10 0.643539 0.888379 0.636179
O O11 0.585563 0.826656 0.872788
O O12 0.628500 0.962784 0.860419
O O13 0.631564 0.474525 0.881350
O O14 0.775939 0.529127 0.838989
O O15 0.731820 0.481969 0.084909
O O16 0.348040 0.101070 0.636218
O O17 0.500000 0.268218 0.250000
#
# Coordination Sequence:
#
# PCOD8135535 Si02
#       8
#     8   8   8   8   8   8   8   8
#     4  11  24  37  61  93 129 168 211 251 311 367
#     4  10  19  38  66  89 123 164 214 254 303 379
#     4  10  23  42  67  91 125 159 207 269 322 373
#     4  12  24  41  61  90 131 168 206 257 310 375
#     4  11  22  40  58  92 135 166 203 265 305 363
#     4  10  21  38  66  92 117 166 210 251 319 372
#     4  10  20  40  64  91 121 167 212 255 309 376
#     4  12  22  43  66  89 124 167 208 261 317 374
#
# _framework density 21.089469999999999
#
# number of rings (size 3 to 8) (size 9 to 14) (size 15 to 20)
#    0.000    1.250    5.000    1.125    0.000    0.500 
#    4.500    0.625    2.750    0.000    0.000    0.000 
#    0.000    0.000    0.000    0.000    0.000    0.000 
#
# Total GULP energy -396582.070101 kJ/mol
# GULP energy per Si atom -12393.189691 kJ/mol
# Density = 2.104147 g / cm^3
# Si number density = 21.089470 Si / 1000 Ang^3
#
#
#
# Elastic Constant Matrix: (Units=GPa)
#
#
# Indices 1 2 3 4 5 6 
#
# 1 60.5944 13.2731 17.4426 0.0000 -8.5371 0.0000
# 2 13.2731 91.3459 27.7044 0.0000 -4.9819 0.0000
# 3 17.4426 27.7044 66.5901 0.0000 -6.9445 0.0000
# 4 0.0000 0.0000 0.0000 34.0452 0.0000 3.8851
# 5 -8.5371 -4.9819 -6.9445 0.0000 23.3472 0.0000
# 6 0.0000 0.0000 0.0000 3.8851 0.0000 32.2600
#
#
#
# Elastic Compliance Matrix: (Units=1/GPa)
#
#
# Indices 1 2 3 4 5 6 
#
# 1 0.018634 -0.001262 -0.003791 0.000000 0.005417 0.000000
# 2 -0.001262 0.012644 -0.004847 0.000000 0.000795 0.000000
# 3 -0.003791 -0.004847 0.018343 0.000000 0.003036 0.000000
# 4 0.000000 0.000000 0.000000 0.029782 0.000000 -0.003587
# 5 0.005417 0.000795 0.003036 0.000000 0.045885 0.000000
# 6 0.000000 0.000000 0.000000 -0.003587 0.000000 0.031430
#
#
# Mechanical properties :
#
#
# Convention : Reuss Voigt Hill
#
# Bulk Modulus (GPa) = 33.53334 37.26338 35.39836
# Shear Modulus (GPa) = 26.81543 28.60451 27.70997
#
# Velocity S-wave (km/s) = 3.56969 3.68685 3.62874
# Velocity P-wave (km/s) = 5.73806 5.98593 5.86330
#
# Compressibility (1/GPa) = 0.02982107
#
# Stress axis : x y z
#
# Youngs Moduli (GPa) = 53.66498 79.08745 54.51559
#
# Poissons Ratio (x) = 0.09985 0.20666
# Poissons Ratio (y) = 0.06775 0.26424
# Poissons Ratio (z) = 0.20344 0.38334
#
# Static dielectric constant tensor:
#      x y z
#    x 3.794380 0.000000 -0.233280 
#    y 0.000000 3.950650 0.000000 
#    z -0.233280 0.000000 3.700650 
# 
# 
# High freq. dielectric constant tensor:
#      x y z
#    x 1.819900 0.000000 -0.023980 
#    y 0.000000 1.825490 0.000000 
#    z -0.023980 0.000000 1.810540 
# 
# From -- ./inp_files/50254.got.cif
#   From: 2010.06.25/outbox.cif.g09.slc.cpg/sg15_26_cif.got.tgz:50254.got - 2010.06.28 07:06:18.
