data_PCOD8135625
_publ_section_title
;
Structure prediction by ZEFSAII (Michael W. Deem and Ramdas Pophale) SiO2 
 PCOD8135625
Probable space group: C 2/C
;
_chemical_formula_sum "Si O2"
_cell_formula_units_Z 56
_cell_length_a 10.929648
_cell_length_b 21.770816
_cell_length_c 12.057794
_cell_angle_alpha 90.000000
_cell_angle_beta 95.413884
_cell_angle_gamma 90.000000
_cell_volume 2856.321426
_symmetry_space_group_name_H-M "C 2/C"
_symmetry_group_IT_number 15
_symmetry_cell_setting 'monoclinic'
loop_
_space_group_symop_operation_xyz
x,y,z
-x,y,1/2-z
-x,-y,-z
x,-y,1/2+z
1/2+x,1/2+y,z
1/2-x,1/2+y,1/2-z
1/2-x,1/2-y,-z
1/2+x,1/2-y,1/2+z
loop_
_atom_site_type_symbol
_atom_site_label
_atom_site_fract_x
_atom_site_fract_y
_atom_site_fract_z
Si Si1 0.804808 0.495903 0.492867
Si Si2 0.652216 0.406402 0.864538
Si Si3 0.746398 0.773850 0.655282
Si Si4 0.933450 0.296523 0.039030
Si Si5 0.177445 0.776670 0.595736
Si Si6 0.618273 0.415457 0.608390
Si Si7 0.998710 0.571990 0.878941
O O1 0.763688 0.558160 0.429982
O O2 0.687741 0.464666 0.539273
O O3 0.905997 0.516167 0.592113
O O4 0.864331 0.449719 0.408158
O O5 0.674632 0.333877 0.869084
O O6 0.645397 0.429710 0.738378
O O7 0.527859 0.420353 0.922239
O O8 0.815836 0.715638 0.607607
O O9 0.608826 0.780136 0.591390
O O10 0.742218 0.763748 0.786848
O O11 0.968111 0.367717 0.048054
O O12 0.044882 0.254860 0.091582
O O13 0.250000 0.750000 0.500000
O O14 0.164894 0.848792 0.576638
O O15 0.000000 0.588531 0.750000
#
# Coordination Sequence:
#
# PCOD8135625 Si02
#       7
#     8   8   8   8   8   8   8
#     4  11  22  38  56  86 120 157 199 246 294 351
#     4  10  19  39  60  84 115 156 202 240 290 359
#     4  10  21  38  62  86 113 158 202 241 291 365
#     4  11  21  39  63  85 114 154 201 245 294 359
#     4  11  22  37  59  89 123 153 193 248 302 354
#     4  10  21  36  61  85 116 156 199 246 293 348
#     4  11  23  37  58  86 120 156 197 249 303 356
#
# _framework density 19.605637000000002
#
# number of rings (size 3 to 8) (size 9 to 14) (size 15 to 20)
#    0.000    1.429    2.857    3.429    0.000    0.571 
#    0.000    0.000    0.000    0.000    0.000    0.000 
#    0.000    0.000    0.000    0.000    0.000    0.000 
#
# Total GULP energy -347258.211048 kJ/mol
# GULP energy per Si atom -12402.078966 kJ/mol
# Density = 1.956101 g / cm^3
# Si number density = 19.605637 Si / 1000 Ang^3
#
#
#
# Elastic Constant Matrix: (Units=GPa)
#
#
# Indices 1 2 3 4 5 6 
#
# 1 74.8781 22.0579 45.7919 0.0000 -1.1348 0.0000
# 2 22.0579 60.5606 31.6301 0.0000 -2.8242 0.0000
# 3 45.7919 31.6301 114.7086 0.0000 6.5248 0.0000
# 4 0.0000 0.0000 0.0000 28.9752 0.0000 0.8872
# 5 -1.1348 -2.8242 6.5248 0.0000 33.5360 0.0000
# 6 0.0000 0.0000 0.0000 0.8872 0.0000 38.6414
#
#
#
# Elastic Compliance Matrix: (Units=1/GPa)
#
#
# Indices 1 2 3 4 5 6 
#
# 1 0.018306 -0.003186 -0.006522 0.000000 0.001620 0.000000
# 2 -0.003186 0.020088 -0.004406 0.000000 0.002441 0.000000
# 3 -0.006522 -0.004406 0.012710 0.000000 -0.003065 0.000000
# 4 0.000000 0.000000 0.000000 0.034537 0.000000 -0.000793
# 5 0.001620 0.002441 -0.003065 0.000000 0.030675 0.000000
# 6 0.000000 0.000000 0.000000 -0.000793 0.000000 0.025897
#
#
# Mechanical properties :
#
#
# Convention : Reuss Voigt Hill
#
# Bulk Modulus (GPa) = 43.71129 49.90079 46.80604
# Shear Modulus (GPa) = 28.07930 30.27502 29.17716
#
# Velocity S-wave (km/s) = 3.78856 3.93389 3.86191
# Velocity P-wave (km/s) = 6.44059 6.79276 6.61902
#
# Compressibility (1/GPa) = 0.02287739
#
# Stress axis : x y z
#
# Youngs Moduli (GPa) = 54.62558 49.78121 78.67545
#
# Poissons Ratio (x) = 0.15860 0.51309
# Poissons Ratio (y) = 0.17404 0.34665
# Poissons Ratio (z) = 0.35625 0.21934
#
# Static dielectric constant tensor:
#      x y z
#    x 3.651780 0.000000 0.212740 
#    y 0.000000 3.476850 0.000000 
#    z 0.212740 0.000000 3.532810 
# 
# 
# High freq. dielectric constant tensor:
#      x y z
#    x 1.763370 0.000000 0.010930 
#    y 0.000000 1.768520 0.000000 
#    z 0.010930 0.000000 1.757980 
# 
# From -- ./inp_files/88967.got.cif
#   From: 2010.06.25/outbox.cif.g09.slc.cpg/sg15_45_cif.got.tgz:88967.got - 2010.06.28 07:06:18.
