data_PCOD8135983
_publ_section_title
;
Structure prediction by ZEFSAII (Michael W. Deem and Ramdas Pophale) SiO2 
 PCOD8135983
Probable space group: C 2/C
;
_chemical_formula_sum "Si O2"
_cell_formula_units_Z 56
_cell_length_a 19.042066
_cell_length_b 19.088624
_cell_length_c 8.423575
_cell_angle_alpha 90.000000
_cell_angle_beta 122.084336
_cell_angle_gamma 90.000000
_cell_volume 2594.212300
_symmetry_space_group_name_H-M "C 2/C"
_symmetry_group_IT_number 15
_symmetry_cell_setting 'monoclinic'
loop_
_space_group_symop_operation_xyz
x,y,z
-x,y,1/2-z
-x,-y,-z
x,-y,1/2+z
1/2+x,1/2+y,z
1/2-x,1/2+y,1/2-z
1/2-x,1/2-y,-z
1/2+x,1/2-y,1/2+z
loop_
_atom_site_type_symbol
_atom_site_label
_atom_site_fract_x
_atom_site_fract_y
_atom_site_fract_z
Si Si1 0.603503 0.920844 0.142242
Si Si2 0.000000 0.832986 0.250000
Si Si3 0.161106 0.081078 0.841371
Si Si4 0.290395 0.561908 0.942555
Si Si5 0.904401 0.272673 0.473827
Si Si6 0.734627 0.689947 0.357816
Si Si7 0.798194 0.317093 0.614148
Si Si8 0.000000 0.508208 0.250000
O O1 0.698671 0.946581 0.257588
O O2 0.592787 0.836187 0.150026
O O3 0.563894 0.957154 0.244180
O O4 0.554907 0.943020 0.927085
O O5 0.920152 0.879989 0.189801
O O6 0.015410 0.777567 0.413867
O O7 0.152020 0.080947 0.639087
O O8 0.247194 0.115965 0.994758
O O9 0.167487 0.004195 0.923394
O O10 0.289357 0.620238 0.078089
O O11 0.837505 0.214655 0.344597
O O12 0.884284 0.311618 0.619857
O O13 0.750000 0.750000 0.500000
O O14 0.810708 0.678225 0.322170
O O15 0.750000 0.250000 0.500000
#
# Coordination Sequence:
#
# PCOD8135983 Si02
#       8
#     8   4   8   8   8   8   8   4
#     4  11  22  47  66 104 136 183 224 288 351 428
#     4  12  27  46  70  97 148 184 236 292 364 413
#     4  12  25  45  70 104 136 189 237 294 354 418
#     4  12  25  44  74 100 137 186 242 286 345 426
#     4  11  23  45  69 100 132 184 230 287 346 416
#     4  11  21  41  70 103 129 167 238 290 327 408
#     4  10  19  41  70  93 130 171 234 283 333 405
#     4  10  25  42  66 101 148 170 216 286 372 417
#
# _framework density 21.586513
#
# number of rings (size 3 to 8) (size 9 to 14) (size 15 to 20)
#    0.000    0.857    5.714    3.000    0.000    0.571 
#    7.714    0.000    0.000    0.000    0.000    0.000 
#    0.000    0.000    0.000    0.000    0.000    0.000 
#
# Total GULP energy -346867.064160 kJ/mol
# GULP energy per Si atom -12388.109434 kJ/mol
# Density = 2.153738 g / cm^3
# Si number density = 21.586513 Si / 1000 Ang^3
#
#
#
# Elastic Constant Matrix: (Units=GPa)
#
#
# Indices 1 2 3 4 5 6 
#
# 1 86.0212 67.2438 66.2262 0.0000 -6.4827 0.0000
# 2 67.2438 159.5122 81.9759 0.0000 -2.7720 0.0000
# 3 66.2262 81.9759 167.6043 0.0000 -17.9906 0.0000
# 4 0.0000 0.0000 0.0000 56.9824 0.0000 -6.7042
# 5 -6.4827 -2.7720 -17.9906 0.0000 41.1043 0.0000
# 6 0.0000 0.0000 0.0000 -6.7042 0.0000 32.0584
#
#
#
# Elastic Compliance Matrix: (Units=1/GPa)
#
#
# Indices 1 2 3 4 5 6 
#
# 1 0.020142 -0.005908 -0.005006 0.000000 0.000587 0.000000
# 2 -0.005908 0.010172 -0.002799 0.000000 -0.001471 0.000000
# 3 -0.005006 -0.002799 0.009662 0.000000 0.003251 0.000000
# 4 0.000000 0.000000 0.000000 0.017992 0.000000 0.003763
# 5 0.000587 -0.001471 0.003251 0.000000 0.025745 0.000000
# 6 0.000000 0.000000 0.000000 0.003763 0.000000 0.031980
#
#
# Mechanical properties :
#
#
# Convention : Reuss Voigt Hill
#
# Bulk Modulus (GPa) = 79.67615 93.78105 86.72860
# Shear Modulus (GPa) = 33.94379 39.20847 36.57613
#
# Velocity S-wave (km/s) = 3.96972 4.26648 4.12077
# Velocity P-wave (km/s) = 7.61589 8.23462 7.93130
#
# Compressibility (1/GPa) = 0.01255081
#
# Stress axis : x y z
#
# Youngs Moduli (GPa) = 49.64822 98.30435 103.49469
#
# Poissons Ratio (x) = 0.58079 0.51810
# Poissons Ratio (y) = 0.29332 0.28966
# Poissons Ratio (z) = 0.24854 0.27513
#
# Static dielectric constant tensor:
#      x y z
#    x 4.257210 0.000000 -0.287770 
#    y 0.000000 4.378900 0.000000 
#    z -0.287770 0.000000 4.618360 
# 
# 
# High freq. dielectric constant tensor:
#      x y z
#    x 1.832630 0.000000 -0.012990 
#    y 0.000000 1.868090 0.000000 
#    z -0.012990 0.000000 1.846920 
# 
# From -- ./inp_files/56752.got.cif
#   From: 2010.06.25/outbox.cif.g09.slc.cpg/sg15_29_cif.got.tgz:56752.got - 2010.06.28 07:06:18.
