data_PCOD8135019
_publ_section_title
;
Structure prediction by ZEFSAII (Michael W. Deem and Ramdas Pophale) SiO2 
 PCOD8135019
Probable space group: C 2/C
;
_chemical_formula_sum "Si O2"
_cell_formula_units_Z 64
_cell_length_a 19.681129
_cell_length_b 10.805738
_cell_length_c 24.499723
_cell_angle_alpha 90.000000
_cell_angle_beta 138.076630
_cell_angle_gamma 90.000000
_cell_volume 3481.212610
_symmetry_space_group_name_H-M "C 2/C"
_symmetry_group_IT_number 15
_symmetry_cell_setting 'monoclinic'
loop_
_space_group_symop_operation_xyz
x,y,z
-x,y,1/2-z
-x,-y,-z
x,-y,1/2+z
1/2+x,1/2+y,z
1/2-x,1/2+y,1/2-z
1/2-x,1/2-y,-z
1/2+x,1/2-y,1/2+z
loop_
_atom_site_type_symbol
_atom_site_label
_atom_site_fract_x
_atom_site_fract_y
_atom_site_fract_z
Si Si1 0.111192 0.411977 0.239106
Si Si2 0.527195 0.480192 0.453399
Si Si3 0.605764 0.677373 0.174087
Si Si4 0.757203 0.572839 0.104998
Si Si5 0.308920 0.963754 0.819647
Si Si6 0.488385 0.789285 0.913142
Si Si7 0.333778 0.195480 0.897850
Si Si8 0.045283 0.396190 0.832689
O O1 0.098849 0.263171 0.224478
O O2 0.197104 0.458531 0.332790
O O3 0.143586 0.457040 0.199659
O O4 0.001467 0.465417 0.190443
O O5 0.500000 0.500000 0.500000
O O6 0.491600 0.588084 0.391104
O O7 0.647791 0.466094 0.517128
O O8 0.467033 0.356432 0.401175
O O9 0.705046 0.594872 0.238243
O O10 0.606642 0.755433 0.119104
O O11 0.750459 0.701169 0.135821
O O12 0.832270 0.596901 0.098492
O O13 0.391007 0.856541 0.882175
O O14 0.287577 0.059217 0.857105
O O15 0.507761 0.818918 0.861557
O O16 0.588010 0.825455 0.006359
O O17 0.000000 0.335038 0.750000
#
# Coordination Sequence:
#
# PCOD8135019 Si02
#       8
#     8   8   8   8   8   8   8   8
#     4   9  19  35  54  80 109 147 192 228 275 340
#     4  11  21  34  54  87 119 145 182 229 295 351
#     4  11  21  32  52  84 118 146 182 234 278 348
#     4  10  19  37  60  76 111 151 188 234 286 334
#     4  10  20  31  55  82 117 145 175 232 294 338
#     4  10  21  36  58  82 118 148 184 236 287 338
#     4  10  20  33  52  87 116 141 186 231 284 345
#     4   9  20  38  60  82 103 152 204 233 272 337
#
# _framework density 18.384398999999998
#
# number of rings (size 3 to 8) (size 9 to 14) (size 15 to 20)
#    0.000    2.000    3.750    0.375    5.250    2.000 
#    0.000    0.625    0.000    9.750    0.000    0.000 
#    0.000    0.000    0.000    0.000    0.000    0.000 
#
# Total GULP energy -396554.040016 kJ/mol
# GULP energy per Si atom -12392.313750 kJ/mol
# Density = 1.834256 g / cm^3
# Si number density = 18.384399 Si / 1000 Ang^3
#
#
#
# Elastic Constant Matrix: (Units=GPa)
#
#
# Indices 1 2 3 4 5 6 
#
# 1 79.8100 40.8564 32.1570 0.0000 12.7148 0.0000
# 2 40.8564 124.5125 53.9362 0.0000 4.2787 0.0000
# 3 32.1570 53.9362 88.4102 0.0000 4.3572 0.0000
# 4 0.0000 0.0000 0.0000 35.8183 0.0000 -1.5911
# 5 12.7148 4.2787 4.3572 0.0000 31.6232 0.0000
# 6 0.0000 0.0000 0.0000 -1.5911 0.0000 9.2123
#
#
#
# Elastic Compliance Matrix: (Units=1/GPa)
#
#
# Indices 1 2 3 4 5 6 
#
# 1 0.016806 -0.003794 -0.003514 0.000000 -0.005760 0.000000
# 2 -0.003794 0.011783 -0.005844 0.000000 0.000737 0.000000
# 3 -0.003514 -0.005844 0.016156 0.000000 -0.000022 0.000000
# 4 0.000000 0.000000 0.000000 0.028135 0.000000 0.004859
# 5 -0.005760 0.000737 -0.000022 0.000000 0.033841 0.000000
# 6 0.000000 0.000000 0.000000 0.004859 0.000000 0.109390
#
#
# Mechanical properties :
#
#
# Convention : Reuss Voigt Hill
#
# Bulk Modulus (GPa) = 54.23458 60.73689 57.48574
# Shear Modulus (GPa) = 20.11575 26.38297 23.24936
#
# Velocity S-wave (km/s) = 3.31142 3.79235 3.56001
# Velocity P-wave (km/s) = 6.64718 7.23082 6.94514
#
# Compressibility (1/GPa) = 0.01843842
#
# Stress axis : x y z
#
# Youngs Moduli (GPa) = 59.50412 84.86974 61.89782
#
# Poissons Ratio (x) = 0.32202 0.21751
# Poissons Ratio (y) = 0.22578 0.36176
# Poissons Ratio (z) = 0.20909 0.49602
#
# Static dielectric constant tensor:
#      x y z
#    x 3.417360 0.000000 -0.027560 
#    y 0.000000 3.888610 0.000000 
#    z -0.027560 0.000000 3.432300 
# 
# 
# High freq. dielectric constant tensor:
#      x y z
#    x 1.689150 0.000000 0.006010 
#    y 0.000000 1.712770 0.000000 
#    z 0.006010 0.000000 1.713860 
# 
# From -- ./inp_files/279898.got.cif
#   From: 2010.06.25/outbox.cif.g09.slc.cpg/sg15_140_cif.got.tgz:279898.got - 2010.06.28 07:06:18.
