data_PCOD8135221
_publ_section_title
;
Structure prediction by ZEFSAII (Michael W. Deem and Ramdas Pophale) SiO2 
 PCOD8135221
Probable space group: C 2/C
;
_chemical_formula_sum "Si O2"
_cell_formula_units_Z 60
_cell_length_a 21.944278
_cell_length_b 14.840214
_cell_length_c 10.401386
_cell_angle_alpha 90.000000
_cell_angle_beta 123.844407
_cell_angle_gamma 90.000000
_cell_volume 2813.325989
_symmetry_space_group_name_H-M "C 2/C"
_symmetry_group_IT_number 15
_symmetry_cell_setting 'monoclinic'
loop_
_space_group_symop_operation_xyz
x,y,z
-x,y,1/2-z
-x,-y,-z
x,-y,1/2+z
1/2+x,1/2+y,z
1/2-x,1/2+y,1/2-z
1/2-x,1/2-y,-z
1/2+x,1/2-y,1/2+z
loop_
_atom_site_type_symbol
_atom_site_label
_atom_site_fract_x
_atom_site_fract_y
_atom_site_fract_z
Si Si1 0.500000 0.310719 0.750000
Si Si2 0.008217 0.726350 0.112439
Si Si3 0.707399 0.026268 0.911123
Si Si4 0.157975 0.665112 0.320295
Si Si5 0.954025 0.910854 0.452817
Si Si6 0.711914 0.238395 0.630335
Si Si7 0.610287 0.194652 0.721737
Si Si8 0.214336 0.952411 0.261118
O O1 0.458131 0.372790 0.600784
O O2 0.566901 0.250433 0.776674
O O3 0.086613 0.690019 0.153362
O O4 0.008774 0.834907 0.095063
O O5 0.000000 0.698524 0.250000
O O6 0.947839 0.670970 0.959497
O O7 0.651372 0.110401 0.835135
O O8 0.763740 0.020370 0.857845
O O9 0.654652 0.939679 0.851761
O O10 0.754663 0.026025 0.099228
O O11 0.230414 0.681266 0.319069
O O12 0.156448 0.732710 0.443269
O O13 0.872144 0.940430 0.321368
O O14 0.000000 0.000000 0.500000
O O15 0.671566 0.254881 0.719001
O O16 0.752258 0.143595 0.668139
#
# Coordination Sequence:
#
# PCOD8135221 Si02
#       8
#     4   8   8   8   8   8   8   8
#     4  10  26  46  66  98 144 186 224 274 366 408
#     4  11  22  39  69  97 133 180 227 279 348 413
#     4  10  24  41  69 100 133 174 232 285 341 410
#     4  10  19  37  65  98 131 174 228 283 342 401
#     4  11  26  43  67  96 138 176 227 286 341 417
#     4   9  18  38  65  94 131 172 224 285 335 404
#     4  10  22  44  65  97 143 182 225 281 347 420
#     4  10  22  42  64  96 132 171 227 283 342 405
#
# _framework density 21.327069999999999
#
# number of rings (size 3 to 8) (size 9 to 14) (size 15 to 20)
#    0.000    1.867    2.667    0.000    2.800    4.800 
#    1.200    1.333    0.000    0.000    0.000    0.000 
#    0.000    0.000    0.000    0.000    0.000    0.000 
#
# Total GULP energy -371806.087806 kJ/mol
# GULP energy per Si atom -12393.536260 kJ/mol
# Density = 2.127853 g / cm^3
# Si number density = 21.327070 Si / 1000 Ang^3
#
#
#
# Elastic Constant Matrix: (Units=GPa)
#
#
# Indices 1 2 3 4 5 6 
#
# 1 112.9748 44.6389 52.5814 0.0000 -0.3649 0.0000
# 2 44.6389 77.0827 39.6916 0.0000 4.1968 0.0000
# 3 52.5814 39.6916 127.7484 0.0000 7.7420 0.0000
# 4 0.0000 0.0000 0.0000 34.4826 0.0000 4.3178
# 5 -0.3649 4.1968 7.7420 0.0000 43.7122 0.0000
# 6 0.0000 0.0000 0.0000 4.3178 0.0000 23.6746
#
#
#
# Elastic Compliance Matrix: (Units=1/GPa)
#
#
# Indices 1 2 3 4 5 6 
#
# 1 0.012734 -0.005601 -0.003579 0.000000 0.001278 0.000000
# 2 -0.005601 0.017926 -0.003191 0.000000 -0.001203 0.000000
# 3 -0.003579 -0.003191 0.010387 0.000000 -0.001563 0.000000
# 4 0.000000 0.000000 0.000000 0.029678 0.000000 -0.005413
# 5 0.001278 -0.001203 -0.001563 0.000000 0.023280 0.000000
# 6 0.000000 0.000000 0.000000 -0.005413 0.000000 0.043226
#
#
# Mechanical properties :
#
#
# Convention : Reuss Voigt Hill
#
# Bulk Modulus (GPa) = 61.33142 65.73663 63.53403
# Shear Modulus (GPa) = 29.86707 32.43348 31.15028
#
# Velocity S-wave (km/s) = 3.74629 3.90393 3.82592
# Velocity P-wave (km/s) = 6.89441 7.15618 7.02651
#
# Compressibility (1/GPa) = 0.01630486
#
# Stress axis : x y z
#
# Youngs Moduli (GPa) = 78.52685 55.78641 96.27390
#
# Poissons Ratio (x) = 0.31249 0.34453
# Poissons Ratio (y) = 0.43987 0.30721
# Poissons Ratio (z) = 0.28102 0.17802
#
# Static dielectric constant tensor:
#      x y z
#    x 4.066540 0.000000 0.131630 
#    y 0.000000 3.679230 0.000000 
#    z 0.131630 0.000000 4.088570 
# 
# 
# High freq. dielectric constant tensor:
#      x y z
#    x 1.843130 0.000000 0.005770 
#    y 0.000000 1.820210 0.000000 
#    z 0.005770 0.000000 1.844280 
# 
# From -- ./inp_files/112776.got.cif
#   From: 2010.06.25/outbox.cif.g09.slc.cpg/sg15_57_cif.got.tgz:112776.got - 2010.06.28 07:06:18.
