data_PCOD8135259
_publ_section_title
;
Structure prediction by ZEFSAII (Michael W. Deem and Ramdas Pophale) SiO2 
 PCOD8135259
Probable space group: C 2/C
;
_chemical_formula_sum "Si O2"
_cell_formula_units_Z 60
_cell_length_a 16.896224
_cell_length_b 13.106174
_cell_length_c 12.643094
_cell_angle_alpha 90.000000
_cell_angle_beta 99.019013
_cell_angle_gamma 90.000000
_cell_volume 2765.133041
_symmetry_space_group_name_H-M "C 2/C"
_symmetry_group_IT_number 15
_symmetry_cell_setting 'monoclinic'
loop_
_space_group_symop_operation_xyz
x,y,z
-x,y,1/2-z
-x,-y,-z
x,-y,1/2+z
1/2+x,1/2+y,z
1/2-x,1/2+y,1/2-z
1/2-x,1/2-y,-z
1/2+x,1/2-y,1/2+z
loop_
_atom_site_type_symbol
_atom_site_label
_atom_site_fract_x
_atom_site_fract_y
_atom_site_fract_z
Si Si1 0.840135 0.393690 0.138406
Si Si2 0.150873 0.194219 0.255466
Si Si3 0.315959 0.117427 0.223437
Si Si4 0.824242 0.864512 0.499830
Si Si5 0.552733 0.246390 0.361220
Si Si6 0.908812 0.330126 0.946121
Si Si7 0.500000 0.420798 0.750000
Si Si8 0.927492 0.961794 0.052524
O O1 0.858429 0.317916 0.240942
O O2 0.824700 0.504411 0.180002
O O3 0.763563 0.346317 0.062691
O O4 0.907555 0.389181 0.059331
O O5 0.223878 0.156332 0.196540
O O6 0.172006 0.157653 0.376510
O O7 0.064451 0.149575 0.198101
O O8 0.367283 0.191476 0.160201
O O9 0.348928 0.116022 0.350200
O O10 0.885180 0.789291 0.451663
O O11 0.848794 0.983555 0.486623
O O12 0.500000 0.283878 0.250000
O O13 0.499630 0.168411 0.420514
O O14 0.581636 0.340551 0.440239
O O15 0.557358 0.492222 0.829101
O O16 0.000000 0.000000 0.000000
#
# Coordination Sequence:
#
# PCOD8135259 Si02
#       8
#     8   8   8   8   8   8   4   8
#     4  11  22  40  65  90 119 176 209 251 312 377
#     4  10  21  41  63  89 128 158 210 259 310 369
#     4  11  23  38  64  92 123 168 208 260 313 362
#     4  10  19  37  68  88 119 161 210 251 313 382
#     4  10  22  39  61  91 127 162 206 261 310 368
#     4  10  19  42  62  87 123 161 217 254 298 392
#     4  10  24  38  58  98 122 156 206 260 308 368
#     4  11  21  36  64  96 120 157 196 262 324 363
#
# _framework density 21.698775000000001
#
# number of rings (size 3 to 8) (size 9 to 14) (size 15 to 20)
#    0.000    1.600    4.667    0.800    1.867    2.667 
#    3.600    2.000    0.000    0.000    0.000    0.000 
#    0.000    0.000    0.000    0.000    0.000    0.000 
#
# Total GULP energy -371836.265408 kJ/mol
# GULP energy per Si atom -12394.542180 kJ/mol
# Density = 2.164939 g / cm^3
# Si number density = 21.698775 Si / 1000 Ang^3
#
#
#
# Elastic Constant Matrix: (Units=GPa)
#
#
# Indices 1 2 3 4 5 6 
#
# 1 108.8846 25.0004 8.8176 0.0000 -27.1139 0.0000
# 2 25.0004 112.0084 28.8986 0.0000 -16.4355 0.0000
# 3 8.8176 28.8986 46.0235 0.0000 -21.0038 0.0000
# 4 0.0000 0.0000 0.0000 30.8550 0.0000 1.2066
# 5 -27.1139 -16.4355 -21.0038 0.0000 35.0553 0.0000
# 6 0.0000 0.0000 0.0000 1.2066 0.0000 28.3228
#
#
#
# Elastic Compliance Matrix: (Units=1/GPa)
#
#
# Indices 1 2 3 4 5 6 
#
# 1 0.011999 -0.002121 0.003874 0.000000 0.010607 0.000000
# 2 -0.002121 0.011076 -0.006782 0.000000 -0.000511 0.000000
# 3 0.003874 -0.006782 0.034630 0.000000 0.020565 0.000000
# 4 0.000000 0.000000 0.000000 0.032464 0.000000 -0.001383
# 5 0.010607 -0.000511 0.020565 0.000000 0.048813 0.000000
# 6 0.000000 0.000000 0.000000 -0.001383 0.000000 0.035366
#
#
# Mechanical properties :
#
#
# Convention : Reuss Voigt Hill
#
# Bulk Modulus (GPa) = 20.98790 43.59442 32.29116
# Shear Modulus (GPa) = 24.96418 32.45996 28.71207
#
# Velocity S-wave (km/s) = 3.39556 3.87193 3.64154
# Velocity P-wave (km/s) = 5.00665 6.33431 5.70920
#
# Compressibility (1/GPa) = 0.04764650
#
# Stress axis : x y z
#
# Youngs Moduli (GPa) = 83.34260 90.28503 28.87711
#
# Poissons Ratio (x) = 0.19151 -0.11187
# Poissons Ratio (y) = 0.17678 0.19583
# Poissons Ratio (z) = -0.32286 0.61227
#
# Static dielectric constant tensor:
#      x y z
#    x 3.949470 0.000000 -0.203710 
#    y 0.000000 4.766990 0.000000 
#    z -0.203710 0.000000 3.913950 
# 
# 
# High freq. dielectric constant tensor:
#      x y z
#    x 1.852020 0.000000 -0.017880 
#    y 0.000000 1.847300 0.000000 
#    z -0.017880 0.000000 1.834930 
# 
# From -- ./inp_files/160931.got.cif
#   From: 2010.06.25/outbox.cif.g09.slc.cpg/sg15_81_cif.got.tgz:160931.got - 2010.06.28 07:06:18.
