data_PCOD8135415
_publ_section_title
;
Structure prediction by ZEFSAII (Michael W. Deem and Ramdas Pophale) SiO2 
 PCOD8135415
Probable space group: C 2/C
;
_chemical_formula_sum "Si O2"
_cell_formula_units_Z 60
_cell_length_a 27.640571
_cell_length_b 15.059725
_cell_length_c 13.180367
_cell_angle_alpha 90.000000
_cell_angle_beta 35.695789
_cell_angle_gamma 90.000000
_cell_volume 3201.243167
_symmetry_space_group_name_H-M "C 2/C"
_symmetry_group_IT_number 15
_symmetry_cell_setting 'monoclinic'
loop_
_space_group_symop_operation_xyz
x,y,z
-x,y,1/2-z
-x,-y,-z
x,-y,1/2+z
1/2+x,1/2+y,z
1/2-x,1/2+y,1/2-z
1/2-x,1/2-y,-z
1/2+x,1/2-y,1/2+z
loop_
_atom_site_type_symbol
_atom_site_label
_atom_site_fract_x
_atom_site_fract_y
_atom_site_fract_z
Si Si1 0.448924 0.980003 0.933902
Si Si2 0.261908 0.955499 0.195998
Si Si3 0.279481 0.266530 0.242576
Si Si4 0.045588 0.313285 0.072335
Si Si5 0.725223 0.139533 0.023654
Si Si6 0.968661 0.680351 0.120099
Si Si7 0.500000 0.689762 0.750000
Si Si8 0.325251 0.385580 0.557258
O O1 0.500000 0.945021 0.750000
O O2 0.480599 0.912734 0.966502
O O3 0.469125 0.082235 0.918468
O O4 0.350541 0.973879 0.093081
O O5 0.227093 0.861788 0.300437
O O6 0.195338 0.030041 0.338163
O O7 0.270876 0.945961 0.059012
O O8 0.270136 0.278550 0.383567
O O9 0.203259 0.204587 0.336903
O O10 0.359806 0.213253 0.072920
O O11 0.000000 0.276710 0.250000
O O12 0.013541 0.272629 0.020007
O O13 0.629035 0.160175 0.206917
O O14 0.774777 0.108016 0.037907
O O15 0.000806 0.747745 0.150251
O O16 0.576841 0.622064 0.624605
#
# Coordination Sequence:
#
# PCOD8135415 Si02
#       8
#     8   8   8   8   8   8   4   8
#     4  11  18  34  57  95 125 148 195 259 319 359
#     4  10  22  36  59  93 122 160 201 252 305 370
#     4  10  19  38  62  86 116 161 208 245 301 371
#     4  11  24  35  57  88 130 171 192 237 313 395
#     4  10  20  37  70  91 114 161 211 257 316 356
#     4  12  19  38  62  98 120 149 208 269 311 359
#     4  12  24  36  68  92 116 152 218 274 302 332
#     4  12  21  41  61  93 122 159 205 265 304 360
#
# _framework density 18.742719000000001
#
# number of rings (size 3 to 8) (size 9 to 14) (size 15 to 20)
#    0.800    0.267    6.000    2.400    0.000    0.000 
#    1.200    2.000    0.000    2.400    0.000    0.000 
#    0.000    0.000    0.000    0.000    0.000    0.000 
#
# Total GULP energy -371738.058414 kJ/mol
# GULP energy per Si atom -12391.268614 kJ/mol
# Density = 1.870006 g / cm^3
# Si number density = 18.742719 Si / 1000 Ang^3
#
#
#
# Elastic Constant Matrix: (Units=GPa)
#
#
# Indices 1 2 3 4 5 6 
#
# 1 88.3407 16.3245 42.4091 0.0000 0.8179 0.0000
# 2 16.3245 85.1208 33.4643 0.0000 2.4253 0.0000
# 3 42.4091 33.4643 102.4350 0.0000 -0.0188 0.0000
# 4 0.0000 0.0000 0.0000 35.2176 0.0000 -3.4446
# 5 0.8179 2.4253 -0.0188 0.0000 34.0713 0.0000
# 6 0.0000 0.0000 0.0000 -3.4446 0.0000 13.0389
#
#
#
# Elastic Compliance Matrix: (Units=1/GPa)
#
#
# Indices 1 2 3 4 5 6 
#
# 1 0.014147 -0.000461 -0.005707 0.000000 -0.000310 0.000000
# 2 -0.000461 0.013526 -0.004228 0.000000 -0.000954 0.000000
# 3 -0.005707 -0.004228 0.013506 0.000000 0.000445 0.000000
# 4 0.000000 0.000000 0.000000 0.029148 0.000000 0.007700
# 5 -0.000310 -0.000954 0.000445 0.000000 0.029426 0.000000
# 6 0.000000 0.000000 0.000000 0.007700 0.000000 0.078728
#
#
# Mechanical properties :
#
#
# Convention : Reuss Voigt Hill
#
# Bulk Modulus (GPa) = 49.04789 51.14360 50.09575
# Shear Modulus (GPa) = 24.26380 28.71214 26.48797
#
# Velocity S-wave (km/s) = 3.60192 3.91821 3.76339
# Velocity P-wave (km/s) = 6.59729 6.91493 6.75798
#
# Compressibility (1/GPa) = 0.02038824
#
# Stress axis : x y z
#
# Youngs Moduli (GPa) = 70.68434 73.93274 74.03975
#
# Poissons Ratio (x) = 0.03407 0.42252
# Poissons Ratio (y) = 0.03257 0.31305
# Poissons Ratio (z) = 0.40337 0.31260
#
# Static dielectric constant tensor:
#      x y z
#    x 3.486010 0.000000 0.109040 
#    y 0.000000 3.420110 0.000000 
#    z 0.109040 0.000000 3.439450 
# 
# 
# High freq. dielectric constant tensor:
#      x y z
#    x 1.720510 0.000000 -0.003490 
#    y 0.000000 1.719370 0.000000 
#    z -0.003490 0.000000 1.722160 
# 
# From -- ./inp_files/182305.got.cif
#   From: 2010.06.25/outbox.cif.g09.slc.cpg/sg15_92_cif.got.tgz:182305.got - 2010.06.28 07:06:18.
