data_PCOD8135054
_publ_section_title
;
Structure prediction by ZEFSAII (Michael W. Deem and Ramdas Pophale) SiO2 
 PCOD8135054
Probable space group: C 2/C
;
_chemical_formula_sum "Si O2"
_cell_formula_units_Z 60
_cell_length_a 8.750639
_cell_length_b 25.888093
_cell_length_c 13.690879
_cell_angle_alpha 90.000000
_cell_angle_beta 84.901917
_cell_angle_gamma 90.000000
_cell_volume 3089.226138
_symmetry_space_group_name_H-M "C 2/C"
_symmetry_group_IT_number 15
_symmetry_cell_setting 'monoclinic'
loop_
_space_group_symop_operation_xyz
x,y,z
-x,y,1/2-z
-x,-y,-z
x,-y,1/2+z
1/2+x,1/2+y,z
1/2-x,1/2+y,1/2-z
1/2-x,1/2-y,-z
1/2+x,1/2-y,1/2+z
loop_
_atom_site_type_symbol
_atom_site_label
_atom_site_fract_x
_atom_site_fract_y
_atom_site_fract_z
Si Si1 0.695901 0.191151 0.888652
Si Si2 0.832045 0.583191 0.712424
Si Si3 0.155962 0.015829 0.864719
Si Si4 0.410665 0.218588 0.399579
Si Si5 0.809317 0.993080 0.423295
Si Si6 0.500000 0.256144 0.750000
Si Si7 0.785303 0.684489 0.211875
Si Si8 0.334502 0.577995 0.282749
O O1 0.725470 0.135904 0.836273
O O2 0.857254 0.220999 0.901716
O O3 0.583199 0.221578 0.824565
O O4 0.610900 0.188041 0.997831
O O5 0.725920 0.567102 0.810568
O O6 0.819669 0.539758 0.627640
O O7 0.000000 0.588270 0.750000
O O8 0.978222 0.030792 0.892350
O O9 0.191785 0.967423 0.793458
O O10 0.235016 0.997459 0.960813
O O11 0.304008 0.191498 0.326235
O O12 0.587530 0.213865 0.358927
O O13 0.821656 0.052359 0.389275
O O14 0.376348 0.291794 0.813349
O O15 0.792157 0.622635 0.202947
O O16 0.500000 0.603400 0.250000
#
# Coordination Sequence:
#
# PCOD8135054 Si02
#       8
#     8   8   8   8   8   4   8   8
#     4  10  21  42  57  82 121 160 189 252 290 356
#     4  11  22  37  59  90 122 161 192 245 312 354
#     4   9  20  40  60  86 118 155 203 243 290 359
#     4   9  22  39  58  82 117 149 208 234 293 352
#     4   9  20  40  60  85 118 157 202 246 287 365
#     4  10  20  38  62  80 122 144 186 252 298 348
#     4  10  19  37  60  88 107 153 191 244 294 357
#     4   9  17  33  58  82 115 146 187 241 294 349
#
# _framework density 19.422340999999999
#
# number of rings (size 3 to 8) (size 9 to 14) (size 15 to 20)
#    0.000    2.400    1.333    1.200    1.867    2.133 
#   19.200    0.000    0.000    0.000    0.000    0.000 
#    0.000    0.000    0.000    0.000    0.000    0.000 
#
# Total GULP energy -371683.337606 kJ/mol
# GULP energy per Si atom -12389.444587 kJ/mol
# Density = 1.937813 g / cm^3
# Si number density = 19.422341 Si / 1000 Ang^3
#
#
#
# Elastic Constant Matrix: (Units=GPa)
#
#
# Indices 1 2 3 4 5 6 
#
# 1 79.7208 46.9641 36.9248 0.0000 -8.1450 0.0000
# 2 46.9641 106.2585 47.0911 0.0000 -11.0309 0.0000
# 3 36.9248 47.0911 124.5503 0.0000 -7.0241 0.0000
# 4 0.0000 0.0000 0.0000 24.5459 0.0000 -1.1323
# 5 -8.1450 -11.0309 -7.0241 0.0000 22.8874 0.0000
# 6 0.0000 0.0000 0.0000 -1.1323 0.0000 18.8972
#
#
#
# Elastic Compliance Matrix: (Units=1/GPa)
#
#
# Indices 1 2 3 4 5 6 
#
# 1 0.017837 -0.006427 -0.002722 0.000000 0.002415 0.000000
# 2 -0.006427 0.014034 -0.003204 0.000000 0.003494 0.000000
# 3 -0.002722 -0.003204 0.010080 0.000000 0.000581 0.000000
# 4 0.000000 0.000000 0.000000 0.040853 0.000000 0.002448
# 5 0.002415 0.003494 0.000581 0.000000 0.046414 0.000000
# 6 0.000000 0.000000 0.000000 0.002448 0.000000 0.053064
#
#
# Mechanical properties :
#
#
# Convention : Reuss Voigt Hill
#
# Bulk Modulus (GPa) = 57.98394 63.60995 60.79694
# Shear Modulus (GPa) = 23.50330 25.23608 24.36969
#
# Velocity S-wave (km/s) = 3.48245 3.60854 3.54605
# Velocity P-wave (km/s) = 6.78889 7.08407 6.93805
#
# Compressibility (1/GPa) = 0.01724616
#
# Stress axis : x y z
#
# Youngs Moduli (GPa) = 56.06228 71.25556 99.20677
#
# Poissons Ratio (x) = 0.45794 0.27005
# Poissons Ratio (y) = 0.36029 0.31784
# Poissons Ratio (z) = 0.15261 0.22829
#
# Static dielectric constant tensor:
#      x y z
#    x 3.543830 0.000000 0.111660 
#    y 0.000000 3.543290 0.000000 
#    z 0.111660 0.000000 3.666740 
# 
# 
# High freq. dielectric constant tensor:
#      x y z
#    x 1.744270 0.000000 0.007080 
#    y 0.000000 1.750240 0.000000 
#    z 0.007080 0.000000 1.761250 
# 
# From -- ./inp_files/138230.got.cif
#   From: 2010.06.25/outbox.cif.g09.slc.cpg/sg15_70_cif.got.tgz:138230.got - 2010.06.28 07:06:18.
