data_PCOD8135410
_publ_section_title
;
Structure prediction by ZEFSAII (Michael W. Deem and Ramdas Pophale) SiO2 
 PCOD8135410
Probable space group: C 2/C
;
_chemical_formula_sum "Si O2"
_cell_formula_units_Z 44
_cell_length_a 18.995248
_cell_length_b 8.728703
_cell_length_c 14.236241
_cell_angle_alpha 90.000000
_cell_angle_beta 114.312799
_cell_angle_gamma 90.000000
_cell_volume 2151.081101
_symmetry_space_group_name_H-M "C 2/C"
_symmetry_group_IT_number 15
_symmetry_cell_setting 'monoclinic'
loop_
_space_group_symop_operation_xyz
x,y,z
-x,y,1/2-z
-x,-y,-z
x,-y,1/2+z
1/2+x,1/2+y,z
1/2-x,1/2+y,1/2-z
1/2-x,1/2-y,-z
1/2+x,1/2-y,1/2+z
loop_
_atom_site_type_symbol
_atom_site_label
_atom_site_fract_x
_atom_site_fract_y
_atom_site_fract_z
Si Si1 0.840044 0.348488 0.836265
Si Si2 0.591931 0.344898 0.496780
Si Si3 0.383388 0.643992 0.701683
Si Si4 0.779391 0.669586 0.827394
Si Si5 0.000000 0.110593 0.250000
Si Si6 0.444391 0.304640 0.527722
O O1 0.896067 0.280884 0.784531
O O2 0.831753 0.530356 0.819119
O O3 0.756249 0.264921 0.780172
O O4 0.877689 0.313385 0.958719
O O5 0.587754 0.302435 0.384509
O O6 0.671814 0.285627 0.582927
O O7 0.520528 0.265743 0.509806
O O8 0.588593 0.526693 0.510214
O O9 0.291852 0.601899 0.649053
O O10 0.433752 0.496316 0.761330
O O11 0.963502 0.216585 0.148663
#
# Coordination Sequence:
#
# PCOD8135410 Si02
#       6
#     8   8   8   8   4   8
#     4  10  21  37  57  91 118 160 195 243 298 344
#     4  10  19  38  62  84 117 157 193 245 287 360
#     4   9  20  34  61  87 115 157 197 234 295 362
#     4  10  22  36  60  87 126 152 197 244 292 352
#     4  10  20  38  60  90 114 154 206 244 290 362
#     4  10  21  36  65  86 116 158 197 242 295 352
#
# _framework density 20.454829
#
# number of rings (size 3 to 8) (size 9 to 14) (size 15 to 20)
#    1.091    1.091    0.000    4.909    2.545    0.727 
#    0.000    5.455    0.000    1.091    0.000    0.000 
#    0.000    0.000    0.000    0.000    0.000    0.000 
#
# Total GULP energy -272670.229760 kJ/mol
# GULP energy per Si atom -12394.101353 kJ/mol
# Density = 2.040827 g / cm^3
# Si number density = 20.454829 Si / 1000 Ang^3
#
#
#
# Elastic Constant Matrix: (Units=GPa)
#
#
# Indices 1 2 3 4 5 6 
#
# 1 61.1312 15.3104 25.3537 0.0000 -1.2700 0.0000
# 2 15.3104 43.9356 36.2676 0.0000 6.1209 0.0000
# 3 25.3537 36.2676 147.3448 0.0000 11.0420 0.0000
# 4 0.0000 0.0000 0.0000 29.4977 0.0000 7.5841
# 5 -1.2700 6.1209 11.0420 0.0000 34.9913 0.0000
# 6 0.0000 0.0000 0.0000 7.5841 0.0000 15.0491
#
#
#
# Elastic Compliance Matrix: (Units=1/GPa)
#
#
# Indices 1 2 3 4 5 6 
#
# 1 0.018541 -0.005019 -0.002121 0.000000 0.002220 0.000000
# 2 -0.005019 0.030202 -0.006310 0.000000 -0.003474 0.000000
# 3 -0.002121 -0.006310 0.008837 0.000000 -0.001762 0.000000
# 4 0.000000 0.000000 0.000000 0.038947 0.000000 -0.019628
# 5 0.002220 -0.003474 -0.001762 0.000000 0.029823 0.000000
# 6 0.000000 0.000000 0.000000 -0.019628 0.000000 0.076341
#
#
# Mechanical properties :
#
#
# Convention : Reuss Voigt Hill
#
# Bulk Modulus (GPa) = 32.59525 45.14165 38.86845
# Shear Modulus (GPa) = 20.84900 27.60627 24.22764
#
# Velocity S-wave (km/s) = 3.19606 3.67770 3.44531
# Velocity P-wave (km/s) = 5.43963 6.33647 5.90510
#
# Compressibility (1/GPa) = 0.03067931
#
# Stress axis : x y z
#
# Youngs Moduli (GPa) = 53.93367 33.10989 113.16044
#
# Poissons Ratio (x) = 0.16619 0.24005
# Poissons Ratio (y) = 0.27071 0.71404
# Poissons Ratio (z) = 0.11441 0.20892
#
# Static dielectric constant tensor:
#      x y z
#    x 3.646260 0.000000 0.185470 
#    y 0.000000 3.242800 0.000000 
#    z 0.185470 0.000000 3.744020 
# 
# 
# High freq. dielectric constant tensor:
#      x y z
#    x 1.788230 0.000000 0.018260 
#    y 0.000000 1.760790 0.000000 
#    z 0.018260 0.000000 1.810140 
# 
# From -- ./inp_files/166461.got.cif
#   From: 2010.06.25/outbox.cif.g09.slc.cpg/sg15_84_cif.got.tgz:166461.got - 2010.06.28 07:06:18.
