data_PCOD8135439
_publ_section_title
;
Structure prediction by ZEFSAII (Michael W. Deem and Ramdas Pophale) SiO2 
 PCOD8135439
Probable space group: C 2/C
;
_chemical_formula_sum "Si O2"
_cell_formula_units_Z 48
_cell_length_a 14.842258
_cell_length_b 8.788743
_cell_length_c 26.489012
_cell_angle_alpha 90.000000
_cell_angle_beta 42.115034
_cell_angle_gamma 90.000000
_cell_volume 2317.233696
_symmetry_space_group_name_H-M "C 2/C"
_symmetry_group_IT_number 15
_symmetry_cell_setting 'monoclinic'
loop_
_space_group_symop_operation_xyz
x,y,z
-x,y,1/2-z
-x,-y,-z
x,-y,1/2+z
1/2+x,1/2+y,z
1/2-x,1/2+y,1/2-z
1/2-x,1/2-y,-z
1/2+x,1/2-y,1/2+z
loop_
_atom_site_type_symbol
_atom_site_label
_atom_site_fract_x
_atom_site_fract_y
_atom_site_fract_z
Si Si1 0.188473 0.141498 0.424972
Si Si2 0.034017 0.051988 0.907946
Si Si3 0.969762 0.764746 0.643428
Si Si4 0.602734 0.062734 0.916151
Si Si5 0.175365 0.666390 0.305725
Si Si6 0.965912 0.500163 0.822108
O O1 0.204633 0.315695 0.399307
O O2 0.328169 0.087134 0.390556
O O3 0.079083 0.141626 0.514723
O O4 0.141822 0.029616 0.399678
O O5 0.112240 0.168992 0.840467
O O6 0.963685 0.925039 0.900884
O O7 0.981982 0.652394 0.590649
O O8 0.818605 0.804930 0.721994
O O9 0.047461 0.679005 0.656569
O O10 0.684954 0.925960 0.854927
O O11 0.500000 0.000000 0.000000
O O12 0.087207 0.573174 0.302626
O O13 0.000000 0.488284 0.750000
#
# Coordination Sequence:
#
# PCOD8135439 Si02
#       6
#     8   8   8   8   8   8
#     4  10  21  38  63  90 126 158 209 256 319 382
#     4  10  20  38  61  89 120 168 205 254 318 385
#     4  10  22  38  60  88 123 167 213 251 322 382
#     4  10  19  38  62  95 120 165 207 251 317 383
#     4  11  21  39  66  89 125 165 214 263 319 390
#     4  11  23  40  60  88 123 163 210 270 318 374
#
# _framework density 20.714354
#
# number of rings (size 3 to 8) (size 9 to 14) (size 15 to 20)
#    0.000    1.667    1.667    5.000    0.000    1.333 
#    0.000    4.167    0.000    0.000    0.000    0.000 
#    0.000    0.000    0.000    0.000    0.000    0.000 
#
# Total GULP energy -297561.371211 kJ/mol
# GULP energy per Si atom -12398.390467 kJ/mol
# Density = 2.066721 g / cm^3
# Si number density = 20.714354 Si / 1000 Ang^3
#
#
#
# Elastic Constant Matrix: (Units=GPa)
#
#
# Indices 1 2 3 4 5 6 
#
# 1 69.9132 34.0037 37.9326 -0.0001 -2.7859 -0.0004
# 2 34.0037 118.4678 27.7114 -0.0002 10.8369 -0.0007
# 3 37.9326 27.7114 89.1011 0.0000 20.6447 -0.0001
# 4 -0.0001 -0.0002 0.0000 39.0979 0.0000 11.4889
# 5 -2.7859 10.8369 20.6447 0.0000 26.6563 -0.0001
# 6 -0.0004 -0.0007 -0.0001 11.4889 -0.0001 36.6027
#
#
#
# Elastic Compliance Matrix: (Units=1/GPa)
#
#
# Indices 1 2 3 4 5 6 
#
# 1 0.023747 -0.005349 -0.011608 0.000000 0.013647 0.000000
# 2 -0.005349 0.010383 0.000190 0.000000 -0.004927 0.000000
# 3 -0.011608 0.000190 0.019993 0.000000 -0.016774 0.000000
# 4 0.000000 0.000000 0.000000 0.028176 0.000000 -0.008844
# 5 0.013647 -0.004927 -0.016774 0.000000 0.053935 0.000000
# 6 0.000000 0.000000 0.000000 -0.008844 0.000000 0.030096
#
#
# Mechanical properties :
#
#
# Convention : Reuss Voigt Hill
#
# Bulk Modulus (GPa) = 48.57310 52.97527 50.77419
# Shear Modulus (GPa) = 24.18649 32.32700 28.25675
#
# Velocity S-wave (km/s) = 3.42075 3.95474 3.69740
# Velocity P-wave (km/s) = 6.25316 6.81784 6.54160
#
# Compressibility (1/GPa) = 0.02058753
#
# Stress axis : x y z
#
# Youngs Moduli (GPa) = 42.11046 96.31305 50.01850
#
# Poissons Ratio (x) = 0.51519 0.58062
# Poissons Ratio (y) = 0.22526 -0.00949
# Poissons Ratio (z) = 0.48882 -0.01827
#
# Static dielectric constant tensor:
#      x y z
#    x 3.750980 0.000000 0.259230 
#    y 0.000000 4.228700 0.000000 
#    z 0.259230 0.000000 3.806210 
# 
# 
# High freq. dielectric constant tensor:
#      x y z
#    x 1.774080 0.000000 0.026520 
#    y 0.000000 1.831330 0.000000 
#    z 0.026520 0.000000 1.821560 
# 
# From -- ./inp_files/202978.got.cif
#   From: 2010.06.25/outbox.cif.g09.slc.cpg/sg15_102_cif.got.tgz:202978.got - 2010.06.28 07:06:18.
