data_PCOD8135453
_publ_section_title
;
Structure prediction by ZEFSAII (Michael W. Deem and Ramdas Pophale) SiO2 
 PCOD8135453
Probable space group: C 2/C
;
_chemical_formula_sum "Si O2"
_cell_formula_units_Z 60
_cell_length_a 11.037694
_cell_length_b 25.198720
_cell_length_c 11.284259
_cell_angle_alpha 90.000000
_cell_angle_beta 103.818635
_cell_angle_gamma 90.000000
_cell_volume 3047.715628
_symmetry_space_group_name_H-M "C 2/C"
_symmetry_group_IT_number 15
_symmetry_cell_setting 'monoclinic'
loop_
_space_group_symop_operation_xyz
x,y,z
-x,y,1/2-z
-x,-y,-z
x,-y,1/2+z
1/2+x,1/2+y,z
1/2-x,1/2+y,1/2-z
1/2-x,1/2-y,-z
1/2+x,1/2-y,1/2+z
loop_
_atom_site_type_symbol
_atom_site_label
_atom_site_fract_x
_atom_site_fract_y
_atom_site_fract_z
Si Si1 0.500000 0.264895 0.750000
Si Si2 0.929587 0.507672 0.108969
Si Si3 0.738666 0.804550 0.330203
Si Si4 0.525800 0.327446 0.981249
Si Si5 0.493995 0.559251 0.948550
Si Si6 0.802944 0.799603 0.082843
Si Si7 0.272754 0.925096 0.194730
Si Si8 0.267889 0.914665 0.449429
O O1 0.383151 0.230802 0.677896
O O2 0.462654 0.302394 0.850514
O O3 0.159478 0.457162 0.393330
O O4 0.000000 0.516972 0.250000
O O5 0.000000 0.500000 0.000000
O O6 0.842021 0.559467 0.075511
O O7 0.838586 0.801185 0.461064
O O8 0.804407 0.787500 0.222815
O O9 0.692713 0.864592 0.318819
O O10 0.528705 0.391808 0.963189
O O11 0.442639 0.312818 0.075507
O O12 0.375275 0.563238 0.834282
O O13 0.622601 0.569974 0.912348
O O14 0.500000 0.500000 0.000000
O O15 0.715610 0.851135 0.037740
O O16 0.750000 0.750000 0.000000
O O17 0.324328 0.938207 0.338880
#
# Coordination Sequence:
#
# PCOD8135453 Si02
#       8
#     4   8   8   8   8   8   8   8
#     4  12  22  38  60  88 128 158 196 256 312 364
#     4  12  24  40  61  88 133 170 209 256 308 369
#     4  10  22  38  65  87 118 163 212 245 305 377
#     4  10  22  39  59  93 122 154 204 257 306 366
#     4  10  19  38  63  89 118 156 204 254 316 365
#     4  10  19  40  67  86 117 161 203 257 307 360
#     4  10  21  39  62  90 118 164 211 255 303 377
#     4  10  21  38  64  92 120 157 211 255 309 372
#
# _framework density 19.686876000000002
#
# number of rings (size 3 to 8) (size 9 to 14) (size 15 to 20)
#    0.000    1.600    4.000    1.200    0.933    3.200 
#    2.400    6.667    0.000    0.000    0.000    0.000 
#    0.000    0.000    0.000    0.000    0.000    0.000 
#
# Total GULP energy -371695.195388 kJ/mol
# GULP energy per Si atom -12389.839846 kJ/mol
# Density = 1.964207 g / cm^3
# Si number density = 19.686876 Si / 1000 Ang^3
#
#
#
# Elastic Constant Matrix: (Units=GPa)
#
#
# Indices 1 2 3 4 5 6 
#
# 1 82.8090 33.8990 37.1662 0.0000 -0.8494 0.0000
# 2 33.8990 127.9685 51.7539 0.0000 4.9731 0.0000
# 3 37.1662 51.7539 99.9272 0.0000 1.4131 0.0000
# 4 0.0000 0.0000 0.0000 29.1971 0.0000 4.4314
# 5 -0.8494 4.9731 1.4131 0.0000 30.1896 0.0000
# 6 0.0000 0.0000 0.0000 4.4314 0.0000 25.6300
#
#
#
# Elastic Compliance Matrix: (Units=1/GPa)
#
#
# Indices 1 2 3 4 5 6 
#
# 1 0.014985 -0.002212 -0.004442 0.000000 0.000994 0.000000
# 2 -0.002212 0.010270 -0.004475 0.000000 -0.001545 0.000000
# 3 -0.004442 -0.004475 0.013977 0.000000 -0.000042 0.000000
# 4 0.000000 0.000000 0.000000 0.035173 0.000000 -0.006081
# 5 0.000994 -0.001545 -0.000042 0.000000 0.033408 0.000000
# 6 0.000000 0.000000 0.000000 -0.006081 0.000000 0.040068
#
#
# Mechanical properties :
#
#
# Convention : Reuss Voigt Hill
#
# Bulk Modulus (GPa) = 58.90664 61.81591 60.36128
# Shear Modulus (GPa) = 28.44181 29.52905 28.98543
#
# Velocity S-wave (km/s) = 3.80506 3.87710 3.84125
# Velocity P-wave (km/s) = 7.02078 7.17707 7.09935
#
# Compressibility (1/GPa) = 0.01697601
#
# Stress axis : x y z
#
# Youngs Moduli (GPa) = 66.73218 97.37136 71.54379
#
# Poissons Ratio (x) = 0.21536 0.31780
# Poissons Ratio (y) = 0.14760 0.32012
# Poissons Ratio (z) = 0.29643 0.43569
#
# Static dielectric constant tensor:
#      x y z
#    x 3.552070 0.000000 0.065500 
#    y 0.000000 3.780820 0.000000 
#    z 0.065500 0.000000 3.525650 
# 
# 
# High freq. dielectric constant tensor:
#      x y z
#    x 1.767320 0.000000 0.003300 
#    y 0.000000 1.772970 0.000000 
#    z 0.003300 0.000000 1.756680 
# 
# From -- ./inp_files/90870.got.cif
#   From: 2010.06.25/outbox.cif.g09.slc.cpg/sg15_46_cif.got.tgz:90870.got - 2010.06.28 07:06:18.
