data_PCOD8135117
_publ_section_title
;
Structure prediction by ZEFSAII (Michael W. Deem and Ramdas Pophale) SiO2 
 PCOD8135117
Probable space group: C 2/C
;
_chemical_formula_sum "Si O2"
_cell_formula_units_Z 48
_cell_length_a 13.906020
_cell_length_b 22.049488
_cell_length_c 11.812620
_cell_angle_alpha 90.000000
_cell_angle_beta 43.792730
_cell_angle_gamma 90.000000
_cell_volume 2506.605923
_symmetry_space_group_name_H-M "C 2/C"
_symmetry_group_IT_number 15
_symmetry_cell_setting 'monoclinic'
loop_
_space_group_symop_operation_xyz
x,y,z
-x,y,1/2-z
-x,-y,-z
x,-y,1/2+z
1/2+x,1/2+y,z
1/2-x,1/2+y,1/2-z
1/2-x,1/2-y,-z
1/2+x,1/2-y,1/2+z
loop_
_atom_site_type_symbol
_atom_site_label
_atom_site_fract_x
_atom_site_fract_y
_atom_site_fract_z
Si Si1 0.738310 0.771518 0.880475
Si Si2 0.144081 0.896502 0.689491
Si Si3 0.203194 0.511133 0.317464
Si Si4 0.541174 0.919514 0.585034
Si Si5 0.065357 0.319917 0.397322
Si Si6 0.364355 0.071925 0.818200
O O1 0.835202 0.830297 0.775269
O O2 0.801095 0.722257 0.740448
O O3 0.750000 0.750000 0.000000
O O4 0.577574 0.781954 0.986209
O O5 0.158697 0.950019 0.770821
O O6 0.269234 0.903979 0.496944
O O7 0.000000 0.903266 0.750000
O O8 0.164853 0.468553 0.458659
O O9 0.228039 0.469290 0.186694
O O10 0.083114 0.559597 0.392150
O O11 0.500000 0.913627 0.750000
O O12 0.584120 0.852336 0.503984
O O13 0.063412 0.371505 0.303949
O O14 0.500000 0.034144 0.750000
#
# Coordination Sequence:
#
# PCOD8135117 Si02
#       6
#     8   8   8   8   8   8
#     4  12  21  37  58  87 117 151 191 244 292 343
#     4  12  23  35  55  88 122 152 185 238 303 344
#     4  10  20  34  59  87 115 150 197 240 282 351
#     4  10  19  37  62  88 114 153 200 243 286 341
#     4  11  22  36  59  88 117 148 196 243 291 348
#     4  11  19  37  59  86 114 150 196 237 287 349
#
# _framework density 19.1494
#
# number of rings (size 3 to 8) (size 9 to 14) (size 15 to 20)
#    0.000    1.000    5.000    5.000    0.000    0.667 
#    0.000    0.833    0.000    0.000    0.000    0.000 
#    0.000    0.000    0.000    0.000    0.000    0.000 
#
# Total GULP energy -297518.629824 kJ/mol
# GULP energy per Si atom -12396.609576 kJ/mol
# Density = 1.910582 g / cm^3
# Si number density = 19.149400 Si / 1000 Ang^3
#
#
#
# Elastic Constant Matrix: (Units=GPa)
#
#
# Indices 1 2 3 4 5 6 
#
# 1 59.6111 39.6812 35.7506 -0.0001 0.1922 0.0000
# 2 39.6812 111.1335 39.1034 0.0000 5.7096 0.0000
# 3 35.7506 39.1034 63.0691 -0.0002 11.0181 0.0001
# 4 -0.0001 0.0000 -0.0002 31.8504 0.0001 -3.4670
# 5 0.1922 5.7096 11.0181 0.0001 39.5339 -0.0001
# 6 0.0000 0.0000 0.0001 -3.4670 -0.0001 27.2607
#
#
#
# Elastic Compliance Matrix: (Units=1/GPa)
#
#
# Indices 1 2 3 4 5 6 
#
# 1 0.028644 -0.005717 -0.013468 0.000000 0.004440 0.000000
# 2 -0.005717 0.012654 -0.004510 0.000000 -0.000543 0.000000
# 3 -0.013468 -0.004510 0.027500 0.000000 -0.006947 0.000000
# 4 0.000000 0.000000 0.000000 0.031838 0.000000 0.004049
# 5 0.004440 -0.000543 -0.006947 0.000000 0.027288 0.000000
# 6 0.000000 0.000000 0.000000 0.004049 0.000000 0.037198
#
#
# Mechanical properties :
#
#
# Convention : Reuss Voigt Hill
#
# Bulk Modulus (GPa) = 46.71153 51.43155 49.07154
# Shear Modulus (GPa) = 22.76380 27.68090 25.22235
#
# Velocity S-wave (km/s) = 3.45156 3.80613 3.63317
# Velocity P-wave (km/s) = 6.35063 6.79940 6.57884
#
# Compressibility (1/GPa) = 0.02140799
#
# Stress axis : x y z
#
# Youngs Moduli (GPa) = 34.91187 79.02423 36.36363
#
# Poissons Ratio (x) = 0.45177 0.48974
# Poissons Ratio (y) = 0.19958 0.16402
# Poissons Ratio (z) = 0.47018 0.35643
#
# Static dielectric constant tensor:
#      x y z
#    x 3.763640 0.000000 -0.136510 
#    y 0.000000 3.846440 0.000000 
#    z -0.136510 0.000000 3.609720 
# 
# 
# High freq. dielectric constant tensor:
#      x y z
#    x 1.715370 0.000000 0.006720 
#    y 0.000000 1.759170 0.000000 
#    z 0.006720 0.000000 1.732040 
# 
# From -- ./inp_files/90620.got.cif
#   From: 2010.06.25/outbox.cif.g09.slc.cpg/sg15_46_cif.got.tgz:90620.got - 2010.06.28 07:06:18.
