data_PCOD8135868
_publ_section_title
;
Structure prediction by ZEFSAII (Michael W. Deem and Ramdas Pophale) SiO2 
 PCOD8135868
Probable space group: C 2/C
;
_chemical_formula_sum "Si O2"
_cell_formula_units_Z 48
_cell_length_a 14.396661
_cell_length_b 11.824933
_cell_length_c 22.360780
_cell_angle_alpha 90.000000
_cell_angle_beta 143.114974
_cell_angle_gamma 90.000000
_cell_volume 2284.817512
_symmetry_space_group_name_H-M "C 2/C"
_symmetry_group_IT_number 15
_symmetry_cell_setting 'monoclinic'
loop_
_space_group_symop_operation_xyz
x,y,z
-x,y,1/2-z
-x,-y,-z
x,-y,1/2+z
1/2+x,1/2+y,z
1/2-x,1/2+y,1/2-z
1/2-x,1/2-y,-z
1/2+x,1/2-y,1/2+z
loop_
_atom_site_type_symbol
_atom_site_label
_atom_site_fract_x
_atom_site_fract_y
_atom_site_fract_z
Si Si1 0.623890 0.338380 0.670382
Si Si2 0.682801 0.130550 0.345088
Si Si3 0.961901 0.613136 0.561969
Si Si4 0.335954 0.375707 0.135004
Si Si5 0.814962 0.977829 0.511280
Si Si6 0.170469 0.434760 0.624742
O O1 0.754123 0.370802 0.689790
O O2 0.583170 0.205772 0.647955
O O3 0.469668 0.408337 0.579106
O O4 0.695857 0.366186 0.772518
O O5 0.500000 0.110637 0.250000
O O6 0.731658 0.248845 0.401393
O O7 0.761778 0.028414 0.421078
O O8 0.815331 0.607430 0.530637
O O9 0.905766 0.645707 0.465308
O O10 0.042513 0.488063 0.603807
O O11 0.500000 0.368852 0.250000
O O12 0.349864 0.420950 0.075076
O O13 0.231077 0.455863 0.120858
#
# Coordination Sequence:
#
# PCOD8135868 Si02
#       6
#     8   8   8   8   8   8
#     4  12  23  43  68  98 127 170 217 262 324 386
#     4  11  24  42  61  98 131 166 211 266 325 371
#     4  10  23  43  65  98 128 172 216 259 327 378
#     4  10  19  40  67  90 119 172 221 248 311 384
#     4  11  23  41  65  94 133 164 212 274 309 382
#     4  10  21  43  68  91 132 170 213 267 313 389
#
# _framework density 21.008243
#
# number of rings (size 3 to 8) (size 9 to 14) (size 15 to 20)
#    0.000    1.333    3.333    2.500    0.000    0.000 
#   15.000    0.000    0.000    0.000    0.000    0.000 
#    0.000    0.000    0.000    0.000    0.000    0.000 
#
# Total GULP energy -297643.039126 kJ/mol
# GULP energy per Si atom -12401.793297 kJ/mol
# Density = 2.096043 g / cm^3
# Si number density = 21.008243 Si / 1000 Ang^3
#
#
#
# Elastic Constant Matrix: (Units=GPa)
#
#
# Indices 1 2 3 4 5 6 
#
# 1 87.1690 16.4487 13.1287 0.0000 18.5889 0.0000
# 2 16.4487 72.1657 48.8344 0.0000 -2.6521 0.0000
# 3 13.1287 48.8344 106.8738 0.0002 3.4659 0.0001
# 4 0.0000 0.0000 0.0002 37.0438 0.0001 1.3582
# 5 18.5889 -2.6521 3.4659 0.0001 28.5598 0.0000
# 6 0.0000 0.0000 0.0001 1.3582 0.0000 27.3395
#
#
#
# Elastic Compliance Matrix: (Units=1/GPa)
#
#
# Indices 1 2 3 4 5 6 
#
# 1 0.014196 -0.003794 0.000302 0.000000 -0.009629 0.000000
# 2 -0.003794 0.021331 -0.009462 0.000000 0.005598 0.000000
# 3 0.000302 -0.009462 0.013732 0.000000 -0.002742 0.000000
# 4 0.000000 0.000000 0.000000 0.027044 0.000000 -0.001344
# 5 -0.009629 0.005598 -0.002742 0.000000 0.042134 0.000000
# 6 0.000000 0.000000 0.000000 -0.001344 0.000000 0.036644
#
#
# Mechanical properties :
#
#
# Convention : Reuss Voigt Hill
#
# Bulk Modulus (GPa) = 42.82585 47.00356 44.91471
# Shear Modulus (GPa) = 26.48697 31.10840 28.79768
#
# Velocity S-wave (km/s) = 3.55461 3.85225 3.70642
# Velocity P-wave (km/s) = 6.10545 6.49684 6.30418
#
# Compressibility (1/GPa) = 0.02335038
#
# Stress axis : x y z
#
# Youngs Moduli (GPa) = 70.44392 46.88117 72.82124
#
# Poissons Ratio (x) = 0.17786 -0.02199
# Poissons Ratio (y) = 0.26725 0.68905
# Poissons Ratio (z) = -0.02127 0.44360
#
# Static dielectric constant tensor:
#      x y z
#    x 3.793960 0.000000 -0.009980 
#    y 0.000000 3.789200 0.000000 
#    z -0.009980 0.000000 3.416160 
# 
# 
# High freq. dielectric constant tensor:
#      x y z
#    x 1.830280 0.000000 0.012110 
#    y 0.000000 1.810180 0.000000 
#    z 0.012110 0.000000 1.827600 
# 
# From -- ./inp_files/152187.got.cif
#   From: 2010.06.25/outbox.cif.g09.slc.cpg/sg15_77_cif.got.tgz:152187.got - 2010.06.28 07:06:18.
