data_PCOD8135172
_publ_section_title
;
Structure prediction by ZEFSAII (Michael W. Deem and Ramdas Pophale) SiO2 
 PCOD8135172
Probable space group: C 2/C
;
_chemical_formula_sum "Si O2"
_cell_formula_units_Z 60
_cell_length_a 8.318974
_cell_length_b 17.112355
_cell_length_c 22.170778
_cell_angle_alpha 90.000000
_cell_angle_beta 72.284903
_cell_angle_gamma 90.000000
_cell_volume 3006.509292
_symmetry_space_group_name_H-M "C 2/C"
_symmetry_group_IT_number 15
_symmetry_cell_setting 'monoclinic'
loop_
_space_group_symop_operation_xyz
x,y,z
-x,y,1/2-z
-x,-y,-z
x,-y,1/2+z
1/2+x,1/2+y,z
1/2-x,1/2+y,1/2-z
1/2-x,1/2-y,-z
1/2+x,1/2-y,1/2+z
loop_
_atom_site_type_symbol
_atom_site_label
_atom_site_fract_x
_atom_site_fract_y
_atom_site_fract_z
Si Si1 0.828650 0.195219 0.868996
Si Si2 0.759056 0.929849 0.074581
Si Si3 0.489159 0.831828 0.463837
Si Si4 0.000000 0.092359 0.750000
Si Si5 0.797526 0.483421 0.287149
Si Si6 0.048719 0.175226 0.518181
Si Si7 0.630730 0.854932 0.684653
Si Si8 0.620753 0.094004 0.058785
O O1 0.661605 0.149668 0.907994
O O2 0.944232 0.143959 0.812507
O O3 0.770318 0.275872 0.843206
O O4 0.938482 0.212478 0.916415
O O5 0.656587 0.853532 0.065607
O O6 0.744870 0.935362 0.148040
O O7 0.948199 0.907053 0.032559
O O8 0.693322 0.006290 0.047459
O O9 0.466668 0.741242 0.484830
O O10 0.482389 0.890101 0.522849
O O11 0.832164 0.043004 0.750411
O O12 0.752594 0.575212 0.302935
O O13 0.000000 0.474112 0.250000
O O14 0.230905 0.156819 0.469710
O O15 0.500000 0.829303 0.750000
O O16 0.541848 0.889726 0.634037
#
# Coordination Sequence:
#
# PCOD8135172 Si02
#       8
#     8   8   8   4   8   8   8   8
#     4  11  20  36  63  86 113 162 203 243 300 372
#     4  11  22  36  57  88 123 152 197 254 304 353
#     4  11  21  36  58  88 121 153 201 246 306 358
#     4  12  22  40  70  86 120 160 212 248 308 362
#     4  10  23  41  63  89 124 159 205 258 305 360
#     4  11  20  37  58  88 116 157 199 241 300 362
#     4  10  19  37  64  83 115 160 198 244 304 358
#     4  10  20  37  59  82 118 158 196 240 301 368
#
# _framework density 19.956697999999999
#
# number of rings (size 3 to 8) (size 9 to 14) (size 15 to 20)
#    0.000    1.333    4.667    2.800    0.000    0.000 
#    0.000    0.000   10.267    0.000    0.000    0.000 
#    0.000    0.000    0.000    0.000    0.000    0.000 
#
# Total GULP energy -371780.079261 kJ/mol
# GULP energy per Si atom -12392.669309 kJ/mol
# Density = 1.991128 g / cm^3
# Si number density = 19.956698 Si / 1000 Ang^3
#
#
#
# Elastic Constant Matrix: (Units=GPa)
#
#
# Indices 1 2 3 4 5 6 
#
# 1 66.0442 20.3846 15.2959 0.0000 8.2152 0.0000
# 2 20.3846 92.8822 28.2185 0.0000 10.6416 0.0000
# 3 15.2959 28.2185 95.0599 0.0000 -0.8467 0.0000
# 4 0.0000 0.0000 0.0000 26.9471 0.0000 2.4323
# 5 8.2152 10.6416 -0.8467 0.0000 21.3061 0.0000
# 6 0.0000 0.0000 0.0000 2.4323 0.0000 24.0842
#
#
#
# Elastic Compliance Matrix: (Units=1/GPa)
#
#
# Indices 1 2 3 4 5 6 
#
# 1 0.017061 -0.002501 -0.002051 0.000000 -0.005411 0.000000
# 2 -0.002501 0.013035 -0.003518 0.000000 -0.005686 0.000000
# 3 -0.002051 -0.003518 0.011921 0.000000 0.003021 0.000000
# 4 0.000000 0.000000 0.000000 0.037451 0.000000 -0.003782
# 5 -0.005411 -0.005686 0.003021 0.000000 0.051981 0.000000
# 6 0.000000 0.000000 0.000000 -0.003782 0.000000 0.041903
#
#
# Mechanical properties :
#
#
# Convention : Reuss Voigt Hill
#
# Bulk Modulus (GPa) = 38.64349 42.42046 40.53197
# Shear Modulus (GPa) = 25.23734 27.13997 26.18865
#
# Velocity S-wave (km/s) = 3.55999 3.69174 3.62646
# Velocity P-wave (km/s) = 6.02526 6.28286 6.15541
#
# Compressibility (1/GPa) = 0.02587758
#
# Stress axis : x y z
#
# Youngs Moduli (GPa) = 58.61156 76.71372 83.88664
#
# Poissons Ratio (x) = 0.19189 0.17205
# Poissons Ratio (y) = 0.14661 0.29509
# Poissons Ratio (z) = 0.12021 0.26986
#
# Static dielectric constant tensor:
#      x y z
#    x 3.368350 0.000000 0.062160 
#    y 0.000000 3.673910 0.000000 
#    z 0.062160 0.000000 3.828270 
# 
# 
# High freq. dielectric constant tensor:
#      x y z
#    x 1.740950 0.000000 0.003430 
#    y 0.000000 1.788540 0.000000 
#    z 0.003430 0.000000 1.794120 
# 
# From -- ./inp_files/232651.got.cif
#   From: 2010.06.25/outbox.cif.g09.slc.cpg/sg15_117_cif.got.tgz:232651.got - 2010.06.28 07:06:18.
