data_PCOD8135792
_publ_section_title
;
Structure prediction by ZEFSAII (Michael W. Deem and Ramdas Pophale) SiO2 
 PCOD8135792
Probable space group: C 2/C
;
_chemical_formula_sum "Si O2"
_cell_formula_units_Z 56
_cell_length_a 12.083457
_cell_length_b 27.487718
_cell_length_c 13.382571
_cell_angle_alpha 90.000000
_cell_angle_beta 42.238593
_cell_angle_gamma 90.000000
_cell_volume 2987.999369
_symmetry_space_group_name_H-M "C 2/C"
_symmetry_group_IT_number 15
_symmetry_cell_setting 'monoclinic'
loop_
_space_group_symop_operation_xyz
x,y,z
-x,y,1/2-z
-x,-y,-z
x,-y,1/2+z
1/2+x,1/2+y,z
1/2-x,1/2+y,1/2-z
1/2-x,1/2-y,-z
1/2+x,1/2-y,1/2+z
loop_
_atom_site_type_symbol
_atom_site_label
_atom_site_fract_x
_atom_site_fract_y
_atom_site_fract_z
Si Si1 0.180268 0.402347 0.098787
Si Si2 0.820023 0.806072 0.089020
Si Si3 0.306172 0.209797 0.384761
Si Si4 0.165235 0.888089 0.700499
Si Si5 0.471307 0.360359 0.387417
Si Si6 0.161667 0.215058 0.275441
Si Si7 0.491725 0.556659 0.488242
O O1 0.210201 0.346427 0.108390
O O2 0.000000 0.419721 0.250000
O O3 0.200105 0.410191 0.965703
O O4 0.308441 0.435628 0.071262
O O5 0.703202 0.759225 0.174308
O O6 0.896349 0.825989 0.143075
O O7 0.966580 0.791306 0.916697
O O8 0.500000 0.200198 0.250000
O O9 0.250000 0.250000 0.500000
O O10 0.212975 0.159396 0.470999
O O11 0.249852 0.231200 0.317501
O O12 0.236600 0.836754 0.691619
O O13 0.127398 0.924711 0.817197
O O14 0.000000 0.877288 0.750000
O O15 0.500000 0.361470 0.250000
O O16 0.481095 0.414691 0.425923
O O17 0.500000 0.500000 0.500000
#
# Coordination Sequence:
#
# PCOD8135792 Si02
#       7
#     8   8   8   8   8   8   8
#     4  10  22  40  59  89 121 153 191 244 298 351
#     4  10  21  34  52  84 120 160 204 233 285 351
#     4  11  20  34  53  80 116 164 196 239 296 345
#     4  10  19  40  60  82 121 154 194 241 296 351
#     4  10  20  38  55  85 116 147 202 247 292 362
#     4  11  20  34  53  83 118 163 204 239 279 353
#     4  10  21  43  68  85 110 155 201 247 305 361
#
# _framework density 18.741637000000001
#
# number of rings (size 3 to 8) (size 9 to 14) (size 15 to 20)
#    0.000    1.714    5.714    3.000    2.000    2.857 
#    2.571    1.429    0.000    0.000    0.000    0.000 
#    0.000    0.000    0.000    0.000    0.000    0.000 
#
# Total GULP energy -347111.358972 kJ/mol
# GULP energy per Si atom -12396.834249 kJ/mol
# Density = 1.869898 g / cm^3
# Si number density = 18.741637 Si / 1000 Ang^3
#
#
#
# Elastic Constant Matrix: (Units=GPa)
#
#
# Indices 1 2 3 4 5 6 
#
# 1 44.0492 24.5584 40.6040 0.0000 4.3960 0.0000
# 2 24.5584 145.9383 45.3959 0.0000 2.5521 0.0000
# 3 40.6040 45.3959 128.6134 0.0000 4.5488 0.0000
# 4 0.0000 0.0000 0.0000 23.7468 0.0000 1.2963
# 5 4.3960 2.5521 4.5488 0.0000 26.3610 0.0000
# 6 0.0000 0.0000 0.0000 1.2963 0.0000 12.6007
#
#
#
# Elastic Compliance Matrix: (Units=1/GPa)
#
#
# Indices 1 2 3 4 5 6 
#
# 1 0.033214 -0.002588 -0.009443 0.000000 -0.003659 0.000000
# 2 -0.002588 0.007901 -0.001972 0.000000 0.000007 0.000000
# 3 -0.009443 -0.001972 0.011460 0.000000 -0.000212 0.000000
# 4 0.000000 0.000000 0.000000 0.042349 0.000000 -0.004357
# 5 -0.003659 0.000007 -0.000212 0.000000 0.038581 0.000000
# 6 0.000000 0.000000 0.000000 -0.004357 0.000000 0.079809
#
#
# Mechanical properties :
#
#
# Convention : Reuss Voigt Hill
#
# Bulk Modulus (GPa) = 40.70112 59.96859 50.33486
# Shear Modulus (GPa) = 20.03929 26.41121 23.22525
#
# Velocity S-wave (km/s) = 3.27347 3.75804 3.52409
# Velocity P-wave (km/s) = 6.00430 7.13425 6.59352
#
# Compressibility (1/GPa) = 0.02456935
#
# Stress axis : x y z
#
# Youngs Moduli (GPa) = 30.10742 126.56633 87.25988
#
# Poissons Ratio (x) = 0.32754 0.82401
# Poissons Ratio (y) = 0.07792 0.17208
# Poissons Ratio (z) = 0.28431 0.24959
#
# Static dielectric constant tensor:
#      x y z
#    x 3.489170 0.000000 0.227220 
#    y 0.000000 3.249160 0.000000 
#    z 0.227220 0.000000 3.711520 
# 
# 
# High freq. dielectric constant tensor:
#      x y z
#    x 1.724410 0.000000 0.016310 
#    y 0.000000 1.707940 0.000000 
#    z 0.016310 0.000000 1.731220 
# 
# From -- ./inp_files/149010.got.cif
#   From: 2010.06.25/outbox.cif.g09.slc.cpg/sg15_75_cif.got.tgz:149010.got - 2010.06.28 07:06:18.
