data_PCOD8135219
_publ_section_title
;
Structure prediction by ZEFSAII (Michael W. Deem and Ramdas Pophale) SiO2 
 PCOD8135219
Probable space group: C 2/C
;
_chemical_formula_sum "Si O2"
_cell_formula_units_Z 56
_cell_length_a 13.471705
_cell_length_b 15.110346
_cell_length_c 25.165615
_cell_angle_alpha 90.000000
_cell_angle_beta 149.471484
_cell_angle_gamma 90.000000
_cell_volume 2602.196767
_symmetry_space_group_name_H-M "C 2/C"
_symmetry_group_IT_number 15
_symmetry_cell_setting 'monoclinic'
loop_
_space_group_symop_operation_xyz
x,y,z
-x,y,1/2-z
-x,-y,-z
x,-y,1/2+z
1/2+x,1/2+y,z
1/2-x,1/2+y,1/2-z
1/2-x,1/2-y,-z
1/2+x,1/2-y,1/2+z
loop_
_atom_site_type_symbol
_atom_site_label
_atom_site_fract_x
_atom_site_fract_y
_atom_site_fract_z
Si Si1 0.201086 0.633824 0.324589
Si Si2 0.106022 0.389657 0.564343
Si Si3 0.991357 0.073122 0.886766
Si Si4 0.810958 0.945484 0.127334
Si Si5 0.867942 0.465953 0.807144
Si Si6 0.586314 0.309596 0.053430
Si Si7 0.735097 0.027927 0.915801
O O1 0.192000 0.617529 0.257348
O O2 0.383556 0.692250 0.427057
O O3 0.205037 0.536183 0.352230
O O4 0.000000 0.682778 0.250000
O O5 0.262227 0.448503 0.603320
O O6 0.095592 0.426499 0.618854
O O7 0.176032 0.288433 0.594266
O O8 0.884059 0.398153 0.439081
O O9 0.952023 0.161507 0.903071
O O10 0.152565 0.091073 0.915606
O O11 0.802535 0.038359 0.768851
O O12 0.064535 0.998244 0.961955
O O13 0.000000 0.924615 0.250000
O O14 0.056861 0.519477 0.874190
O O15 0.743715 0.373067 0.097284
#
# Coordination Sequence:
#
# PCOD8135219 Si02
#       7
#     8   8   8   8   8   8   8
#     4   9  18  34  63  91 127 169 201 251 324 382
#     4  11  26  43  65  94 130 166 217 262 307 378
#     4  11  20  40  69  90 123 174 211 255 320 378
#     4  11  24  47  66  82 127 187 212 239 319 395
#     4  11  19  38  65  93 122 176 209 244 322 396
#     4  11  22  41  63 103 130 151 214 281 309 353
#     4  10  19  37  65  95 128 159 207 265 319 375
#
# _framework density 21.520278000000001
#
# number of rings (size 3 to 8) (size 9 to 14) (size 15 to 20)
#    0.000    1.429    5.714    0.857    0.000    1.143 
#    5.143    0.714    0.000    0.000    0.000    0.000 
#    0.000    0.000    0.000    0.000    0.000    0.000 
#
# Total GULP energy -347170.920767 kJ/mol
# GULP energy per Si atom -12398.961456 kJ/mol
# Density = 2.147130 g / cm^3
# Si number density = 21.520278 Si / 1000 Ang^3
#
#
#
# Elastic Constant Matrix: (Units=GPa)
#
#
# Indices 1 2 3 4 5 6 
#
# 1 60.4357 14.7871 4.8436 -0.0004 -8.3028 -0.0005
# 2 14.7871 100.2643 4.4804 0.0000 -8.2976 -0.0002
# 3 4.8436 4.4804 93.0457 0.0024 -0.8432 -0.0005
# 4 -0.0004 0.0000 0.0024 14.4433 -0.0003 1.4883
# 5 -8.3028 -8.2976 -0.8432 -0.0003 25.7908 -0.0004
# 6 -0.0005 -0.0002 -0.0005 1.4883 -0.0004 19.2121
#
#
#
# Elastic Compliance Matrix: (Units=1/GPa)
#
#
# Indices 1 2 3 4 5 6 
#
# 1 0.017831 -0.002180 -0.000778 0.000001 0.005013 0.000000
# 2 -0.002180 0.010533 -0.000369 0.000000 0.002675 0.000000
# 3 -0.000778 -0.000369 0.010806 -0.000002 -0.000016 0.000000
# 4 0.000001 0.000000 -0.000002 0.069793 0.000001 -0.005407
# 5 0.005013 0.002675 -0.000016 0.000001 0.041248 0.000001
# 6 0.000000 0.000000 0.000000 -0.005407 0.000001 0.052469
#
#
# Mechanical properties :
#
#
# Convention : Reuss Voigt Hill
#
# Bulk Modulus (GPa) = 30.75514 33.55200 32.15357
# Shear Modulus (GPa) = 22.70945 27.19823 24.95384
#
# Velocity S-wave (km/s) = 3.25200 3.55891 3.40891
# Velocity P-wave (km/s) = 5.33131 5.70198 5.51976
#
# Compressibility (1/GPa) = 0.03251489
#
# Stress axis : x y z
#
# Youngs Moduli (GPa) = 56.08206 94.93942 92.54506
#
# Poissons Ratio (x) = 0.20698 0.07198
# Poissons Ratio (y) = 0.12226 0.03419
# Poissons Ratio (z) = 0.04362 0.03508
#
# Static dielectric constant tensor:
#      x y z
#    x 3.921560 0.000000 0.092990 
#    y 0.000000 3.438530 0.000000 
#    z 0.092990 0.000000 4.147840 
# 
# 
# High freq. dielectric constant tensor:
#      x y z
#    x 1.843600 0.000000 0.001100 
#    y 0.000000 1.799270 0.000000 
#    z 0.001100 0.000000 1.863340 
# 
# From -- ./inp_files/296599.got.cif
#   From: 2010.06.25/outbox.cif.g09.slc.cpg/sg15_149_cif.got.tgz:296599.got - 2010.06.28 07:06:18.
