data_PCOD8135469
_publ_section_title
;
Structure prediction by ZEFSAII (Michael W. Deem and Ramdas Pophale) SiO2 
 PCOD8135469
Probable space group: C 2/C
;
_chemical_formula_sum "Si O2"
_cell_formula_units_Z 40
_cell_length_a 23.930800
_cell_length_b 8.753629
_cell_length_c 8.793512
_cell_angle_alpha 90.000000
_cell_angle_beta 70.012983
_cell_angle_gamma 90.000000
_cell_volume 1731.128618
_symmetry_space_group_name_H-M "C 2/C"
_symmetry_group_IT_number 15
_symmetry_cell_setting 'monoclinic'
loop_
_space_group_symop_operation_xyz
x,y,z
-x,y,1/2-z
-x,-y,-z
x,-y,1/2+z
1/2+x,1/2+y,z
1/2-x,1/2+y,1/2-z
1/2-x,1/2-y,-z
1/2+x,1/2-y,1/2+z
loop_
_atom_site_type_symbol
_atom_site_label
_atom_site_fract_x
_atom_site_fract_y
_atom_site_fract_z
Si Si1 0.582395 0.228579 0.930741
Si Si2 0.302202 0.919654 0.082518
Si Si3 0.420525 0.421541 0.070303
Si Si4 0.691996 0.215074 0.254931
Si Si5 0.000000 0.787888 0.750000
Si Si6 0.000000 0.200975 0.750000
O O1 0.641073 0.127759 0.868235
O O2 0.603253 0.405852 0.907247
O O3 0.536260 0.184893 0.838460
O O4 0.549552 0.194318 0.122492
O O5 0.244397 0.837082 0.201346
O O6 0.295108 0.100801 0.116475
O O7 0.311706 0.881817 0.897193
O O8 0.368695 0.304294 0.159375
O O9 0.473334 0.408722 0.144047
O O10 0.448236 0.386599 0.879633
#
# Coordination Sequence:
#
# PCOD8135469 Si02
#       6
#     8   8   8   8   4   4
#     4  11  20  39  66  98 132 173 215 266 310 380
#     4  11  26  47  68  95 128 168 215 270 327 385
#     4  11  20  39  66  98 132 173 215 266 310 380
#     4  11  26  47  68  95 128 168 215 270 327 385
#     4  10  23  34  67 102 131 170 227 250 317 374
#     4  10  19  38  63  94 133 176 213 264 313 374
#
# _framework density 23.106314000000001
#
# number of rings (size 3 to 8) (size 9 to 14) (size 15 to 20)
#    0.000    1.200    2.000    6.000    2.800    0.800 
#    0.000    6.000    0.000    0.000    0.000    0.000 
#    0.000    0.000    0.000    0.000    0.000    0.000 
#
# Total GULP energy -248016.896334 kJ/mol
# GULP energy per Si atom -12400.844817 kJ/mol
# Density = 2.305372 g / cm^3
# Si number density = 23.106314 Si / 1000 Ang^3
#
#
#
# Elastic Constant Matrix: (Units=GPa)
#
#
# Indices 1 2 3 4 5 6 
#
# 1 93.6953 28.5572 32.0105 0.0000 -12.4319 0.0000
# 2 28.5572 71.4385 23.4177 0.0000 -16.4508 0.0000
# 3 32.0105 23.4177 114.2628 0.0000 -16.0381 0.0000
# 4 0.0000 0.0000 0.0000 28.5990 0.0000 -1.5687
# 5 -12.4319 -16.4508 -16.0381 0.0000 39.4072 0.0000
# 6 0.0000 0.0000 0.0000 -1.5687 0.0000 19.3509
#
#
#
# Elastic Compliance Matrix: (Units=1/GPa)
#
#
# Indices 1 2 3 4 5 6 
#
# 1 0.012971 -0.004015 -0.002622 0.000000 0.001349 0.000000
# 2 -0.004015 0.017378 -0.001693 0.000000 0.005299 0.000000
# 3 -0.002622 -0.001693 0.010201 0.000000 0.002618 0.000000
# 4 0.000000 0.000000 0.000000 0.035122 0.000000 0.002847
# 5 0.001349 0.005299 0.002618 0.000000 0.029079 0.000000
# 6 0.000000 0.000000 0.000000 0.002847 0.000000 0.051908
#
#
# Mechanical properties :
#
#
# Convention : Reuss Voigt Hill
#
# Bulk Modulus (GPa) = 41.85753 49.70748 45.78251
# Shear Modulus (GPa) = 27.58119 30.49884 29.04002
#
# Velocity S-wave (km/s) = 3.45869 3.63703 3.54898
# Velocity P-wave (km/s) = 5.83991 6.26072 6.05397
#
# Compressibility (1/GPa) = 0.02389056
#
# Stress axis : x y z
#
# Youngs Moduli (GPa) = 77.09310 57.54296 98.03347
#
# Poissons Ratio (x) = 0.23105 0.25701
# Poissons Ratio (y) = 0.30954 0.16597
# Poissons Ratio (z) = 0.20211 0.09742
#
# Static dielectric constant tensor:
#      x y z
#    x 4.161940 0.000000 -0.051690 
#    y 0.000000 3.732380 0.000000 
#    z -0.051690 0.000000 4.420570 
# 
# 
# High freq. dielectric constant tensor:
#      x y z
#    x 1.918030 0.000000 -0.006520 
#    y 0.000000 1.887230 0.000000 
#    z -0.006520 0.000000 1.931640 
# 
# From -- ./inp_files/59978.got.cif
#   From: 2010.06.25/outbox.cif.g09.slc.cpg/sg15_30_cif.got.tgz:59978.got - 2010.06.28 07:06:18.
