data_PCOD8135967
_publ_section_title
;
Structure prediction by ZEFSAII (Michael W. Deem and Ramdas Pophale) SiO2 
 PCOD8135967
Probable space group: C 2/C
;
_chemical_formula_sum "Si O2"
_cell_formula_units_Z 52
_cell_length_a 17.327218
_cell_length_b 9.230511
_cell_length_c 19.120027
_cell_angle_alpha 90.000000
_cell_angle_beta 125.598294
_cell_angle_gamma 90.000000
_cell_volume 2486.547214
_symmetry_space_group_name_H-M "C 2/C"
_symmetry_group_IT_number 15
_symmetry_cell_setting 'monoclinic'
loop_
_space_group_symop_operation_xyz
x,y,z
-x,y,1/2-z
-x,-y,-z
x,-y,1/2+z
1/2+x,1/2+y,z
1/2-x,1/2+y,1/2-z
1/2-x,1/2-y,-z
1/2+x,1/2-y,1/2+z
loop_
_atom_site_type_symbol
_atom_site_label
_atom_site_fract_x
_atom_site_fract_y
_atom_site_fract_z
Si Si1 0.645722 0.273692 0.585882
Si Si2 0.296509 0.797411 0.951743
Si Si3 0.999549 0.584751 0.927679
Si Si4 0.500000 0.373301 0.250000
Si Si5 0.489719 0.783654 0.607987
Si Si6 0.202945 0.055697 0.818358
Si Si7 0.161954 0.911529 0.143658
O O1 0.590184 0.192715 0.620237
O O2 0.602223 0.231781 0.488506
O O3 0.754956 0.216788 0.643012
O O4 0.630542 0.443408 0.587959
O O5 0.277705 0.674995 0.882825
O O6 0.257099 0.944067 0.896553
O O7 0.250000 0.750000 0.000000
O O8 0.406206 0.819167 0.030154
O O9 0.986895 0.454311 0.865359
O O10 0.000000 0.500000 0.000000
O O11 0.539242 0.275723 0.332664
O O12 0.409268 0.466034 0.226620
O O13 0.576182 0.694653 0.619535
O O14 0.219544 0.036915 0.743282
#
# Coordination Sequence:
#
# PCOD8135967 Si02
#       7
#     8   8   8   4   8   8   8
#     4  11  21  38  75  92 121 178 231 260 328 413
#     4  12  25  41  67 102 137 171 228 292 339 399
#     4  10  19  41  67  91 125 172 221 271 326 406
#     4  10  26  38  64  96 138 166 224 288 332 394
#     4  10  20  41  66  93 130 176 221 270 334 398
#     4  11  24  45  63  93 140 180 218 282 347 409
#     4  11  23  40  66 102 130 177 226 275 333 421
#
# _framework density 20.912533
#
# number of rings (size 3 to 8) (size 9 to 14) (size 15 to 20)
#    0.000    1.231    6.154    1.385    2.154    4.308 
#    0.000    1.538    0.000    0.923    0.000    0.000 
#    0.000    0.000    0.000    0.000    0.000    0.000 
#
# Total GULP energy -322156.436564 kJ/mol
# GULP energy per Si atom -12390.632176 kJ/mol
# Density = 2.086494 g / cm^3
# Si number density = 20.912533 Si / 1000 Ang^3
#
#
#
# Elastic Constant Matrix: (Units=GPa)
#
#
# Indices 1 2 3 4 5 6 
#
# 1 105.0926 30.1910 37.6644 0.0000 -7.0575 0.0000
# 2 30.1910 113.1680 22.1482 0.0000 -6.3602 0.0000
# 3 37.6644 22.1482 78.5984 0.0000 -9.3404 0.0000
# 4 0.0000 0.0000 0.0000 26.2649 0.0000 3.8910
# 5 -7.0575 -6.3602 -9.3404 0.0000 42.8492 0.0000
# 6 0.0000 0.0000 0.0000 3.8910 0.0000 18.8378
#
#
#
# Elastic Compliance Matrix: (Units=1/GPa)
#
#
# Indices 1 2 3 4 5 6 
#
# 1 0.011994 -0.002177 -0.005069 0.000000 0.000547 0.000000
# 2 -0.002177 0.009777 -0.001624 0.000000 0.000739 0.000000
# 3 -0.005069 -0.001624 0.015894 0.000000 0.002389 0.000000
# 4 0.000000 0.000000 0.000000 0.039275 0.000000 -0.008112
# 5 0.000547 0.000739 0.002389 0.000000 0.024058 0.000000
# 6 0.000000 0.000000 0.000000 -0.008112 0.000000 0.054760
#
#
# Mechanical properties :
#
#
# Convention : Reuss Voigt Hill
#
# Bulk Modulus (GPa) = 50.19032 52.98511 51.58772
# Shear Modulus (GPa) = 27.75622 31.38076 29.56849
#
# Velocity S-wave (km/s) = 3.64710 3.87792 3.76428
# Velocity P-wave (km/s) = 6.46431 6.74111 6.60416
#
# Compressibility (1/GPa) = 0.01992416
#
# Stress axis : x y z
#
# Youngs Moduli (GPa) = 83.37262 102.28573 62.91878
#
# Poissons Ratio (x) = 0.22268 0.31895
# Poissons Ratio (y) = 0.18150 0.10218
# Poissons Ratio (z) = 0.42263 0.16610
#
# Static dielectric constant tensor:
#      x y z
#    x 3.850730 0.000000 -0.143140 
#    y 0.000000 1.852160 0.000000 
#    z -0.143140 0.000000 3.627950 
# 
# 
# High freq. dielectric constant tensor:
#      x y z
#    x 1.808010 0.000000 0.000410 
#    y 0.000000 1.823770 0.000000 
#    z 0.000410 0.000000 1.814960 
# 
# From -- ./inp_files/247888.got.cif
#   From: 2010.06.25/outbox.cif.g09.slc.cpg/sg15_124_cif.got.tgz:247888.got - 2010.06.28 07:06:18.
