data_PCOD8135634
_publ_section_title
;
Structure prediction by ZEFSAII (Michael W. Deem and Ramdas Pophale) SiO2 
 PCOD8135634
Probable space group: C 2/C
;
_chemical_formula_sum "Si O2"
_cell_formula_units_Z 56
_cell_length_a 8.961508
_cell_length_b 16.490160
_cell_length_c 22.616303
_cell_angle_alpha 90.000000
_cell_angle_beta 60.564350
_cell_angle_gamma 90.000000
_cell_volume 2910.716841
_symmetry_space_group_name_H-M "C 2/C"
_symmetry_group_IT_number 15
_symmetry_cell_setting 'monoclinic'
loop_
_space_group_symop_operation_xyz
x,y,z
-x,y,1/2-z
-x,-y,-z
x,-y,1/2+z
1/2+x,1/2+y,z
1/2-x,1/2+y,1/2-z
1/2-x,1/2-y,-z
1/2+x,1/2-y,1/2+z
loop_
_atom_site_type_symbol
_atom_site_label
_atom_site_fract_x
_atom_site_fract_y
_atom_site_fract_z
Si Si1 0.134830 0.359830 0.946663
Si Si2 0.533367 0.884860 0.092071
Si Si3 0.099921 0.048520 0.316303
Si Si4 0.764201 0.515700 0.166098
Si Si5 0.000185 0.199308 0.102318
Si Si6 0.604424 0.551387 0.932150
Si Si7 0.073858 0.790114 0.016245
O O1 0.124042 0.419693 0.892962
O O2 0.320034 0.347064 0.939400
O O3 0.018136 0.390855 0.023660
O O4 0.073380 0.272512 0.936902
O O5 0.366170 0.931372 0.148009
O O6 0.518645 0.792487 0.118751
O O7 0.711966 0.922065 0.078590
O O8 0.098851 0.145516 0.329580
O O9 0.245377 0.040808 0.238151
O O10 0.148106 0.999758 0.365547
O O11 0.921454 0.010779 0.327959
O O12 0.910741 0.192851 0.056490
O O13 0.500000 0.500000 0.000000
O O14 0.480040 0.627196 0.940054
O O15 0.250000 0.750000 0.000000
#
# Coordination Sequence:
#
# PCOD8135634 Si02
#       7
#     8   8   8   8   8   8   8
#     4  10  19  39  61  86 120 154 200 244 289 359
#     4  11  21  37  65  91 117 152 207 243 299 353
#     4  10  23  42  60  81 127 157 199 242 304 350
#     4  10  23  40  60  88 114 165 199 240 295 363
#     4  10  19  42  60  84 120 159 190 249 293 356
#     4  12  22  38  61  90 122 155 193 255 300 347
#     4  11  22  34  58  94 120 148 194 247 305 347
#
# _framework density 19.239246999999999
#
# number of rings (size 3 to 8) (size 9 to 14) (size 15 to 20)
#    0.000    1.429    4.286    2.143    6.000    0.571 
#    2.571    1.429    0.000    0.000    0.000    0.000 
#    0.000    0.000    0.000    0.000    0.000    0.000 
#
# Total GULP energy -347082.182525 kJ/mol
# GULP energy per Si atom -12395.792233 kJ/mol
# Density = 1.919546 g / cm^3
# Si number density = 19.239247 Si / 1000 Ang^3
#
#
#
# Elastic Constant Matrix: (Units=GPa)
#
#
# Indices 1 2 3 4 5 6 
#
# 1 67.7188 41.2567 27.9890 0.0000 5.2842 -0.0001
# 2 41.2567 135.8742 73.0701 0.0000 1.4151 0.0000
# 3 27.9890 73.0701 131.4346 0.0000 6.7994 -0.0001
# 4 0.0000 0.0000 0.0000 29.0284 0.0000 -5.3444
# 5 5.2842 1.4151 6.7994 0.0000 21.8061 0.0001
# 6 -0.0001 0.0000 -0.0001 -5.3444 0.0001 33.2032
#
#
#
# Elastic Compliance Matrix: (Units=1/GPa)
#
#
# Indices 1 2 3 4 5 6 
#
# 1 0.018556 -0.005102 -0.000914 0.000000 -0.003880 0.000000
# 2 -0.005102 0.011930 -0.005661 0.000000 0.002227 0.000000
# 3 -0.000914 -0.005661 0.011099 0.000000 -0.002872 0.000000
# 4 0.000000 0.000000 0.000000 0.035501 0.000000 0.005714
# 5 -0.003880 0.002227 -0.002872 0.000000 0.047550 0.000000
# 6 0.000000 0.000000 0.000000 0.005714 0.000000 0.031037
#
#
# Mechanical properties :
#
#
# Convention : Reuss Voigt Hill
#
# Bulk Modulus (GPa) = 54.85521 68.85102 61.85311
# Shear Modulus (GPa) = 27.01158 29.65501 28.33330
#
# Velocity S-wave (km/s) = 3.75104 3.93030 3.84172
# Velocity P-wave (km/s) = 6.88000 7.51404 7.20400
#
# Compressibility (1/GPa) = 0.01822981
#
# Stress axis : x y z
#
# Youngs Moduli (GPa) = 53.89070 83.82015 90.09885
#
# Poissons Ratio (x) = 0.42768 0.08237
# Poissons Ratio (y) = 0.27497 0.51007
# Poissons Ratio (z) = 0.04927 0.47453
#
# Static dielectric constant tensor:
#      x y z
#    x 3.905940 0.000000 -0.202660 
#    y 0.000000 3.884920 0.000000 
#    z -0.202660 0.000000 3.608940 
# 
# 
# High freq. dielectric constant tensor:
#      x y z
#    x 1.740280 0.000000 0.001680 
#    y 0.000000 1.762050 0.000000 
#    z 0.001680 0.000000 1.733280 
# 
# From -- ./inp_files/232600.got.cif
#   From: 2010.06.25/outbox.cif.g09.slc.cpg/sg15_117_cif.got.tgz:232600.got - 2010.06.28 07:06:18.
