data_PCOD8135638
_publ_section_title
;
Structure prediction by ZEFSAII (Michael W. Deem and Ramdas Pophale) SiO2 
 PCOD8135638
Probable space group: C 2/C
;
_chemical_formula_sum "Si O2"
_cell_formula_units_Z 60
_cell_length_a 15.159250
_cell_length_b 12.014339
_cell_length_c 19.021755
_cell_angle_alpha 90.000000
_cell_angle_beta 118.030348
_cell_angle_gamma 90.000000
_cell_volume 3058.022795
_symmetry_space_group_name_H-M "C 2/C"
_symmetry_group_IT_number 15
_symmetry_cell_setting 'monoclinic'
loop_
_space_group_symop_operation_xyz
x,y,z
-x,y,1/2-z
-x,-y,-z
x,-y,1/2+z
1/2+x,1/2+y,z
1/2-x,1/2+y,1/2-z
1/2-x,1/2-y,-z
1/2+x,1/2-y,1/2+z
loop_
_atom_site_type_symbol
_atom_site_label
_atom_site_fract_x
_atom_site_fract_y
_atom_site_fract_z
Si Si1 0.679340 0.117073 0.069533
Si Si2 0.213445 0.967350 0.687868
Si Si3 0.076743 0.391014 0.678308
Si Si4 0.784980 0.674666 0.649996
Si Si5 0.151122 0.731175 0.671314
Si Si6 0.309376 0.569509 0.676131
Si Si7 0.000000 0.203915 0.750000
Si Si8 0.951548 0.601393 0.614593
O O1 0.602978 0.121398 0.106234
O O2 0.726465 0.239437 0.078661
O O3 0.770576 0.029571 0.111757
O O4 0.620571 0.084133 0.978209
O O5 0.327737 0.935016 0.744743
O O6 0.151089 0.858043 0.642364
O O7 0.218275 0.061576 0.629109
O O8 0.162757 0.019854 0.737491
O O9 0.039512 0.276459 0.699092
O O10 0.989996 0.481532 0.653537
O O11 0.800854 0.728795 0.732842
O O12 0.893366 0.651955 0.658676
O O13 0.219231 0.657877 0.645649
O O14 0.039754 0.685091 0.626806
O O15 0.410141 0.627750 0.685622
#
# Coordination Sequence:
#
# PCOD8135638 Si02
#       8
#     8   8   8   8   8   8   4   8
#     4  11  23  44  57  87 131 167 190 246 316 364
#     4  10  19  39  61  88 120 151 195 257 306 341
#     4  11  20  37  61  88 121 153 208 246 296 367
#     4  11  21  39  61  90 121 156 205 257 291 351
#     4  11  20  38  62  92 117 153 206 256 302 353
#     4  10  21  36  60  87 124 152 191 253 307 355
#     4  12  22  36  62  98 114 156 206 266 304 346
#     4  12  24  36  65  91 119 166 210 240 295 376
#
# _framework density 19.620519999999999
#
# number of rings (size 3 to 8) (size 9 to 14) (size 15 to 20)
#    0.000    1.067    8.000    2.800    0.000    1.067 
#    0.000    2.667    0.000    0.000    0.000    0.000 
#    0.000    0.000    0.000    0.000    0.000    0.000 
#
# Total GULP energy -372050.491753 kJ/mol
# GULP energy per Si atom -12401.683058 kJ/mol
# Density = 1.957586 g / cm^3
# Si number density = 19.620520 Si / 1000 Ang^3
#
#
#
# Elastic Constant Matrix: (Units=GPa)
#
#
# Indices 1 2 3 4 5 6 
#
# 1 67.6711 37.9703 13.8585 0.0000 6.8670 0.0000
# 2 37.9703 143.0199 26.4388 0.0000 9.3523 0.0000
# 3 13.8585 26.4388 50.9143 0.0000 9.3881 0.0000
# 4 0.0000 0.0000 0.0000 13.2392 0.0000 1.3220
# 5 6.8670 9.3523 9.3881 0.0000 16.8948 0.0000
# 6 0.0000 0.0000 0.0000 1.3220 0.0000 39.2235
#
#
#
# Elastic Compliance Matrix: (Units=1/GPa)
#
#
# Indices 1 2 3 4 5 6 
#
# 1 0.017898 -0.004126 -0.002015 0.000000 -0.003871 0.000000
# 2 -0.004126 0.008766 -0.003168 0.000000 -0.001415 0.000000
# 3 -0.002015 -0.003168 0.023798 0.000000 -0.010652 0.000000
# 4 0.000000 0.000000 0.000000 0.075788 0.000000 -0.002554
# 5 -0.003871 -0.001415 -0.010652 0.000000 0.067465 0.000000
# 6 0.000000 0.000000 0.000000 -0.002554 0.000000 0.025581
#
#
# Mechanical properties :
#
#
# Convention : Reuss Voigt Hill
#
# Bulk Modulus (GPa) = 31.40354 46.46006 38.93180
# Shear Modulus (GPa) = 20.11834 26.09403 23.10619
#
# Velocity S-wave (km/s) = 3.20562 3.65078 3.43542
# Velocity P-wave (km/s) = 5.45358 6.44218 5.96838
#
# Compressibility (1/GPa) = 0.03184354
#
# Stress axis : x y z
#
# Youngs Moduli (GPa) = 55.87207 114.08240 42.01958
#
# Poissons Ratio (x) = 0.47071 0.08469
# Poissons Ratio (y) = 0.23053 0.13311
# Poissons Ratio (z) = 0.11260 0.36139
#
# Static dielectric constant tensor:
#      x y z
#    x 3.633040 0.000000 0.008680 
#    y 0.000000 3.954210 0.000000 
#    z 0.008680 0.000000 3.159110 
# 
# 
# High freq. dielectric constant tensor:
#      x y z
#    x 1.767580 0.000000 0.002560 
#    y 0.000000 1.782870 0.000000 
#    z 0.002560 0.000000 1.720580 
# 
# From -- ./inp_files/243761.got.cif
#   From: 2010.06.25/outbox.cif.g09.slc.cpg/sg15_122_cif.got.tgz:243761.got - 2010.06.28 07:06:18.
