data_PCOD8135445
_publ_section_title
;
Structure prediction by ZEFSAII (Michael W. Deem and Ramdas Pophale) SiO2 
 PCOD8135445
Probable space group: C 2/C
;
_chemical_formula_sum "Si O2"
_cell_formula_units_Z 60
_cell_length_a 10.674928
_cell_length_b 32.004949
_cell_length_c 10.331411
_cell_angle_alpha 90.000000
_cell_angle_beta 54.459065
_cell_angle_gamma 90.000000
_cell_volume 2872.144440
_symmetry_space_group_name_H-M "C 2/C"
_symmetry_group_IT_number 15
_symmetry_cell_setting 'monoclinic'
loop_
_space_group_symop_operation_xyz
x,y,z
-x,y,1/2-z
-x,-y,-z
x,-y,1/2+z
1/2+x,1/2+y,z
1/2-x,1/2+y,1/2-z
1/2-x,1/2-y,-z
1/2+x,1/2-y,1/2+z
loop_
_atom_site_type_symbol
_atom_site_label
_atom_site_fract_x
_atom_site_fract_y
_atom_site_fract_z
Si Si1 0.331059 0.416996 0.492737
Si Si2 0.743861 0.794089 0.797274
Si Si3 0.651091 0.870295 0.379315
Si Si4 0.116972 0.374900 0.790223
Si Si5 0.048514 0.281610 0.368988
Si Si6 0.500000 0.648221 0.250000
Si Si7 0.397704 0.493739 0.936139
Si Si8 0.363668 0.408119 0.055049
O O1 0.266498 0.384415 0.425378
O O2 0.261279 0.405637 0.677757
O O3 0.288681 0.465338 0.482211
O O4 0.516732 0.414985 0.396155
O O5 0.666932 0.826380 0.742260
O O6 0.843513 0.758322 0.669696
O O7 0.852100 0.823008 0.819643
O O8 0.610632 0.772691 0.961624
O O9 0.472950 0.883664 0.519647
O O10 0.646136 0.820253 0.367294
O O11 0.707979 0.888905 0.209014
O O12 0.000000 0.386845 0.750000
O O13 0.000000 0.288326 0.250000
O O14 0.452446 0.621233 0.401865
O O15 0.500000 0.486328 0.750000
O O16 0.500000 0.500000 0.000000
O O17 0.306680 0.450617 0.018576
#
# Coordination Sequence:
#
# PCOD8135445 Si02
#       8
#     8   8   8   8   8   4   8   8
#     4  10  19  38  63  85 121 166 204 253 312 371
#     4  11  23  38  59  87 119 161 206 257 314 372
#     4  10  22  38  60  89 121 162 207 254 308 372
#     4   9  20  40  60  83 123 165 206 251 314 373
#     4  11  23  39  58  87 122 158 204 260 309 371
#     4  12  22  36  64  88 124 164 204 252 324 370
#     4  10  20  35  57  93 127 158 207 267 310 363
#     4  11  21  36  60  93 121 160 209 256 308 368
#
# _framework density 20.890315000000001
#
# number of rings (size 3 to 8) (size 9 to 14) (size 15 to 20)
#    0.000    1.600    2.667    3.200    1.867    0.000 
#    0.000    8.000    0.000   12.000    0.000    0.000 
#    0.000    0.000    0.000    0.000    0.000    0.000 
#
# Total GULP energy -371672.382931 kJ/mol
# GULP energy per Si atom -12389.079431 kJ/mol
# Density = 2.084277 g / cm^3
# Si number density = 20.890315 Si / 1000 Ang^3
#
#
#
# Elastic Constant Matrix: (Units=GPa)
#
#
# Indices 1 2 3 4 5 6 
#
# 1 31.8941 25.1618 15.1386 0.0000 -4.3718 0.0000
# 2 25.1618 143.1666 65.2337 0.0000 -18.4422 0.0000
# 3 15.1386 65.2337 143.5315 0.0000 -18.7333 0.0000
# 4 0.0000 0.0000 0.0000 39.3975 0.0000 0.9214
# 5 -4.3718 -18.4422 -18.7333 0.0000 27.9327 0.0000
# 6 0.0000 0.0000 0.0000 0.9214 0.0000 28.7295
#
#
#
# Elastic Compliance Matrix: (Units=1/GPa)
#
#
# Indices 1 2 3 4 5 6 
#
# 1 0.036593 -0.005789 -0.001074 0.000000 0.001185 0.000000
# 2 -0.005789 0.010036 -0.003511 0.000000 0.003365 0.000000
# 3 -0.001074 -0.003511 0.009153 0.000000 0.003652 0.000000
# 4 0.000000 0.000000 0.000000 0.025401 0.000000 -0.000815
# 5 0.001185 0.003365 0.003652 0.000000 0.040657 0.000000
# 6 0.000000 0.000000 0.000000 -0.000815 0.000000 0.034834
#
#
# Mechanical properties :
#
#
# Convention : Reuss Voigt Hill
#
# Bulk Modulus (GPa) = 28.54467 58.85114 43.69790
# Shear Modulus (GPa) = 26.44103 33.41583 29.92843
#
# Velocity S-wave (km/s) = 3.56154 4.00382 3.78914
# Velocity P-wave (km/s) = 5.53231 7.04321 6.33298
#
# Compressibility (1/GPa) = 0.03503282
#
# Stress axis : x y z
#
# Youngs Moduli (GPa) = 27.32753 99.64340 109.25505
#
# Poissons Ratio (x) = 0.57688 0.11730
# Poissons Ratio (y) = 0.15821 0.38363
# Poissons Ratio (z) = 0.02934 0.34988
#
# Static dielectric constant tensor:
#      x y z
#    x 3.379390 0.000000 -0.239140 
#    y 0.000000 4.195990 0.000000 
#    z -0.239140 0.000000 4.357830 
# 
# 
# High freq. dielectric constant tensor:
#      x y z
#    x 1.791350 0.000000 -0.003660 
#    y 0.000000 1.823090 0.000000 
#    z -0.003660 0.000000 1.831640 
# 
# From -- ./inp_files/92588.got.cif
#   From: 2010.06.25/outbox.cif.g09.slc.cpg/sg15_47_cif.got.tgz:92588.got - 2010.06.28 07:06:18.
