data_PCOD8135606
_publ_section_title
;
Structure prediction by ZEFSAII (Michael W. Deem and Ramdas Pophale) SiO2 
 PCOD8135606
Probable space group: C 2/C
;
_chemical_formula_sum "Si O2"
_cell_formula_units_Z 60
_cell_length_a 11.499840
_cell_length_b 25.237139
_cell_length_c 12.091925
_cell_angle_alpha 90.000000
_cell_angle_beta 61.286999
_cell_angle_gamma 90.000000
_cell_volume 3077.835212
_symmetry_space_group_name_H-M "C 2/C"
_symmetry_group_IT_number 15
_symmetry_cell_setting 'monoclinic'
loop_
_space_group_symop_operation_xyz
x,y,z
-x,y,1/2-z
-x,-y,-z
x,-y,1/2+z
1/2+x,1/2+y,z
1/2-x,1/2+y,1/2-z
1/2-x,1/2-y,-z
1/2+x,1/2-y,1/2+z
loop_
_atom_site_type_symbol
_atom_site_label
_atom_site_fract_x
_atom_site_fract_y
_atom_site_fract_z
Si Si1 0.831617 0.632575 0.191182
Si Si2 0.538776 0.781385 0.606739
Si Si3 0.788625 0.625354 0.459531
Si Si4 0.012923 0.165097 0.614044
Si Si5 0.500000 0.889443 0.250000
Si Si6 0.512522 0.061958 0.980650
Si Si7 0.346774 0.292086 0.826028
Si Si8 0.242186 0.819019 0.389604
O O1 0.846982 0.613769 0.310717
O O2 0.685642 0.657277 0.238187
O O3 0.927245 0.680451 0.106380
O O4 0.873908 0.584142 0.093688
O O5 0.500000 0.771938 0.750000
O O6 0.676571 0.813297 0.525845
O O7 0.547340 0.723551 0.546502
O O8 0.628396 0.622377 0.532744
O O9 0.858756 0.584474 0.511497
O O10 0.871439 0.149151 0.626406
O O11 0.000000 0.166330 0.750000
O O12 0.472889 0.925587 0.155483
O O13 0.373482 0.853485 0.330196
O O14 0.500000 0.000000 0.000000
O O15 0.500000 0.279274 0.750000
O O16 0.271219 0.238487 0.821295
O O17 0.305922 0.310102 0.965441
#
# Coordination Sequence:
#
# PCOD8135606 Si02
#       8
#     8   8   8   8   4   8   8   8
#     4  10  19  39  58  90 126 158 213 255 306 373
#     4   8  16  29  50  82 120 156 195 242 292 358
#     4  10  21  36  60  89 119 161 207 266 309 363
#     4  11  20  34  53  85 128 166 206 240 309 373
#     4  12  24  44  66  94 132 164 212 268 328 394
#     4  11  25  43  69  93 118 161 217 280 331 373
#     4  11  21  36  58  89 138 181 211 245 311 392
#     4  11  23  37  57  93 132 177 211 253 311 397
#
# _framework density 19.494222000000001
#
# number of rings (size 3 to 8) (size 9 to 14) (size 15 to 20)
#    0.000    1.600    3.333    3.200    1.867    0.000 
#    7.200    0.000    0.000    3.200    0.000    0.000 
#    0.000    0.000    0.000    0.000    0.000    0.000 
#
# Total GULP energy -371821.965413 kJ/mol
# GULP energy per Si atom -12394.065514 kJ/mol
# Density = 1.944985 g / cm^3
# Si number density = 19.494222 Si / 1000 Ang^3
#
#
#
# Elastic Constant Matrix: (Units=GPa)
#
#
# Indices 1 2 3 4 5 6 
#
# 1 127.5388 38.1650 41.6857 0.0000 -6.7752 0.0000
# 2 38.1650 96.3697 41.6114 0.0000 1.4123 0.0000
# 3 41.6857 41.6114 89.6629 0.0000 3.6063 0.0000
# 4 0.0000 0.0000 0.0000 109.7209 0.0000 53.2422
# 5 -6.7752 1.4123 3.6063 0.0000 36.6134 0.0000
# 6 0.0000 0.0000 0.0000 53.2422 0.0000 40.3943
#
#
#
# Elastic Compliance Matrix: (Units=1/GPa)
#
#
# Indices 1 2 3 4 5 6 
#
# 1 0.009839 -0.002395 -0.003554 0.000000 0.002263 0.000000
# 2 -0.002395 0.013561 -0.005161 0.000000 -0.000458 0.000000
# 3 -0.003554 -0.005161 0.015279 0.000000 -0.001964 0.000000
# 4 0.000000 0.000000 0.000000 0.025288 0.000000 -0.033331
# 5 0.002263 -0.000458 -0.001964 0.000000 0.027942 0.000000
# 6 0.000000 0.000000 0.000000 -0.033331 0.000000 0.068689
#
#
# Mechanical properties :
#
#
# Convention : Reuss Voigt Hill
#
# Bulk Modulus (GPa) = 60.75902 61.83285 61.29594
# Shear Modulus (GPa) = 26.55264 50.15300 38.35282
#
# Velocity S-wave (km/s) = 3.69464 5.07769 4.44034
# Velocity P-wave (km/s) = 7.03106 8.13417 7.60265
#
# Compressibility (1/GPa) = 0.01645846
#
# Stress axis : x y z
#
# Youngs Moduli (GPa) = 101.63305 73.74306 65.44766
#
# Poissons Ratio (x) = 0.17664 0.23259
# Poissons Ratio (y) = 0.24344 0.33779
# Poissons Ratio (z) = 0.36119 0.38061
#
# Static dielectric constant tensor:
#      x y z
#    x 4.129280 0.000000 -0.030210 
#    y 0.000000 3.275270 0.000000 
#    z -0.030210 0.000000 3.357220 
# 
# 
# High freq. dielectric constant tensor:
#      x y z
#    x 1.767470 0.000000 0.003090 
#    y 0.000000 1.712410 0.000000 
#    z 0.003090 0.000000 1.761160 
# 
# From -- ./inp_files/92064.got.cif
#   From: 2010.06.25/outbox.cif.g09.slc.cpg/sg15_47_cif.got.tgz:92064.got - 2010.06.28 07:06:18.
