data_PCOD8135351
_publ_section_title
;
Structure prediction by ZEFSAII (Michael W. Deem and Ramdas Pophale) SiO2 
 PCOD8135351
Probable space group: C 2/C
;
_chemical_formula_sum "Si O2"
_cell_formula_units_Z 60
_cell_length_a 28.629201
_cell_length_b 10.076790
_cell_length_c 23.120139
_cell_angle_alpha 90.000000
_cell_angle_beta 151.148073
_cell_angle_gamma 90.000000
_cell_volume 3218.563632
_symmetry_space_group_name_H-M "C 2/C"
_symmetry_group_IT_number 15
_symmetry_cell_setting 'monoclinic'
loop_
_space_group_symop_operation_xyz
x,y,z
-x,y,1/2-z
-x,-y,-z
x,-y,1/2+z
1/2+x,1/2+y,z
1/2-x,1/2+y,1/2-z
1/2-x,1/2-y,-z
1/2+x,1/2-y,1/2+z
loop_
_atom_site_type_symbol
_atom_site_label
_atom_site_fract_x
_atom_site_fract_y
_atom_site_fract_z
Si Si1 0.175902 0.767025 0.723413
Si Si2 0.475486 0.951291 0.601178
Si Si3 0.687772 0.969274 0.314506
Si Si4 0.500000 0.008370 0.750000
Si Si5 0.213559 0.270267 0.773419
Si Si6 0.239353 0.499071 0.118120
Si Si7 0.494202 0.842658 0.978763
Si Si8 0.707750 0.895682 0.461180
O O1 0.224637 0.658729 0.818844
O O2 0.211300 0.753014 0.696429
O O3 0.193512 0.910752 0.768821
O O4 0.061121 0.741981 0.593905
O O5 0.569956 0.038843 0.686978
O O6 0.488481 0.909338 0.682542
O O7 0.372523 0.027851 0.484717
O O8 0.473702 0.828271 0.554508
O O9 0.730823 0.971551 0.426138
O O10 0.729951 0.097496 0.328358
O O11 0.408387 0.106857 0.656026
O O12 0.110904 0.278651 0.629472
O O13 0.226457 0.150343 0.832619
O O14 0.256705 0.530019 0.068940
O O15 0.500000 0.000000 0.000000
O O16 0.750000 0.750000 0.500000
#
# Coordination Sequence:
#
# PCOD8135351 Si02
#       8
#     8   8   8   4   8   8   8   8
#     4  12  21  35  59  86 115 151 192 233 281 344
#     4   9  17  36  56  83 106 151 194 229 271 336
#     4  10  21  38  62  82 113 157 194 230 282 347
#     4   8  18  30  60  84 104 142 198 230 266 340
#     4  11  23  36  58  89 113 148 194 236 290 333
#     4  11  22  35  60  89 117 145 190 248 281 331
#     4  11  20  37  60  79 113 156 190 229 278 348
#     4  10  19  38  60  85 113 147 195 236 284 337
#
# _framework density 18.641856000000001
#
# number of rings (size 3 to 8) (size 9 to 14) (size 15 to 20)
#    0.000    1.600    5.333    1.600    0.000    1.067 
#    0.000    0.000    2.933    0.000    0.000    0.000 
#    0.000    0.000    0.000    0.000    0.000    0.000 
#
# Total GULP energy -371687.694308 kJ/mol
# GULP energy per Si atom -12389.589810 kJ/mol
# Density = 1.859943 g / cm^3
# Si number density = 18.641856 Si / 1000 Ang^3
#
#
#
# Elastic Constant Matrix: (Units=GPa)
#
#
# Indices 1 2 3 4 5 6 
#
# 1 81.2811 24.4023 19.9148 0.0000 -20.4400 0.0000
# 2 24.4023 73.8202 21.5752 0.0000 -6.4780 0.0000
# 3 19.9148 21.5752 79.0793 0.0000 -14.4114 0.0000
# 4 0.0000 0.0000 0.0000 28.1334 0.0000 -9.0016
# 5 -20.4400 -6.4780 -14.4114 0.0000 28.9377 0.0000
# 6 0.0000 0.0000 0.0000 -9.0016 0.0000 28.5347
#
#
#
# Elastic Compliance Matrix: (Units=1/GPa)
#
#
# Indices 1 2 3 4 5 6 
#
# 1 0.016371 -0.004195 -0.001146 0.000000 0.010054 0.000000
# 2 -0.004195 0.015848 -0.003477 0.000000 -0.001146 0.000000
# 3 -0.001146 -0.003477 0.014950 0.000000 0.005857 0.000000
# 4 0.000000 0.000000 0.000000 0.039536 0.000000 0.012472
# 5 0.010054 -0.001146 0.005857 0.000000 0.044319 0.000000
# 6 0.000000 0.000000 0.000000 0.012472 0.000000 0.038980
#
#
# Mechanical properties :
#
#
# Convention : Reuss Voigt Hill
#
# Bulk Modulus (GPa) = 33.85753 40.66280 37.26016
# Shear Modulus (GPa) = 25.31852 28.34038 26.82945
#
# Velocity S-wave (km/s) = 3.68931 3.90328 3.79780
# Velocity P-wave (km/s) = 6.02906 6.49416 6.26592
#
# Compressibility (1/GPa) = 0.02953553
#
# Stress axis : x y z
#
# Youngs Moduli (GPa) = 61.08202 63.09758 66.88892
#
# Poissons Ratio (x) = 0.26466 0.07667
# Poissons Ratio (y) = 0.25621 0.23254
# Poissons Ratio (z) = 0.07001 0.21936
#
# Static dielectric constant tensor:
#      x y z
#    x 3.790440 0.000000 -0.301210 
#    y 0.000000 3.073920 0.000000 
#    z -0.301210 0.000000 3.651910 
# 
# 
# High freq. dielectric constant tensor:
#      x y z
#    x 1.738490 0.000000 -0.021290 
#    y 0.000000 1.683120 0.000000 
#    z -0.021290 0.000000 1.731620 
# 
# From -- ./inp_files/284313.got.cif
#   From: 2010.06.25/outbox.cif.g09.slc.cpg/sg15_143_cif.got.tgz:284313.got - 2010.06.28 07:06:18.
