data_PCOD8135412
_publ_section_title
;
Structure prediction by ZEFSAII (Michael W. Deem and Ramdas Pophale) SiO2 
 PCOD8135412
Probable space group: C 2/C
;
_chemical_formula_sum "Si O2"
_cell_formula_units_Z 64
_cell_length_a 26.120628
_cell_length_b 11.383595
_cell_length_c 16.119496
_cell_angle_alpha 90.000000
_cell_angle_beta 142.271330
_cell_angle_gamma 90.000000
_cell_volume 2932.994183
_symmetry_space_group_name_H-M "C 2/C"
_symmetry_group_IT_number 15
_symmetry_cell_setting 'monoclinic'
loop_
_space_group_symop_operation_xyz
x,y,z
-x,y,1/2-z
-x,-y,-z
x,-y,1/2+z
1/2+x,1/2+y,z
1/2-x,1/2+y,1/2-z
1/2-x,1/2-y,-z
1/2+x,1/2-y,1/2+z
loop_
_atom_site_type_symbol
_atom_site_label
_atom_site_fract_x
_atom_site_fract_y
_atom_site_fract_z
Si Si1 0.396989 0.069481 0.293083
Si Si2 0.407548 0.036588 0.981689
Si Si3 0.648818 0.430529 0.749084
Si Si4 0.668875 0.934901 0.450377
Si Si5 0.112056 0.199832 0.048316
Si Si6 0.584578 0.664354 0.691251
Si Si7 0.400501 0.557477 0.619936
Si Si8 0.411261 0.689329 0.174282
O O1 0.371074 0.017084 0.349394
O O2 0.492926 0.042095 0.395643
O O3 0.377082 0.208000 0.277803
O O4 0.347763 0.015513 0.151818
O O5 0.367929 0.164741 0.940213
O O6 0.383872 0.966935 0.034730
O O7 0.733852 0.447810 0.908246
O O8 0.666513 0.346543 0.694365
O O9 0.613227 0.556354 0.668059
O O10 0.581067 0.363662 0.721988
O O11 0.649730 0.799929 0.403922
O O12 0.143355 0.130950 0.008031
O O13 0.014775 0.174874 0.939340
O O14 0.627238 0.618129 0.830634
O O15 0.500000 0.565703 0.750000
O O16 0.373472 0.420962 0.573833
O O17 0.500000 0.728895 0.250000
#
# Coordination Sequence:
#
# PCOD8135412 Si02
#       8
#     8   8   8   8   8   8   8   8
#     4  10  21  40  66  88 125 166 214 267 301 381
#     4  10  22  39  63  95 117 168 224 250 314 381
#     4  11  24  40  59  95 128 163 205 261 332 381
#     4  12  24  41  60  95 136 167 201 262 339 381
#     4  10  19  38  62  84 124 157 208 267 295 371
#     4   9  19  37  63  87 113 161 214 258 310 363
#     4   8  16  32  57  88 108 148 205 253 303 351
#     4  10  21  39  64  87 117 164 218 255 305 385
#
# _framework density 21.820705
#
# number of rings (size 3 to 8) (size 9 to 14) (size 15 to 20)
#    0.000    2.000    0.000    4.125    0.000    5.500 
#    9.000    0.000    0.000    0.000    0.000    0.000 
#    0.000    0.000    0.000    0.000    0.000    0.000 
#
# Total GULP energy -396552.973187 kJ/mol
# GULP energy per Si atom -12392.280412 kJ/mol
# Density = 2.177104 g / cm^3
# Si number density = 21.820705 Si / 1000 Ang^3
#
#
#
# Elastic Constant Matrix: (Units=GPa)
#
#
# Indices 1 2 3 4 5 6 
#
# 1 43.3328 15.1106 10.9749 0.0000 -18.5676 0.0000
# 2 15.1106 158.4165 29.5729 0.0000 -12.1070 0.0000
# 3 10.9749 29.5729 83.2462 0.0000 -19.2822 0.0000
# 4 0.0000 0.0000 0.0000 28.7019 0.0000 -10.2735
# 5 -18.5676 -12.1070 -19.2822 0.0000 31.9085 0.0000
# 6 0.0000 0.0000 0.0000 -10.2735 0.0000 24.7103
#
#
#
# Elastic Compliance Matrix: (Units=1/GPa)
#
#
# Indices 1 2 3 4 5 6 
#
# 1 0.031176 -0.001728 0.000644 0.000000 0.017875 0.000000
# 2 -0.001728 0.006903 -0.002152 0.000000 0.000313 0.000000
# 3 0.000644 -0.002152 0.014639 0.000000 0.008404 0.000000
# 4 0.000000 0.000000 0.000000 0.040932 0.000000 0.017018
# 5 0.017875 0.000313 0.008404 0.000000 0.046939 0.000000
# 6 0.000000 0.000000 0.000000 0.017018 0.000000 0.047544
#
#
# Mechanical properties :
#
#
# Convention : Reuss Voigt Hill
#
# Bulk Modulus (GPa) = 21.62349 44.03471 32.82910
# Shear Modulus (GPa) = 23.80733 32.35328 28.08031
#
# Velocity S-wave (km/s) = 3.30668 3.85474 3.59118
# Velocity P-wave (km/s) = 4.95075 6.32741 5.68094
#
# Compressibility (1/GPa) = 0.04624600
#
# Stress axis : x y z
#
# Youngs Moduli (GPa) = 32.07630 144.86581 68.31153
#
# Poissons Ratio (x) = 0.25030 -0.04399
# Poissons Ratio (y) = 0.05542 0.14700
# Poissons Ratio (z) = -0.02066 0.31173
#
# Static dielectric constant tensor:
#      x y z
#    x 3.888670 0.000000 -0.278620 
#    y 0.000000 4.257200 0.000000 
#    z -0.278620 0.000000 3.679420 
# 
# 
# High freq. dielectric constant tensor:
#      x y z
#    x 1.846190 0.000000 -0.016160 
#    y 0.000000 1.878000 0.000000 
#    z -0.016160 0.000000 1.836870 
# 
# From -- ./inp_files/177865.got.cif
#   From: 2010.06.25/outbox.cif.g09.slc.cpg/sg15_89_cif.got.tgz:177865.got - 2010.06.28 07:06:18.
