data_PCOD8135190
_publ_section_title
;
Structure prediction by ZEFSAII (Michael W. Deem and Ramdas Pophale) SiO2 
 PCOD8135190
Probable space group: C 2/C
;
_chemical_formula_sum "Si O2"
_cell_formula_units_Z 40
_cell_length_a 12.957028
_cell_length_b 15.125060
_cell_length_c 9.529732
_cell_angle_alpha 90.000000
_cell_angle_beta 105.816277
_cell_angle_gamma 90.000000
_cell_volume 1796.891000
_symmetry_space_group_name_H-M "C 2/C"
_symmetry_group_IT_number 15
_symmetry_cell_setting 'monoclinic'
loop_
_space_group_symop_operation_xyz
x,y,z
-x,y,1/2-z
-x,-y,-z
x,-y,1/2+z
1/2+x,1/2+y,z
1/2-x,1/2+y,1/2-z
1/2-x,1/2-y,-z
1/2+x,1/2-y,1/2+z
loop_
_atom_site_type_symbol
_atom_site_label
_atom_site_fract_x
_atom_site_fract_y
_atom_site_fract_z
Si Si1 0.672879 0.806687 0.376898
Si Si2 0.778841 0.512254 0.722441
Si Si3 0.447906 0.573300 0.384508
Si Si4 0.905460 0.557420 0.031346
Si Si5 0.046700 0.731848 0.570372
O O1 0.750000 0.750000 0.500000
O O2 0.735292 0.898156 0.373118
O O3 0.559378 0.817442 0.412116
O O4 0.643883 0.761321 0.218677
O O5 0.676796 0.448880 0.678295
O O6 0.803857 0.534342 0.893250
O O7 0.879848 0.464135 0.683731
O O8 0.500000 0.579491 0.250000
O O9 0.500000 0.500000 0.500000
O O10 0.469279 0.665594 0.477076
O O11 0.920955 0.664214 0.040601
O O12 0.000000 0.500000 0.000000
#
# Coordination Sequence:
#
# PCOD8135190 Si02
#       5
#     8   8   8   8   8
#     4  10  19  37  64  92 117 172 218 250 315 400
#     4  11  24  38  67  97 127 169 217 268 327 383
#     4  12  25  44  66  92 134 174 220 268 323 387
#     4  11  22  42  65  97 132 166 219 273 324 387
#     4  10  22  39  65  91 131 171 217 263 321 391
#
# _framework density 22.260670999999999
#
# number of rings (size 3 to 8) (size 9 to 14) (size 15 to 20)
#    0.000    1.200    4.000    3.000    2.800    0.800 
#    0.000    2.000    0.000    0.000    0.000    0.000 
#    0.000    0.000    0.000    0.000    0.000    0.000 
#
# Total GULP energy -247822.554806 kJ/mol
# GULP energy per Si atom -12391.127740 kJ/mol
# Density = 2.221000 g / cm^3
# Si number density = 22.260671 Si / 1000 Ang^3
#
#
#
# Elastic Constant Matrix: (Units=GPa)
#
#
# Indices 1 2 3 4 5 6 
#
# 1 87.4392 27.6339 -2.2922 0.0000 -0.0491 0.0000
# 2 27.6339 150.0607 20.9379 0.0000 -10.3397 0.0000
# 3 -2.2922 20.9379 39.8163 0.0000 -2.6589 0.0000
# 4 0.0000 0.0000 0.0000 34.2091 0.0000 0.9320
# 5 -0.0491 -10.3397 -2.6589 0.0000 27.5628 0.0000
# 6 0.0000 0.0000 0.0000 0.9320 0.0000 32.9432
#
#
#
# Elastic Compliance Matrix: (Units=1/GPa)
#
#
# Indices 1 2 3 4 5 6 
#
# 1 0.012312 -0.002602 0.002027 0.000000 -0.000759 0.000000
# 2 -0.002602 0.007896 -0.004131 0.000000 0.002559 0.000000
# 3 0.002027 -0.004131 0.027478 0.000000 0.001105 0.000000
# 4 0.000000 0.000000 0.000000 0.029254 0.000000 -0.000828
# 5 -0.000759 0.002559 0.001105 0.000000 0.037346 0.000000
# 6 0.000000 0.000000 0.000000 -0.000828 0.000000 0.030379
#
#
# Mechanical properties :
#
#
# Convention : Reuss Voigt Hill
#
# Bulk Modulus (GPa) = 26.12874 41.09727 33.61301
# Shear Modulus (GPa) = 29.96962 34.34549 32.15756
#
# Velocity S-wave (km/s) = 3.67318 3.93221 3.80490
# Velocity P-wave (km/s) = 5.45461 6.25446 5.86818
#
# Compressibility (1/GPa) = 0.03827203
#
# Stress axis : x y z
#
# Youngs Moduli (GPa) = 81.22409 126.64809 36.39258
#
# Poissons Ratio (x) = 0.32957 -0.07375
# Poissons Ratio (y) = 0.21136 0.15034
# Poissons Ratio (z) = -0.16460 0.52319
#
# Static dielectric constant tensor:
#      x y z
#    x 2.943630 0.000000 0.011130 
#    y 0.000000 4.290200 0.000000 
#    z 0.011130 0.000000 3.985110 
# 
# 
# High freq. dielectric constant tensor:
#      x y z
#    x 1.865570 0.000000 0.012630 
#    y 0.000000 1.891800 0.000000 
#    z 0.012630 0.000000 1.863130 
# 
# From -- ./inp_files/56373.got.cif
#   From: 2010.06.25/outbox.cif.g09.slc.cpg/sg15_29_cif.got.tgz:56373.got - 2010.06.28 07:06:18.
