data_PCOD8135756
_publ_section_title
;
Structure prediction by ZEFSAII (Michael W. Deem and Ramdas Pophale) SiO2 
 PCOD8135756
Probable space group: C 2/C
;
_chemical_formula_sum "Si O2"
_cell_formula_units_Z 56
_cell_length_a 19.731965
_cell_length_b 10.768789
_cell_length_c 12.790969
_cell_angle_alpha 90.000000
_cell_angle_beta 69.240175
_cell_angle_gamma 90.000000
_cell_volume 2541.480826
_symmetry_space_group_name_H-M "C 2/C"
_symmetry_group_IT_number 15
_symmetry_cell_setting 'monoclinic'
loop_
_space_group_symop_operation_xyz
x,y,z
-x,y,1/2-z
-x,-y,-z
x,-y,1/2+z
1/2+x,1/2+y,z
1/2-x,1/2+y,1/2-z
1/2-x,1/2-y,-z
1/2+x,1/2-y,1/2+z
loop_
_atom_site_type_symbol
_atom_site_label
_atom_site_fract_x
_atom_site_fract_y
_atom_site_fract_z
Si Si1 0.711193 0.869492 0.658759
Si Si2 0.923803 0.500423 0.846242
Si Si3 0.579905 0.723815 0.162818
Si Si4 0.066454 0.909545 0.460598
Si Si5 0.968965 0.749079 0.383633
Si Si6 0.826660 0.122482 0.915896
Si Si7 0.832486 0.070115 0.241498
O O1 0.762891 0.894553 0.532700
O O2 0.686843 0.727260 0.664394
O O3 0.753493 0.891815 0.743380
O O4 0.640387 0.956572 0.696050
O O5 0.902680 0.639151 0.895152
O O6 0.936356 0.390160 0.926120
O O7 0.000000 0.518366 0.750000
O O8 0.500000 0.708121 0.250000
O O9 0.626036 0.695171 0.243719
O O10 0.594750 0.626917 0.060066
O O11 0.035968 0.783781 0.421746
O O12 0.129423 0.980092 0.363397
O O13 0.000000 0.000000 0.500000
O O14 0.903043 0.848356 0.433001
O O15 0.000000 0.751886 0.250000
O O16 0.827394 0.995343 0.854978
#
# Coordination Sequence:
#
# PCOD8135756 Si02
#       7
#     8   8   8   8   8   8   8
#     4  10  23  43  65  92 128 169 214 260 325 391
#     4   9  22  45  66  92 130 168 216 264 322 390
#     4  11  24  41  62  98 134 168 212 270 320 381
#     4  12  23  37  65  99 128 166 216 262 322 376
#     4  10  19  39  67  92 130 170 213 261 310 392
#     4  10  22  41  63  95 123 171 214 258 323 381
#     4  12  23  39  67  93 131 168 212 272 320 379
#
# _framework density 22.034399000000001
#
# number of rings (size 3 to 8) (size 9 to 14) (size 15 to 20)
#    0.000    1.429    2.857    2.571    2.000    0.571 
#    2.571    1.429    0.000    0.000    0.000    0.000 
#    0.000    0.000    0.000    0.000    0.000    0.000 
#
# Total GULP energy -346934.642335 kJ/mol
# GULP energy per Si atom -12390.522941 kJ/mol
# Density = 2.198425 g / cm^3
# Si number density = 22.034399 Si / 1000 Ang^3
#
#
#
# Elastic Constant Matrix: (Units=GPa)
#
#
# Indices 1 2 3 4 5 6 
#
# 1 134.6775 35.3512 25.5373 0.0000 20.4350 0.0000
# 2 35.3512 86.7186 23.2338 0.0000 17.2077 0.0000
# 3 25.5373 23.2338 54.6829 0.0000 15.2611 0.0000
# 4 0.0000 0.0000 0.0000 12.5385 0.0000 -0.2467
# 5 20.4350 17.2077 15.2611 0.0000 36.2377 0.0000
# 6 0.0000 0.0000 0.0000 -0.2467 0.0000 19.6001
#
#
#
# Elastic Compliance Matrix: (Units=1/GPa)
#
#
# Indices 1 2 3 4 5 6 
#
# 1 0.008950 -0.002448 -0.002329 0.000000 -0.002904 0.000000
# 2 -0.002448 0.014321 -0.003886 0.000000 -0.003784 0.000000
# 3 -0.002329 -0.003886 0.022827 0.000000 -0.006455 0.000000
# 4 0.000000 0.000000 0.000000 0.079774 0.000000 0.001004
# 5 -0.002904 -0.003784 -0.006455 0.000000 0.033748 0.000000
# 6 0.000000 0.000000 0.000000 0.001004 0.000000 0.051033
#
#
# Mechanical properties :
#
#
# Convention : Reuss Voigt Hill
#
# Bulk Modulus (GPa) = 34.75518 49.36929 42.06223
# Shear Modulus (GPa) = 21.04639 26.47239 23.75939
#
# Velocity S-wave (km/s) = 3.09392 3.46990 3.28729
# Velocity P-wave (km/s) = 5.34514 6.20546 5.79130
#
# Compressibility (1/GPa) = 0.02877269
#
# Stress axis : x y z
#
# Youngs Moduli (GPa) = 111.73170 69.82537 43.80709
#
# Poissons Ratio (x) = 0.17096 0.10203
# Poissons Ratio (y) = 0.27356 0.17022
# Poissons Ratio (z) = 0.26024 0.27131
#
# Static dielectric constant tensor:
#      x y z
#    x 4.205740 0.000000 0.148650 
#    y 0.000000 4.760880 0.000000 
#    z 0.148650 0.000000 3.664680 
# 
# 
# High freq. dielectric constant tensor:
#      x y z
#    x 1.875880 0.000000 0.003030 
#    y 0.000000 1.880250 0.000000 
#    z 0.003030 0.000000 1.835460 
# 
# From -- ./inp_files/110982.got.cif
#   From: 2010.06.25/outbox.cif.g09.slc.cpg/sg15_56_cif.got.tgz:110982.got - 2010.06.28 07:06:18.
