data_PCOD8135447
_publ_section_title
;
Structure prediction by ZEFSAII (Michael W. Deem and Ramdas Pophale) SiO2 
 PCOD8135447
Probable space group: C 2/C
;
_chemical_formula_sum "Si O2"
_cell_formula_units_Z 56
_cell_length_a 9.303230
_cell_length_b 30.268456
_cell_length_c 10.295638
_cell_angle_alpha 90.000000
_cell_angle_beta 66.792341
_cell_angle_gamma 90.000000
_cell_volume 2664.599045
_symmetry_space_group_name_H-M "C 2/C"
_symmetry_group_IT_number 15
_symmetry_cell_setting 'monoclinic'
loop_
_space_group_symop_operation_xyz
x,y,z
-x,y,1/2-z
-x,-y,-z
x,-y,1/2+z
1/2+x,1/2+y,z
1/2-x,1/2+y,1/2-z
1/2-x,1/2-y,-z
1/2+x,1/2-y,1/2+z
loop_
_atom_site_type_symbol
_atom_site_label
_atom_site_fract_x
_atom_site_fract_y
_atom_site_fract_z
Si Si1 0.500000 0.739126 0.750000
Si Si2 0.762167 0.786429 0.799579
Si Si3 0.500000 0.784199 0.250000
Si Si4 0.789840 0.394552 0.034693
Si Si5 0.676097 0.617722 0.861756
Si Si6 0.586358 0.853926 0.025492
Si Si7 0.594741 0.679213 0.501152
Si Si8 0.041585 0.962280 0.087652
O O1 0.595664 0.771096 0.808631
O O2 0.617620 0.711132 0.617154
O O3 0.886100 0.796193 0.641406
O O4 0.847195 0.745165 0.840124
O O5 0.725846 0.830564 0.894782
O O6 0.477812 0.816342 0.132460
O O7 0.714222 0.381760 0.197713
O O8 0.724477 0.359364 0.955061
O O9 0.723829 0.443896 0.019784
O O10 0.978327 0.387719 0.977850
O O11 0.831388 0.615685 0.894271
O O12 0.583164 0.662299 0.928492
O O13 0.566605 0.576412 0.928074
O O14 0.000000 0.977296 0.250000
O O15 0.000000 0.000000 0.000000
#
# Coordination Sequence:
#
# PCOD8135447 Si02
#       8
#     4   8   4   8   8   8   8   8
#     4  12  20  36  54  74 110 158 216 252 318 354
#     4  12  25  34  50  86 116 156 201 277 310 336
#     4  12  22  38  54  78 120 162 214 254 308 346
#     4  10  19  38  64  85 113 161 199 238 285 376
#     4  10  19  38  63  86 111 161 199 238 289 373
#     4  12  22  38  58  83 122 159 210 250 308 357
#     4  11  20  37  56  76 112 153 215 249 302 360
#     4   9  20  40  68  98 123 146 197 240 297 370
#
# _framework density 21.016295
#
# number of rings (size 3 to 8) (size 9 to 14) (size 15 to 20)
#    0.000    1.143    2.857    6.000    0.000    0.000 
#    5.143    0.714    0.000    0.000    0.000    0.000 
#    0.000    0.000    0.000    0.000    0.000    0.000 
#
# Total GULP energy -347016.762176 kJ/mol
# GULP energy per Si atom -12393.455792 kJ/mol
# Density = 2.096846 g / cm^3
# Si number density = 21.016295 Si / 1000 Ang^3
#
#
#
# Elastic Constant Matrix: (Units=GPa)
#
#
# Indices 1 2 3 4 5 6 
#
# 1 116.7176 38.8679 -0.9999 0.0000 -0.0010 0.0000
# 2 38.8679 82.1687 27.7364 0.0000 7.3462 0.0000
# 3 -0.9999 27.7364 67.4238 0.0000 0.9585 0.0000
# 4 0.0000 0.0000 0.0000 23.4193 0.0000 5.9420
# 5 -0.0010 7.3462 0.9585 0.0000 24.1820 0.0000
# 6 0.0000 0.0000 0.0000 5.9420 0.0000 38.6624
#
#
#
# Elastic Compliance Matrix: (Units=1/GPa)
#
#
# Indices 1 2 3 4 5 6 
#
# 1 0.010608 -0.006059 0.002625 0.000000 0.001737 0.000000
# 2 -0.006059 0.018005 -0.007423 0.000000 -0.005176 0.000000
# 3 0.002625 -0.007423 0.017902 0.000000 0.001546 0.000000
# 4 0.000000 0.000000 0.000000 0.044432 0.000000 -0.006829
# 5 0.001737 -0.005176 0.001546 0.000000 0.042864 0.000000
# 6 0.000000 0.000000 0.000000 -0.006829 0.000000 0.026914
#
#
# Mechanical properties :
#
#
# Convention : Reuss Voigt Hill
#
# Bulk Modulus (GPa) = 40.32129 44.16878 42.24504
# Shear Modulus (GPa) = 26.21827 30.63312 28.42570
#
# Velocity S-wave (km/s) = 3.53586 3.82198 3.68170
# Velocity P-wave (km/s) = 5.99142 6.36701 6.18207
#
# Compressibility (1/GPa) = 0.02480079
#
# Stress axis : x y z
#
# Youngs Moduli (GPa) = 94.26850 55.54115 55.85928
#
# Poissons Ratio (x) = 0.33654 -0.14665
# Poissons Ratio (y) = 0.57120 0.41464
# Poissons Ratio (z) = -0.24748 0.41228
#
# Static dielectric constant tensor:
#      x y z
#    x 3.972690 0.000000 0.038340 
#    y 0.000000 3.709360 0.000000 
#    z 0.038340 0.000000 3.607720 
# 
# 
# High freq. dielectric constant tensor:
#      x y z
#    x 1.833000 0.000000 0.006070 
#    y 0.000000 1.791190 0.000000 
#    z 0.006070 0.000000 1.809340 
# 
# From -- ./inp_files/82501.got.cif
#   From: 2010.06.25/outbox.cif.g09.slc.cpg/sg15_42_cif.got.tgz:82501.got - 2010.06.28 07:06:18.
