data_PCOD8135996
_publ_section_title
;
Structure prediction by ZEFSAII (Michael W. Deem and Ramdas Pophale) SiO2 
 PCOD8135996
Probable space group: C 2/C
;
_chemical_formula_sum "Si O2"
_cell_formula_units_Z 40
_cell_length_a 17.281149
_cell_length_b 9.153471
_cell_length_c 13.299119
_cell_angle_alpha 90.000000
_cell_angle_beta 94.303119
_cell_angle_gamma 90.000000
_cell_volume 2097.757651
_symmetry_space_group_name_H-M "C 2/C"
_symmetry_group_IT_number 15
_symmetry_cell_setting 'monoclinic'
loop_
_space_group_symop_operation_xyz
x,y,z
-x,y,1/2-z
-x,-y,-z
x,-y,1/2+z
1/2+x,1/2+y,z
1/2-x,1/2+y,1/2-z
1/2-x,1/2-y,-z
1/2+x,1/2-y,1/2+z
loop_
_atom_site_type_symbol
_atom_site_label
_atom_site_fract_x
_atom_site_fract_y
_atom_site_fract_z
Si Si1 0.654523 0.740655 0.380230
Si Si2 0.305820 0.404095 0.414666
Si Si3 0.962339 0.849551 0.349051
Si Si4 0.105777 0.855808 0.660981
Si Si5 0.999793 0.335556 0.463859
O O1 0.685381 0.625186 0.465434
O O2 0.720712 0.862382 0.367715
O O3 0.637021 0.656362 0.276487
O O4 0.578063 0.821522 0.409092
O O5 0.370405 0.310509 0.356229
O O6 0.322725 0.576835 0.397514
O O7 0.009267 0.777193 0.444746
O O8 0.000000 0.787984 0.250000
O O9 0.966823 0.027747 0.351314
O O10 0.074078 0.701714 0.615009
O O11 0.000000 0.500000 0.500000
#
# Coordination Sequence:
#
# PCOD8135996 Si02
#       5
#     8   8   8   8   8
#     4  10  19  42  61  87 129 155 202 254 313 360
#     4   8  21  37  62  88 116 159 195 253 303 362
#     4   9  19  36  62  88 114 155 210 254 296 367
#     4  10  21  37  68  89 112 165 210 246 307 371
#     4  11  23  38  58  91 125 163 203 261 310 360
#
# _framework density 19.067979999999999
#
# number of rings (size 3 to 8) (size 9 to 14) (size 15 to 20)
#    1.200    1.200    0.000    2.400    2.800    1.600 
#   14.400    1.000    0.000    0.000    0.000    0.000 
#    0.000    0.000    0.000    0.000    0.000    0.000 
#
# Total GULP energy -247781.209666 kJ/mol
# GULP energy per Si atom -12389.060483 kJ/mol
# Density = 1.902458 g / cm^3
# Si number density = 19.067980 Si / 1000 Ang^3
#
#
#
# Elastic Constant Matrix: (Units=GPa)
#
#
# Indices 1 2 3 4 5 6 
#
# 1 87.8077 39.9792 52.3059 0.0000 -5.2389 0.0000
# 2 39.9792 103.6875 54.3733 0.0000 11.5688 0.0000
# 3 52.3059 54.3733 121.1725 0.0000 6.0686 0.0000
# 4 0.0000 0.0000 0.0000 25.4166 0.0000 3.5787
# 5 -5.2389 11.5688 6.0686 0.0000 26.3274 0.0000
# 6 0.0000 0.0000 0.0000 3.5787 0.0000 31.1820
#
#
#
# Elastic Compliance Matrix: (Units=1/GPa)
#
#
# Indices 1 2 3 4 5 6 
#
# 1 0.017231 -0.004332 -0.005828 0.000000 0.006676 0.000000
# 2 -0.004332 0.014199 -0.004194 0.000000 -0.006135 0.000000
# 3 -0.005828 -0.004194 0.012764 0.000000 -0.002259 0.000000
# 4 0.000000 0.000000 0.000000 0.039991 0.000000 -0.004590
# 5 0.006676 -0.006135 -0.002259 0.000000 0.042528 0.000000
# 6 0.000000 0.000000 0.000000 -0.004590 0.000000 0.032597
#
#
# Mechanical properties :
#
#
# Convention : Reuss Voigt Hill
#
# Bulk Modulus (GPa) = 64.58252 67.33161 65.95707
# Shear Modulus (GPa) = 25.88265 27.65248 26.76757
#
# Velocity S-wave (km/s) = 3.68827 3.81229 3.75079
# Velocity P-wave (km/s) = 7.21671 7.40041 7.30914
#
# Compressibility (1/GPa) = 0.01548407
#
# Stress axis : x y z
#
# Youngs Moduli (GPa) = 58.03381 70.42981 78.34743
#
# Poissons Ratio (x) = 0.30513 0.45664
# Poissons Ratio (y) = 0.25143 0.32858
# Poissons Ratio (z) = 0.33825 0.29537
#
# Static dielectric constant tensor:
#      x y z
#    x 3.488290 0.000000 -0.101170 
#    y 0.000000 3.172600 0.000000 
#    z -0.101170 0.000000 3.498370 
# 
# 
# High freq. dielectric constant tensor:
#      x y z
#    x 1.732380 0.000000 -0.004850 
#    y 0.000000 1.707850 0.000000 
#    z -0.004850 0.000000 1.747870 
# 
# From -- ./inp_files/102774.got.cif
#   From: 2010.06.25/outbox.cif.g09.slc.cpg/sg15_52_cif.got.tgz:102774.got - 2010.06.28 07:06:18.
