data_PCOD8135115
_publ_section_title
;
Structure prediction by ZEFSAII (Michael W. Deem and Ramdas Pophale) SiO2 
 PCOD8135115
Probable space group: C 2/C
;
_chemical_formula_sum "Si O2"
_cell_formula_units_Z 56
_cell_length_a 29.080486
_cell_length_b 9.409538
_cell_length_c 18.456764
_cell_angle_alpha 90.000000
_cell_angle_beta 35.394465
_cell_angle_gamma 90.000000
_cell_volume 2925.202200
_symmetry_space_group_name_H-M "C 2/C"
_symmetry_group_IT_number 15
_symmetry_cell_setting 'monoclinic'
loop_
_space_group_symop_operation_xyz
x,y,z
-x,y,1/2-z
-x,-y,-z
x,-y,1/2+z
1/2+x,1/2+y,z
1/2-x,1/2+y,1/2-z
1/2-x,1/2-y,-z
1/2+x,1/2-y,1/2+z
loop_
_atom_site_type_symbol
_atom_site_label
_atom_site_fract_x
_atom_site_fract_y
_atom_site_fract_z
Si Si1 0.408214 0.666659 0.861037
Si Si2 0.157024 0.997586 0.187630
Si Si3 0.196069 0.388423 0.563753
Si Si4 0.164414 0.524043 0.267795
Si Si5 0.403777 0.278994 0.636718
Si Si6 0.660442 0.463829 0.906284
Si Si7 0.089735 0.811292 0.401771
O O1 0.500000 0.680570 0.750000
O O2 0.389180 0.552457 0.823841
O O3 0.380887 0.829564 0.879458
O O4 0.370223 0.606847 0.981906
O O5 0.127646 0.155008 0.246937
O O6 0.137864 0.887560 0.276136
O O7 0.252385 0.001878 0.049056
O O8 0.250000 0.250000 0.500000
O O9 0.174635 0.448376 0.669528
O O10 0.107838 0.388555 0.348623
O O11 0.247352 0.497493 0.201785
O O12 0.118594 0.649688 0.367867
O O13 0.350803 0.347458 0.641738
O O14 0.495876 0.319001 0.507476
O O15 0.612107 0.607778 0.947928
#
# Coordination Sequence:
#
# PCOD8135115 Si02
#       7
#     8   8   8   8   8   8   8
#     4  11  19  35  64  90 117 156 207 250 295 356
#     4  10  19  40  62  83 118 155 207 241 292 366
#     4  10  19  37  62  86 114 160 196 245 293 357
#     4  12  22  40  62  90 122 158 201 246 308 358
#     4  11  25  38  61  92 122 161 196 255 307 352
#     4  11  22  38  62  92 116 160 210 244 296 359
#     4  11  21  40  62  89 124 156 199 250 305 356
#
# _framework density 19.143975000000001
#
# number of rings (size 3 to 8) (size 9 to 14) (size 15 to 20)
#    0.000    1.143    5.714    4.714    0.000    1.714 
#    0.000    0.000    0.000    0.857    0.000    0.000 
#    0.000    0.000    0.000    0.000    0.000    0.000 
#
# Total GULP energy -347134.613560 kJ/mol
# GULP energy per Si atom -12397.664770 kJ/mol
# Density = 1.910040 g / cm^3
# Si number density = 19.143975 Si / 1000 Ang^3
#
#
#
# Elastic Constant Matrix: (Units=GPa)
#
#
# Indices 1 2 3 4 5 6 
#
# 1 118.6024 35.6367 26.3865 0.0018 -5.0424 -0.0010
# 2 35.6367 116.4057 28.0873 0.0167 4.6937 -0.0104
# 3 26.3865 28.0873 97.0384 0.0212 23.3055 -0.0131
# 4 0.0018 0.0167 0.0212 26.1286 -0.0102 -1.8184
# 5 -5.0424 4.6937 23.3055 -0.0102 30.5729 0.0071
# 6 -0.0010 -0.0104 -0.0131 -1.8184 0.0071 31.6642
#
#
#
# Elastic Compliance Matrix: (Units=1/GPa)
#
#
# Indices 1 2 3 4 5 6 
#
# 1 0.010054 -0.002517 -0.003056 0.000005 0.004374 -0.000002
# 2 -0.002517 0.009880 -0.002095 -0.000004 -0.000335 0.000002
# 3 -0.003056 -0.002095 0.014428 -0.000014 -0.011180 0.000007
# 4 0.000005 -0.000004 -0.000014 0.038426 0.000025 0.002207
# 5 0.004374 -0.000335 -0.011180 0.000025 0.042004 -0.000013
# 6 -0.000002 0.000002 0.000007 0.002207 -0.000013 0.031708
#
#
# Mechanical properties :
#
#
# Convention : Reuss Voigt Hill
#
# Bulk Modulus (GPa) = 52.55868 56.91862 54.73865
# Shear Modulus (GPa) = 29.73062 33.80220 31.76641
#
# Velocity S-wave (km/s) = 3.94509 4.20656 4.07792
# Velocity P-wave (km/s) = 6.94735 7.30684 7.12936
#
# Compressibility (1/GPa) = 0.01902635
#
# Stress axis : x y z
#
# Youngs Moduli (GPa) = 99.46711 101.21292 69.31132
#
# Poissons Ratio (x) = 0.25474 0.21180
# Poissons Ratio (y) = 0.25035 0.14520
# Poissons Ratio (z) = 0.30394 0.21203
#
# Static dielectric constant tensor:
#      x y z
#    x 4.544740 -0.000170 -0.129180 
#    y -0.000170 4.352930 0.000050 
#    z -0.129180 0.000050 3.915990 
# 
# 
# High freq. dielectric constant tensor:
#      x y z
#    x 1.746640 0.000000 -0.003220 
#    y 0.000000 1.733690 0.000000 
#    z -0.003220 0.000000 1.753160 
# 
# From -- ./inp_files/222005.got.cif
#   From: 2010.06.25/outbox.cif.g09.slc.cpg/sg15_112_cif.got.tgz:222005.got - 2010.06.28 07:06:18.
