data_PCOD8135181
_publ_section_title
;
Structure prediction by ZEFSAII (Michael W. Deem and Ramdas Pophale) SiO2 
 PCOD8135181
Probable space group: C 2/C
;
_chemical_formula_sum "Si O2"
_cell_formula_units_Z 56
_cell_length_a 22.234675
_cell_length_b 6.292755
_cell_length_c 19.936082
_cell_angle_alpha 90.000000
_cell_angle_beta 98.225926
_cell_angle_gamma 90.000000
_cell_volume 2760.705478
_symmetry_space_group_name_H-M "C 2/C"
_symmetry_group_IT_number 15
_symmetry_cell_setting 'monoclinic'
loop_
_space_group_symop_operation_xyz
x,y,z
-x,y,1/2-z
-x,-y,-z
x,-y,1/2+z
1/2+x,1/2+y,z
1/2-x,1/2+y,1/2-z
1/2-x,1/2-y,-z
1/2+x,1/2-y,1/2+z
loop_
_atom_site_type_symbol
_atom_site_label
_atom_site_fract_x
_atom_site_fract_y
_atom_site_fract_z
Si Si1 0.624934 0.722890 0.163556
Si Si2 0.024206 0.520527 0.115778
Si Si3 0.378755 0.658762 0.928979
Si Si4 0.542685 0.359406 0.320003
Si Si5 0.333314 0.588562 0.722519
Si Si6 0.711449 0.899870 0.671358
Si Si7 0.963223 0.135255 0.049253
O O1 0.567450 0.871648 0.167272
O O2 0.617942 0.584725 0.094849
O O3 0.627449 0.562815 0.224612
O O4 0.684772 0.864572 0.167853
O O5 0.065235 0.705256 0.090945
O O6 0.975850 0.627302 0.157075
O O7 0.990202 0.374041 0.055737
O O8 0.314588 0.766224 0.896621
O O9 0.392645 0.651450 0.011236
O O10 0.500000 0.423015 0.250000
O O11 0.614654 0.324345 0.318040
O O12 0.534107 0.535580 0.376424
O O13 0.302507 0.776117 0.761378
O O14 0.283378 0.444128 0.675901
O O15 0.000000 0.000000 0.000000
#
# Coordination Sequence:
#
# PCOD8135181 Si02
#       7
#     8   8   8   8   8   8   8
#     4  10  19  37  64  88 127 164 213 269 318 385
#     4  11  21  38  63  93 129 167 212 270 327 393
#     4  10  21  37  62  96 120 169 228 266 313 393
#     4  12  26  40  60 101 142 162 216 279 340 398
#     4  11  22  41  61  95 129 173 223 276 324 397
#     4  10  21  38  65  89 123 171 227 271 325 384
#     4  12  23  41  66  94 133 181 220 265 334 405
#
# _framework density 20.284670999999999
#
# number of rings (size 3 to 8) (size 9 to 14) (size 15 to 20)
#    0.000    1.143    4.286    3.857    0.000    2.857 
#    0.000    2.143    0.000    1.714    0.000    0.000 
#    0.000    0.000    0.000    0.000    0.000    0.000 
#
# Total GULP energy -346985.310822 kJ/mol
# GULP energy per Si atom -12392.332529 kJ/mol
# Density = 2.023850 g / cm^3
# Si number density = 20.284671 Si / 1000 Ang^3
#
#
#
# Elastic Constant Matrix: (Units=GPa)
#
#
# Indices 1 2 3 4 5 6 
#
# 1 127.3280 37.5545 45.3660 0.0000 9.9205 0.0000
# 2 37.5545 109.1993 36.8530 0.0000 2.0378 0.0000
# 3 45.3660 36.8530 102.7284 0.0000 21.4176 0.0000
# 4 0.0000 0.0000 0.0000 32.2489 0.0000 5.2035
# 5 9.9205 2.0378 21.4176 0.0000 28.0709 0.0000
# 6 0.0000 0.0000 0.0000 5.2035 0.0000 36.6345
#
#
#
# Elastic Compliance Matrix: (Units=1/GPa)
#
#
# Indices 1 2 3 4 5 6 
#
# 1 0.009761 -0.002206 -0.003369 0.000000 -0.000719 0.000000
# 2 -0.002206 0.011066 -0.003556 0.000000 0.002690 0.000000
# 3 -0.003369 -0.003556 0.014503 0.000000 -0.009617 0.000000
# 4 0.000000 0.000000 0.000000 0.031736 0.000000 -0.004508
# 5 -0.000719 0.002690 -0.009617 0.000000 0.043020 0.000000
# 6 0.000000 0.000000 0.000000 -0.004508 0.000000 0.027937
#
#
# Mechanical properties :
#
#
# Convention : Reuss Voigt Hill
#
# Bulk Modulus (GPa) = 58.59449 64.31141 61.45295
# Shear Modulus (GPa) = 30.86870 34.02301 32.44586
#
# Velocity S-wave (km/s) = 3.90523 4.09990 4.00375
# Velocity P-wave (km/s) = 7.02020 7.36108 7.19266
#
# Compressibility (1/GPa) = 0.01706645
#
# Stress axis : x y z
#
# Youngs Moduli (GPa) = 102.44962 90.36360 68.95107
#
# Poissons Ratio (x) = 0.19938 0.23230
# Poissons Ratio (y) = 0.22605 0.24522
# Poissons Ratio (z) = 0.34516 0.32137
#
# Static dielectric constant tensor:
#      x y z
#    x 3.717160 0.000000 0.513730 
#    y 0.000000 4.010130 0.000000 
#    z 0.513730 0.000000 3.770050 
# 
# 
# High freq. dielectric constant tensor:
#      x y z
#    x 1.780440 0.000000 0.041540 
#    y 0.000000 1.812110 0.000000 
#    z 0.041540 0.000000 1.769140 
# 
# From -- ./inp_files/254048.got.cif
#   From: 2010.06.25/outbox.cif.g09.slc.cpg/sg15_128_cif.got.tgz:254048.got - 2010.06.28 07:06:18.
