data_PCOD8135820
_publ_section_title
;
Structure prediction by ZEFSAII (Michael W. Deem and Ramdas Pophale) SiO2 
 PCOD8135820
Probable space group: C 2/C
;
_chemical_formula_sum "Si O2"
_cell_formula_units_Z 44
_cell_length_a 8.914308
_cell_length_b 29.305744
_cell_length_c 11.685992
_cell_angle_alpha 90.000000
_cell_angle_beta 133.794480
_cell_angle_gamma 90.000000
_cell_volume 2203.631839
_symmetry_space_group_name_H-M "C 2/C"
_symmetry_group_IT_number 15
_symmetry_cell_setting 'monoclinic'
loop_
_space_group_symop_operation_xyz
x,y,z
-x,y,1/2-z
-x,-y,-z
x,-y,1/2+z
1/2+x,1/2+y,z
1/2-x,1/2+y,1/2-z
1/2-x,1/2-y,-z
1/2+x,1/2-y,1/2+z
loop_
_atom_site_type_symbol
_atom_site_label
_atom_site_fract_x
_atom_site_fract_y
_atom_site_fract_z
Si Si1 0.000000 0.767593 0.250000
Si Si2 0.279327 0.368884 0.666084
Si Si3 0.276256 0.106670 0.114620
Si Si4 0.399076 0.809885 0.530413
Si Si5 0.216482 0.966427 0.409313
Si Si6 0.942779 0.444233 0.091051
O O1 0.981984 0.737212 0.126934
O O2 0.206261 0.798917 0.344157
O O3 0.500000 0.345809 0.750000
O O4 0.327640 0.389729 0.816704
O O5 0.222162 0.408787 0.547688
O O6 0.090918 0.332677 0.564434
O O7 0.500000 0.082809 0.250000
O O8 0.309513 0.157374 0.081992
O O9 0.151453 0.073812 0.963381
O O10 0.351092 0.944514 0.378187
O O11 0.000000 0.986783 0.250000
O O12 0.340388 0.005895 0.539590
O O13 0.000000 0.429619 0.250000
#
# Coordination Sequence:
#
# PCOD8135820 Si02
#       6
#     4   8   8   8   8   8
#     4  10  20  38  72  96 122 152 224 262 304 380
#     4  11  23  42  62  92 134 169 205 258 328 376
#     4  10  19  40  63  87 121 164 211 254 307 371
#     4  10  20  40  66  96 121 162 205 264 312 374
#     4  11  24  39  64  88 121 168 220 262 304 367
#     4  11  25  41  58  91 129 166 212 264 313 369
#
# _framework density 19.967036
#
# number of rings (size 3 to 8) (size 9 to 14) (size 15 to 20)
#    0.000    1.455    6.364    1.091    6.364    0.727 
#    0.000    0.909    0.000    0.000    0.000    0.000 
#    0.000    0.000    0.000    0.000    0.000    0.000 
#
# Total GULP energy -272767.366203 kJ/mol
# GULP energy per Si atom -12398.516646 kJ/mol
# Density = 1.992159 g / cm^3
# Si number density = 19.967036 Si / 1000 Ang^3
#
#
#
# Elastic Constant Matrix: (Units=GPa)
#
#
# Indices 1 2 3 4 5 6 
#
# 1 110.9412 40.4598 64.2757 0.0000 10.5826 0.0000
# 2 40.4598 84.5642 50.0202 0.0000 2.4230 0.0000
# 3 64.2757 50.0202 121.0959 0.0000 3.2027 0.0000
# 4 0.0000 0.0000 0.0000 36.7305 0.0000 5.5046
# 5 10.5826 2.4230 3.2027 0.0000 38.0495 0.0000
# 6 0.0000 0.0000 0.0000 5.5046 0.0000 14.5421
#
#
#
# Elastic Compliance Matrix: (Units=1/GPa)
#
#
# Indices 1 2 3 4 5 6 
#
# 1 0.013922 -0.002976 -0.006077 0.000000 -0.003171 0.000000
# 2 -0.002976 0.016293 -0.005156 0.000000 0.000224 0.000000
# 3 -0.006077 -0.005156 0.013590 0.000000 0.000875 0.000000
# 4 0.000000 0.000000 0.000000 0.028863 0.000000 -0.010925
# 5 -0.003171 0.000224 0.000875 0.000000 0.027076 0.000000
# 6 0.000000 0.000000 0.000000 -0.010925 0.000000 0.072901
#
#
# Mechanical properties :
#
#
# Convention : Reuss Voigt Hill
#
# Bulk Modulus (GPa) = 64.98828 69.56810 67.27819
# Shear Modulus (GPa) = 24.24938 28.65412 26.45175
#
# Velocity S-wave (km/s) = 3.48871 3.79234 3.64369
# Velocity P-wave (km/s) = 6.98903 7.35479 7.17424
#
# Compressibility (1/GPa) = 0.01538739
#
# Stress axis : x y z
#
# Youngs Moduli (GPa) = 71.82816 61.37719 73.58359
#
# Poissons Ratio (x) = 0.18265 0.44713
# Poissons Ratio (y) = 0.21375 0.37942
# Poissons Ratio (z) = 0.43647 0.31648
#
# Static dielectric constant tensor:
#      x y z
#    x 3.473060 0.000000 0.015460 
#    y 0.000000 3.496750 0.000000 
#    z 0.015460 0.000000 3.967660 
# 
# 
# High freq. dielectric constant tensor:
#      x y z
#    x 1.760030 0.000000 0.008300 
#    y 0.000000 1.770150 0.000000 
#    z 0.008300 0.000000 1.788080 
# 
# From -- ./inp_files/25558.got.cif
#   From: 2010.06.25/outbox.cif.g09.slc.cpg/sg15_13_cif.got.tgz:25558.got - 2010.06.28 07:06:18.
