data_PCOD8135437
_publ_section_title
;
Structure prediction by ZEFSAII (Michael W. Deem and Ramdas Pophale) SiO2 
 PCOD8135437
Probable space group: C 2/C
;
_chemical_formula_sum "Si O2"
_cell_formula_units_Z 56
_cell_length_a 8.859894
_cell_length_b 16.581119
_cell_length_c 25.328519
_cell_angle_alpha 90.000000
_cell_angle_beta 133.776937
_cell_angle_gamma 90.000000
_cell_volume 2686.659814
_symmetry_space_group_name_H-M "C 2/C"
_symmetry_group_IT_number 15
_symmetry_cell_setting 'monoclinic'
loop_
_space_group_symop_operation_xyz
x,y,z
-x,y,1/2-z
-x,-y,-z
x,-y,1/2+z
1/2+x,1/2+y,z
1/2-x,1/2+y,1/2-z
1/2-x,1/2-y,-z
1/2+x,1/2-y,1/2+z
loop_
_atom_site_type_symbol
_atom_site_label
_atom_site_fract_x
_atom_site_fract_y
_atom_site_fract_z
Si Si1 0.436400 0.788325 0.676570
Si Si2 0.855004 0.737104 0.451072
Si Si3 0.517540 0.347949 0.933924
Si Si4 0.261862 0.661160 0.176082
Si Si5 0.595778 0.006084 0.082731
Si Si6 0.349320 0.486760 0.012407
Si Si7 0.237281 0.138469 0.922788
O O1 0.500000 0.759789 0.750000
O O2 0.618549 0.841576 0.693636
O O3 0.405447 0.710211 0.632509
O O4 0.230963 0.843071 0.632354
O O5 0.633873 0.715899 0.425077
O O6 0.928488 0.823969 0.491555
O O7 0.809020 0.737685 0.377288
O O8 0.035070 0.670851 0.505238
O O9 0.598130 0.436601 0.937464
O O10 0.500000 0.670813 0.250000
O O11 0.238062 0.581551 0.133836
O O12 0.735260 0.924939 0.119429
O O13 0.386842 0.006905 0.068224
O O14 0.500000 0.000000 0.000000
O O15 0.372287 0.404796 0.052703
O O16 0.500000 0.500000 0.000000
#
# Coordination Sequence:
#
# PCOD8135437 Si02
#       7
#     8   8   8   8   8   8   8
#     4  11  26  43  59  92 133 174 217 267 318 380
#     4  10  19  38  62  94 119 169 205 256 316 386
#     4  10  21  35  64  94 129 158 206 267 320 372
#     4  12  24  40  67  90 126 174 217 257 319 392
#     4  10  19  40  65  94 122 164 214 257 313 395
#     4  11  20  33  60 102 125 151 204 277 319 371
#     4  10  21  40  67  88 131 163 213 259 318 389
#
# _framework density 20.843724999999999
#
# number of rings (size 3 to 8) (size 9 to 14) (size 15 to 20)
#    0.000    1.429    4.286    2.571    2.000    1.714 
#    0.000    0.000    0.000    0.857    0.000    0.000 
#    0.000    0.000    0.000    0.000    0.000    0.000 
#
# Total GULP energy -346908.383678 kJ/mol
# GULP energy per Si atom -12389.585131 kJ/mol
# Density = 2.079628 g / cm^3
# Si number density = 20.843725 Si / 1000 Ang^3
#
#
#
# Elastic Constant Matrix: (Units=GPa)
#
#
# Indices 1 2 3 4 5 6 
#
# 1 113.2771 3.8078 41.3671 0.0000 4.8916 0.0000
# 2 3.8078 69.6639 28.1539 0.0000 0.5239 0.0000
# 3 41.3671 28.1539 105.7134 0.0001 5.9817 0.0000
# 4 0.0000 0.0000 0.0001 15.1665 0.0000 -3.7025
# 5 4.8916 0.5239 5.9817 0.0000 31.2870 0.0000
# 6 0.0000 0.0000 0.0000 -3.7025 0.0000 33.5231
#
#
#
# Elastic Compliance Matrix: (Units=1/GPa)
#
#
# Indices 1 2 3 4 5 6 
#
# 1 0.010410 0.001193 -0.004345 0.000000 -0.000817 0.000000
# 2 0.001193 0.016232 -0.004816 0.000000 0.000462 0.000000
# 3 -0.004345 -0.004816 0.012535 0.000000 -0.001637 0.000000
# 4 0.000000 0.000000 0.000000 0.067762 0.000000 0.007484
# 5 -0.000817 0.000462 -0.001637 0.000000 0.032395 0.000000
# 6 0.000000 0.000000 0.000000 0.007484 0.000000 0.030657
#
#
# Mechanical properties :
#
#
# Convention : Reuss Voigt Hill
#
# Bulk Modulus (GPa) = 43.02704 48.36798 45.69751
# Shear Modulus (GPa) = 25.81659 30.35034 28.08347
#
# Velocity S-wave (km/s) = 3.52316 3.82001 3.67459
# Velocity P-wave (km/s) = 6.10227 6.53545 6.32257
#
# Compressibility (1/GPa) = 0.02324120
#
# Stress axis : x y z
#
# Youngs Moduli (GPa) = 96.06312 61.60554 79.77624
#
# Poissons Ratio (x) = -0.07350 0.34663
# Poissons Ratio (y) = -0.11462 0.38421
# Poissons Ratio (z) = 0.41740 0.29670
#
# Static dielectric constant tensor:
#      x y z
#    x 4.123870 0.000000 0.062250 
#    y 0.000000 4.213040 0.000000 
#    z 0.062250 0.000000 3.565830 
# 
# 
# High freq. dielectric constant tensor:
#      x y z
#    x 1.838460 0.000000 0.004730 
#    y 0.000000 1.810810 0.000000 
#    z 0.004730 0.000000 1.777020 
# 
# From -- ./inp_files/265609.got.cif
#   From: 2010.06.25/outbox.cif.g09.slc.cpg/sg15_133_cif.got.tgz:265609.got - 2010.06.28 07:06:18.
