data_PCOD8135957
_publ_section_title
;
Structure prediction by ZEFSAII (Michael W. Deem and Ramdas Pophale) SiO2 
 PCOD8135957
Probable space group: C 2/C
;
_chemical_formula_sum "Si O2"
_cell_formula_units_Z 40
_cell_length_a 11.917514
_cell_length_b 9.264280
_cell_length_c 16.694914
_cell_angle_alpha 90.000000
_cell_angle_beta 99.168561
_cell_angle_gamma 90.000000
_cell_volume 1819.688986
_symmetry_space_group_name_H-M "C 2/C"
_symmetry_group_IT_number 15
_symmetry_cell_setting 'monoclinic'
loop_
_space_group_symop_operation_xyz
x,y,z
-x,y,1/2-z
-x,-y,-z
x,-y,1/2+z
1/2+x,1/2+y,z
1/2-x,1/2+y,1/2-z
1/2-x,1/2-y,-z
1/2+x,1/2-y,1/2+z
loop_
_atom_site_type_symbol
_atom_site_label
_atom_site_fract_x
_atom_site_fract_y
_atom_site_fract_z
Si Si1 0.144984 0.528477 0.668834
Si Si2 0.239103 0.516095 0.851280
Si Si3 0.552912 0.118585 0.946334
Si Si4 0.436237 0.723501 0.900572
Si Si5 0.200996 0.783940 0.407649
O O1 0.175076 0.562137 0.763482
O O2 0.114155 0.361192 0.652104
O O3 0.249874 0.566873 0.621903
O O4 0.039434 0.634830 0.634995
O O5 0.171975 0.571421 0.921998
O O6 0.365281 0.582784 0.867384
O O7 0.244509 0.343355 0.854199
O O8 0.571260 0.259957 0.003201
O O9 0.500000 0.000000 0.000000
O O10 0.565822 0.701842 0.889894
O O11 0.250000 0.750000 0.500000
#
# Coordination Sequence:
#
# PCOD8135957 Si02
#       5
#     8   8   8   8   8
#     4  11  23  42  69 101 135 180 228 283 346 398
#     4  12  24  40  71 101 136 177 227 289 344 399
#     4  10  19  41  66  92 127 179 223 269 333 406
#     4  11  24  46  69  97 135 183 227 280 338 412
#     4  12  24  46  71  98 138 182 231 280 342 415
#
# _framework density 21.981777999999998
#
# number of rings (size 3 to 8) (size 9 to 14) (size 15 to 20)
#    0.000    0.800    6.000    3.600    0.000    3.200 
#    3.600    0.000    0.000    0.000    0.000    0.000 
#    0.000    0.000    0.000    0.000    0.000    0.000 
#
# Total GULP energy -247985.680424 kJ/mol
# GULP energy per Si atom -12399.284021 kJ/mol
# Density = 2.193175 g / cm^3
# Si number density = 21.981778 Si / 1000 Ang^3
#
#
#
# Elastic Constant Matrix: (Units=GPa)
#
#
# Indices 1 2 3 4 5 6 
#
# 1 163.4249 60.5709 28.4240 0.0000 12.2140 0.0000
# 2 60.5709 31.8684 9.1271 0.0000 8.8927 0.0000
# 3 28.4240 9.1271 105.7510 0.0000 18.3064 0.0000
# 4 0.0000 0.0000 0.0000 28.5705 0.0000 1.7474
# 5 12.2140 8.8927 18.3064 0.0000 39.7749 0.0000
# 6 0.0000 0.0000 0.0000 1.7474 0.0000 40.9427
#
#
#
# Elastic Compliance Matrix: (Units=1/GPa)
#
#
# Indices 1 2 3 4 5 6 
#
# 1 0.021766 -0.041636 -0.002946 0.000000 0.003981 0.000000
# 2 -0.041636 0.113408 0.003889 0.000000 -0.014359 0.000000
# 3 -0.002946 0.003889 0.010764 0.000000 -0.004919 0.000000
# 4 0.000000 0.000000 0.000000 0.035093 0.000000 -0.001498
# 5 0.003981 -0.014359 -0.004919 0.000000 0.029393 0.000000
# 6 0.000000 0.000000 0.000000 -0.001498 0.000000 0.024488
#
#
# Mechanical properties :
#
#
# Convention : Reuss Voigt Hill
#
# Bulk Modulus (GPa) = 15.49158 55.25424 35.37291
# Shear Modulus (GPa) = 14.80103 35.38579 25.09341
#
# Velocity S-wave (km/s) = 2.59768 4.01656 3.38236
# Velocity P-wave (km/s) = 4.00749 6.83383 5.60184
#
# Compressibility (1/GPa) = 0.06455119
#
# Stress axis : x y z
#
# Youngs Moduli (GPa) = 45.94413 8.81775 92.90367
#
# Poissons Ratio (x) = 0.36714 0.27368
# Poissons Ratio (y) = 1.91293 -0.36129
# Poissons Ratio (z) = 0.13534 -0.03429
#
# Static dielectric constant tensor:
#      x y z
#    x 4.096130 0.000000 0.224370 
#    y 0.000000 3.887230 0.000000 
#    z 0.224370 0.000000 4.346870 
# 
# 
# High freq. dielectric constant tensor:
#      x y z
#    x 1.871710 0.000000 0.010520 
#    y 0.000000 1.834720 0.000000 
#    z 0.010520 0.000000 1.877620 
# 
# From -- ./inp_files/195240.got.cif
#   From: 2010.06.25/outbox.cif.g09.slc.cpg/sg15_98_cif.got.tgz:195240.got - 2010.06.28 07:06:18.
