data_PCOD8135545
_publ_section_title
;
Structure prediction by ZEFSAII (Michael W. Deem and Ramdas Pophale) SiO2 
 PCOD8135545
Probable space group: C 2/C
;
_chemical_formula_sum "Si O2"
_cell_formula_units_Z 32
_cell_length_a 13.237520
_cell_length_b 14.441899
_cell_length_c 19.105077
_cell_angle_alpha 90.000000
_cell_angle_beta 22.500152
_cell_angle_gamma 90.000000
_cell_volume 1397.726397
_symmetry_space_group_name_H-M "C 2/C"
_symmetry_group_IT_number 15
_symmetry_cell_setting 'monoclinic'
loop_
_space_group_symop_operation_xyz
x,y,z
-x,y,1/2-z
-x,-y,-z
x,-y,1/2+z
1/2+x,1/2+y,z
1/2-x,1/2+y,1/2-z
1/2-x,1/2-y,-z
1/2+x,1/2-y,1/2+z
loop_
_atom_site_type_symbol
_atom_site_label
_atom_site_fract_x
_atom_site_fract_y
_atom_site_fract_z
Si Si1 0.228614 0.465663 0.047817
Si Si2 0.146431 0.313158 0.001454
Si Si3 0.795352 0.164700 0.251730
Si Si4 0.239504 0.847741 0.044005
O O1 0.120543 0.418065 0.045419
O O2 0.290379 0.573187 0.995410
O O3 0.000000 0.453670 0.250000
O O4 0.497714 0.416103 0.901685
O O5 0.867504 0.260607 0.163849
O O6 0.250000 0.250000 0.000000
O O7 0.320334 0.316244 0.819571
O O8 0.505529 0.132525 0.417033
O O9 0.250000 0.750000 0.000000
O O10 0.000000 0.853536 0.250000
#
# Coordination Sequence:
#
# PCOD8135545 Si02
#       4
#     8   8   8   8
#     4  11  24  42  66  96 129 170 222 267 317 388
#     4  10  19  38  66  97 128 163 213 264 318 383
#     4  11  23  41  68  97 132 173 211 270 329 376
#     4  12  27  45  65  94 132 173 219 267 324 391
#
# _framework density 22.894324000000001
#
# number of rings (size 3 to 8) (size 9 to 14) (size 15 to 20)
#    0.000    1.000    0.000    9.750    0.000    7.000 
#    0.000    0.000    0.000    0.000    0.000    0.000 
#    0.000    0.000    0.000    0.000    0.000    0.000 
#
# Total GULP energy -198354.801201 kJ/mol
# GULP energy per Si atom -12397.175075 kJ/mol
# Density = 2.284222 g / cm^3
# Si number density = 22.894324 Si / 1000 Ang^3
#
#
#
# Elastic Constant Matrix: (Units=GPa)
#
#
# Indices 1 2 3 4 5 6 
#
# 1 62.2146 28.2241 54.5010 -0.1787 -0.9605 0.2151
# 2 28.2241 162.9570 64.0539 -0.1344 3.3919 0.1019
# 3 54.5010 64.0539 206.1747 0.0603 7.9892 0.3639
# 4 -0.1787 -0.1344 0.0603 36.2127 0.1304 10.1624
# 5 -0.9605 3.3919 7.9892 0.1304 51.8061 -0.0407
# 6 0.2151 0.1019 0.3639 10.1624 -0.0407 29.0722
#
#
#
# Elastic Compliance Matrix: (Units=1/GPa)
#
#
# Indices 1 2 3 4 5 6 
#
# 1 0.021403 -0.001698 -0.005181 0.000141 0.001306 -0.000135
# 2 -0.001698 0.007126 -0.001756 0.000021 -0.000227 0.000002
# 3 -0.005181 -0.001756 0.006805 -0.000031 -0.001030 -0.000031
# 4 0.000141 0.000021 -0.000031 0.030620 -0.000079 -0.010704
# 5 0.001306 -0.000227 -0.001030 -0.000079 0.019501 0.000059
# 6 -0.000135 0.000002 -0.000031 -0.010704 0.000059 0.038140
#
#
# Mechanical properties :
#
#
# Convention : Reuss Voigt Hill
#
# Bulk Modulus (GPa) = 55.35603 80.54491 67.95047
# Shear Modulus (GPa) = 34.04002 42.38936 38.21469
#
# Velocity S-wave (km/s) = 3.86013 4.30760 4.08999
# Velocity P-wave (km/s) = 6.64070 7.74584 7.21446
#
# Compressibility (1/GPa) = 0.01806488
#
# Stress axis : x y z
#
# Youngs Moduli (GPa) = 46.72241 140.33735 146.94240
#
# Poissons Ratio (x) = 0.23823 0.76128
# Poissons Ratio (y) = 0.07931 0.25807
# Poissons Ratio (z) = 0.24206 0.24647
#
# Static dielectric constant tensor:
#      x y z
#    x 3.913860 0.000310 -0.149400 
#    y 0.000310 4.310780 -0.000490 
#    z -0.149400 -0.000490 4.597700 
# 
# 
# High freq. dielectric constant tensor:
#      x y z
#    x 1.879930 0.000010 0.005840 
#    y 0.000010 1.909860 0.000030 
#    z 0.005840 0.000030 1.933160 
# 
# From -- ./inp_files/37357.got.cif
#   From: 2010.06.25/outbox.cif.g09.slc.cpg/sg15_19_cif.got.tgz:37357.got - 2010.06.28 07:06:18.
