data_PCOD8135091
_publ_section_title
;
Structure prediction by ZEFSAII (Michael W. Deem and Ramdas Pophale) SiO2 
 PCOD8135091
Probable space group: C 2/C
;
_chemical_formula_sum "Si O2"
_cell_formula_units_Z 48
_cell_length_a 9.615860
_cell_length_b 29.476782
_cell_length_c 17.370749
_cell_angle_alpha 90.000000
_cell_angle_beta 28.861771
_cell_angle_gamma 90.000000
_cell_volume 2376.634392
_symmetry_space_group_name_H-M "C 2/C"
_symmetry_group_IT_number 15
_symmetry_cell_setting 'monoclinic'
loop_
_space_group_symop_operation_xyz
x,y,z
-x,y,1/2-z
-x,-y,-z
x,-y,1/2+z
1/2+x,1/2+y,z
1/2-x,1/2+y,1/2-z
1/2-x,1/2-y,-z
1/2+x,1/2-y,1/2+z
loop_
_atom_site_type_symbol
_atom_site_label
_atom_site_fract_x
_atom_site_fract_y
_atom_site_fract_z
Si Si1 0.907335 0.545491 0.707126
Si Si2 0.448511 0.272988 0.488353
Si Si3 0.165635 0.290541 0.772326
Si Si4 0.713151 0.363743 0.353142
Si Si5 0.993218 0.970386 0.662506
Si Si6 0.260927 0.108560 0.303711
O O1 0.792939 0.597446 0.752249
O O2 0.637221 0.514648 0.814793
O O3 0.000000 0.536494 0.750000
O O4 0.177353 0.536298 0.521702
O O5 0.442169 0.276854 0.585186
O O6 0.667319 0.232187 0.356965
O O7 0.543164 0.320609 0.401982
O O8 0.117767 0.266371 0.624959
O O9 0.140185 0.344927 0.786219
O O10 0.539280 0.387614 0.506490
O O11 0.000000 0.342486 0.250000
O O12 0.784154 0.928618 0.740624
O O13 0.000000 0.976316 0.750000
O O14 0.500000 0.093338 0.250000
#
# Coordination Sequence:
#
# PCOD8135091 Si02
#       6
#     8   8   8   8   8   8
#     4  11  23  42  67  90 115 165 208 241 294 376
#     4   9  17  33  55  85 117 152 193 250 291 344
#     4   9  17  33  58  85 116 150 204 245 288 345
#     4  10  19  37  61  88 118 153 210 248 285 357
#     4  12  26  42  61  92 129 153 193 263 312 352
#     4  11  20  39  65  90 116 167 209 241 291 370
#
# _framework density 20.196626999999999
#
# number of rings (size 3 to 8) (size 9 to 14) (size 15 to 20)
#    0.000    1.667    6.667    1.500    2.333    0.000 
#    3.000    4.167    3.667    0.000    0.000    0.000 
#    0.000    0.000    0.000    0.000    0.000    0.000 
#
# Total GULP energy -297370.013539 kJ/mol
# GULP energy per Si atom -12390.417231 kJ/mol
# Density = 2.015066 g / cm^3
# Si number density = 20.196627 Si / 1000 Ang^3
#
#
#
# Elastic Constant Matrix: (Units=GPa)
#
#
# Indices 1 2 3 4 5 6 
#
# 1 58.5410 25.0487 18.9444 -0.0001 5.4874 0.0000
# 2 25.0487 105.9821 36.4702 0.0000 6.4716 0.0000
# 3 18.9444 36.4702 107.2410 -0.0004 7.0310 0.0000
# 4 -0.0001 0.0000 -0.0004 35.3320 0.0002 2.1402
# 5 5.4874 6.4716 7.0310 0.0002 22.4987 0.0000
# 6 0.0000 0.0000 0.0000 2.1402 0.0000 17.6662
#
#
#
# Elastic Compliance Matrix: (Units=1/GPa)
#
#
# Indices 1 2 3 4 5 6 
#
# 1 0.019625 -0.003768 -0.001983 0.000000 -0.003083 0.000000
# 2 -0.003768 0.011496 -0.003152 0.000000 -0.001403 0.000000
# 3 -0.001983 -0.003152 0.010879 0.000000 -0.002009 0.000000
# 4 0.000000 0.000000 0.000000 0.028512 0.000000 -0.003454
# 5 -0.003083 -0.001403 -0.002009 0.000000 0.046230 0.000000
# 6 0.000000 0.000000 0.000000 -0.003454 0.000000 0.057024
#
#
# Mechanical properties :
#
#
# Convention : Reuss Voigt Hill
#
# Bulk Modulus (GPa) = 41.33255 48.07675 44.70465
# Shear Modulus (GPa) = 25.04542 27.85277 26.44910
#
# Velocity S-wave (km/s) = 3.52530 3.71763 3.62274
# Velocity P-wave (km/s) = 6.08932 6.50259 6.29934
#
# Compressibility (1/GPa) = 0.02419401
#
# Stress axis : x y z
#
# Youngs Moduli (GPa) = 50.95555 86.98396 91.92138
#
# Poissons Ratio (x) = 0.32772 0.18232
# Poissons Ratio (y) = 0.19198 0.28975
# Poissons Ratio (z) = 0.10107 0.27418
#
# Static dielectric constant tensor:
#      x y z
#    x 3.502920 0.000000 0.248910 
#    y 0.000000 3.752210 0.000000 
#    z 0.248910 0.000000 4.151790 
# 
# 
# High freq. dielectric constant tensor:
#      x y z
#    x 1.743580 0.000000 -0.002790 
#    y 0.000000 1.792420 0.000000 
#    z -0.002790 0.000000 1.804540 
# 
# From -- ./inp_files/194175.got.cif
#   From: 2010.06.25/outbox.cif.g09.slc.cpg/sg15_98_cif.got.tgz:194175.got - 2010.06.28 07:06:18.
