data_PCOD8135332
_publ_section_title
;
Structure prediction by ZEFSAII (Michael W. Deem and Ramdas Pophale) SiO2 
 PCOD8135332
Probable space group: C 2/C
;
_chemical_formula_sum "Si O2"
_cell_formula_units_Z 32
_cell_length_a 7.614529
_cell_length_b 13.129893
_cell_length_c 19.696281
_cell_angle_alpha 90.000000
_cell_angle_beta 68.508444
_cell_angle_gamma 90.000000
_cell_volume 1832.278865
_symmetry_space_group_name_H-M "C 2/C"
_symmetry_group_IT_number 15
_symmetry_cell_setting 'monoclinic'
loop_
_space_group_symop_operation_xyz
x,y,z
-x,y,1/2-z
-x,-y,-z
x,-y,1/2+z
1/2+x,1/2+y,z
1/2-x,1/2+y,1/2-z
1/2-x,1/2-y,-z
1/2+x,1/2-y,1/2+z
loop_
_atom_site_type_symbol
_atom_site_label
_atom_site_fract_x
_atom_site_fract_y
_atom_site_fract_z
Si Si1 0.638641 0.252570 0.585190
Si Si2 0.644838 0.219958 0.318164
Si Si3 0.257359 0.355395 0.660136
Si Si4 0.823801 0.418319 0.322805
O O1 0.750000 0.250000 0.500000
O O2 0.758357 0.316245 0.624911
O O3 0.438746 0.305214 0.600118
O O4 0.606169 0.137591 0.617979
O O5 0.424891 0.193237 0.350267
O O6 0.752317 0.164202 0.241501
O O7 0.675219 0.342632 0.305910
O O8 0.273198 0.475700 0.644077
O O9 0.000000 0.443017 0.250000
#
# Coordination Sequence:
#
# PCOD8135332 Si02
#       4
#     8   8   8   8
#     4  10  22  40  55  85 128 149 182 235 286 354
#     4   9  20  37  57  88 105 147 198 235 278 327
#     4  11  19  38  63  79 114 148 195 243 280 325
#     4  10  19  38  59  86 111 144 201 241 273 334
#
# _framework density 17.464590999999999
#
# number of rings (size 3 to 8) (size 9 to 14) (size 15 to 20)
#    1.500    0.500    5.000    0.750    0.000    2.000 
#   13.500    1.250    0.000    0.000    0.000    0.000 
#    0.000    0.000    0.000    0.000    0.000    0.000 
#
# Total GULP energy -198291.403390 kJ/mol
# GULP energy per Si atom -12393.212712 kJ/mol
# Density = 1.742484 g / cm^3
# Si number density = 17.464591 Si / 1000 Ang^3
#
#
#
# Elastic Constant Matrix: (Units=GPa)
#
#
# Indices 1 2 3 4 5 6 
#
# 1 79.2886 41.4465 36.7698 0.0000 -13.3421 0.0000
# 2 41.4465 139.8405 25.4820 0.0000 -14.8203 0.0000
# 3 36.7698 25.4820 103.5554 0.0000 -19.8996 0.0000
# 4 0.0000 0.0000 0.0000 5.5378 0.0000 -3.9797
# 5 -13.3421 -14.8203 -19.8996 0.0000 25.2138 0.0000
# 6 0.0000 0.0000 0.0000 -3.9797 0.0000 31.0434
#
#
#
# Elastic Compliance Matrix: (Units=1/GPa)
#
#
# Indices 1 2 3 4 5 6 
#
# 1 0.017346 -0.003966 -0.004559 0.000000 0.003250 0.000000
# 2 -0.003966 0.008661 -0.000174 0.000000 0.002854 0.000000
# 3 -0.004559 -0.000174 0.012772 0.000000 0.007565 0.000000
# 4 0.000000 0.000000 0.000000 0.198900 0.000000 0.025498
# 5 0.003250 0.002854 0.007565 0.000000 0.049029 0.000000
# 6 0.000000 0.000000 0.000000 0.025498 0.000000 0.035482
#
#
# Mechanical properties :
#
#
# Convention : Reuss Voigt Hill
#
# Bulk Modulus (GPa) = 46.77134 58.89787 52.83461
# Shear Modulus (GPa) = 14.42104 26.95809 20.68956
#
# Velocity S-wave (km/s) = 2.87667 3.93311 3.44562
# Velocity P-wave (km/s) = 6.15406 7.37721 6.79322
#
# Compressibility (1/GPa) = 0.02138061
#
# Stress axis : x y z
#
# Youngs Moduli (GPa) = 57.64916 115.46326 78.29582
#
# Poissons Ratio (x) = 0.45793 0.35694
# Poissons Ratio (y) = 0.22864 0.01366
# Poissons Ratio (z) = 0.26281 0.02014
#
# Static dielectric constant tensor:
#      x y z
#    x 3.391450 0.000000 -0.064040 
#    y 0.000000 3.210560 0.000000 
#    z -0.064040 0.000000 2.986530 
# 
# 
# High freq. dielectric constant tensor:
#      x y z
#    x 1.670160 0.000000 -0.006330 
#    y 0.000000 1.668110 0.000000 
#    z -0.006330 0.000000 1.657980 
# 
# From -- ./inp_files/132023.got.cif
#   From: 2010.06.25/outbox.cif.g09.slc.cpg/sg15_67_cif.got.tgz:132023.got - 2010.06.28 07:06:18.
