data_PCOD8135151
_publ_section_title
;
Structure prediction by ZEFSAII (Michael W. Deem and Ramdas Pophale) SiO2 
 PCOD8135151
Probable space group: C 2/C
;
_chemical_formula_sum "Si O2"
_cell_formula_units_Z 64
_cell_length_a 14.564901
_cell_length_b 14.809703
_cell_length_c 14.673042
_cell_angle_alpha 90.000000
_cell_angle_beta 63.572240
_cell_angle_gamma 90.000000
_cell_volume 2834.247730
_symmetry_space_group_name_H-M "C 2/C"
_symmetry_group_IT_number 15
_symmetry_cell_setting 'monoclinic'
loop_
_space_group_symop_operation_xyz
x,y,z
-x,y,1/2-z
-x,-y,-z
x,-y,1/2+z
1/2+x,1/2+y,z
1/2-x,1/2+y,1/2-z
1/2-x,1/2-y,-z
1/2+x,1/2-y,1/2+z
loop_
_atom_site_type_symbol
_atom_site_label
_atom_site_fract_x
_atom_site_fract_y
_atom_site_fract_z
Si Si1 0.453056 0.603103 0.178824
Si Si2 0.116880 0.046883 0.997199
Si Si3 0.256223 0.280746 0.358229
Si Si4 0.086296 0.537268 0.525521
Si Si5 0.775612 0.872858 0.873071
Si Si6 0.016314 0.283640 0.422412
Si Si7 0.764946 0.602716 0.466080
Si Si8 0.351720 0.714518 0.623912
O O1 0.500000 0.562086 0.250000
O O2 0.491849 0.540795 0.074896
O O3 0.331204 0.606794 0.250462
O O4 0.499681 0.703605 0.142620
O O5 0.156605 0.103463 0.068892
O O6 0.148027 0.108228 0.898592
O O7 0.169835 0.950710 0.963343
O O8 0.137062 0.291226 0.386034
O O9 0.275532 0.364712 0.417328
O O10 0.286943 0.187397 0.393013
O O11 0.334474 0.284019 0.239650
O O12 0.176234 0.564714 0.416798
O O13 0.133400 0.461969 0.573614
O O14 0.000000 0.500000 0.500000
O O15 0.036114 0.625531 0.597032
O O16 0.741111 0.767447 0.886524
O O17 0.959944 0.258959 0.543784
#
# Coordination Sequence:
#
# PCOD8135151 Si02
#       8
#     8   8   8   8   8   8   8   8
#     4   9  17  33  60  93 123 160 202 264 325 381
#     4   9  19  37  58  93 125 156 210 271 320 367
#     4  11  22  43  65  86 130 178 209 251 333 399
#     4  10  19  37  63  89 122 167 213 267 319 377
#     4   9  17  32  62  91 128 161 204 265 328 378
#     4  10  20  38  65  88 128 162 214 270 314 383
#     4  10  23  42  63  88 132 171 207 271 320 390
#     4  10  20  37  65  92 119 167 215 258 322 383
#
# _framework density 22.580947999999999
#
# number of rings (size 3 to 8) (size 9 to 14) (size 15 to 20)
#    0.000    2.250    2.500    0.375    0.000    3.000 
#    6.750   11.250    2.750    0.000    0.000    0.000 
#    0.000    0.000    0.000    0.000    0.000    0.000 
#
# Total GULP energy -396423.810296 kJ/mol
# GULP energy per Si atom -12388.244072 kJ/mol
# Density = 2.252955 g / cm^3
# Si number density = 22.580948 Si / 1000 Ang^3
#
#
#
# Elastic Constant Matrix: (Units=GPa)
#
#
# Indices 1 2 3 4 5 6 
#
# 1 63.6472 10.2451 11.4328 0.0000 -27.2948 0.0000
# 2 10.2451 94.7544 16.0354 0.0000 -7.3406 0.0000
# 3 11.4328 16.0354 121.0978 0.0000 -15.9058 0.0000
# 4 0.0000 0.0000 0.0000 24.5430 0.0000 1.2739
# 5 -27.2948 -7.3406 -15.9058 0.0000 30.4812 0.0000
# 6 0.0000 0.0000 0.0000 1.2739 0.0000 30.5687
#
#
#
# Elastic Compliance Matrix: (Units=1/GPa)
#
#
# Indices 1 2 3 4 5 6 
#
# 1 0.025665 -0.001113 0.000760 0.000000 0.023111 0.000000
# 2 -0.001113 0.010957 -0.001213 0.000000 0.001009 0.000000
# 3 0.000760 -0.001213 0.009016 0.000000 0.005093 0.000000
# 4 0.000000 0.000000 0.000000 0.040833 0.000000 -0.001702
# 5 0.023111 0.001009 0.005093 0.000000 0.056402 0.000000
# 6 0.000000 0.000000 0.000000 -0.001702 0.000000 0.032784
#
#
# Mechanical properties :
#
#
# Convention : Reuss Voigt Hill
#
# Bulk Modulus (GPa) = 23.52675 39.43625 31.48150
# Shear Modulus (GPa) = 25.91219 33.23766 29.57492
#
# Velocity S-wave (km/s) = 3.39119 3.84074 3.62294
# Velocity P-wave (km/s) = 5.07691 6.09678 5.61007
#
# Compressibility (1/GPa) = 0.04250481
#
# Stress axis : x y z
#
# Youngs Moduli (GPa) = 38.96336 91.26211 110.91834
#
# Poissons Ratio (x) = 0.10160 -0.08428
# Poissons Ratio (y) = 0.04337 0.13458
# Poissons Ratio (z) = -0.02961 0.11073
#
# Static dielectric constant tensor:
#      x y z
#    x 4.280760 0.000000 -0.418990 
#    y 0.000000 4.353090 0.000000 
#    z -0.418990 0.000000 4.255170 
# 
# 
# High freq. dielectric constant tensor:
#      x y z
#    x 1.884740 0.000000 -0.018430 
#    y 0.000000 1.898490 0.000000 
#    z -0.018430 0.000000 1.880930 
# 
# From -- ./inp_files/162261.got.cif
#   From: 2010.06.25/outbox.cif.g09.slc.cpg/sg15_82_cif.got.tgz:162261.got - 2010.06.28 07:06:18.
