data_PCOD8135070
_publ_section_title
;
Structure prediction by ZEFSAII (Michael W. Deem and Ramdas Pophale) SiO2 
 PCOD8135070
Probable space group: C 2/C
;
_chemical_formula_sum "Si O2"
_cell_formula_units_Z 52
_cell_length_a 29.358128
_cell_length_b 8.559128
_cell_length_c 15.271820
_cell_angle_alpha 90.000000
_cell_angle_beta 136.432332
_cell_angle_gamma 90.000000
_cell_volume 2644.848143
_symmetry_space_group_name_H-M "C 2/C"
_symmetry_group_IT_number 15
_symmetry_cell_setting 'monoclinic'
loop_
_space_group_symop_operation_xyz
x,y,z
-x,y,1/2-z
-x,-y,-z
x,-y,1/2+z
1/2+x,1/2+y,z
1/2-x,1/2+y,1/2-z
1/2-x,1/2-y,-z
1/2+x,1/2-y,1/2+z
loop_
_atom_site_type_symbol
_atom_site_label
_atom_site_fract_x
_atom_site_fract_y
_atom_site_fract_z
Si Si1 0.629207 0.402662 0.976780
Si Si2 0.561514 0.709610 0.887628
Si Si3 0.032539 0.506399 0.452452
Si Si4 0.749969 0.921429 0.903545
Si Si5 0.000000 0.285811 0.250000
Si Si6 0.673756 0.891840 0.626013
Si Si7 0.821345 0.607999 0.027425
O O1 0.602073 0.562984 0.983356
O O2 0.568148 0.314675 0.843321
O O3 0.687460 0.462138 0.991791
O O4 0.663310 0.294050 0.097515
O O5 0.500000 0.637132 0.750000
O O6 0.531311 0.812846 0.922730
O O7 0.605277 0.821581 0.884497
O O8 0.107233 0.459637 0.572150
O O9 0.000000 0.500000 0.500000
O O10 0.996965 0.394459 0.331874
O O11 0.728523 0.938778 0.772788
O O12 0.767427 0.740071 0.936030
O O13 0.691188 0.958196 0.891420
O O14 0.691659 0.966100 0.557203
#
# Coordination Sequence:
#
# PCOD8135070 Si02
#       7
#     8   8   8   8   4   8   8
#     4  10  21  37  60  89 117 161 194 247 306 346
#     4  10  19  37  61  81 117 158 189 242 299 352
#     4  10  22  37  60  89 114 160 203 244 300 357
#     4  10  20  38  60  83 119 156 200 238 294 366
#     4  10  20  40  58  88 126 148 204 254 292 360
#     4  10  21  36  58  86 121 150 197 254 291 351
#     4   9  21  37  56  87 109 157 201 230 298 353
#
# _framework density 19.660864
#
# number of rings (size 3 to 8) (size 9 to 14) (size 15 to 20)
#    0.000    2.154    1.538    0.923    2.154    0.615 
#    0.000   12.308    0.000    0.000    0.000    0.000 
#    0.000    0.000    0.000    0.000    0.000    0.000 
#
# Total GULP energy -322180.486367 kJ/mol
# GULP energy per Si atom -12391.557168 kJ/mol
# Density = 1.961611 g / cm^3
# Si number density = 19.660864 Si / 1000 Ang^3
#
#
#
# Elastic Constant Matrix: (Units=GPa)
#
#
# Indices 1 2 3 4 5 6 
#
# 1 113.7459 45.8729 54.3907 0.0000 -14.4737 0.0000
# 2 45.8729 112.9734 43.7487 0.0000 -9.4469 0.0000
# 3 54.3907 43.7487 91.1051 0.0000 -4.3948 0.0000
# 4 0.0000 0.0000 0.0000 24.3554 0.0000 3.7991
# 5 -14.4737 -9.4469 -4.3948 0.0000 23.0650 0.0000
# 6 0.0000 0.0000 0.0000 3.7991 0.0000 19.7864
#
#
#
# Elastic Compliance Matrix: (Units=1/GPa)
#
#
# Indices 1 2 3 4 5 6 
#
# 1 0.013833 -0.002462 -0.006768 0.000000 0.006382 0.000000
# 2 -0.002462 0.011598 -0.003981 0.000000 0.002447 0.000000
# 3 -0.006768 -0.003981 0.016800 0.000000 -0.002677 0.000000
# 4 0.000000 0.000000 0.000000 0.042326 0.000000 -0.008127
# 5 0.006382 0.002447 -0.002677 0.000000 0.047853 0.000000
# 6 0.000000 0.000000 0.000000 -0.008127 0.000000 0.052100
#
#
# Mechanical properties :
#
#
# Convention : Reuss Voigt Hill
#
# Bulk Modulus (GPa) = 63.26276 67.31656 65.28966
# Shear Modulus (GPa) = 23.12648 25.02882 24.07765
#
# Velocity S-wave (km/s) = 3.43340 3.57182 3.50329
# Velocity P-wave (km/s) = 6.92564 7.16406 7.04586
#
# Compressibility (1/GPa) = 0.01580709
#
# Stress axis : x y z
#
# Youngs Moduli (GPa) = 72.29045 86.22364 59.52478
#
# Poissons Ratio (x) = 0.21230 0.40288
# Poissons Ratio (y) = 0.17800 0.23698
# Poissons Ratio (z) = 0.48928 0.34328
#
# Static dielectric constant tensor:
#      x y z
#    x 3.454650 0.000000 0.096710 
#    y 0.000000 3.751370 0.000000 
#    z 0.096710 0.000000 3.438210 
# 
# 
# High freq. dielectric constant tensor:
#      x y z
#    x 1.757710 0.000000 0.022540 
#    y 0.000000 1.775430 0.000000 
#    z 0.022540 0.000000 1.754370 
# 
# From -- ./inp_files/176465.got.cif
#   From: 2010.06.25/outbox.cif.g09.slc.cpg/sg15_89_cif.got.tgz:176465.got - 2010.06.28 07:06:18.
