data_PCOD8135644
_publ_section_title
;
Structure prediction by ZEFSAII (Michael W. Deem and Ramdas Pophale) SiO2 
 PCOD8135644
Probable space group: C 2/C
;
_chemical_formula_sum "Si O2"
_cell_formula_units_Z 64
_cell_length_a 14.948383
_cell_length_b 11.616568
_cell_length_c 24.903723
_cell_angle_alpha 90.000000
_cell_angle_beta 135.768711
_cell_angle_gamma 90.000000
_cell_volume 3016.586084
_symmetry_space_group_name_H-M "C 2/C"
_symmetry_group_IT_number 15
_symmetry_cell_setting 'monoclinic'
loop_
_space_group_symop_operation_xyz
x,y,z
-x,y,1/2-z
-x,-y,-z
x,-y,1/2+z
1/2+x,1/2+y,z
1/2-x,1/2+y,1/2-z
1/2-x,1/2-y,-z
1/2+x,1/2-y,1/2+z
loop_
_atom_site_type_symbol
_atom_site_label
_atom_site_fract_x
_atom_site_fract_y
_atom_site_fract_z
Si Si1 0.796705 0.490752 0.455924
Si Si2 0.565692 0.044360 0.128571
Si Si3 0.525990 0.658007 0.026250
Si Si4 0.297039 0.793385 0.886170
Si Si5 0.670622 0.507930 0.013369
Si Si6 0.697664 0.838204 0.146246
Si Si7 0.391194 0.856926 0.744618
Si Si8 0.649685 0.923336 0.324350
O O1 0.775959 0.624337 0.429351
O O2 0.700456 0.464757 0.464004
O O3 0.763946 0.405733 0.392348
O O4 0.943968 0.468545 0.536914
O O5 0.643247 0.924448 0.168290
O O6 0.675087 0.126257 0.151717
O O7 0.528554 0.100671 0.168893
O O8 0.412879 0.704856 0.940993
O O9 0.642900 0.621943 0.036608
O O10 0.464344 0.560440 0.038292
O O11 0.576292 0.757708 0.085301
O O12 0.179238 0.708238 0.820278
O O13 0.794801 0.439341 0.090973
O O14 0.812304 0.760928 0.219401
O O15 0.500000 0.822687 0.750000
O O16 0.297036 0.964609 0.686275
O O17 0.500000 0.941093 0.250000
#
# Coordination Sequence:
#
# PCOD8135644 Si02
#       8
#     8   8   8   8   8   8   8   8
#     4  11  21  41  66  98 121 161 216 264 314 369
#     4  11  23  41  66  92 126 168 211 257 322 375
#     4  10  19  39  61  92 130 156 207 266 314 360
#     4  10  21  40  64  93 127 162 214 264 316 371
#     4  10  22  36  61  96 128 163 208 263 315 367
#     4  11  22  43  65  92 127 165 208 264 312 376
#     4  11  25  43  61  91 129 172 213 255 313 390
#     4  10  21  39  59  87 131 170 208 255 311 381
#
# _framework density 21.216035999999999
#
# number of rings (size 3 to 8) (size 9 to 14) (size 15 to 20)
#    0.000    1.500    3.750    2.250    1.750    3.500 
#    4.500    3.750    0.000    0.000    0.000    0.000 
#    0.000    0.000    0.000    0.000    0.000    0.000 
#
# Total GULP energy -396418.083941 kJ/mol
# GULP energy per Si atom -12388.065123 kJ/mol
# Density = 2.116775 g / cm^3
# Si number density = 21.216036 Si / 1000 Ang^3
#
#
#
# Elastic Constant Matrix: (Units=GPa)
#
#
# Indices 1 2 3 4 5 6 
#
# 1 95.4460 22.7194 23.0964 0.0000 -1.5233 0.0000
# 2 22.7194 116.6802 25.7760 0.0000 6.3300 0.0000
# 3 23.0964 25.7760 52.0478 0.0000 0.8206 0.0000
# 4 0.0000 0.0000 0.0000 28.2287 0.0000 1.7385
# 5 -1.5233 6.3300 0.8206 0.0000 22.4210 0.0000
# 6 0.0000 0.0000 0.0000 1.7385 0.0000 19.5972
#
#
#
# Elastic Compliance Matrix: (Units=1/GPa)
#
#
# Indices 1 2 3 4 5 6 
#
# 1 0.011950 -0.001375 -0.004643 0.000000 0.001370 0.000000
# 2 -0.001375 0.009929 -0.004264 0.000000 -0.002741 0.000000
# 3 -0.004643 -0.004264 0.023385 0.000000 0.000032 0.000000
# 4 0.000000 0.000000 0.000000 0.035620 0.000000 -0.003160
# 5 0.001370 -0.002741 0.000032 0.000000 0.045467 0.000000
# 6 0.000000 0.000000 0.000000 -0.003160 0.000000 0.051308
#
#
# Mechanical properties :
#
#
# Convention : Reuss Voigt Hill
#
# Bulk Modulus (GPa) = 40.48782 45.26197 42.87489
# Shear Modulus (GPa) = 24.21836 26.88820 25.55328
#
# Velocity S-wave (km/s) = 3.38229 3.56385 3.47426
# Velocity P-wave (km/s) = 5.86329 6.18990 6.02881
#
# Compressibility (1/GPa) = 0.02469879
#
# Stress axis : x y z
#
# Youngs Moduli (GPa) = 83.68199 100.71721 42.76333
#
# Poissons Ratio (x) = 0.13853 0.19856
# Poissons Ratio (y) = 0.11510 0.18232
# Poissons Ratio (z) = 0.38856 0.42941
#
# Static dielectric constant tensor:
#      x y z
#    x 3.700130 0.000000 0.074560 
#    y 0.000000 4.400390 0.000000 
#    z 0.074560 0.000000 3.774110 
# 
# 
# High freq. dielectric constant tensor:
#      x y z
#    x 1.813740 0.000000 0.003420 
#    y 0.000000 1.850350 0.000000 
#    z 0.003420 0.000000 1.812180 
# 
# From -- ./inp_files/296174.got.cif
#   From: 2010.06.25/outbox.cif.g09.slc.cpg/sg15_149_cif.got.tgz:296174.got - 2010.06.28 07:06:18.
