data_PCOD8135270
_publ_section_title
;
Structure prediction by ZEFSAII (Michael W. Deem and Ramdas Pophale) SiO2 
 PCOD8135270
Probable space group: C 2/C
;
_chemical_formula_sum "Si O2"
_cell_formula_units_Z 60
_cell_length_a 19.302187
_cell_length_b 27.694578
_cell_length_c 9.237826
_cell_angle_alpha 90.000000
_cell_angle_beta 137.439800
_cell_angle_gamma 90.000000
_cell_volume 3340.041343
_symmetry_space_group_name_H-M "C 2/C"
_symmetry_group_IT_number 15
_symmetry_cell_setting 'monoclinic'
loop_
_space_group_symop_operation_xyz
x,y,z
-x,y,1/2-z
-x,-y,-z
x,-y,1/2+z
1/2+x,1/2+y,z
1/2-x,1/2+y,1/2-z
1/2-x,1/2-y,-z
1/2+x,1/2-y,1/2+z
loop_
_atom_site_type_symbol
_atom_site_label
_atom_site_fract_x
_atom_site_fract_y
_atom_site_fract_z
Si Si1 0.287915 0.838961 0.462849
Si Si2 0.103153 0.680931 0.080196
Si Si3 0.705440 0.257689 0.699785
Si Si4 0.103599 0.520410 0.720844
Si Si5 0.622732 0.940593 0.958450
Si Si6 0.912737 0.180909 0.710162
Si Si7 0.000000 0.401274 0.250000
Si Si8 0.469462 0.734014 0.360838
O O1 0.367585 0.822435 0.707352
O O2 0.274714 0.798311 0.316532
O O3 0.327994 0.888349 0.460796
O O4 0.180221 0.852020 0.376879
O O5 0.189381 0.711951 0.126456
O O6 0.077098 0.629195 0.970984
O O7 0.997168 0.709581 0.908108
O O8 0.632482 0.277031 0.460462
O O9 0.649775 0.265837 0.770760
O O10 0.163637 0.477511 0.897767
O O11 0.164758 0.537897 0.674491
O O12 0.000000 0.500000 0.500000
O O13 0.079419 0.565865 0.785056
O O14 0.500000 0.936648 0.750000
O O15 0.000000 0.152439 0.750000
O O16 0.961641 0.203906 0.925603
O O17 0.500000 0.712612 0.250000
#
# Coordination Sequence:
#
# PCOD8135270 Si02
#       8
#     8   8   8   8   8   8   4   8
#     4  11  20  33  57  81  99 142 195 219 264 331
#     4  11  21  34  49  81 105 145 186 226 260 323
#     4  10  21  35  53  73 110 140 193 226 252 318
#     4  10  19  38  50  75 107 142 173 228 264 326
#     4  10  21  32  55  76 108 140 175 219 275 316
#     4   9  18  37  55  71 103 142 178 226 263 309
#     4  12  22  34  56  74 116 146 184 212 288 318
#     4  11  21  34  48  70 110 150 170 225 273 299
#
# _framework density 17.963849
#
# number of rings (size 3 to 8) (size 9 to 14) (size 15 to 20)
#    0.000    1.600    5.333    2.400    3.733    0.533 
#    2.400    0.000    0.000    0.000    0.000    0.933 
#    0.000    0.000    0.000    0.000    0.000    0.000 
#
# Total GULP energy -371644.603810 kJ/mol
# GULP energy per Si atom -12388.153460 kJ/mol
# Density = 1.792296 g / cm^3
# Si number density = 17.963849 Si / 1000 Ang^3
#
#
#
# Elastic Constant Matrix: (Units=GPa)
#
#
# Indices 1 2 3 4 5 6 
#
# 1 98.8849 27.1232 18.1226 0.0000 -9.9384 0.0000
# 2 27.1232 80.7128 14.3592 0.0000 -1.9113 0.0000
# 3 18.1226 14.3592 22.2835 0.0000 -0.3333 0.0000
# 4 0.0000 0.0000 0.0000 24.2906 0.0000 -8.9746
# 5 -9.9384 -1.9113 -0.3333 0.0000 26.7357 0.0000
# 6 0.0000 0.0000 0.0000 -8.9746 0.0000 19.2826
#
#
#
# Elastic Compliance Matrix: (Units=1/GPa)
#
#
# Indices 1 2 3 4 5 6 
#
# 1 0.012892 -0.002680 -0.008691 0.000000 0.004492 0.000000
# 2 -0.002680 0.014572 -0.007211 0.000000 -0.000044 0.000000
# 3 -0.008691 -0.007211 0.056545 0.000000 -0.003041 0.000000
# 4 0.000000 0.000000 0.000000 0.049718 0.000000 0.023140
# 5 0.004492 -0.000044 -0.003041 0.000000 0.039032 0.000000
# 6 0.000000 0.000000 0.000000 0.023140 0.000000 0.062630
#
#
# Mechanical properties :
#
#
# Convention : Reuss Voigt Hill
#
# Bulk Modulus (GPa) = 21.34658 35.67682 28.51170
# Shear Modulus (GPa) = 17.35099 23.54688 20.44893
#
# Velocity S-wave (km/s) = 3.11124 3.62441 3.37759
# Velocity P-wave (km/s) = 4.98149 6.11708 5.57826
#
# Compressibility (1/GPa) = 0.04684591
#
# Stress axis : x y z
#
# Youngs Moduli (GPa) = 77.56705 68.62466 17.68490
#
# Poissons Ratio (x) = 0.18390 0.15369
# Poissons Ratio (y) = 0.20787 0.12753
# Poissons Ratio (z) = 0.67411 0.49487
#
# Static dielectric constant tensor:
#      x y z
#    x 3.970310 0.000000 -0.347700 
#    y 0.000000 3.528140 0.000000 
#    z -0.347700 0.000000 3.441380 
# 
# 
# High freq. dielectric constant tensor:
#      x y z
#    x 1.696450 0.000000 -0.024990 
#    y 0.000000 1.668440 0.000000 
#    z -0.024990 0.000000 1.687540 
# 
# From -- ./inp_files/52198.got.cif
#   From: 2010.06.25/outbox.cif.g09.slc.cpg/sg15_27_cif.got.tgz:52198.got - 2010.06.28 07:06:18.
