data_PCOD8135859
_publ_section_title
;
Structure prediction by ZEFSAII (Michael W. Deem and Ramdas Pophale) SiO2 
 PCOD8135859
Probable space group: C 2/C
;
_chemical_formula_sum "Si O2"
_cell_formula_units_Z 60
_cell_length_a 27.636425
_cell_length_b 11.096909
_cell_length_c 11.995980
_cell_angle_alpha 90.000000
_cell_angle_beta 126.949278
_cell_angle_gamma 90.000000
_cell_volume 2940.070105
_symmetry_space_group_name_H-M "C 2/C"
_symmetry_group_IT_number 15
_symmetry_cell_setting 'monoclinic'
loop_
_space_group_symop_operation_xyz
x,y,z
-x,y,1/2-z
-x,-y,-z
x,-y,1/2+z
1/2+x,1/2+y,z
1/2-x,1/2+y,1/2-z
1/2-x,1/2-y,-z
1/2+x,1/2-y,1/2+z
loop_
_atom_site_type_symbol
_atom_site_label
_atom_site_fract_x
_atom_site_fract_y
_atom_site_fract_z
Si Si1 0.485556 0.863504 0.451262
Si Si2 0.188861 0.706942 0.469346
Si Si3 0.179555 0.927957 0.608287
Si Si4 0.138659 0.243633 0.225096
Si Si5 0.380720 0.169708 0.350023
Si Si6 0.308030 0.955269 0.321468
Si Si7 0.124823 0.829283 0.957928
Si Si8 0.500000 0.761336 0.250000
O O1 0.425486 0.796002 0.415208
O O2 0.548517 0.795796 0.565441
O O3 0.473859 0.854131 0.303624
O O4 0.500000 0.000000 0.500000
O O5 0.250000 0.750000 0.500000
O O6 0.164821 0.813772 0.511893
O O7 0.143428 0.681326 0.307183
O O8 0.195182 0.586519 0.553803
O O9 0.152481 0.888695 0.691301
O O10 0.250220 0.961893 0.713602
O O11 0.144234 0.034527 0.499698
O O12 0.190498 0.338495 0.258001
O O13 0.144550 0.227470 0.366459
O O14 0.348735 0.255517 0.398721
O O15 0.368270 0.034130 0.378705
O O16 0.052326 0.826609 0.865729
#
# Coordination Sequence:
#
# PCOD8135859 Si02
#       8
#     8   8   8   8   8   8   8   4
#     4  10  19  40  66  91 127 161 203 267 315 374
#     4  11  24  42  60  93 131 163 218 266 315 384
#     4  11  25  42  63  90 129 171 211 266 314 382
#     4  10  24  44  63  98 125 167 223 256 320 387
#     4  11  23  39  66  97 124 166 211 263 334 369
#     4  11  24  40  64  93 128 165 212 272 316 379
#     4  10  23  41  67  88 127 173 210 262 318 378
#     4   8  20  40  60  94 122 160 218 252 304 384
#
# _framework density 20.407675999999999
#
# number of rings (size 3 to 8) (size 9 to 14) (size 15 to 20)
#    0.000    1.600    2.667    0.800    7.467    1.600 
#    2.400    2.000    0.000    0.000    0.000    0.000 
#    0.000    0.000    0.000    0.000    0.000    0.000 
#
# Total GULP energy -371681.008658 kJ/mol
# GULP energy per Si atom -12389.366955 kJ/mol
# Density = 2.036123 g / cm^3
# Si number density = 20.407676 Si / 1000 Ang^3
#
#
#
# Elastic Constant Matrix: (Units=GPa)
#
#
# Indices 1 2 3 4 5 6 
#
# 1 86.1040 30.6573 37.1296 0.0000 -3.9500 0.0000
# 2 30.6573 92.3696 41.7203 0.0000 -0.8428 0.0000
# 3 37.1296 41.7203 108.6454 0.0000 -13.1761 0.0000
# 4 0.0000 0.0000 0.0000 36.6746 0.0000 -5.7577
# 5 -3.9500 -0.8428 -13.1761 0.0000 31.8458 0.0000
# 6 0.0000 0.0000 0.0000 -5.7577 0.0000 35.2553
#
#
#
# Elastic Compliance Matrix: (Units=1/GPa)
#
#
# Indices 1 2 3 4 5 6 
#
# 1 0.014309 -0.003083 -0.003686 0.000000 0.000168 0.000000
# 2 -0.003083 0.013864 -0.004498 0.000000 -0.001876 0.000000
# 3 -0.003686 -0.004498 0.012761 0.000000 0.004704 0.000000
# 4 0.000000 0.000000 0.000000 0.027984 0.000000 0.004570
# 5 0.000168 -0.001876 0.004704 0.000000 0.033319 0.000000
# 6 0.000000 0.000000 0.000000 0.004570 0.000000 0.029111
#
#
# Mechanical properties :
#
#
# Convention : Reuss Voigt Hill
#
# Bulk Modulus (GPa) = 54.34429 56.23703 55.29066
# Shear Modulus (GPa) = 31.24733 32.59593 31.92163
#
# Velocity S-wave (km/s) = 3.91724 4.00088 3.95928
# Velocity P-wave (km/s) = 6.86636 6.99710 6.93204
#
# Compressibility (1/GPa) = 0.01840120
#
# Stress axis : x y z
#
# Youngs Moduli (GPa) = 69.88831 72.13156 78.36085
#
# Poissons Ratio (x) = 0.22236 0.28882
# Poissons Ratio (y) = 0.21544 0.35244
# Poissons Ratio (z) = 0.25759 0.32443
#
# Static dielectric constant tensor:
#      x y z
#    x 4.153150 0.000000 -0.346080 
#    y 0.000000 3.790780 0.000000 
#    z -0.346080 0.000000 4.873060 
# 
# 
# High freq. dielectric constant tensor:
#      x y z
#    x 1.808370 0.000000 -0.005160 
#    y 0.000000 1.791820 0.000000 
#    z -0.005160 0.000000 1.796270 
# 
# From -- ./inp_files/126455.got.cif
#   From: 2010.06.25/outbox.cif.g09.slc.cpg/sg15_64_cif.got.tgz:126455.got - 2010.06.28 07:06:18.
