data_PCOD8135213
_publ_section_title
;
Structure prediction by ZEFSAII (Michael W. Deem and Ramdas Pophale) SiO2 
 PCOD8135213
Probable space group: C 2/C
;
_chemical_formula_sum "Si O2"
_cell_formula_units_Z 52
_cell_length_a 17.166945
_cell_length_b 13.328160
_cell_length_c 13.135170
_cell_angle_alpha 90.000000
_cell_angle_beta 65.655872
_cell_angle_gamma 90.000000
_cell_volume 2738.156813
_symmetry_space_group_name_H-M "C 2/C"
_symmetry_group_IT_number 15
_symmetry_cell_setting 'monoclinic'
loop_
_space_group_symop_operation_xyz
x,y,z
-x,y,1/2-z
-x,-y,-z
x,-y,1/2+z
1/2+x,1/2+y,z
1/2-x,1/2+y,1/2-z
1/2-x,1/2-y,-z
1/2+x,1/2-y,1/2+z
loop_
_atom_site_type_symbol
_atom_site_label
_atom_site_fract_x
_atom_site_fract_y
_atom_site_fract_z
Si Si1 0.300129 0.726930 0.829453
Si Si2 0.682757 0.206498 0.402264
Si Si3 0.646942 0.654453 0.097887
Si Si4 0.879193 0.253536 0.989261
Si Si5 0.490636 0.888722 0.466722
Si Si6 0.000000 0.698786 0.750000
Si Si7 0.089782 0.931312 0.145055
O O1 0.332830 0.770477 0.706673
O O2 0.197265 0.734469 0.888107
O O3 0.334098 0.611848 0.823090
O O4 0.342766 0.792245 0.898920
O O5 0.678615 0.309260 0.469806
O O6 0.772596 0.150242 0.369704
O O7 0.609677 0.132019 0.478595
O O8 0.579420 0.730667 0.181794
O O9 0.606137 0.545453 0.106272
O O10 0.960024 0.316336 0.982077
O O11 0.910076 0.137318 0.958322
O O12 0.524193 0.871608 0.333257
O O13 0.500000 0.000000 0.500000
O O14 0.000000 0.919913 0.250000
#
# Coordination Sequence:
#
# PCOD8135213 Si02
#       7
#     8   8   8   8   8   4   8
#     4   9  20  39  61  86 122 158 198 263 296 357
#     4  10  22  39  58  86 124 157 206 249 300 370
#     4  10  21  40  61  86 125 162 196 254 317 367
#     4   9  21  39  60  88 126 151 205 256 303 359
#     4  11  24  39  63  89 119 165 203 245 306 361
#     4  10  22  44  60  88 126 152 200 256 304 366
#     4  10  19  37  65  90 120 158 203 255 314 370
#
# _framework density 18.990877999999999
#
# number of rings (size 3 to 8) (size 9 to 14) (size 15 to 20)
#    0.923    1.231    0.769    1.846    2.154    1.231 
#    5.538    3.846    0.000    0.000    0.000    0.000 
#    0.000    0.000    0.000    0.000    0.000    0.000 
#
# Total GULP energy -322258.376224 kJ/mol
# GULP energy per Si atom -12394.552932 kJ/mol
# Density = 1.894765 g / cm^3
# Si number density = 18.990878 Si / 1000 Ang^3
#
#
#
# Elastic Constant Matrix: (Units=GPa)
#
#
# Indices 1 2 3 4 5 6 
#
# 1 94.0137 41.6091 32.9085 0.0000 -5.7477 0.0000
# 2 41.6091 135.6519 46.4397 0.0000 -1.0897 0.0000
# 3 32.9085 46.4397 101.6504 0.0000 1.4727 0.0000
# 4 0.0000 0.0000 0.0000 23.7640 0.0000 -1.8605
# 5 -5.7477 -1.0897 1.4727 0.0000 39.0905 0.0000
# 6 0.0000 0.0000 0.0000 -1.8605 0.0000 26.4441
#
#
#
# Elastic Compliance Matrix: (Units=1/GPa)
#
#
# Indices 1 2 3 4 5 6 
#
# 1 0.013102 -0.003013 -0.002894 0.000000 0.001952 0.000000
# 2 -0.003013 0.009437 -0.003335 0.000000 -0.000054 0.000000
# 3 -0.002894 -0.003335 0.012312 0.000000 -0.000982 0.000000
# 4 0.000000 0.000000 0.000000 0.042313 0.000000 0.002977
# 5 0.001952 -0.000054 -0.000982 0.000000 0.025904 0.000000
# 6 0.000000 0.000000 0.000000 0.002977 0.000000 0.038025
#
#
# Mechanical properties :
#
#
# Convention : Reuss Voigt Hill
#
# Bulk Modulus (GPa) = 61.09235 63.69228 62.39231
# Shear Modulus (GPa) = 30.29671 31.88365 31.09018
#
# Velocity S-wave (km/s) = 3.99849 4.10187 4.05051
# Velocity P-wave (km/s) = 7.31822 7.48632 7.40275
#
# Compressibility (1/GPa) = 0.01636866
#
# Stress axis : x y z
#
# Youngs Moduli (GPa) = 76.32241 105.96252 81.21835
#
# Poissons Ratio (x) = 0.31922 0.23502
# Poissons Ratio (y) = 0.22993 0.27090
# Poissons Ratio (z) = 0.22085 0.35343
#
# Static dielectric constant tensor:
#      x y z
#    x 3.534620 0.000000 -0.058900 
#    y 0.000000 3.244400 0.000000 
#    z -0.058900 0.000000 3.561350 
# 
# 
# High freq. dielectric constant tensor:
#      x y z
#    x 1.745520 0.000000 -0.010950 
#    y 0.000000 1.714790 0.000000 
#    z -0.010950 0.000000 1.744050 
# 
# From -- ./inp_files/160783.got.cif
#   From: 2010.06.25/outbox.cif.g09.slc.cpg/sg15_81_cif.got.tgz:160783.got - 2010.06.28 07:06:18.
