data_PCOD8135891
_publ_section_title
;
Structure prediction by ZEFSAII (Michael W. Deem and Ramdas Pophale) SiO2 
 PCOD8135891
Probable space group: C 2/C
;
_chemical_formula_sum "Si O2"
_cell_formula_units_Z 28
_cell_length_a 7.570081
_cell_length_b 11.177981
_cell_length_c 13.964425
_cell_angle_alpha 90.000000
_cell_angle_beta 62.389280
_cell_angle_gamma 90.000000
_cell_volume 1047.075413
_symmetry_space_group_name_H-M "C 2/C"
_symmetry_group_IT_number 15
_symmetry_cell_setting 'monoclinic'
loop_
_space_group_symop_operation_xyz
x,y,z
-x,y,1/2-z
-x,-y,-z
x,-y,1/2+z
1/2+x,1/2+y,z
1/2-x,1/2+y,1/2-z
1/2-x,1/2-y,-z
1/2+x,1/2-y,1/2+z
loop_
_atom_site_type_symbol
_atom_site_label
_atom_site_fract_x
_atom_site_fract_y
_atom_site_fract_z
Si Si1 0.926128 0.211832 0.163303
Si Si2 0.161801 0.992638 0.082270
Si Si3 0.998917 0.519653 0.637600
Si Si4 0.000000 0.201449 0.750000
O O1 0.685929 0.210515 0.218275
O O2 0.000000 0.185486 0.250000
O O3 0.020915 0.101049 0.079783
O O4 0.007869 0.339495 0.106545
O O5 0.294851 0.031220 0.142337
O O6 0.309542 0.955774 0.958394
O O7 0.025778 0.879944 0.147996
O O8 0.000000 0.500337 0.750000
#
# Coordination Sequence:
#
# PCOD8135891 Si02
#       4
#     8   8   8   4
#     4  10  20  40  65 100 135 174 226 274 338 407
#     4  10  19  40  69  97 142 174 221 290 330 402
#     4   9  20  38  70 102 133 178 230 275 342 404
#     4  10  22  40  66 104 134 176 224 276 338 410
#
# _framework density 26.741149
#
# number of rings (size 3 to 8) (size 9 to 14) (size 15 to 20)
#    0.000    2.286    1.429    0.857    0.000    0.000 
#    5.143   12.857    0.000   30.857    0.000    0.000 
#    0.000    0.000    0.000    0.000    0.000    0.000 
#
# Total GULP energy -173593.132585 kJ/mol
# GULP energy per Si atom -12399.509470 kJ/mol
# Density = 2.668029 g / cm^3
# Si number density = 26.741149 Si / 1000 Ang^3
#
#
#
# Elastic Constant Matrix: (Units=GPa)
#
#
# Indices 1 2 3 4 5 6 
#
# 1 142.0715 54.2024 66.3717 0.0000 -27.1503 0.0000
# 2 54.2024 115.6012 24.1336 0.0000 -21.7830 0.0000
# 3 66.3717 24.1336 131.0462 0.0000 -6.1918 0.0000
# 4 0.0000 0.0000 0.0000 -24.0912 0.0000 -6.9036
# 5 -27.1503 -21.7830 -6.1918 0.0000 41.8674 0.0000
# 6 0.0000 0.0000 0.0000 -6.9036 0.0000 52.1685
#
#
#
# Elastic Compliance Matrix: (Units=1/GPa)
#
#
# Indices 1 2 3 4 5 6 
#
# 1 0.011678 -0.003478 -0.005037 0.000000 0.005018 0.000000
# 2 -0.003478 0.010946 -0.000092 0.000000 0.003426 0.000000
# 3 -0.005037 -0.000092 0.010113 0.000000 -0.001819 0.000000
# 4 0.000000 0.000000 0.000000 -0.039992 0.000000 -0.005292
# 5 0.005018 0.003426 -0.001819 0.000000 0.028653 0.000000
# 6 0.000000 0.000000 0.000000 -0.005292 0.000000 0.018468
#
#
# Mechanical properties :
#
#
# Convention : Reuss Voigt Hill
#
# Bulk Modulus (GPa) = 64.42460 75.34824 69.88642
# Shear Modulus (GPa) = 80.31557 30.25636 55.28596
#
# Velocity S-wave (km/s) = 5.48631 3.36736 4.55185
# Velocity P-wave (km/s) = 8.01730 6.58459 7.33601
#
# Compressibility (1/GPa) = 0.01552202
#
# Stress axis : x y z
#
# Youngs Moduli (GPa) = 85.63240 91.35660 98.88249
#
# Poissons Ratio (x) = 0.31777 0.49806
# Poissons Ratio (y) = 0.29786 0.00913
# Poissons Ratio (z) = 0.43132 0.00843
#
# Static dielectric constant tensor:
#      x y z
#    x 4.905860 0.000000 -0.224860 
#    y 0.000000 4.857100 0.000000 
#    z -0.224860 0.000000 4.489720 
# 
# 
# High freq. dielectric constant tensor:
#      x y z
#    x 2.084500 0.000000 -0.014050 
#    y 0.000000 2.070890 0.000000 
#    z -0.014050 0.000000 2.060350 
# 
# From -- ./inp_files/131538.got.cif
#   From: 2010.06.25/outbox.cif.g09.slc.cpg/sg15_66_cif.got.tgz:131538.got - 2010.06.28 07:06:18.
