data_PCOD8135707
_publ_section_title
;
Structure prediction by ZEFSAII (Michael W. Deem and Ramdas Pophale) SiO2 
 PCOD8135707
Probable space group: C 2/C
;
_chemical_formula_sum "Si O2"
_cell_formula_units_Z 64
_cell_length_a 7.427661
_cell_length_b 15.819102
_cell_length_c 23.328703
_cell_angle_alpha 90.000000
_cell_angle_beta 81.248922
_cell_angle_gamma 90.000000
_cell_volume 2709.187489
_symmetry_space_group_name_H-M "C 2/C"
_symmetry_group_IT_number 15
_symmetry_cell_setting 'monoclinic'
loop_
_space_group_symop_operation_xyz
x,y,z
-x,y,1/2-z
-x,-y,-z
x,-y,1/2+z
1/2+x,1/2+y,z
1/2-x,1/2+y,1/2-z
1/2-x,1/2-y,-z
1/2+x,1/2-y,1/2+z
loop_
_atom_site_type_symbol
_atom_site_label
_atom_site_fract_x
_atom_site_fract_y
_atom_site_fract_z
Si Si1 0.515036 0.190327 0.315668
Si Si2 0.790455 0.443685 0.262768
Si Si3 0.099969 0.347141 0.469074
Si Si4 0.169033 0.290323 0.159452
Si Si5 0.748918 0.598882 0.946174
Si Si6 0.079010 0.849440 0.965383
Si Si7 0.266389 0.162728 0.659736
Si Si8 0.241010 0.057667 0.362947
O O1 0.500000 0.169813 0.250000
O O2 0.724526 0.204128 0.327244
O O3 0.402947 0.275038 0.334902
O O4 0.428750 0.110703 0.352565
O O5 0.758692 0.358673 0.299341
O O6 0.720139 0.419496 0.202166
O O7 0.688560 0.521117 0.301726
O O8 0.000000 0.471460 0.250000
O O9 0.039953 0.249098 0.469601
O O10 0.222560 0.368867 0.517548
O O11 0.204630 0.372324 0.405525
O O12 0.915836 0.401516 0.483287
O O13 0.232015 0.315508 0.092420
O O14 0.947713 0.286899 0.173826
O O15 0.770881 0.520136 0.903675
O O16 0.564545 0.597249 0.990980
O O17 0.083965 0.882493 0.898870
#
# Coordination Sequence:
#
# PCOD8135707 Si02
#       8
#     8   8   8   8   8   8   8   8
#     4  12  22  36  64  97 126 163 213 273 328 375
#     4   9  18  38  64  88 123 170 213 258 326 393
#     4  10  22  39  68 100 124 173 224 272 319 394
#     4   9  20  36  63  92 118 167 220 257 316 394
#     4  10  22  42  66  90 129 182 212 260 338 390
#     4  11  22  41  65  97 137 161 228 274 318 390
#     4  10  19  39  64  92 124 168 220 260 319 398
#     4  11  24  40  61 100 136 170 210 280 333 375
#
# _framework density 23.623318999999999
#
# number of rings (size 3 to 8) (size 9 to 14) (size 15 to 20)
#    0.000    1.750    2.500    2.625    1.750    0.500 
#    0.000    1.250    0.000   16.500    0.000    0.000 
#    0.000    0.000    0.000    0.000    0.000    0.000 
#
# Total GULP energy -396568.377033 kJ/mol
# GULP energy per Si atom -12392.761782 kJ/mol
# Density = 2.356955 g / cm^3
# Si number density = 23.623319 Si / 1000 Ang^3
#
#
#
# Elastic Constant Matrix: (Units=GPa)
#
#
# Indices 1 2 3 4 5 6 
#
# 1 65.5325 26.9475 17.7222 0.0000 -9.4042 0.0000
# 2 26.9475 56.4821 39.8252 0.0000 -13.8614 0.0000
# 3 17.7222 39.8252 102.2968 0.0000 -11.9702 0.0000
# 4 0.0000 0.0000 0.0000 39.8834 0.0000 -5.3166
# 5 -9.4042 -13.8614 -11.9702 0.0000 27.1229 0.0000
# 6 0.0000 0.0000 0.0000 -5.3166 0.0000 17.1828
#
#
#
# Elastic Compliance Matrix: (Units=1/GPa)
#
#
# Indices 1 2 3 4 5 6 
#
# 1 0.019115 -0.008839 0.000397 0.000000 0.002286 0.000000
# 2 -0.008839 0.030622 -0.009403 0.000000 0.008435 0.000000
# 3 0.000397 -0.009403 0.013519 0.000000 0.001299 0.000000
# 4 0.000000 0.000000 0.000000 0.026152 0.000000 0.008092
# 5 0.002286 0.008435 0.001299 0.000000 0.042546 0.000000
# 6 0.000000 0.000000 0.000000 0.008092 0.000000 0.060702
#
#
# Mechanical properties :
#
#
# Convention : Reuss Voigt Hill
#
# Bulk Modulus (GPa) = 36.27602 43.70013 39.98808
# Shear Modulus (GPa) = 21.04968 26.15890 23.60429
#
# Velocity S-wave (km/s) = 2.98829 3.33127 3.16443
# Velocity P-wave (km/s) = 5.22455 5.77368 5.50596
#
# Compressibility (1/GPa) = 0.02756642
#
# Stress axis : x y z
#
# Youngs Moduli (GPa) = 52.31554 32.65650 73.96766
#
# Poissons Ratio (x) = 0.28864 -0.02936
# Poissons Ratio (y) = 0.46239 0.69553
# Poissons Ratio (z) = -0.02076 0.30707
#
# Static dielectric constant tensor:
#      x y z
#    x 4.116050 0.000000 -0.075650 
#    y 0.000000 4.177430 0.000000 
#    z -0.075650 0.000000 4.661770 
# 
# 
# High freq. dielectric constant tensor:
#      x y z
#    x 1.909780 0.000000 -0.010760 
#    y 0.000000 1.914480 0.000000 
#    z -0.010760 0.000000 1.951030 
# 
# From -- ./inp_files/288711.got.cif
#   From: 2010.06.25/outbox.cif.g09.slc.cpg/sg15_145_cif.got.tgz:288711.got - 2010.06.28 07:06:18.
