data_PCOD8135105
_publ_section_title
;
Structure prediction by ZEFSAII (Michael W. Deem and Ramdas Pophale) SiO2 
 PCOD8135105
Probable space group: C 2/C
;
_chemical_formula_sum "Si O2"
_cell_formula_units_Z 64
_cell_length_a 16.114585
_cell_length_b 11.554508
_cell_length_c 20.643084
_cell_angle_alpha 90.000000
_cell_angle_beta 135.638102
_cell_angle_gamma 90.000000
_cell_volume 2687.442400
_symmetry_space_group_name_H-M "C 2/C"
_symmetry_group_IT_number 15
_symmetry_cell_setting 'monoclinic'
loop_
_space_group_symop_operation_xyz
x,y,z
-x,y,1/2-z
-x,-y,-z
x,-y,1/2+z
1/2+x,1/2+y,z
1/2-x,1/2+y,1/2-z
1/2-x,1/2-y,-z
1/2+x,1/2-y,1/2+z
loop_
_atom_site_type_symbol
_atom_site_label
_atom_site_fract_x
_atom_site_fract_y
_atom_site_fract_z
Si Si1 0.911074 0.536616 0.395159
Si Si2 0.650207 0.725369 0.604426
Si Si3 0.651245 0.322396 0.377295
Si Si4 0.551948 0.527706 0.925710
Si Si5 0.231818 0.166428 0.785352
Si Si6 0.119853 0.409050 0.922406
Si Si7 0.251011 0.133711 0.540252
Si Si8 0.904521 0.865767 0.920176
O O1 0.826542 0.637711 0.376207
O O2 0.829186 0.431820 0.327271
O O3 0.000000 0.500000 0.500000
O O4 0.988432 0.589265 0.379378
O O5 0.648346 0.669633 0.675314
O O6 0.751748 0.666571 0.617188
O O7 0.524094 0.707614 0.498817
O O8 0.548095 0.385255 0.362371
O O9 0.645877 0.357276 0.298654
O O10 0.783435 0.361340 0.472205
O O11 0.625633 0.184492 0.367520
O O12 0.427395 0.475545 0.883955
O O13 0.628911 0.419611 0.945965
O O14 0.629595 0.584846 0.027938
O O15 0.299969 0.288563 0.832850
O O16 0.143827 0.541527 0.913453
O O17 0.250000 0.250000 0.500000
#
# Coordination Sequence:
#
# PCOD8135105 Si02
#       8
#     8   8   8   8   8   8   8   8
#     4  12  22  41  69  99 132 179 225 280 333 399
#     4  11  25  42  64  99 133 172 226 272 341 408
#     4  10  19  37  62 101 125 170 226 278 329 394
#     4   9  20  35  68  89 127 171 220 265 333 395
#     4  12  25  40  69  97 135 174 225 281 334 399
#     4  10  20  37  68  92 128 173 227 272 334 398
#     4  10  21  37  64  92 129 172 219 269 333 400
#     4  10  20  42  65  93 129 178 218 270 336 399
#
# _framework density 23.814463
#
# number of rings (size 3 to 8) (size 9 to 14) (size 15 to 20)
#    0.000    1.500    2.500    3.750    3.500    4.000 
#    0.000    4.375    2.750    0.000    0.000    0.000 
#    0.000    0.000    0.000    0.000    0.000    0.000 
#
# Total GULP energy -396569.162478 kJ/mol
# GULP energy per Si atom -12392.786327 kJ/mol
# Density = 2.376026 g / cm^3
# Si number density = 23.814463 Si / 1000 Ang^3
#
#
#
# Elastic Constant Matrix: (Units=GPa)
#
#
# Indices 1 2 3 4 5 6 
#
# 1 119.3271 54.7291 26.9103 0.0000 -34.3248 0.0000
# 2 54.7291 158.4773 12.6362 0.0000 -10.5940 0.0000
# 3 26.9103 12.6362 57.4468 0.0000 -13.1546 0.0000
# 4 0.0000 0.0000 0.0000 17.5023 0.0000 -1.0268
# 5 -34.3248 -10.5940 -13.1546 0.0000 28.9008 0.0000
# 6 0.0000 0.0000 0.0000 -1.0268 0.0000 54.3543
#
#
#
# Elastic Compliance Matrix: (Units=1/GPa)
#
#
# Indices 1 2 3 4 5 6 
#
# 1 0.015284 -0.004028 -0.002741 0.000000 0.015428 0.000000
# 2 -0.004028 0.007580 -0.000268 0.000000 -0.002127 0.000000
# 3 -0.002741 -0.000268 0.020075 0.000000 0.005784 0.000000
# 4 0.000000 0.000000 0.000000 0.057199 0.000000 0.001081
# 5 0.015428 -0.002127 0.005784 0.000000 0.054778 0.000000
# 6 0.000000 0.000000 0.000000 0.001081 0.000000 0.018418
#
#
# Mechanical properties :
#
#
# Convention : Reuss Voigt Hill
#
# Bulk Modulus (GPa) = 34.64292 58.20029 46.42161
# Shear Modulus (GPa) = 25.37696 36.21651 30.79673
#
# Velocity S-wave (km/s) = 3.26791 3.90395 3.60000
# Velocity P-wave (km/s) = 5.36820 6.69426 6.06757
#
# Compressibility (1/GPa) = 0.02886592
#
# Stress axis : x y z
#
# Youngs Moduli (GPa) = 65.42786 131.92042 49.81421
#
# Poissons Ratio (x) = 0.53142 0.13652
# Poissons Ratio (y) = 0.26357 0.01333
# Poissons Ratio (z) = 0.17931 0.03529
#
# Static dielectric constant tensor:
#      x y z
#    x 4.596570 0.000000 -0.152030 
#    y 0.000000 4.602290 0.000000 
#    z -0.152030 0.000000 3.823010 
# 
# 
# High freq. dielectric constant tensor:
#      x y z
#    x 1.949520 0.000000 -0.011770 
#    y 0.000000 1.967270 0.000000 
#    z -0.011770 0.000000 1.903420 
# 
# From -- ./inp_files/248635.got.cif
#   From: 2010.06.25/outbox.cif.g09.slc.cpg/sg15_125_cif.got.tgz:248635.got - 2010.06.28 07:06:18.
