data_PCOD8135460
_publ_section_title
;
Structure prediction by ZEFSAII (Michael W. Deem and Ramdas Pophale) SiO2 
 PCOD8135460
Probable space group: C 2/C
;
_chemical_formula_sum "Si O2"
_cell_formula_units_Z 48
_cell_length_a 12.553000
_cell_length_b 13.799924
_cell_length_c 20.824999
_cell_angle_alpha 90.000000
_cell_angle_beta 139.269996
_cell_angle_gamma 90.000000
_cell_volume 2353.892458
_symmetry_space_group_name_H-M "C 2/C"
_symmetry_group_IT_number 15
_symmetry_cell_setting 'monoclinic'
loop_
_space_group_symop_operation_xyz
x,y,z
-x,y,1/2-z
-x,-y,-z
x,-y,1/2+z
1/2+x,1/2+y,z
1/2-x,1/2+y,1/2-z
1/2-x,1/2-y,-z
1/2+x,1/2-y,1/2+z
loop_
_atom_site_type_symbol
_atom_site_label
_atom_site_fract_x
_atom_site_fract_y
_atom_site_fract_z
Si Si1 0.757971 0.761542 0.762069
Si Si2 0.890021 0.172288 0.053545
Si Si3 0.521977 0.115840 0.330186
Si Si4 0.309075 0.461644 0.034287
Si Si5 0.463142 0.672553 0.940220
Si Si6 0.760636 0.203958 0.604352
O O1 0.655233 0.862116 0.719931
O O2 0.697050 0.697113 0.674616
O O3 0.734835 0.699912 0.816786
O O4 0.946521 0.787506 0.838675
O O5 0.844632 0.072430 0.068383
O O6 0.750000 0.250000 0.000000
O O7 0.910190 0.146860 0.987909
O O8 0.500000 0.068003 0.250000
O O9 0.627652 0.042428 0.420734
O O10 0.610663 0.219906 0.365110
O O11 0.442494 0.419922 0.045446
O O12 0.309683 0.401250 0.100659
O O13 0.582247 0.766110 0.996257
#
# Coordination Sequence:
#
# PCOD8135460 Si02
#       6
#     8   8   8   8   8   8
#     4  10  19  38  63  91 123 159 205 248 313 359
#     4  11  27  44  54  84 138 172 197 251 308 366
#     4   9  16  31  62  98 119 144 200 263 304 352
#     4  11  19  39  65  95 122 154 204 260 313 357
#     4  10  19  39  67  88 117 160 211 259 299 355
#     4   9  17  32  65  99 120 141 197 277 309 340
#
# _framework density 20.391756000000001
#
# number of rings (size 3 to 8) (size 9 to 14) (size 15 to 20)
#    0.000    2.000    3.333    2.500    0.000    0.667 
#    6.000    6.667    0.000    0.000    0.000    0.000 
#    0.000    0.000    0.000    0.000    0.000    0.000 
#
# Total GULP energy -297633.476319 kJ/mol
# GULP energy per Si atom -12401.394847 kJ/mol
# Density = 2.034534 g / cm^3
# Si number density = 20.391756 Si / 1000 Ang^3
#
#
#
# Elastic Constant Matrix: (Units=GPa)
#
#
# Indices 1 2 3 4 5 6 
#
# 1 51.6125 35.3246 27.3672 0.0000 17.2587 0.0000
# 2 35.3246 101.9242 29.7122 0.0000 8.2915 0.0000
# 3 27.3672 29.7122 141.8604 0.0000 13.4172 0.0000
# 4 0.0000 0.0000 0.0000 18.4843 0.0000 1.2004
# 5 17.2587 8.2915 13.4172 0.0000 37.1919 0.0000
# 6 0.0000 0.0000 0.0000 1.2004 0.0000 23.8106
#
#
#
# Elastic Compliance Matrix: (Units=1/GPa)
#
#
# Indices 1 2 3 4 5 6 
#
# 1 0.030813 -0.008885 -0.003021 0.000000 -0.011228 0.000000
# 2 -0.008885 0.013103 -0.001184 0.000000 0.001629 0.000000
# 3 -0.003021 -0.001184 0.007995 0.000000 -0.001218 0.000000
# 4 0.000000 0.000000 0.000000 0.054278 0.000000 -0.002736
# 5 -0.011228 0.001629 -0.001218 0.000000 0.032174 0.000000
# 6 0.000000 0.000000 0.000000 -0.002736 0.000000 0.042136
#
#
# Mechanical properties :
#
#
# Convention : Reuss Voigt Hill
#
# Bulk Modulus (GPa) = 38.86549 53.35615 46.11082
# Shear Modulus (GPa) = 23.22804 29.43023 26.32913
#
# Velocity S-wave (km/s) = 3.37870 3.80312 3.59718
# Velocity P-wave (km/s) = 5.85847 6.74591 6.31779
#
# Compressibility (1/GPa) = 0.02572977
#
# Stress axis : x y z
#
# Youngs Moduli (GPa) = 32.45423 76.31691 125.07222
#
# Poissons Ratio (x) = 0.67806 0.37790
# Poissons Ratio (y) = 0.28835 0.14815
# Poissons Ratio (z) = 0.09806 0.09040
#
# Static dielectric constant tensor:
#      x y z
#    x 3.567670 0.000000 0.051920 
#    y 0.000000 3.198520 0.000000 
#    z 0.051920 0.000000 3.994920 
# 
# 
# High freq. dielectric constant tensor:
#      x y z
#    x 1.780140 0.000000 0.001720 
#    y 0.000000 1.753650 0.000000 
#    z 0.001720 0.000000 1.815900 
# 
# From -- ./inp_files/239016.got.cif
#   From: 2010.06.25/outbox.cif.g09.slc.cpg/sg15_120_cif.got.tgz:239016.got - 2010.06.28 07:06:18.
