data_PCOD8135396
_publ_section_title
;
Structure prediction by ZEFSAII (Michael W. Deem and Ramdas Pophale) SiO2 
 PCOD8135396
Probable space group: C 2/C
;
_chemical_formula_sum "Si O2"
_cell_formula_units_Z 56
_cell_length_a 11.230817
_cell_length_b 19.429562
_cell_length_c 13.376823
_cell_angle_alpha 90.000000
_cell_angle_beta 109.090780
_cell_angle_gamma 90.000000
_cell_volume 2758.416647
_symmetry_space_group_name_H-M "C 2/C"
_symmetry_group_IT_number 15
_symmetry_cell_setting 'monoclinic'
loop_
_space_group_symop_operation_xyz
x,y,z
-x,y,1/2-z
-x,-y,-z
x,-y,1/2+z
1/2+x,1/2+y,z
1/2-x,1/2+y,1/2-z
1/2-x,1/2-y,-z
1/2+x,1/2-y,1/2+z
loop_
_atom_site_type_symbol
_atom_site_label
_atom_site_fract_x
_atom_site_fract_y
_atom_site_fract_z
Si Si1 0.531910 0.184551 0.485566
Si Si2 0.360317 0.735206 0.320802
Si Si3 0.107756 0.082327 0.145220
Si Si4 0.247606 0.803089 0.911890
Si Si5 0.618380 0.291030 0.353728
Si Si6 0.746072 0.917302 0.014193
Si Si7 0.162889 0.053092 0.382050
O O1 0.552090 0.202863 0.610141
O O2 0.388317 0.180012 0.411351
O O3 0.592467 0.249892 0.447543
O O4 0.604911 0.114546 0.473213
O O5 0.421967 0.663444 0.372487
O O6 0.345966 0.730732 0.196614
O O7 0.219702 0.745816 0.322750
O O8 0.177837 0.066551 0.267996
O O9 0.978162 0.038075 0.114431
O O10 0.199813 0.063139 0.079986
O O11 0.200811 0.875253 0.944448
O O12 0.250000 0.750000 0.000000
O O13 0.500000 0.301817 0.250000
O O14 0.664867 0.366325 0.398699
O O15 0.743152 0.990644 0.068830
#
# Coordination Sequence:
#
# PCOD8135396 Si02
#       7
#     8   8   8   8   8   8   8
#     4  11  21  39  65  91 120 157 204 259 315 356
#     4  10  19  38  61  90 117 155 201 254 306 366
#     4  10  19  39  61  79 126 159 202 253 310 361
#     4  11  24  40  62  88 125 164 206 249 306 381
#     4  11  20  34  65  96 116 148 201 262 315 355
#     4  11  22  39  62  87 123 159 206 261 305 369
#     4  10  24  38  56  92 119 169 205 244 316 376
#
# _framework density 20.301501999999999
#
# number of rings (size 3 to 8) (size 9 to 14) (size 15 to 20)
#    0.000    1.429    4.286    2.143    2.000    2.286 
#    5.143    0.000    0.000    0.000    0.000    0.000 
#    0.000    0.000    0.000    0.000    0.000    0.000 
#
# Total GULP energy -347023.544565 kJ/mol
# GULP energy per Si atom -12393.698020 kJ/mol
# Density = 2.025530 g / cm^3
# Si number density = 20.301502 Si / 1000 Ang^3
#
#
#
# Elastic Constant Matrix: (Units=GPa)
#
#
# Indices 1 2 3 4 5 6 
#
# 1 30.1544 13.7177 -1.9485 0.0000 0.0114 0.0000
# 2 13.7177 110.6774 41.3971 0.0000 -9.4046 0.0000
# 3 -1.9485 41.3971 60.6473 0.0000 -4.2880 0.0000
# 4 0.0000 0.0000 0.0000 36.7725 0.0000 4.5674
# 5 0.0114 -9.4046 -4.2880 0.0000 30.6080 0.0000
# 6 0.0000 0.0000 0.0000 4.5674 0.0000 28.2704
#
#
#
# Elastic Compliance Matrix: (Units=1/GPa)
#
#
# Indices 1 2 3 4 5 6 
#
# 1 0.036621 -0.006788 0.005718 0.000000 -0.001298 0.000000
# 2 -0.006788 0.013598 -0.009297 0.000000 0.002878 0.000000
# 3 0.005718 -0.009297 0.023044 0.000000 0.000370 0.000000
# 4 0.000000 0.000000 0.000000 0.027751 0.000000 -0.004484
# 5 -0.001298 0.002878 0.000370 0.000000 0.033608 0.000000
# 6 0.000000 0.000000 0.000000 -0.004484 0.000000 0.036097
#
#
# Mechanical properties :
#
#
# Convention : Reuss Voigt Hill
#
# Bulk Modulus (GPa) = 19.03657 34.20131 26.61894
# Shear Modulus (GPa) = 23.92770 29.01770 26.47270
#
# Velocity S-wave (km/s) = 3.43682 3.78476 3.61498
# Velocity P-wave (km/s) = 5.01461 5.99854 5.52851
#
# Compressibility (1/GPa) = 0.05253046
#
# Stress axis : x y z
#
# Youngs Moduli (GPa) = 27.30706 73.53769 43.39432
#
# Poissons Ratio (x) = 0.49917 -0.24814
# Poissons Ratio (y) = 0.18536 0.40343
# Poissons Ratio (z) = -0.15615 0.68366
#
# Static dielectric constant tensor:
#      x y z
#    x 3.855190 0.000000 0.116950 
#    y 0.000000 3.555170 0.000000 
#    z 0.116950 0.000000 3.808000 
# 
# 
# High freq. dielectric constant tensor:
#      x y z
#    x 1.789620 0.000000 0.000810 
#    y 0.000000 1.776900 0.000000 
#    z 0.000810 0.000000 1.794550 
# 
# From -- ./inp_files/89654.got.cif
#   From: 2010.06.25/outbox.cif.g09.slc.cpg/sg15_45_cif.got.tgz:89654.got - 2010.06.28 07:06:18.
