data_PCOD8135180
_publ_section_title
;
Structure prediction by ZEFSAII (Michael W. Deem and Ramdas Pophale) SiO2 
 PCOD8135180
Probable space group: C 2/C
;
_chemical_formula_sum "Si O2"
_cell_formula_units_Z 48
_cell_length_a 17.739898
_cell_length_b 9.781341
_cell_length_c 18.806014
_cell_angle_alpha 90.000000
_cell_angle_beta 49.691909
_cell_angle_gamma 90.000000
_cell_volume 2488.456008
_symmetry_space_group_name_H-M "C 2/C"
_symmetry_group_IT_number 15
_symmetry_cell_setting 'monoclinic'
loop_
_space_group_symop_operation_xyz
x,y,z
-x,y,1/2-z
-x,-y,-z
x,-y,1/2+z
1/2+x,1/2+y,z
1/2-x,1/2+y,1/2-z
1/2-x,1/2-y,-z
1/2+x,1/2-y,1/2+z
loop_
_atom_site_type_symbol
_atom_site_label
_atom_site_fract_x
_atom_site_fract_y
_atom_site_fract_z
Si Si1 0.669477 0.637568 0.248492
Si Si2 0.801704 0.171013 0.757820
Si Si3 0.296401 0.164457 0.535129
Si Si4 0.462191 0.398987 0.941685
Si Si5 0.503411 0.296719 0.437508
Si Si6 0.293526 0.379282 0.934827
O O1 0.735877 0.756224 0.239771
O O2 0.713464 0.490609 0.243803
O O3 0.561143 0.652838 0.344905
O O4 0.665424 0.660130 0.167059
O O5 0.768501 0.210657 0.857288
O O6 0.916334 0.215503 0.674940
O O7 0.250000 0.250000 0.500000
O O8 0.413298 0.191915 0.477897
O O9 0.284935 0.003717 0.524530
O O10 0.460194 0.552300 0.972838
O O11 0.383811 0.419542 0.928182
O O12 0.442373 0.285808 0.017152
O O13 0.250000 0.250000 0.000000
#
# Coordination Sequence:
#
# PCOD8135180 Si02
#       6
#     8   8   8   8   8   8
#     4  10  21  39  62  89 122 161 204 257 305 375
#     4  10  22  38  60  92 120 160 205 255 310 371
#     4  11  22  40  63  88 124 159 211 258 301 373
#     4  10  19  37  64  88 119 160 209 247 313 370
#     4  10  20  37  65  90 118 163 206 256 306 368
#     4  11  23  38  59  91 126 162 202 257 316 372
#
# _framework density 19.289069000000001
#
# number of rings (size 3 to 8) (size 9 to 14) (size 15 to 20)
#    0.000    1.667    3.333    1.500    0.000    2.000 
#    3.000    2.500    3.667    0.000    0.000    0.000 
#    0.000    0.000    0.000    0.000    0.000    0.000 
#
# Total GULP energy -297411.445079 kJ/mol
# GULP energy per Si atom -12392.143545 kJ/mol
# Density = 1.924517 g / cm^3
# Si number density = 19.289069 Si / 1000 Ang^3
#
#
#
# Elastic Constant Matrix: (Units=GPa)
#
#
# Indices 1 2 3 4 5 6 
#
# 1 107.0007 36.6524 37.0364 0.0000 6.3852 0.0000
# 2 36.6524 64.0615 39.9681 0.0000 -1.4536 0.0000
# 3 37.0364 39.9681 121.8943 0.0000 3.8372 0.0000
# 4 0.0000 0.0000 0.0000 29.0441 0.0000 4.3887
# 5 6.3852 -1.4536 3.8372 0.0000 31.7987 0.0000
# 6 0.0000 0.0000 0.0000 4.3887 0.0000 27.7468
#
#
#
# Elastic Compliance Matrix: (Units=1/GPa)
#
#
# Indices 1 2 3 4 5 6 
#
# 1 0.012105 -0.005955 -0.001646 0.000000 -0.002504 0.000000
# 2 -0.005955 0.022644 -0.005707 0.000000 0.002920 0.000000
# 3 -0.001646 -0.005707 0.010614 0.000000 -0.001211 0.000000
# 4 0.000000 0.000000 0.000000 0.035273 0.000000 -0.005579
# 5 -0.002504 0.002920 -0.001211 0.000000 0.032230 0.000000
# 6 0.000000 0.000000 0.000000 -0.005579 0.000000 0.036923
#
#
# Mechanical properties :
#
#
# Convention : Reuss Voigt Hill
#
# Bulk Modulus (GPa) = 53.34848 57.80781 55.57815
# Shear Modulus (GPa) = 27.37386 29.67124 28.52255
#
# Velocity S-wave (km/s) = 3.77123 3.92630 3.84955
# Velocity P-wave (km/s) = 6.83230 7.11257 6.97384
#
# Compressibility (1/GPa) = 0.01874468
#
# Stress axis : x y z
#
# Youngs Moduli (GPa) = 82.61007 44.16099 94.21890
#
# Poissons Ratio (x) = 0.26300 0.15513
# Poissons Ratio (y) = 0.49198 0.53774
# Poissons Ratio (z) = 0.13601 0.25204
#
# Static dielectric constant tensor:
#      x y z
#    x 2.053270 0.000000 -0.528400 
#    y 0.000000 3.296380 0.000000 
#    z -0.528400 0.000000 3.510170 
# 
# 
# High freq. dielectric constant tensor:
#      x y z
#    x 1.753730 0.000000 0.011720 
#    y 0.000000 1.736080 0.000000 
#    z 0.011720 0.000000 1.768470 
# 
# From -- ./inp_files/208957.got.cif
#   From: 2010.06.25/outbox.cif.g09.slc.cpg/sg15_105_cif.got.tgz:208957.got - 2010.06.28 07:06:18.
