data_PCOD8135759
_publ_section_title
;
Structure prediction by ZEFSAII (Michael W. Deem and Ramdas Pophale) SiO2 
 PCOD8135759
Probable space group: C 2/C
;
_chemical_formula_sum "Si O2"
_cell_formula_units_Z 56
_cell_length_a 9.508219
_cell_length_b 27.625013
_cell_length_c 20.612696
_cell_angle_alpha 90.000000
_cell_angle_beta 32.560395
_cell_angle_gamma 90.000000
_cell_volume 2913.873776
_symmetry_space_group_name_H-M "C 2/C"
_symmetry_group_IT_number 15
_symmetry_cell_setting 'monoclinic'
loop_
_space_group_symop_operation_xyz
x,y,z
-x,y,1/2-z
-x,-y,-z
x,-y,1/2+z
1/2+x,1/2+y,z
1/2-x,1/2+y,1/2-z
1/2-x,1/2-y,-z
1/2+x,1/2-y,1/2+z
loop_
_atom_site_type_symbol
_atom_site_label
_atom_site_fract_x
_atom_site_fract_y
_atom_site_fract_z
Si Si1 0.138224 0.168620 0.761828
Si Si2 0.523274 0.781271 0.814128
Si Si3 0.290106 0.129364 0.947609
Si Si4 0.200541 0.477888 0.110321
Si Si5 0.979849 0.574068 0.334458
Si Si6 0.424610 0.655418 0.979191
Si Si7 0.909781 0.141507 0.211938
O O1 0.095510 0.225575 0.787872
O O2 0.436042 0.153879 0.644128
O O3 0.000000 0.150257 0.750000
O O4 0.016670 0.142908 0.871321
O O5 0.500000 0.801320 0.750000
O O6 0.750870 0.809358 0.762371
O O7 0.242918 0.794602 0.955386
O O8 0.297364 0.072322 0.929270
O O9 0.163398 0.159145 0.937066
O O10 0.147012 0.138784 0.070526
O O11 0.000000 0.470122 0.250000
O O12 0.066667 0.520190 0.118901
O O13 0.500000 0.500000 0.000000
O O14 0.235355 0.594193 0.269301
O O15 0.000000 0.568496 0.250000
O O16 0.737169 0.608930 0.438421
O O17 0.000000 0.142012 0.250000
#
# Coordination Sequence:
#
# PCOD8135759 Si02
#       7
#     8   8   8   8   8   8   8
#     4  11  27  40  57  94 134 167 201 260 338 375
#     4  10  21  44  65  87 118 166 218 263 309 380
#     4  12  23  41  64  96 126 162 216 270 313 382
#     4  11  21  38  68 102 127 165 223 273 318 377
#     4  10  19  39  67  93 123 158 216 263 310 376
#     4  11  19  40  67  87 122 163 214 262 310 373
#     4  11  23  40  65  93 124 164 212 265 318 380
#
# _framework density 19.218402999999999
#
# number of rings (size 3 to 8) (size 9 to 14) (size 15 to 20)
#    0.000    1.143    4.286    3.429    4.000    1.714 
#    0.000    1.429    0.000    0.000    0.000    0.000 
#    0.000    0.000    0.000    0.000    0.000    0.000 
#
# Total GULP energy -346927.160099 kJ/mol
# GULP energy per Si atom -12390.255718 kJ/mol
# Density = 1.917466 g / cm^3
# Si number density = 19.218403 Si / 1000 Ang^3
#
#
#
# Elastic Constant Matrix: (Units=GPa)
#
#
# Indices 1 2 3 4 5 6 
#
# 1 149.7568 40.6885 66.8263 0.0020 -2.0046 0.0000
# 2 40.6885 91.0617 17.5557 -0.0057 -20.2357 -0.0006
# 3 66.8263 17.5557 121.0636 0.0229 -10.3217 0.0100
# 4 0.0020 -0.0057 0.0229 -4.6810 -0.0013 -18.5039
# 5 -2.0046 -20.2357 -10.3217 -0.0013 32.7906 0.0001
# 6 0.0000 -0.0006 0.0100 -18.5039 0.0001 12.5506
#
#
#
# Elastic Compliance Matrix: (Units=1/GPa)
#
#
# Indices 1 2 3 4 5 6 
#
# 1 0.010178 -0.004355 -0.005305 -0.000005 -0.003735 -0.000003
# 2 -0.004355 0.014765 0.001045 -0.000002 0.009174 -0.000004
# 3 -0.005305 0.001045 0.011369 0.000013 0.003899 0.000010
# 4 -0.000005 -0.000002 0.000013 -0.031287 0.000001 -0.046128
# 5 -0.003735 0.009174 0.003899 0.000001 0.037157 -0.000001
# 6 -0.000003 -0.000004 0.000010 -0.046128 -0.000001 0.011669
#
#
# Mechanical properties :
#
#
# Convention : Reuss Voigt Hill
#
# Bulk Modulus (GPa) = 52.40545 68.00256 60.20400
# Shear Modulus (GPa) = 64.56397 23.91949 44.24173
#
# Velocity S-wave (km/s) = 5.80240 3.53174 4.80317
# Velocity P-wave (km/s) = 8.49812 7.21746 7.88384
#
# Compressibility (1/GPa) = 0.01908199
#
# Stress axis : x y z
#
# Youngs Moduli (GPa) = 98.25017 67.72882 87.95512
#
# Poissons Ratio (x) = 0.29497 0.46662
# Poissons Ratio (y) = 0.42789 -0.09192
# Poissons Ratio (z) = 0.52123 -0.07078
#
# Static dielectric constant tensor:
#      x y z
#    x 3.541340 0.000000 -0.001450 
#    y 0.000000 3.718450 -0.000010 
#    z -0.001450 -0.000010 4.021130 
# 
# 
# High freq. dielectric constant tensor:
#      x y z
#    x 1.731000 0.000000 -0.001920 
#    y 0.000000 1.754720 0.000000 
#    z -0.001920 0.000000 1.770450 
# 
# From -- ./inp_files/139584.got.cif
#   From: 2010.06.25/outbox.cif.g09.slc.cpg/sg15_70_cif.got.tgz:139584.got - 2010.06.28 07:06:18.
