data_PCOD8135229
_publ_section_title
;
Structure prediction by ZEFSAII (Michael W. Deem and Ramdas Pophale) SiO2 
 PCOD8135229
Probable space group: C 2/C
;
_chemical_formula_sum "Si O2"
_cell_formula_units_Z 60
_cell_length_a 9.763355
_cell_length_b 17.210686
_cell_length_c 24.423582
_cell_angle_alpha 90.000000
_cell_angle_beta 134.215955
_cell_angle_gamma 90.000000
_cell_volume 2941.399324
_symmetry_space_group_name_H-M "C 2/C"
_symmetry_group_IT_number 15
_symmetry_cell_setting 'monoclinic'
loop_
_space_group_symop_operation_xyz
x,y,z
-x,y,1/2-z
-x,-y,-z
x,-y,1/2+z
1/2+x,1/2+y,z
1/2-x,1/2+y,1/2-z
1/2-x,1/2-y,-z
1/2+x,1/2-y,1/2+z
loop_
_atom_site_type_symbol
_atom_site_label
_atom_site_fract_x
_atom_site_fract_y
_atom_site_fract_z
Si Si1 0.500000 0.489693 0.750000
Si Si2 0.931957 0.111876 0.933931
Si Si3 0.848144 0.280430 0.082500
Si Si4 0.021244 0.184212 0.846334
Si Si5 0.954823 0.124713 0.330123
Si Si6 0.468304 0.842038 0.801534
Si Si7 0.731562 0.130551 0.680626
Si Si8 0.811534 0.945654 0.899412
O O1 0.444151 0.437195 0.681757
O O2 0.308438 0.541484 0.708544
O O3 0.816503 0.184337 0.925512
O O4 0.024737 0.135430 0.902474
O O5 0.794895 0.037910 0.887265
O O6 0.102147 0.082590 0.019541
O O7 0.935896 0.206679 0.138577
O O8 0.005193 0.349588 0.117144
O O9 0.750000 0.250000 0.000000
O O10 0.040745 0.276422 0.864511
O O11 0.822657 0.176335 0.757255
O O12 0.199123 0.157619 0.859613
O O13 0.747353 0.135945 0.245880
O O14 0.940497 0.091770 0.387527
O O15 0.500000 0.804353 0.750000
O O16 0.592839 0.919619 0.838532
#
# Coordination Sequence:
#
# PCOD8135229 Si02
#       8
#     4   8   8   8   8   8   8   8
#     4  10  24  38  68  96 124 164 212 280 314 380
#     4  11  25  39  66  95 128 167 216 263 312 392
#     4  12  25  44  65  92 134 177 206 261 332 385
#     4  10  19  39  66  94 117 168 215 265 308 384
#     4  11  22  42  62  92 128 165 212 265 327 376
#     4  10  19  37  66  88 121 167 207 259 321 378
#     4  10  21  43  66  89 131 164 210 261 332 372
#     4  10  22  44  61  89 132 169 207 260 326 384
#
# _framework density 20.398453
#
# number of rings (size 3 to 8) (size 9 to 14) (size 15 to 20)
#    0.000    1.600    4.000    2.400    3.733    1.067 
#    2.400    0.667    0.000    0.000    0.000    0.000 
#    0.000    0.000    0.000    0.000    0.000    0.000 
#
# Total GULP energy -371858.026450 kJ/mol
# GULP energy per Si atom -12395.267548 kJ/mol
# Density = 2.035203 g / cm^3
# Si number density = 20.398453 Si / 1000 Ang^3
#
#
#
# Elastic Constant Matrix: (Units=GPa)
#
#
# Indices 1 2 3 4 5 6 
#
# 1 56.8752 21.8595 19.3317 0.0000 -14.8209 0.0000
# 2 21.8595 127.9230 26.2381 0.0000 -8.7098 0.0000
# 3 19.3317 26.2381 46.4251 0.0000 -8.4069 0.0000
# 4 0.0000 0.0000 0.0000 29.1887 0.0000 -4.5508
# 5 -14.8209 -8.7098 -8.4069 0.0000 32.0446 0.0000
# 6 0.0000 0.0000 0.0000 -4.5508 0.0000 28.3443
#
#
#
# Elastic Compliance Matrix: (Units=1/GPa)
#
#
# Indices 1 2 3 4 5 6 
#
# 1 0.022815 -0.001918 -0.006929 0.000000 0.008213 0.000000
# 2 -0.001918 0.009044 -0.004229 0.000000 0.000461 0.000000
# 3 -0.006929 -0.004229 0.027325 0.000000 0.002815 0.000000
# 4 0.000000 0.000000 0.000000 0.035139 0.000000 0.005642
# 5 0.008213 0.000461 0.002815 0.000000 0.035869 0.000000
# 6 0.000000 0.000000 0.000000 0.005642 0.000000 0.036186
#
#
# Mechanical properties :
#
#
# Convention : Reuss Voigt Hill
#
# Bulk Modulus (GPa) = 30.27405 40.67576 35.47490
# Shear Modulus (GPa) = 24.56507 28.83512 26.70009
#
# Velocity S-wave (km/s) = 3.47401 3.76386 3.62184
# Velocity P-wave (km/s) = 5.56464 6.23480 5.90923
#
# Compressibility (1/GPa) = 0.03303159
#
# Stress axis : x y z
#
# Youngs Moduli (GPa) = 43.83104 110.57289 36.59648
#
# Poissons Ratio (x) = 0.21211 0.25357
# Poissons Ratio (y) = 0.08408 0.15476
# Poissons Ratio (z) = 0.30370 0.46761
#
# Static dielectric constant tensor:
#      x y z
#    x 3.533030 0.000000 -0.071680 
#    y 0.000000 3.924830 0.000000 
#    z -0.071680 0.000000 3.541550 
# 
# 
# High freq. dielectric constant tensor:
#      x y z
#    x 1.784520 0.000000 -0.006680 
#    y 0.000000 1.814400 0.000000 
#    z -0.006680 0.000000 1.779010 
# 
# From -- ./inp_files/289607.got.cif
#   From: 2010.06.25/outbox.cif.g09.slc.cpg/sg15_145_cif.got.tgz:289607.got - 2010.06.28 07:06:18.
