data_PCOD8135566
_publ_section_title
;
Structure prediction by ZEFSAII (Michael W. Deem and Ramdas Pophale) SiO2 
 PCOD8135566
Probable space group: C 2/C
;
_chemical_formula_sum "Si O2"
_cell_formula_units_Z 60
_cell_length_a 8.126332
_cell_length_b 17.873909
_cell_length_c 21.427109
_cell_angle_alpha 90.000000
_cell_angle_beta 57.901920
_cell_angle_gamma 90.000000
_cell_volume 2636.530089
_symmetry_space_group_name_H-M "C 2/C"
_symmetry_group_IT_number 15
_symmetry_cell_setting 'monoclinic'
loop_
_space_group_symop_operation_xyz
x,y,z
-x,y,1/2-z
-x,-y,-z
x,-y,1/2+z
1/2+x,1/2+y,z
1/2-x,1/2+y,1/2-z
1/2-x,1/2-y,-z
1/2+x,1/2-y,1/2+z
loop_
_atom_site_type_symbol
_atom_site_label
_atom_site_fract_x
_atom_site_fract_y
_atom_site_fract_z
Si Si1 0.636586 0.924023 0.806135
Si Si2 0.764098 0.823977 0.427522
Si Si3 0.712113 0.548455 0.351137
Si Si4 0.413208 0.328715 0.527592
Si Si5 0.104413 0.744538 0.296437
Si Si6 0.500000 0.184634 0.750000
Si Si7 0.257870 0.097245 0.897591
Si Si8 0.933536 0.467446 0.078039
O O1 0.806308 0.934283 0.719408
O O2 0.438820 0.958731 0.820352
O O3 0.599217 0.837143 0.828646
O O4 0.688469 0.969933 0.858495
O O5 0.616040 0.755795 0.441469
O O6 0.756989 0.842206 0.503143
O O7 0.704696 0.895752 0.400143
O O8 0.984337 0.801527 0.364061
O O9 0.612147 0.614436 0.410172
O O10 0.627200 0.466248 0.387168
O O11 0.625408 0.339069 0.455360
O O12 0.330518 0.767803 0.249969
O O13 0.000000 0.741279 0.250000
O O14 0.413640 0.133474 0.820902
O O15 0.365603 0.055075 0.931204
O O16 0.000000 0.500000 0.000000
#
# Coordination Sequence:
#
# PCOD8135566 Si02
#       8
#     8   8   8   8   8   4   8   8
#     4  10  20  42  70  98 138 191 240 302 358 450
#     4  11  23  42  69 102 139 187 238 298 374 449
#     4  10  19  38  68  97 132 187 241 280 368 437
#     4  11  22  40  71 101 133 187 243 293 363 454
#     4  12  23  45  77 104 148 197 251 303 377 451
#     4  12  26  44  70 114 146 190 252 310 366 452
#     4  11  23  41  66 101 145 181 232 311 364 433
#     4  11  25  42  69 101 145 185 242 309 378 440
#
# _framework density 22.757183000000001
#
# number of rings (size 3 to 8) (size 9 to 14) (size 15 to 20)
#    0.000    1.067    4.000    4.400    1.867    0.533 
#    0.000    4.000    2.933    0.000    0.000    0.000 
#    0.000    0.000    0.000    0.000    0.000    0.000 
#
# Total GULP energy -371941.461698 kJ/mol
# GULP energy per Si atom -12398.048723 kJ/mol
# Density = 2.270539 g / cm^3
# Si number density = 22.757183 Si / 1000 Ang^3
#
#
#
# Elastic Constant Matrix: (Units=GPa)
#
#
# Indices 1 2 3 4 5 6 
#
# 1 70.5625 53.0132 45.7726 0.0000 -2.0869 0.0001
# 2 53.0132 152.4701 74.7187 0.0000 6.5605 0.0000
# 3 45.7726 74.7187 168.2327 0.0000 4.1465 0.0000
# 4 0.0000 0.0000 0.0000 41.2498 0.0000 6.9908
# 5 -2.0869 6.5605 4.1465 0.0000 34.0054 0.0000
# 6 0.0001 0.0000 0.0000 6.9908 0.0000 25.2501
#
#
#
# Elastic Compliance Matrix: (Units=1/GPa)
#
#
# Indices 1 2 3 4 5 6 
#
# 1 0.020597 -0.005753 -0.003117 0.000000 0.002754 0.000000
# 2 -0.005753 0.010036 -0.002845 0.000000 -0.001942 0.000000
# 3 -0.003117 -0.002845 0.008071 0.000000 -0.000627 0.000000
# 4 0.000000 0.000000 0.000000 0.025436 0.000000 -0.007042
# 5 0.002754 -0.001942 -0.000627 0.000000 0.030027 0.000000
# 6 0.000000 0.000000 0.000000 -0.007042 0.000000 0.041554
#
#
# Mechanical properties :
#
#
# Convention : Reuss Voigt Hill
#
# Bulk Modulus (GPa) = 65.46053 82.03049 73.74551
# Shear Modulus (GPa) = 30.44298 34.61844 32.53071
#
# Velocity S-wave (km/s) = 3.66147 3.90450 3.78493
# Velocity P-wave (km/s) = 6.83391 7.51339 7.18169
#
# Compressibility (1/GPa) = 0.01527638
#
# Stress axis : x y z
#
# Youngs Moduli (GPa) = 48.55061 99.63798 123.90001
#
# Poissons Ratio (x) = 0.57317 0.38620
# Poissons Ratio (y) = 0.27929 0.35244
# Poissons Ratio (z) = 0.15133 0.28342
#
# Static dielectric constant tensor:
#      x y z
#    x 3.842730 0.000000 0.128170 
#    y 0.000000 4.323480 0.000000 
#    z 0.128170 0.000000 4.373690 
# 
# 
# High freq. dielectric constant tensor:
#      x y z
#    x 1.859800 0.000000 0.006760 
#    y 0.000000 1.912490 0.000000 
#    z 0.006760 0.000000 1.913870 
# 
# From -- ./inp_files/233066.got.cif
#   From: 2010.06.25/outbox.cif.g09.slc.cpg/sg15_117_cif.got.tgz:233066.got - 2010.06.28 07:06:18.
