data_PCOD8135335
_publ_section_title
;
Structure prediction by ZEFSAII (Michael W. Deem and Ramdas Pophale) SiO2 
 PCOD8135335
Probable space group: C 2/C
;
_chemical_formula_sum "Si O2"
_cell_formula_units_Z 44
_cell_length_a 14.330468
_cell_length_b 12.526253
_cell_length_c 25.976366
_cell_angle_alpha 90.000000
_cell_angle_beta 153.781513
_cell_angle_gamma 90.000000
_cell_volume 2060.065726
_symmetry_space_group_name_H-M "C 2/C"
_symmetry_group_IT_number 15
_symmetry_cell_setting 'monoclinic'
loop_
_space_group_symop_operation_xyz
x,y,z
-x,y,1/2-z
-x,-y,-z
x,-y,1/2+z
1/2+x,1/2+y,z
1/2-x,1/2+y,1/2-z
1/2-x,1/2-y,-z
1/2+x,1/2-y,1/2+z
loop_
_atom_site_type_symbol
_atom_site_label
_atom_site_fract_x
_atom_site_fract_y
_atom_site_fract_z
Si Si1 0.152515 0.049543 0.416983
Si Si2 0.500000 0.133243 0.750000
Si Si3 0.605583 0.101163 0.527192
Si Si4 0.121040 0.058067 0.513848
Si Si5 0.286173 0.707063 0.217585
Si Si6 0.460264 0.212344 0.907207
O O1 0.088612 0.004707 0.441973
O O2 0.356229 0.129028 0.519475
O O3 0.955719 0.111833 0.295063
O O4 0.193391 0.941601 0.405014
O O5 0.369697 0.053987 0.648974
O O6 0.667147 0.203632 0.801430
O O7 0.446442 0.161415 0.409064
O O8 0.675198 0.172344 0.610632
O O9 0.500000 0.000000 0.500000
O O10 0.068764 0.181770 0.481322
O O11 0.000000 0.000000 0.500000
O O12 0.302025 0.760914 0.281961
#
# Coordination Sequence:
#
# PCOD8135335 Si02
#       6
#     8   4   8   8   8   8
#     4  10  20  39  62  94 123 154 206 263 305 363
#     4  12  18  36  66  82 112 168 208 246 302 356
#     4  10  21  36  64  97 125 152 211 262 306 366
#     4  11  22  35  58  92 121 157 209 252 300 364
#     4  11  19  36  67  89 117 165 209 249 304 366
#     4  10  19  38  59  87 120 158 205 251 297 372
#
# _framework density 21.358543000000001
#
# number of rings (size 3 to 8) (size 9 to 14) (size 15 to 20)
#    0.000    1.455    5.455    2.182    0.000    2.909 
#    0.000    0.909    0.000    6.545    0.000    0.000 
#    0.000    0.000    0.000    0.000    0.000    0.000 
#
# Total GULP energy -272602.050824 kJ/mol
# GULP energy per Si atom -12391.002310 kJ/mol
# Density = 2.130993 g / cm^3
# Si number density = 21.358543 Si / 1000 Ang^3
#
#
#
# Elastic Constant Matrix: (Units=GPa)
#
#
# Indices 1 2 3 4 5 6 
#
# 1 142.9392 43.0878 23.6636 0.0035 -20.0715 -0.0002
# 2 43.0878 39.2818 21.4076 0.0036 -6.8220 0.0000
# 3 23.6636 21.4076 63.0380 0.0099 -22.2592 0.0009
# 4 0.0035 0.0036 0.0099 19.5101 -0.0012 0.9211
# 5 -20.0715 -6.8220 -22.2592 -0.0012 28.7079 -0.0002
# 6 -0.0002 0.0000 0.0009 0.9211 -0.0002 51.1964
#
#
#
# Elastic Compliance Matrix: (Units=1/GPa)
#
#
# Indices 1 2 3 4 5 6 
#
# 1 0.011345 -0.012579 0.002421 -0.000001 0.006820 0.000000
# 2 -0.012579 0.045212 -0.013692 0.000000 -0.008668 0.000000
# 3 0.002421 -0.013692 0.026237 -0.000010 0.018782 0.000000
# 4 -0.000001 0.000000 -0.000010 0.051299 -0.000006 -0.000923
# 5 0.006820 -0.008668 0.018782 -0.000006 0.052105 0.000000
# 6 0.000000 0.000000 0.000000 -0.000923 0.000000 0.019549
#
#
# Mechanical properties :
#
#
# Convention : Reuss Voigt Hill
#
# Bulk Modulus (GPa) = 28.49592 46.84189 37.66891
# Shear Modulus (GPa) = 18.85769 30.35620 24.60695
#
# Velocity S-wave (km/s) = 2.97461 3.77406 3.39793
# Velocity P-wave (km/s) = 5.01681 6.40080 5.75059
#
# Compressibility (1/GPa) = 0.03509274
#
# Stress axis : x y z
#
# Youngs Moduli (GPa) = 88.14766 22.11825 38.11482
#
# Poissons Ratio (x) = 0.27822 -0.09229
# Poissons Ratio (y) = 1.10880 0.52188
# Poissons Ratio (z) = -0.21344 0.30285
#
# Static dielectric constant tensor:
#      x y z
#    x 72.622720 -0.000160 -10.408750 
#    y -0.000160 5.199130 0.000020 
#    z -10.408750 0.000020 5.082370 
# 
# 
# High freq. dielectric constant tensor:
#      x y z
#    x 1.837820 0.000000 -0.035780 
#    y 0.000000 1.819000 0.000000 
#    z -0.035780 0.000000 1.826610 
# 
# From -- ./inp_files/151759.got.cif
#   From: 2010.06.25/outbox.cif.g09.slc.cpg/sg15_76_cif.got.tgz:151759.got - 2010.06.28 07:06:18.
