data_PCOD8135271
_publ_section_title
;
Structure prediction by ZEFSAII (Michael W. Deem and Ramdas Pophale) SiO2 
 PCOD8135271
Probable space group: C 2/C
;
_chemical_formula_sum "Si O2"
_cell_formula_units_Z 64
_cell_length_a 20.438643
_cell_length_b 26.683301
_cell_length_c 9.430527
_cell_angle_alpha 90.000000
_cell_angle_beta 136.573848
_cell_angle_gamma 90.000000
_cell_volume 3535.486275
_symmetry_space_group_name_H-M "C 2/C"
_symmetry_group_IT_number 15
_symmetry_cell_setting 'monoclinic'
loop_
_space_group_symop_operation_xyz
x,y,z
-x,y,1/2-z
-x,-y,-z
x,-y,1/2+z
1/2+x,1/2+y,z
1/2-x,1/2+y,1/2-z
1/2-x,1/2-y,-z
1/2+x,1/2-y,1/2+z
loop_
_atom_site_type_symbol
_atom_site_label
_atom_site_fract_x
_atom_site_fract_y
_atom_site_fract_z
Si Si1 0.606555 0.550979 0.242419
Si Si2 0.797513 0.146839 0.668126
Si Si3 0.612542 0.451028 0.082693
Si Si4 0.893023 0.197383 0.062575
Si Si5 0.601883 0.809734 0.461186
Si Si6 0.897604 0.809808 0.075956
Si Si7 0.344704 0.783937 0.637745
Si Si8 0.705179 0.349248 0.839744
O O1 0.634394 0.501887 0.198932
O O2 0.630505 0.541372 0.444474
O O3 0.670671 0.593689 0.271062
O O4 0.495429 0.565826 0.052992
O O5 0.812525 0.090532 0.744797
O O6 0.826326 0.153907 0.549525
O O7 0.686808 0.165568 0.499544
O O8 0.864868 0.186570 0.856622
O O9 0.886415 0.255451 0.092842
O O10 0.815795 0.166859 0.032242
O O11 0.000000 0.176277 0.250000
O O12 0.500000 0.832199 0.250000
O O13 0.607911 0.801851 0.640259
O O14 0.683824 0.845740 0.527740
O O15 0.912615 0.752129 0.152996
O O16 0.000000 0.835815 0.250000
O O17 0.857442 0.810993 0.853458
O O18 0.250000 0.750000 0.500000
#
# Coordination Sequence:
#
# PCOD8135271 Si02
#       8
#     8   8   8   8   8   8   8   8
#     4  10  22  36  55  81 118 141 189 224 280 346
#     4  11  19  36  55  71 116 153 179 226 280 330
#     4  10  21  37  54  83 113 152 174 230 282 346
#     4  11  20  33  55  82 117 152 185 229 282 338
#     4  11  23  38  56  79 116 157 198 240 279 320
#     4  11  21  32  55  82 113 150 187 226 277 342
#     4  10  19  38  51  75 111 147 187 234 279 325
#     4  12  22  36  55  85 113 152 200 228 276 346
#
# _framework density 18.102177000000001
#
# number of rings (size 3 to 8) (size 9 to 14) (size 15 to 20)
#    0.000    1.250    6.250    2.625    3.500    0.000 
#    0.000    0.000    0.000    0.000    0.000    4.375 
#    0.000    0.000    0.000    0.000    0.000    0.000 
#
# Total GULP energy -396630.298513 kJ/mol
# GULP energy per Si atom -12394.696829 kJ/mol
# Density = 1.806098 g / cm^3
# Si number density = 18.102177 Si / 1000 Ang^3
#
#
#
# Elastic Constant Matrix: (Units=GPa)
#
#
# Indices 1 2 3 4 5 6 
#
# 1 63.3452 43.9821 29.9753 0.0000 4.9461 0.0000
# 2 43.9821 105.2720 41.3554 0.0000 -1.4229 0.0000
# 3 29.9753 41.3554 107.0533 0.0000 5.8470 0.0000
# 4 0.0000 0.0000 0.0000 30.2359 0.0000 0.5281
# 5 4.9461 -1.4229 5.8470 0.0000 24.5792 0.0000
# 6 0.0000 0.0000 0.0000 0.5281 0.0000 20.0641
#
#
#
# Elastic Compliance Matrix: (Units=1/GPa)
#
#
# Indices 1 2 3 4 5 6 
#
# 1 0.023641 -0.008766 -0.002984 0.000000 -0.004555 0.000000
# 2 -0.008766 0.014520 -0.003340 0.000000 0.003399 0.000000
# 3 -0.002984 -0.003340 0.011596 0.000000 -0.002351 0.000000
# 4 0.000000 0.000000 0.000000 0.033089 0.000000 -0.000871
# 5 -0.004555 0.003399 -0.002351 0.000000 0.042357 0.000000
# 6 0.000000 0.000000 0.000000 -0.000871 0.000000 0.049863
#
#
# Mechanical properties :
#
#
# Convention : Reuss Voigt Hill
#
# Bulk Modulus (GPa) = 51.08610 56.25512 53.67061
# Shear Modulus (GPa) = 23.61031 25.66636 24.63833
#
# Velocity S-wave (km/s) = 3.61540 3.76953 3.69327
# Velocity P-wave (km/s) = 6.76095 7.07741 6.92099
#
# Compressibility (1/GPa) = 0.01957480
#
# Stress axis : x y z
#
# Youngs Moduli (GPa) = 42.29934 68.87135 86.24028
#
# Poissons Ratio (x) = 0.60375 0.25737
# Poissons Ratio (y) = 0.37081 0.28806
# Poissons Ratio (z) = 0.12623 0.23004
#
# Static dielectric constant tensor:
#      x y z
#    x 3.424170 0.000000 0.142510 
#    y 0.000000 3.284360 0.000000 
#    z 0.142510 0.000000 3.630390 
# 
# 
# High freq. dielectric constant tensor:
#      x y z
#    x 1.680360 0.000000 -0.019310 
#    y 0.000000 1.675200 0.000000 
#    z -0.019310 0.000000 1.708220 
# 
# From -- ./inp_files/59040.got.cif
#   From: 2010.06.25/outbox.cif.g09.slc.cpg/sg15_30_cif.got.tgz:59040.got - 2010.06.28 07:06:18.
