data_PCOD8135480
_publ_section_title
;
Structure prediction by ZEFSAII (Michael W. Deem and Ramdas Pophale) SiO2 
 PCOD8135480
Probable space group: C 2/C
;
_chemical_formula_sum "Si O2"
_cell_formula_units_Z 60
_cell_length_a 27.538068
_cell_length_b 17.165881
_cell_length_c 11.019910
_cell_angle_alpha 90.000000
_cell_angle_beta 33.243380
_cell_angle_gamma 90.000000
_cell_volume 2855.709007
_symmetry_space_group_name_H-M "C 2/C"
_symmetry_group_IT_number 15
_symmetry_cell_setting 'monoclinic'
loop_
_space_group_symop_operation_xyz
x,y,z
-x,y,1/2-z
-x,-y,-z
x,-y,1/2+z
1/2+x,1/2+y,z
1/2-x,1/2+y,1/2-z
1/2-x,1/2-y,-z
1/2+x,1/2-y,1/2+z
loop_
_atom_site_type_symbol
_atom_site_label
_atom_site_fract_x
_atom_site_fract_y
_atom_site_fract_z
Si Si1 0.092746 0.359626 0.245951
Si Si2 0.000000 0.221569 0.750000
Si Si3 0.139659 0.352587 0.408315
Si Si4 0.606461 0.806105 0.858735
Si Si5 0.358257 0.326778 0.394271
Si Si6 0.328535 0.999017 0.034268
Si Si7 0.734348 0.947573 0.582328
Si Si8 0.287216 0.759542 0.644932
O O1 0.114540 0.393838 0.333530
O O2 0.998276 0.318576 0.430456
O O3 0.102234 0.429512 0.126822
O O4 0.168631 0.294362 0.068170
O O5 0.079218 0.276052 0.539725
O O6 0.041382 0.163971 0.765227
O O7 0.119808 0.416171 0.555814
O O8 0.242042 0.323702 0.208932
O O9 0.644599 0.755859 0.668043
O O10 0.651064 0.889920 0.757876
O O11 0.632527 0.756826 0.924390
O O12 0.328503 0.401279 0.377665
O O13 0.285395 0.321202 0.653733
O O14 0.270356 0.004276 0.280594
O O15 0.269692 0.997978 0.033495
#
# Coordination Sequence:
#
# PCOD8135480 Si02
#       8
#     8   4   8   8   8   8   8   8
#     4  12  23  39  59  98 133 162 205 269 320 372
#     4  10  20  38  62  94 114 156 218 268 304 368
#     4  11  23  40  61  92 128 169 212 253 319 380
#     4  11  21  38  60  93 128 162 211 262 319 377
#     4  10  19  38  64  86 119 165 219 263 308 372
#     4  12  24  40  60  95 134 176 201 251 322 398
#     4  11  23  40  62  89 129 175 210 253 319 390
#     4  10  21  38  62  86 123 169 216 260 309 368
#
# _framework density 21.010545
#
# number of rings (size 3 to 8) (size 9 to 14) (size 15 to 20)
#    0.000    1.067    5.333    4.800    0.000    1.600 
#    0.000    0.000    0.000    0.800    3.467    0.000 
#    0.000    0.000    0.000    0.000    0.000    0.000 
#
# Total GULP energy -371722.532615 kJ/mol
# GULP energy per Si atom -12390.751087 kJ/mol
# Density = 2.096272 g / cm^3
# Si number density = 21.010545 Si / 1000 Ang^3
#
#
#
# Elastic Constant Matrix: (Units=GPa)
#
#
# Indices 1 2 3 4 5 6 
#
# 1 141.7720 41.0809 43.9028 0.0000 0.2642 0.0000
# 2 41.0809 48.7259 41.4029 0.0000 -14.6806 0.0000
# 3 43.9028 41.4029 72.9807 0.0000 -5.3029 0.0000
# 4 0.0000 0.0000 0.0000 24.8098 0.0000 5.6541
# 5 0.2642 -14.6806 -5.3029 0.0000 31.9670 0.0000
# 6 0.0000 0.0000 0.0000 5.6541 0.0000 35.7637
#
#
#
# Elastic Compliance Matrix: (Units=1/GPa)
#
#
# Indices 1 2 3 4 5 6 
#
# 1 0.009957 -0.008305 -0.001581 0.000000 -0.004158 0.000000
# 2 -0.008305 0.054719 -0.024512 0.000000 0.021132 0.000000
# 3 -0.001581 -0.024512 0.028080 0.000000 -0.006586 0.000000
# 4 0.000000 0.000000 0.000000 0.041813 0.000000 -0.006610
# 5 -0.004158 0.021132 -0.006586 0.000000 0.039929 0.000000
# 6 0.000000 0.000000 0.000000 -0.006610 0.000000 0.029006
#
#
# Mechanical properties :
#
#
# Convention : Reuss Voigt Hill
#
# Bulk Modulus (GPa) = 41.73130 57.36128 49.54629
# Shear Modulus (GPa) = 17.83882 27.64756 22.74319
#
# Velocity S-wave (km/s) = 2.91699 3.63145 3.29365
# Velocity P-wave (km/s) = 5.59020 6.70401 6.17228
#
# Compressibility (1/GPa) = 0.02396283
#
# Stress axis : x y z
#
# Youngs Moduli (GPa) = 100.42911 18.27507 35.61192
#
# Poissons Ratio (x) = 0.15177 0.05629
# Poissons Ratio (y) = 0.83403 0.87291
# Poissons Ratio (z) = 0.15876 0.44795
#
# Static dielectric constant tensor:
#      x y z
#    x 4.401330 0.000000 0.042120 
#    y 0.000000 3.706720 0.000000 
#    z 0.042120 0.000000 3.570450 
# 
# 
# High freq. dielectric constant tensor:
#      x y z
#    x 1.845220 0.000000 0.010790 
#    y 0.000000 1.800560 0.000000 
#    z 0.010790 0.000000 1.790860 
# 
# From -- ./inp_files/127228.got.cif
#   From: 2010.06.25/outbox.cif.g09.slc.cpg/sg15_64_cif.got.tgz:127228.got - 2010.06.28 07:06:18.
