data_PCOD8135433
_publ_section_title
;
Structure prediction by ZEFSAII (Michael W. Deem and Ramdas Pophale) SiO2 
 PCOD8135433
Probable space group: C 2/C
;
_chemical_formula_sum "Si O2"
_cell_formula_units_Z 60
_cell_length_a 12.722578
_cell_length_b 9.859260
_cell_length_c 22.429042
_cell_angle_alpha 90.000000
_cell_angle_beta 101.469975
_cell_angle_gamma 90.000000
_cell_volume 2757.205355
_symmetry_space_group_name_H-M "C 2/C"
_symmetry_group_IT_number 15
_symmetry_cell_setting 'monoclinic'
loop_
_space_group_symop_operation_xyz
x,y,z
-x,y,1/2-z
-x,-y,-z
x,-y,1/2+z
1/2+x,1/2+y,z
1/2-x,1/2+y,1/2-z
1/2-x,1/2-y,-z
1/2+x,1/2-y,1/2+z
loop_
_atom_site_type_symbol
_atom_site_label
_atom_site_fract_x
_atom_site_fract_y
_atom_site_fract_z
Si Si1 0.228379 0.116644 0.902964
Si Si2 0.512255 0.506728 0.403934
Si Si3 0.678374 0.442934 0.695945
Si Si4 0.359756 0.904450 0.629410
Si Si5 0.697438 0.860976 0.217114
Si Si6 0.000000 0.515109 0.250000
Si Si7 0.094959 0.172546 0.516383
Si Si8 0.176077 0.450192 0.487535
O O1 0.130694 0.010342 0.890504
O O2 0.171640 0.261454 0.902863
O O3 0.302508 0.109314 0.853147
O O4 0.305306 0.078942 0.966931
O O5 0.443355 0.557305 0.340124
O O6 0.515672 0.623950 0.454506
O O7 0.460595 0.369963 0.427264
O O8 0.754524 0.467796 0.647892
O O9 0.706148 0.299577 0.730669
O O10 0.697493 0.565645 0.744090
O O11 0.453563 0.893103 0.690370
O O12 0.392185 0.001362 0.577854
O O13 0.590970 0.918451 0.234549
O O14 0.108529 0.335099 0.514689
O O15 0.210292 0.103225 0.523234
#
# Coordination Sequence:
#
# PCOD8135433 Si02
#       8
#     8   8   8   8   8   4   8   8
#     4  10  23  38  61  92 127 158 205 253 317 375
#     4  10  20  38  61  91 119 169 197 257 312 368
#     4  10  22  41  66  86 128 161 209 259 315 367
#     4  10  21  41  62  89 127 168 197 260 317 366
#     4  10  24  43  60  93 119 165 207 264 309 379
#     4  10  24  42  64  88 118 166 214 254 312 370
#     4   9  20  35  60  91 127 156 210 249 309 366
#     4  10  19  38  62  92 125 164 206 254 301 379
#
# _framework density 21.761165999999999
#
# number of rings (size 3 to 8) (size 9 to 14) (size 15 to 20)
#    0.000    2.133    1.333    0.400    1.867    6.933 
#    4.800    1.333    0.000    0.000    0.000    0.000 
#    0.000    0.000    0.000    0.000    0.000    0.000 
#
# Total GULP energy -371949.462868 kJ/mol
# GULP energy per Si atom -12398.315429 kJ/mol
# Density = 2.171164 g / cm^3
# Si number density = 21.761166 Si / 1000 Ang^3
#
#
#
# Elastic Constant Matrix: (Units=GPa)
#
#
# Indices 1 2 3 4 5 6 
#
# 1 58.3850 11.0569 20.7918 0.0000 2.2999 0.0000
# 2 11.0569 123.6010 70.5605 0.0000 4.6311 0.0000
# 3 20.7918 70.5605 122.1253 0.0000 24.5254 0.0000
# 4 0.0000 0.0000 0.0000 33.5676 0.0000 0.4642
# 5 2.2999 4.6311 24.5254 0.0000 32.9425 0.0000
# 6 0.0000 0.0000 0.0000 0.4642 0.0000 27.8287
#
#
#
# Elastic Compliance Matrix: (Units=1/GPa)
#
#
# Indices 1 2 3 4 5 6 
#
# 1 0.018286 0.000366 -0.003596 0.000000 0.001349 0.000000
# 2 0.000366 0.012572 -0.008191 0.000000 0.004305 0.000000
# 3 -0.003596 -0.008191 0.015581 0.000000 -0.010197 0.000000
# 4 0.000000 0.000000 0.000000 0.029797 0.000000 -0.000497
# 5 0.001349 0.004305 -0.010197 0.000000 0.037248 0.000000
# 6 0.000000 0.000000 0.000000 -0.000497 0.000000 0.035942
#
#
# Mechanical properties :
#
#
# Convention : Reuss Voigt Hill
#
# Bulk Modulus (GPa) = 42.37573 56.54775 49.46174
# Shear Modulus (GPa) = 27.75718 32.31457 30.03588
#
# Velocity S-wave (km/s) = 3.57534 3.85771 3.71920
# Velocity P-wave (km/s) = 6.04644 6.77381 6.42044
#
# Compressibility (1/GPa) = 0.02359842
#
# Stress axis : x y z
#
# Youngs Moduli (GPa) = 54.68774 79.53909 64.18177
#
# Poissons Ratio (x) = -0.02914 0.23078
# Poissons Ratio (y) = -0.02004 0.52571
# Poissons Ratio (z) = 0.19664 0.65150
#
# Static dielectric constant tensor:
#      x y z
#    x 3.820140 0.000000 0.041850 
#    y 0.000000 3.828100 0.000000 
#    z 0.041850 0.000000 4.013870 
# 
# 
# High freq. dielectric constant tensor:
#      x y z
#    x 1.847040 0.000000 0.000660 
#    y 0.000000 1.844110 0.000000 
#    z 0.000660 0.000000 1.854780 
# 
# From -- ./inp_files/273211.got.cif
#   From: 2010.06.25/outbox.cif.g09.slc.cpg/sg15_137_cif.got.tgz:273211.got - 2010.06.28 07:06:18.
