data_PCOD8135064
_publ_section_title
;
Structure prediction by ZEFSAII (Michael W. Deem and Ramdas Pophale) SiO2 
 PCOD8135064
Probable space group: C 2/C
;
_chemical_formula_sum "Si O2"
_cell_formula_units_Z 60
_cell_length_a 14.402143
_cell_length_b 12.636843
_cell_length_c 16.915352
_cell_angle_alpha 90.000000
_cell_angle_beta 109.009595
_cell_angle_gamma 90.000000
_cell_volume 2910.661921
_symmetry_space_group_name_H-M "C 2/C"
_symmetry_group_IT_number 15
_symmetry_cell_setting 'monoclinic'
loop_
_space_group_symop_operation_xyz
x,y,z
-x,y,1/2-z
-x,-y,-z
x,-y,1/2+z
1/2+x,1/2+y,z
1/2-x,1/2+y,1/2-z
1/2-x,1/2-y,-z
1/2+x,1/2-y,1/2+z
loop_
_atom_site_type_symbol
_atom_site_label
_atom_site_fract_x
_atom_site_fract_y
_atom_site_fract_z
Si Si1 0.774952 0.643819 0.961911
Si Si2 0.364785 0.528479 0.137903
Si Si3 0.158425 0.288220 0.187315
Si Si4 0.804694 0.132069 0.853299
Si Si5 0.419394 0.556072 0.327843
Si Si6 0.000000 0.599193 0.750000
Si Si7 0.362691 0.968963 0.086388
Si Si8 0.805146 0.317729 0.952084
O O1 0.675266 0.578815 0.914224
O O2 0.838609 0.662968 0.899907
O O3 0.750000 0.750000 0.000000
O O4 0.840099 0.583038 0.044849
O O5 0.396735 0.508606 0.235840
O O6 0.464104 0.572558 0.122574
O O7 0.277888 0.613510 0.114873
O O8 0.257740 0.328696 0.257391
O O9 0.144725 0.161725 0.174747
O O10 0.069750 0.325363 0.218528
O O11 0.725520 0.085654 0.891562
O O12 0.855589 0.237840 0.903816
O O13 0.884848 0.040188 0.872977
O O14 0.049071 0.521014 0.827229
O O15 0.386067 0.892105 0.017369
O O16 0.750000 0.250000 0.000000
#
# Coordination Sequence:
#
# PCOD8135064 Si02
#       8
#     8   8   8   8   8   4   8   8
#     4  11  23  44  61  92 136 179 201 262 356 396
#     4  10  21  38  63  91 126 163 217 261 306 383
#     4  11  22  37  68  92 131 169 216 271 324 388
#     4  10  19  37  60  94 122 169 214 261 320 386
#     4  11  21  36  64  98 122 160 218 270 303 373
#     4  10  22  42  66  96 118 168 236 274 318 376
#     4   9  21  39  64  86 126 167 216 266 318 399
#     4   9  18  35  59  88 120 161 203 261 319 365
#
# _framework density 20.613868
#
# number of rings (size 3 to 8) (size 9 to 14) (size 15 to 20)
#    0.000    1.867    2.667    1.600    3.733    0.533 
#    2.400    8.000    2.933    0.000    0.000    0.000 
#    0.000    0.000    0.000    0.000    0.000    0.000 
#
# Total GULP energy -371658.457589 kJ/mol
# GULP energy per Si atom -12388.615253 kJ/mol
# Density = 2.056695 g / cm^3
# Si number density = 20.613868 Si / 1000 Ang^3
#
#
#
# Elastic Constant Matrix: (Units=GPa)
#
#
# Indices 1 2 3 4 5 6 
#
# 1 52.6621 28.7094 33.7348 0.0000 2.5171 0.0000
# 2 28.7094 148.2786 62.8407 0.0000 2.4673 0.0000
# 3 33.7348 62.8407 128.5407 0.0000 6.5501 0.0000
# 4 0.0000 0.0000 0.0000 38.6260 0.0000 -5.7193
# 5 2.5171 2.4673 6.5501 0.0000 23.0305 0.0000
# 6 0.0000 0.0000 0.0000 -5.7193 0.0000 22.5084
#
#
#
# Elastic Compliance Matrix: (Units=1/GPa)
#
#
# Indices 1 2 3 4 5 6 
#
# 1 0.023527 -0.002451 -0.004930 0.000000 -0.000907 0.000000
# 2 -0.002451 0.008764 -0.003660 0.000000 0.000370 0.000000
# 3 -0.004930 -0.003660 0.010974 0.000000 -0.002190 0.000000
# 4 0.000000 0.000000 0.000000 0.026901 0.000000 0.006836
# 5 -0.000907 0.000370 -0.002190 0.000000 0.044103 0.000000
# 6 0.000000 0.000000 0.000000 0.006836 0.000000 0.046165
#
#
# Mechanical properties :
#
#
# Convention : Reuss Voigt Hill
#
# Bulk Modulus (GPa) = 47.20789 64.45013 55.82901
# Shear Modulus (GPa) = 26.37462 30.44608 28.41035
#
# Velocity S-wave (km/s) = 3.58083 3.84731 3.71646
# Velocity P-wave (km/s) = 6.32829 7.14626 6.74968
#
# Compressibility (1/GPa) = 0.02118290
#
# Stress axis : x y z
#
# Youngs Moduli (GPa) = 42.50518 114.10962 91.12101
#
# Poissons Ratio (x) = 0.27965 0.44924
# Poissons Ratio (y) = 0.10417 0.33350
# Poissons Ratio (z) = 0.20956 0.41764
#
# Static dielectric constant tensor:
#      x y z
#    x 3.588570 0.000000 -0.064840 
#    y 0.000000 3.921810 0.000000 
#    z -0.064840 0.000000 4.431990 
# 
# 
# High freq. dielectric constant tensor:
#      x y z
#    x 1.768010 0.000000 -0.003690 
#    y 0.000000 1.811180 0.000000 
#    z -0.003690 0.000000 1.823080 
# 
# From -- ./inp_files/204506.got.cif
#   From: 2010.06.25/outbox.cif.g09.slc.cpg/sg15_103_cif.got.tgz:204506.got - 2010.06.28 07:06:18.
