data_PCOD8135187
_publ_section_title
;
Structure prediction by ZEFSAII (Michael W. Deem and Ramdas Pophale) SiO2 
 PCOD8135187
Probable space group: C 2/C
;
_chemical_formula_sum "Si O2"
_cell_formula_units_Z 60
_cell_length_a 24.690491
_cell_length_b 17.580318
_cell_length_c 10.181791
_cell_angle_alpha 90.000000
_cell_angle_beta 41.989483
_cell_angle_gamma 90.000000
_cell_volume 2956.670817
_symmetry_space_group_name_H-M "C 2/C"
_symmetry_group_IT_number 15
_symmetry_cell_setting 'monoclinic'
loop_
_space_group_symop_operation_xyz
x,y,z
-x,y,1/2-z
-x,-y,-z
x,-y,1/2+z
1/2+x,1/2+y,z
1/2-x,1/2+y,1/2-z
1/2-x,1/2-y,-z
1/2+x,1/2-y,1/2+z
loop_
_atom_site_type_symbol
_atom_site_label
_atom_site_fract_x
_atom_site_fract_y
_atom_site_fract_z
Si Si1 0.915340 0.333856 0.357184
Si Si2 0.152374 0.543137 0.688414
Si Si3 0.678738 0.513089 0.548746
Si Si4 0.500000 0.312417 0.750000
Si Si5 0.273206 0.160750 0.312543
Si Si6 0.875101 0.082511 0.592963
Si Si7 0.907139 0.436805 0.934989
Si Si8 0.715023 0.819469 0.409842
O O1 0.880008 0.372666 0.289786
O O2 0.852369 0.351417 0.584718
O O3 0.000000 0.373989 0.250000
O O4 0.933196 0.243503 0.300698
O O5 0.249496 0.542171 0.529317
O O6 0.129193 0.483092 0.619834
O O7 0.109170 0.517181 0.901161
O O8 0.716773 0.586974 0.410441
O O9 0.622220 0.535235 0.775301
O O10 0.625163 0.471520 0.535069
O O11 0.545059 0.364444 0.560475
O O12 0.305253 0.178981 0.399692
O O13 0.222663 0.232587 0.347948
O O14 0.796430 0.134811 0.733020
O O15 0.000000 0.417920 0.750000
O O16 0.859161 0.357218 0.034051
#
# Coordination Sequence:
#
# PCOD8135187 Si02
#       8
#     8   8   8   4   8   8   8   8
#     4  10  22  36  61  91 126 166 209 258 312 384
#     4  12  22  40  60  97 127 168 206 254 325 377
#     4  11  22  39  70  94 127 163 220 261 317 381
#     4  10  24  42  66  90 126 172 218 262 326 380
#     4  10  19  37  64  91 116 172 214 251 308 383
#     4  11  21  44  65  97 122 168 215 270 316 384
#     4  12  25  37  59  93 132 167 205 258 312 383
#     4  10  20  37  63  88 126 167 212 252 311 378
#
# _framework density 20.293095999999998
#
# number of rings (size 3 to 8) (size 9 to 14) (size 15 to 20)
#    0.400    0.800    5.333    2.400    1.867    0.533 
#    0.000    4.000    1.467    0.000    0.000    0.000 
#    0.000    0.000    0.000    0.000    0.000    0.000 
#
# Total GULP energy -371925.348279 kJ/mol
# GULP energy per Si atom -12397.511609 kJ/mol
# Density = 2.024691 g / cm^3
# Si number density = 20.293096 Si / 1000 Ang^3
#
#
#
# Elastic Constant Matrix: (Units=GPa)
#
#
# Indices 1 2 3 4 5 6 
#
# 1 50.0395 43.5580 40.9496 0.0000 16.1731 0.0000
# 2 43.5580 105.9589 41.6125 0.0000 10.5619 0.0000
# 3 40.9496 41.6125 120.1476 0.0000 5.7357 0.0000
# 4 0.0000 0.0000 0.0000 27.7415 0.0000 -8.8264
# 5 16.1731 10.5619 5.7357 0.0000 21.4671 0.0000
# 6 0.0000 0.0000 0.0000 -8.8264 0.0000 30.5612
#
#
#
# Elastic Compliance Matrix: (Units=1/GPa)
#
#
# Indices 1 2 3 4 5 6 
#
# 1 0.049484 -0.013272 -0.010941 0.000000 -0.027828 0.000000
# 2 -0.013272 0.014913 -0.000779 0.000000 0.002870 0.000000
# 3 -0.010941 -0.000779 0.012064 0.000000 0.005402 0.000000
# 4 0.000000 0.000000 0.000000 0.039695 0.000000 0.011464
# 5 -0.027828 0.002870 0.005402 0.000000 0.064693 0.000000
# 6 0.000000 0.000000 0.000000 0.011464 0.000000 0.036032
#
#
# Mechanical properties :
#
#
# Convention : Reuss Voigt Hill
#
# Bulk Modulus (GPa) = 37.76541 58.70960 48.23750
# Shear Modulus (GPa) = 18.13635 25.95569 22.04602
#
# Velocity S-wave (km/s) = 2.99276 3.58025 3.29960
# Velocity P-wave (km/s) = 5.53105 6.78856 6.19181
#
# Compressibility (1/GPa) = 0.02647926
#
# Stress axis : x y z
#
# Youngs Moduli (GPa) = 20.20844 67.05467 82.89301
#
# Poissons Ratio (x) = 0.88993 0.90689
# Poissons Ratio (y) = 0.26820 0.06455
# Poissons Ratio (z) = 0.22109 0.05222
#
# Static dielectric constant tensor:
#      x y z
#    x 3.514420 0.000000 0.104550 
#    y 0.000000 3.962910 0.000000 
#    z 0.104550 0.000000 3.864510 
# 
# 
# High freq. dielectric constant tensor:
#      x y z
#    x 1.756910 0.000000 0.005110 
#    y 0.000000 1.795630 0.000000 
#    z 0.005110 0.000000 1.806170 
# 
# From -- ./inp_files/58073.got.cif
#   From: 2010.06.25/outbox.cif.g09.slc.cpg/sg15_30_cif.got.tgz:58073.got - 2010.06.28 07:06:18.
