data_PCOD8135233
_publ_section_title
;
Structure prediction by ZEFSAII (Michael W. Deem and Ramdas Pophale) SiO2 
 PCOD8135233
Probable space group: C 2/C
;
_chemical_formula_sum "Si O2"
_cell_formula_units_Z 40
_cell_length_a 9.127847
_cell_length_b 17.303391
_cell_length_c 15.503255
_cell_angle_alpha 90.000000
_cell_angle_beta 125.425617
_cell_angle_gamma 90.000000
_cell_volume 1995.308760
_symmetry_space_group_name_H-M "C 2/C"
_symmetry_group_IT_number 15
_symmetry_cell_setting 'monoclinic'
loop_
_space_group_symop_operation_xyz
x,y,z
-x,y,1/2-z
-x,-y,-z
x,-y,1/2+z
1/2+x,1/2+y,z
1/2-x,1/2+y,1/2-z
1/2-x,1/2-y,-z
1/2+x,1/2-y,1/2+z
loop_
_atom_site_type_symbol
_atom_site_label
_atom_site_fract_x
_atom_site_fract_y
_atom_site_fract_z
Si Si1 0.733449 0.171697 0.381537
Si Si2 0.797116 0.181402 0.209209
Si Si3 0.352696 0.985634 0.875506
Si Si4 0.000000 0.465615 0.750000
Si Si5 0.500000 0.420020 0.250000
Si Si6 0.018096 0.202662 0.616436
O O1 0.801007 0.197954 0.311962
O O2 0.650767 0.086539 0.347803
O O3 0.903987 0.166749 0.500909
O O4 0.587444 0.232093 0.365879
O O5 0.686169 0.105544 0.144292
O O6 0.694322 0.256308 0.135067
O O7 0.000000 0.175425 0.250000
O O8 0.419261 0.015283 0.802735
O O9 0.168673 0.028587 0.838106
O O10 0.500000 0.000000 0.000000
O O11 0.429654 0.368090 0.304517
#
# Coordination Sequence:
#
# PCOD8135233 Si02
#       6
#     8   8   8   4   4   8
#     4  10  19  37  66  90 115 166 212 253 313 369
#     4  11  22  42  61  90 132 166 206 258 323 380
#     4  11  24  42  65  94 131 171 207 264 323 378
#     4  10  19  44  62  89 128 170 210 256 319 392
#     4  12  23  42  62 101 124 160 220 268 303 378
#     4  11  21  38  67  91 119 165 217 262 305 375
#
# _framework density 20.047021999999998
#
# number of rings (size 3 to 8) (size 9 to 14) (size 15 to 20)
#    0.000    1.200    7.000    1.200    2.800    0.800 
#    5.400    3.000    0.000    0.000    0.000    0.000 
#    0.000    0.000    0.000    0.000    0.000    0.000 
#
# Total GULP energy -247942.926785 kJ/mol
# GULP energy per Si atom -12397.146339 kJ/mol
# Density = 2.000139 g / cm^3
# Si number density = 20.047022 Si / 1000 Ang^3
#
#
#
# Elastic Constant Matrix: (Units=GPa)
#
#
# Indices 1 2 3 4 5 6 
#
# 1 96.0207 20.3086 44.6664 0.0000 11.8355 0.0000
# 2 20.3086 72.7617 45.6015 0.0000 6.6486 0.0000
# 3 44.6664 45.6015 142.9321 0.0000 16.3896 0.0000
# 4 0.0000 0.0000 0.0000 22.1681 0.0000 -4.1286
# 5 11.8355 6.6486 16.3896 0.0000 26.5851 0.0000
# 6 0.0000 0.0000 0.0000 -4.1286 0.0000 25.4628
#
#
#
# Elastic Compliance Matrix: (Units=1/GPa)
#
#
# Indices 1 2 3 4 5 6 
#
# 1 0.012549 -0.001225 -0.003148 0.000000 -0.003340 0.000000
# 2 -0.001225 0.017322 -0.005068 0.000000 -0.000663 0.000000
# 3 -0.003148 -0.005068 0.009998 0.000000 -0.003495 0.000000
# 4 0.000000 0.000000 0.000000 0.046514 0.000000 0.007542
# 5 -0.003340 -0.000663 -0.003495 0.000000 0.041422 0.000000
# 6 0.000000 0.000000 0.000000 0.007542 0.000000 0.040496
#
#
# Mechanical properties :
#
#
# Convention : Reuss Voigt Hill
#
# Bulk Modulus (GPa) = 47.64567 59.20748 53.42657
# Shear Modulus (GPa) = 25.74953 28.25242 27.00098
#
# Velocity S-wave (km/s) = 3.58782 3.75815 3.67397
# Velocity P-wave (km/s) = 6.40170 6.95917 6.68625
#
# Compressibility (1/GPa) = 0.02098827
#
# Stress axis : x y z
#
# Youngs Moduli (GPa) = 79.68449 57.73031 100.02340
#
# Poissons Ratio (x) = 0.07069 0.31488
# Poissons Ratio (y) = 0.09758 0.50690
# Poissons Ratio (z) = 0.25085 0.29256
#
# Static dielectric constant tensor:
#      x y z
#    x 3.822270 0.000000 0.051410 
#    y 0.000000 3.538600 0.000000 
#    z 0.051410 0.000000 3.839770 
# 
# 
# High freq. dielectric constant tensor:
#      x y z
#    x 1.776480 0.000000 0.005890 
#    y 0.000000 1.767170 0.000000 
#    z 0.005890 0.000000 1.792540 
# 
# From -- ./inp_files/133221.got.cif
#   From: 2010.06.25/outbox.cif.g09.slc.cpg/sg15_67_cif.got.tgz:133221.got - 2010.06.28 07:06:18.
