data_PCOD8135657
_publ_section_title
;
Structure prediction by ZEFSAII (Michael W. Deem and Ramdas Pophale) SiO2 
 PCOD8135657
Probable space group: C 2/C
;
_chemical_formula_sum "Si O2"
_cell_formula_units_Z 48
_cell_length_a 18.100807
_cell_length_b 8.810830
_cell_length_c 15.058453
_cell_angle_alpha 90.000000
_cell_angle_beta 99.252721
_cell_angle_gamma 90.000000
_cell_volume 2370.321806
_symmetry_space_group_name_H-M "C 2/C"
_symmetry_group_IT_number 15
_symmetry_cell_setting 'monoclinic'
loop_
_space_group_symop_operation_xyz
x,y,z
-x,y,1/2-z
-x,-y,-z
x,-y,1/2+z
1/2+x,1/2+y,z
1/2-x,1/2+y,1/2-z
1/2-x,1/2-y,-z
1/2+x,1/2-y,1/2+z
loop_
_atom_site_type_symbol
_atom_site_label
_atom_site_fract_x
_atom_site_fract_y
_atom_site_fract_z
Si Si1 0.815895 0.062268 0.838689
Si Si2 0.337191 0.874970 0.276125
Si Si3 0.905492 0.683432 0.306699
Si Si4 0.583977 0.603493 0.280054
Si Si5 0.319601 0.701718 0.455868
Si Si6 0.931294 0.806790 0.126389
O O1 0.737139 0.042570 0.773147
O O2 0.838671 0.239788 0.852495
O O3 0.885261 0.991920 0.797000
O O4 0.812318 0.978169 0.932887
O O5 0.366494 0.757995 0.205127
O O6 0.319364 0.788112 0.363006
O O7 0.399450 0.001736 0.312276
O O8 0.891034 0.723461 0.200563
O O9 0.983526 0.749216 0.358263
O O10 0.500000 0.660871 0.250000
O O11 0.580847 0.489727 0.364195
O O12 0.250000 0.750000 0.500000
O O13 0.394550 0.738131 0.525739
#
# Coordination Sequence:
#
# PCOD8135657 Si02
#       6
#     8   8   8   8   8   8
#     4  10  20  40  61  86 121 167 204 252 315 376
#     4  11  23  37  64  92 125 160 214 259 312 374
#     4  10  20  39  61  89 122 166 200 254 319 368
#     4  10  19  39  62  91 118 164 209 242 311 377
#     4  11  23  39  61  90 122 165 212 260 308 365
#     4  10  20  39  63  84 126 161 204 252 308 375
#
# _framework density 20.250413999999999
#
# number of rings (size 3 to 8) (size 9 to 14) (size 15 to 20)
#    0.000    1.667    3.333    5.000    2.333    1.333 
#    0.000    5.000    0.000    0.000    0.000    0.000 
#    0.000    0.000    0.000    0.000    0.000    0.000 
#
# Total GULP energy -297387.675254 kJ/mol
# GULP energy per Si atom -12391.153136 kJ/mol
# Density = 2.020432 g / cm^3
# Si number density = 20.250414 Si / 1000 Ang^3
#
#
#
# Elastic Constant Matrix: (Units=GPa)
#
#
# Indices 1 2 3 4 5 6 
#
# 1 110.7826 40.6128 36.5637 0.0000 4.8999 0.0000
# 2 40.6128 106.4508 10.1393 0.0000 -5.4103 0.0000
# 3 36.5637 10.1393 63.8961 0.0000 18.5861 0.0000
# 4 0.0000 0.0000 0.0000 24.1584 0.0000 -0.9470
# 5 4.8999 -5.4103 18.5861 0.0000 28.0262 0.0000
# 6 0.0000 0.0000 0.0000 -0.9470 0.0000 26.9119
#
#
#
# Elastic Compliance Matrix: (Units=1/GPa)
#
#
# Indices 1 2 3 4 5 6 
#
# 1 0.012837 -0.004124 -0.007195 0.000000 0.001731 0.000000
# 2 -0.004124 0.011153 -0.000305 0.000000 0.003076 0.000000
# 3 -0.007195 -0.000305 0.024120 0.000000 -0.014796 0.000000
# 4 0.000000 0.000000 0.000000 0.041451 0.000000 0.001459
# 5 0.001731 0.003076 -0.014796 0.000000 0.045785 0.000000
# 6 0.000000 0.000000 0.000000 0.001459 0.000000 0.037210
#
#
# Mechanical properties :
#
#
# Convention : Reuss Voigt Hill
#
# Bulk Modulus (GPa) = 40.22113 50.64014 45.43063
# Shear Modulus (GPa) = 24.49920 28.74019 26.61970
#
# Velocity S-wave (km/s) = 3.48201 3.77137 3.62957
# Velocity P-wave (km/s) = 6.00590 6.63517 6.32836
#
# Compressibility (1/GPa) = 0.02486255
#
# Stress axis : x y z
#
# Youngs Moduli (GPa) = 77.90212 89.66369 41.45984
#
# Poissons Ratio (x) = 0.36979 0.29829
# Poissons Ratio (y) = 0.32128 0.01263
# Poissons Ratio (z) = 0.56048 0.02731
#
# Static dielectric constant tensor:
#      x y z
#    x 3.738520 0.000000 -0.057940 
#    y 0.000000 4.025360 0.000000 
#    z -0.057940 0.000000 3.508450 
# 
# 
# High freq. dielectric constant tensor:
#      x y z
#    x 1.802420 0.000000 -0.000400 
#    y 0.000000 1.797530 0.000000 
#    z -0.000400 0.000000 1.750410 
# 
# From -- ./inp_files/159697.got.cif
#   From: 2010.06.25/outbox.cif.g09.slc.cpg/sg15_80_cif.got.tgz:159697.got - 2010.06.28 07:06:18.
