data_PCOD8135255
_publ_section_title
;
Structure prediction by ZEFSAII (Michael W. Deem and Ramdas Pophale) SiO2 
 PCOD8135255
Probable space group: C 2/C
;
_chemical_formula_sum "Si O2"
_cell_formula_units_Z 60
_cell_length_a 11.304529
_cell_length_b 14.652638
_cell_length_c 16.479382
_cell_angle_alpha 90.000000
_cell_angle_beta 83.843156
_cell_angle_gamma 90.000000
_cell_volume 2713.919510
_symmetry_space_group_name_H-M "C 2/C"
_symmetry_group_IT_number 15
_symmetry_cell_setting 'monoclinic'
loop_
_space_group_symop_operation_xyz
x,y,z
-x,y,1/2-z
-x,-y,-z
x,-y,1/2+z
1/2+x,1/2+y,z
1/2-x,1/2+y,1/2-z
1/2-x,1/2-y,-z
1/2+x,1/2-y,1/2+z
loop_
_atom_site_type_symbol
_atom_site_label
_atom_site_fract_x
_atom_site_fract_y
_atom_site_fract_z
Si Si1 0.000000 0.092046 0.250000
Si Si2 0.914406 0.783942 0.324948
Si Si3 0.262631 0.142952 0.004938
Si Si4 0.682751 0.345352 0.009922
Si Si5 0.055617 0.611376 0.376213
Si Si6 0.248631 0.639356 0.232232
Si Si7 0.984851 0.073131 0.429767
Si Si8 0.680430 0.017987 0.094562
O O1 0.879922 0.153848 0.260338
O O2 0.004553 0.036096 0.335414
O O3 0.875288 0.857659 0.395645
O O4 0.797088 0.738364 0.293811
O O5 0.000000 0.829510 0.250000
O O6 0.985930 0.704578 0.365047
O O7 0.383719 0.117226 0.041425
O O8 0.147378 0.111002 0.061255
O O9 0.250000 0.250000 0.000000
O O10 0.278861 0.088103 0.918211
O O11 0.750000 0.250000 0.000000
O O12 0.580218 0.348033 0.947399
O O13 0.777006 0.427621 0.990289
O O14 0.155579 0.595316 0.301674
O O15 0.961241 0.528137 0.382027
O O16 0.255544 0.563673 0.161034
O O17 0.000000 0.000000 0.500000
#
# Coordination Sequence:
#
# PCOD8135255 Si02
#       8
#     4   8   8   8   8   8   8   8
#     4  12  20  40  70  90 142 182 216 286 356 412
#     4   9  19  36  62 100 132 173 229 281 337 412
#     4  12  25  42  66  95 137 181 223 284 349 409
#     4  12  20  38  68  98 132 176 230 282 336 415
#     4  10  20  39  66  95 132 173 226 278 346 409
#     4  10  19  37  67  97 131 179 220 284 351 408
#     4  12  25  45  68 100 138 178 230 282 350 413
#     4  11  22  40  66  98 129 179 232 279 339 419
#
# _framework density 22.108246000000001
#
# number of rings (size 3 to 8) (size 9 to 14) (size 15 to 20)
#    0.000    1.067    6.667    2.400    0.000    0.000 
#    1.200    0.000   11.733    0.000    0.000    0.000 
#    0.000    0.000    0.000    0.000    0.000    0.000 
#
# Total GULP energy -371703.387469 kJ/mol
# GULP energy per Si atom -12390.112916 kJ/mol
# Density = 2.205793 g / cm^3
# Si number density = 22.108246 Si / 1000 Ang^3
#
#
#
# Elastic Constant Matrix: (Units=GPa)
#
#
# Indices 1 2 3 4 5 6 
#
# 1 164.2745 23.3866 38.6087 0.0000 -4.3180 0.0000
# 2 23.3866 76.6476 35.1618 0.0000 -9.1090 0.0000
# 3 38.6087 35.1618 156.9211 0.0000 -12.6604 0.0000
# 4 0.0000 0.0000 0.0000 25.1221 0.0000 -8.1479
# 5 -4.3180 -9.1090 -12.6604 0.0000 40.2772 0.0000
# 6 0.0000 0.0000 0.0000 -8.1479 0.0000 20.1203
#
#
#
# Elastic Compliance Matrix: (Units=1/GPa)
#
#
# Indices 1 2 3 4 5 6 
#
# 1 0.006596 -0.001415 -0.001308 0.000000 -0.000024 0.000000
# 2 -0.001415 0.015060 -0.002836 0.000000 0.002363 0.000000
# 3 -0.001308 -0.002836 0.007456 0.000000 0.001562 0.000000
# 4 0.000000 0.000000 0.000000 0.045824 0.000000 0.018557
# 5 -0.000024 0.002363 0.001562 0.000000 0.025851 0.000000
# 6 0.000000 0.000000 0.000000 0.018557 0.000000 0.057216
#
#
# Mechanical properties :
#
#
# Convention : Reuss Voigt Hill
#
# Bulk Modulus (GPa) = 55.57340 65.79524 60.68432
# Shear Modulus (GPa) = 28.55217 37.14967 32.85092
#
# Velocity S-wave (km/s) = 3.59760 4.10366 3.85894
# Velocity P-wave (km/s) = 6.51525 7.23038 6.88211
#
# Compressibility (1/GPa) = 0.01799422
#
# Stress axis : x y z
#
# Youngs Moduli (GPa) = 151.61731 66.39976 134.12433
#
# Poissons Ratio (x) = 0.09399 0.17537
# Poissons Ratio (y) = 0.21461 0.38034
# Poissons Ratio (z) = 0.19825 0.18829
#
# Static dielectric constant tensor:
#      x y z
#    x 4.570530 0.000000 -0.179040 
#    y 0.000000 3.577970 0.000000 
#    z -0.179040 0.000000 4.363500 
# 
# 
# High freq. dielectric constant tensor:
#      x y z
#    x 1.895810 0.000000 -0.014080 
#    y 0.000000 1.817540 0.000000 
#    z -0.014080 0.000000 1.878890 
# 
# From -- ./inp_files/197822.got.cif
#   From: 2010.06.25/outbox.cif.g09.slc.cpg/sg15_99_cif.got.tgz:197822.got - 2010.06.28 07:06:18.
