data_PCOD8135485
_publ_section_title
;
Structure prediction by ZEFSAII (Michael W. Deem and Ramdas Pophale) SiO2 
 PCOD8135485
Probable space group: C 2/C
;
_chemical_formula_sum "Si O2"
_cell_formula_units_Z 60
_cell_length_a 16.543950
_cell_length_b 9.370116
_cell_length_c 21.416766
_cell_angle_alpha 90.000000
_cell_angle_beta 64.751899
_cell_angle_gamma 90.000000
_cell_volume 3002.837910
_symmetry_space_group_name_H-M "C 2/C"
_symmetry_group_IT_number 15
_symmetry_cell_setting 'monoclinic'
loop_
_space_group_symop_operation_xyz
x,y,z
-x,y,1/2-z
-x,-y,-z
x,-y,1/2+z
1/2+x,1/2+y,z
1/2-x,1/2+y,1/2-z
1/2-x,1/2-y,-z
1/2+x,1/2-y,1/2+z
loop_
_atom_site_type_symbol
_atom_site_label
_atom_site_fract_x
_atom_site_fract_y
_atom_site_fract_z
Si Si1 0.631206 0.384117 0.017909
Si Si2 0.076522 0.474229 0.023577
Si Si3 0.171079 0.205554 0.980849
Si Si4 0.501269 0.205779 0.125891
Si Si5 0.500000 0.365703 0.250000
Si Si6 0.799941 0.743432 0.171532
Si Si7 0.231585 0.345987 0.421296
Si Si8 0.310278 0.535250 0.774029
O O1 0.531035 0.322854 0.063084
O O2 0.680493 0.340310 0.065573
O O3 0.631462 0.550130 0.005586
O O4 0.677217 0.302723 0.944541
O O5 0.053391 0.556428 0.095590
O O6 0.087048 0.304912 0.027543
O O7 0.171749 0.523524 0.965291
O O8 0.000000 0.500000 0.000000
O O9 0.207720 0.218424 0.898573
O O10 0.250000 0.250000 0.000000
O O11 0.528594 0.260610 0.184908
O O12 0.396374 0.175275 0.154348
O O13 0.583603 0.464140 0.244121
O O14 0.724221 0.627824 0.215304
O O15 0.790027 0.889215 0.214499
O O16 0.256629 0.370449 0.341702
#
# Coordination Sequence:
#
# PCOD8135485 Si02
#       8
#     8   8   8   8   4   8   8   8
#     4  10  21  35  65  99 121 159 220 255 312 381
#     4  11  20  39  63  90 130 165 200 267 325 364
#     4  12  23  39  63  96 129 164 209 268 320 365
#     4  10  21  42  64  95 121 168 215 249 318 388
#     4  10  22  38  70  86 124 168 212 258 300 396
#     4  11  25  42  66  93 129 169 209 265 316 377
#     4  10  19  38  64  87 126 171 202 256 318 379
#     4  11  22  43  64  89 129 167 212 254 321 374
#
# _framework density 19.981097999999999
#
# number of rings (size 3 to 8) (size 9 to 14) (size 15 to 20)
#    0.000    1.333    5.333    0.000    1.867    0.533 
#    2.400    2.667    0.000    0.800    0.000    0.000 
#    0.000    0.000    0.000    0.000    0.000    0.000 
#
# Total GULP energy -371943.344323 kJ/mol
# GULP energy per Si atom -12398.111477 kJ/mol
# Density = 1.993562 g / cm^3
# Si number density = 19.981098 Si / 1000 Ang^3
#
#
#
# Elastic Constant Matrix: (Units=GPa)
#
#
# Indices 1 2 3 4 5 6 
#
# 1 80.7756 28.8594 22.2882 0.0000 -1.5181 0.0000
# 2 28.8594 147.5072 39.8543 0.0000 -5.9962 0.0001
# 3 22.2882 39.8543 95.2291 0.0000 1.7492 0.0000
# 4 0.0000 0.0000 0.0000 25.9707 0.0000 -6.8386
# 5 -1.5181 -5.9962 1.7492 0.0000 31.2387 0.0000
# 6 0.0000 0.0001 0.0000 -6.8386 0.0000 27.6948
#
#
#
# Elastic Compliance Matrix: (Units=1/GPa)
#
#
# Indices 1 2 3 4 5 6 
#
# 1 0.013771 -0.002035 -0.002379 0.000000 0.000412 0.000000
# 2 -0.002035 0.008030 -0.002914 0.000000 0.001606 0.000000
# 3 -0.002379 -0.002914 0.012302 0.000000 -0.001364 0.000000
# 4 0.000000 0.000000 0.000000 0.041183 0.000000 0.010169
# 5 0.000412 0.001606 -0.001364 0.000000 0.032416 0.000000
# 6 0.000000 0.000000 0.000000 0.010169 0.000000 0.038619
#
#
# Mechanical properties :
#
#
# Convention : Reuss Voigt Hill
#
# Bulk Modulus (GPa) = 51.41921 56.16842 53.79382
# Shear Modulus (GPa) = 29.85798 32.48150 31.16974
#
# Velocity S-wave (km/s) = 3.86983 4.03626 3.95392
# Velocity P-wave (km/s) = 6.76441 7.06355 6.91559
#
# Compressibility (1/GPa) = 0.01944798
#
# Stress axis : x y z
#
# Youngs Moduli (GPa) = 72.61559 124.53330 81.28516
#
# Poissons Ratio (x) = 0.25339 0.19339
# Poissons Ratio (y) = 0.14775 0.23686
# Poissons Ratio (z) = 0.17276 0.36288
#
# Static dielectric constant tensor:
#      x y z
#    x 3.567820 0.000000 0.004090 
#    y 0.000000 3.393770 0.000000 
#    z 0.004090 0.000000 3.650080 
# 
# 
# High freq. dielectric constant tensor:
#      x y z
#    x 1.780790 0.000000 -0.006380 
#    y 0.000000 1.773670 0.000000 
#    z -0.006380 0.000000 1.778880 
# 
# From -- ./inp_files/276552.got.cif
#   From: 2010.06.25/outbox.cif.g09.slc.cpg/sg15_139_cif.got.tgz:276552.got - 2010.06.28 07:06:18.
