data_PCOD8135471
_publ_section_title
;
Structure prediction by ZEFSAII (Michael W. Deem and Ramdas Pophale) SiO2 
 PCOD8135471
Probable space group: C 2/C
;
_chemical_formula_sum "Si O2"
_cell_formula_units_Z 56
_cell_length_a 23.082980
_cell_length_b 14.305268
_cell_length_c 9.221145
_cell_angle_alpha 90.000000
_cell_angle_beta 124.358756
_cell_angle_gamma 90.000000
_cell_volume 2513.623974
_symmetry_space_group_name_H-M "C 2/C"
_symmetry_group_IT_number 15
_symmetry_cell_setting 'monoclinic'
loop_
_space_group_symop_operation_xyz
x,y,z
-x,y,1/2-z
-x,-y,-z
x,-y,1/2+z
1/2+x,1/2+y,z
1/2-x,1/2+y,1/2-z
1/2-x,1/2-y,-z
1/2+x,1/2-y,1/2+z
loop_
_atom_site_type_symbol
_atom_site_label
_atom_site_fract_x
_atom_site_fract_y
_atom_site_fract_z
Si Si1 0.081765 0.958974 0.328760
Si Si2 0.328538 0.198833 0.247886
Si Si3 0.829038 0.208700 0.446059
Si Si4 0.500000 0.125422 0.250000
Si Si5 0.920109 0.472856 0.843987
Si Si6 0.103119 0.878818 0.050911
Si Si7 0.911376 0.325914 0.363428
Si Si8 0.000000 0.760605 0.750000
O O1 0.115561 0.873795 0.462352
O O2 0.095033 0.946989 0.176947
O O3 0.000000 0.963845 0.250000
O O4 0.119541 0.055006 0.435701
O O5 0.249297 0.166917 0.169314
O O6 0.380761 0.113874 0.370652
O O7 0.339332 0.297238 0.347103
O O8 0.338781 0.217617 0.091180
O O9 0.846955 0.260655 0.320347
O O10 0.568293 0.061986 0.305349
O O11 0.525443 0.184826 0.426358
O O12 0.878151 0.569451 0.800817
O O13 0.000000 0.500000 0.000000
O O14 0.030424 0.825005 0.920829
O O15 0.940568 0.300846 0.245359
#
# Coordination Sequence:
#
# PCOD8135471 Si02
#       8
#     8   8   8   4   8   8   8   4
#     4  11  23  40  69  98 127 178 230 286 338 408
#     4  10  22  45  65  98 136 181 228 287 340 427
#     4  10  23  41  70  93 134 188 230 271 356 417
#     4  10  19  38  63  96 126 176 229 284 347 402
#     4  10  20  35  64 100 137 170 225 291 351 402
#     4  11  24  41  66  96 137 168 227 287 343 403
#     4  11  23  38  66  99 136 180 225 287 351 415
#     4  12  25  40  65 108 144 174 225 302 353 406
#
# _framework density 22.278590999999999
#
# number of rings (size 3 to 8) (size 9 to 14) (size 15 to 20)
#    0.000    1.429    2.143    3.429    5.000    2.286 
#    0.000    0.714    0.000    0.000    0.000    0.000 
#    0.000    0.000    0.000    0.000    0.000    0.000 
#
# Total GULP energy -346922.043308 kJ/mol
# GULP energy per Si atom -12390.072975 kJ/mol
# Density = 2.222788 g / cm^3
# Si number density = 22.278591 Si / 1000 Ang^3
#
#
#
# Elastic Constant Matrix: (Units=GPa)
#
#
# Indices 1 2 3 4 5 6 
#
# 1 87.6536 63.8588 33.4258 0.0000 -1.8192 0.0000
# 2 63.8588 140.6977 43.0938 0.0000 -6.9904 0.0000
# 3 33.4258 43.0938 75.5886 0.0000 -6.1835 0.0000
# 4 0.0000 0.0000 0.0000 31.8270 0.0000 -1.5446
# 5 -1.8192 -6.9904 -6.1835 0.0000 29.7534 0.0000
# 6 0.0000 0.0000 0.0000 -1.5446 0.0000 24.2489
#
#
#
# Elastic Compliance Matrix: (Units=1/GPa)
#
#
# Indices 1 2 3 4 5 6 
#
# 1 0.018046 -0.007004 -0.004101 0.000000 -0.001394 0.000000
# 2 -0.007004 0.011360 -0.003251 0.000000 0.001565 0.000000
# 3 -0.004101 -0.003251 0.017104 0.000000 0.002540 0.000000
# 4 0.000000 0.000000 0.000000 0.031517 0.000000 0.002008
# 5 -0.001394 0.001565 0.002540 0.000000 0.034420 0.000000
# 6 0.000000 0.000000 0.000000 0.002008 0.000000 0.041367
#
#
# Mechanical properties :
#
#
# Convention : Reuss Voigt Hill
#
# Bulk Modulus (GPa) = 56.18641 64.96630 60.57636
# Shear Modulus (GPa) = 26.53092 28.06997 27.30045
#
# Velocity S-wave (km/s) = 3.45464 3.55343 3.50439
# Velocity P-wave (km/s) = 6.41774 6.78675 6.60482
#
# Compressibility (1/GPa) = 0.01779790
#
# Stress axis : x y z
#
# Youngs Moduli (GPa) = 55.41378 88.02976 58.46436
#
# Poissons Ratio (x) = 0.61654 0.23978
# Poissons Ratio (y) = 0.38810 0.19008
# Poissons Ratio (z) = 0.22727 0.28620
#
# Static dielectric constant tensor:
#      x y z
#    x 3.898810 0.000000 -0.224400 
#    y 0.000000 4.391540 0.000000 
#    z -0.224400 0.000000 4.068550 
# 
# 
# High freq. dielectric constant tensor:
#      x y z
#    x 1.852690 0.000000 -0.015090 
#    y 0.000000 1.888480 0.000000 
#    z -0.015090 0.000000 1.859720 
# 
# From -- ./inp_files/62026.got.cif
#   From: 2010.06.25/outbox.cif.g09.slc.cpg/sg15_32_cif.got.tgz:62026.got - 2010.06.28 07:06:18.
