data_PCOD8135068
_publ_section_title
;
Structure prediction by ZEFSAII (Michael W. Deem and Ramdas Pophale) SiO2 
 PCOD8135068
Probable space group: C 2/C
;
_chemical_formula_sum "Si O2"
_cell_formula_units_Z 56
_cell_length_a 32.769393
_cell_length_b 9.210630
_cell_length_c 20.442459
_cell_angle_alpha 90.000000
_cell_angle_beta 29.565119
_cell_angle_gamma 90.000000
_cell_volume 3044.394725
_symmetry_space_group_name_H-M "C 2/C"
_symmetry_group_IT_number 15
_symmetry_cell_setting 'monoclinic'
loop_
_space_group_symop_operation_xyz
x,y,z
-x,y,1/2-z
-x,-y,-z
x,-y,1/2+z
1/2+x,1/2+y,z
1/2-x,1/2+y,1/2-z
1/2-x,1/2-y,-z
1/2+x,1/2-y,1/2+z
loop_
_atom_site_type_symbol
_atom_site_label
_atom_site_fract_x
_atom_site_fract_y
_atom_site_fract_z
Si Si1 0.337536 0.037247 0.750865
Si Si2 0.729173 0.413834 0.012996
Si Si3 0.942009 0.799912 0.645425
Si Si4 0.875785 0.245759 0.628736
Si Si5 0.307735 0.260860 0.082569
Si Si6 0.918161 0.090865 0.324251
Si Si7 0.702648 0.492518 0.690179
O O1 0.411877 0.136716 0.672942
O O2 0.268574 0.127957 0.808356
O O3 0.300999 0.966921 0.866476
O O4 0.370225 0.913449 0.656670
O O5 0.750000 0.250000 0.000000
O O6 0.637781 0.445301 0.109331
O O7 0.734726 0.504544 0.071586
O O8 0.942208 0.832638 0.722700
O O9 0.032326 0.814085 0.487775
O O10 0.885174 0.911345 0.684805
O O11 0.860450 0.223295 0.573874
O O12 0.809279 0.152207 0.762748
O O13 0.272599 0.097054 0.130801
O O14 0.365466 0.292808 0.939547
O O15 0.000000 0.043113 0.250000
#
# Coordination Sequence:
#
# PCOD8135068 Si02
#       7
#     8   8   8   8   8   8   8
#     4  10  21  36  56  81 108 147 182 224 271 327
#     4  10  19  37  61  79 106 143 188 231 266 324
#     4  10  21  36  56  81 109 142 186 224 269 326
#     4  12  20  34  56  80 116 142 172 228 276 326
#     4  10  21  36  56  81 109 142 186 224 269 325
#     4  10  19  37  61  82 106 143 189 233 270 322
#     4  10  21  36  56  81 106 145 186 221 268 329
#
# _framework density 18.394461
#
# number of rings (size 3 to 8) (size 9 to 14) (size 15 to 20)
#    0.000    1.714    2.857    2.571    0.000    3.429 
#    0.000    0.000    3.143    0.000    0.000    0.000 
#    0.000    0.000    0.000    0.000    0.000    0.000 
#
# Total GULP energy -347160.349018 kJ/mol
# GULP energy per Si atom -12398.583893 kJ/mol
# Density = 1.835259 g / cm^3
# Si number density = 18.394461 Si / 1000 Ang^3
#
#
#
# Elastic Constant Matrix: (Units=GPa)
#
#
# Indices 1 2 3 4 5 6 
#
# 1 63.0093 24.9040 15.3973 0.0039 -7.7112 -0.0022
# 2 24.9040 97.6901 21.5698 0.0036 -7.7662 -0.0042
# 3 15.3973 21.5698 73.5125 0.0073 -4.3474 -0.0038
# 4 0.0039 0.0036 0.0073 24.5993 -0.0045 4.0416
# 5 -7.7112 -7.7662 -4.3474 -0.0045 29.8373 0.0011
# 6 -0.0022 -0.0042 -0.0038 4.0416 0.0011 26.1874
#
#
#
# Elastic Compliance Matrix: (Units=1/GPa)
#
#
# Indices 1 2 3 4 5 6 
#
# 1 0.018433 -0.003872 -0.002524 -0.000001 0.003388 0.000001
# 2 -0.003872 0.011932 -0.002588 0.000000 0.001728 0.000001
# 3 -0.002524 -0.002588 0.014942 -0.000004 0.000851 0.000002
# 4 -0.000001 0.000000 -0.000004 0.041709 0.000006 -0.006437
# 5 0.003388 0.001728 0.000851 0.000006 0.034965 -0.000002
# 6 0.000001 0.000001 0.000002 -0.006437 -0.000002 0.039180
#
#
# Mechanical properties :
#
#
# Convention : Reuss Voigt Hill
#
# Bulk Modulus (GPa) = 36.57951 39.77269 38.17610
# Shear Modulus (GPa) = 26.56163 27.61417 27.08790
#
# Velocity S-wave (km/s) = 3.80412 3.87876 3.84163
# Velocity P-wave (km/s) = 6.26294 6.45978 6.36212
#
# Compressibility (1/GPa) = 0.02733771
#
# Stress axis : x y z
#
# Youngs Moduli (GPa) = 54.25161 83.80546 66.92768
#
# Poissons Ratio (x) = 0.32452 0.16894
# Poissons Ratio (y) = 0.21008 0.17320
# Poissons Ratio (z) = 0.13694 0.21688
#
# Static dielectric constant tensor:
#      x y z
#    x 3.358130 0.000000 -0.020070 
#    y 0.000000 3.529040 0.000020 
#    z -0.020070 0.000020 3.456500 
# 
# 
# High freq. dielectric constant tensor:
#      x y z
#    x 1.714710 0.000000 0.003500 
#    y 0.000000 1.708430 0.000000 
#    z 0.003500 0.000000 1.717130 
# 
# From -- ./inp_files/209541.got.cif
#   From: 2010.06.25/outbox.cif.g09.slc.cpg/sg15_105_cif.got.tgz:209541.got - 2010.06.28 07:06:18.
