data_PCOD8135760
_publ_section_title
;
Structure prediction by ZEFSAII (Michael W. Deem and Ramdas Pophale) SiO2 
 PCOD8135760
Probable space group: C 2/C
;
_chemical_formula_sum "Si O2"
_cell_formula_units_Z 64
_cell_length_a 9.158674
_cell_length_b 22.855034
_cell_length_c 13.649809
_cell_angle_alpha 90.000000
_cell_angle_beta 67.554631
_cell_angle_gamma 90.000000
_cell_volume 2640.752415
_symmetry_space_group_name_H-M "C 2/C"
_symmetry_group_IT_number 15
_symmetry_cell_setting 'monoclinic'
loop_
_space_group_symop_operation_xyz
x,y,z
-x,y,1/2-z
-x,-y,-z
x,-y,1/2+z
1/2+x,1/2+y,z
1/2-x,1/2+y,1/2-z
1/2-x,1/2-y,-z
1/2+x,1/2-y,1/2+z
loop_
_atom_site_type_symbol
_atom_site_label
_atom_site_fract_x
_atom_site_fract_y
_atom_site_fract_z
Si Si1 0.657153 0.501816 0.143692
Si Si2 0.608781 0.926346 0.311270
Si Si3 0.037759 0.883039 0.628088
Si Si4 0.962718 0.763311 0.652708
Si Si5 0.390237 0.657976 0.685142
Si Si6 0.542469 0.155877 0.990972
Si Si7 0.351559 0.397082 0.499585
Si Si8 0.865286 0.707398 0.206151
O O1 0.500000 0.494921 0.250000
O O2 0.805546 0.485581 0.174762
O O3 0.673052 0.566217 0.089519
O O4 0.660510 0.458300 0.051416
O O5 0.500000 0.946136 0.250000
O O6 0.728113 0.875896 0.245610
O O7 0.507115 0.898268 0.427087
O O8 0.000000 0.879311 0.750000
O O9 0.088006 0.814944 0.588486
O O10 0.881357 0.905956 0.607837
O O11 0.938405 0.714991 0.576955
O O12 0.804030 0.803954 0.701525
O O13 0.000000 0.734750 0.750000
O O14 0.500000 0.646927 0.750000
O O15 0.480964 0.633533 0.568478
O O16 0.357171 0.725471 0.673199
O O17 0.705277 0.144924 0.008929
O O18 0.399437 0.165129 0.104243
O O19 0.000000 0.696020 0.250000
#
# Coordination Sequence:
#
# PCOD8135760 Si02
#       8
#     8   8   8   8   8   8   8   8
#     4  10  19  39  67  94 120 164 229 281 337 389
#     4  11  21  39  64  99 134 164 219 290 344 390
#     4  10  23  38  59  91 124 167 219 281 325 387
#     4  11  23  42  58  92 141 180 225 267 327 415
#     4  11  18  36  61  95 127 170 224 275 319 402
#     4  11  22  39  65  96 140 181 217 271 344 406
#     4  11  19  37  67  98 125 167 228 282 328 396
#     4  11  23  36  60  92 135 184 226 265 333 409
#
# _framework density 24.235517999999999
#
# number of rings (size 3 to 8) (size 9 to 14) (size 15 to 20)
#    0.000    1.250    5.000    3.000    0.000    2.000 
#    4.500    0.000    0.000   16.500    0.000    0.000 
#    0.000    0.000    0.000    0.000    0.000    0.000 
#
# Total GULP energy -396462.035376 kJ/mol
# GULP energy per Si atom -12389.438605 kJ/mol
# Density = 2.418036 g / cm^3
# Si number density = 24.235518 Si / 1000 Ang^3
#
#
#
# Elastic Constant Matrix: (Units=GPa)
#
#
# Indices 1 2 3 4 5 6 
#
# 1 101.9048 40.2168 23.7481 0.0000 39.5209 0.0000
# 2 40.2168 133.5319 19.5553 0.0000 18.2359 0.0000
# 3 23.7481 19.5553 56.5850 0.0000 13.9115 0.0000
# 4 0.0000 0.0000 0.0000 -494.2597 0.0000 636.9058
# 5 39.5209 18.2359 13.9115 0.0000 47.2663 0.0000
# 6 0.0000 0.0000 0.0000 636.9058 0.0000 -500.7947
#
#
#
# Elastic Compliance Matrix: (Units=1/GPa)
#
#
# Indices 1 2 3 4 5 6 
#
# 1 0.016070 -0.002842 -0.002941 0.000000 -0.011475 0.000000
# 2 -0.002842 0.008655 -0.001683 0.000000 -0.000467 0.000000
# 3 -0.002941 -0.001683 0.020185 0.000000 -0.002832 0.000000
# 4 0.000000 0.000000 0.000000 0.003167 0.000000 0.004028
# 5 -0.011475 -0.000467 -0.002832 0.000000 0.031765 0.000000
# 6 0.000000 0.000000 0.000000 0.004028 0.000000 0.003126
#
#
# Mechanical properties :
#
#
# Convention : Reuss Voigt Hill
#
# Bulk Modulus (GPa) = 33.35913 51.00689 42.18301
# Shear Modulus (GPa) = 46.34163 -175.65751 -64.65794
#
# Velocity S-wave (km/s) = 4.37754 -8.52272 -5.17078
# Velocity P-wave (km/s) = 6.27256 8.70385 4.26685
#
# Compressibility (1/GPa) = 0.02997680
#
# Stress axis : x y z
#
# Youngs Moduli (GPa) = 62.22642 115.53722 49.54172
#
# Poissons Ratio (x) = 0.32838 0.14571
# Poissons Ratio (y) = 0.17686 0.08340
# Poissons Ratio (z) = 0.18302 0.19450
#
# Static dielectric constant tensor:
#      x y z
#    x 4.818530 0.000000 0.206990 
#    y 0.000000 5.365030 0.000000 
#    z 0.206990 0.000000 4.507400 
# 
# 
# High freq. dielectric constant tensor:
#      x y z
#    x 1.956500 0.000000 0.026030 
#    y 0.000000 1.962600 0.000000 
#    z 0.026030 0.000000 1.955710 
# 
# From -- ./inp_files/138576.got.cif
#   From: 2010.06.25/outbox.cif.g09.slc.cpg/sg15_70_cif.got.tgz:138576.got - 2010.06.28 07:06:18.
