data_PCOD8135382
_publ_section_title
;
Structure prediction by ZEFSAII (Michael W. Deem and Ramdas Pophale) SiO2 
 PCOD8135382
Probable space group: C 2/C
;
_chemical_formula_sum "Si O2"
_cell_formula_units_Z 56
_cell_length_a 14.221157
_cell_length_b 13.138035
_cell_length_c 25.780730
_cell_angle_alpha 90.000000
_cell_angle_beta 143.857081
_cell_angle_gamma 90.000000
_cell_volume 2840.968276
_symmetry_space_group_name_H-M "C 2/C"
_symmetry_group_IT_number 15
_symmetry_cell_setting 'monoclinic'
loop_
_space_group_symop_operation_xyz
x,y,z
-x,y,1/2-z
-x,-y,-z
x,-y,1/2+z
1/2+x,1/2+y,z
1/2-x,1/2+y,1/2-z
1/2-x,1/2-y,-z
1/2+x,1/2-y,1/2+z
loop_
_atom_site_type_symbol
_atom_site_label
_atom_site_fract_x
_atom_site_fract_y
_atom_site_fract_z
Si Si1 0.824885 0.905814 0.472121
Si Si2 0.037487 0.391949 0.173737
Si Si3 0.239444 0.309084 0.876306
Si Si4 0.000000 0.519468 0.250000
Si Si5 0.000000 0.141504 0.750000
Si Si6 0.420721 0.679661 0.351291
Si Si7 0.022877 0.110527 0.562784
Si Si8 0.844635 0.960407 0.275667
O O1 0.648055 0.921352 0.415416
O O2 0.905214 0.820973 0.544424
O O3 0.832184 0.876820 0.414227
O O4 0.943912 0.000246 0.529255
O O5 0.091886 0.444588 0.251558
O O6 0.071279 0.271205 0.186754
O O7 0.153267 0.445062 0.182907
O O8 0.292095 0.303144 0.839624
O O9 0.135777 0.412118 0.838117
O O10 0.130496 0.210860 0.837757
O O11 0.383480 0.310134 0.982578
O O12 0.925844 0.066338 0.758383
O O13 0.380240 0.577793 0.302263
O O14 0.095699 0.121027 0.653069
#
# Coordination Sequence:
#
# PCOD8135382 Si02
#       8
#     8   8   8   4   4   8   8   8
#     4   9  18  33  58  91 121 145 189 247 296 337
#     4  12  20  34  58  93 115 155 191 242 292 349
#     4  10  19  38  61  86 111 153 199 242 286 341
#     4  11  20  31  62  94 112 139 204 251 278 336
#     4  11  24  39  58  82 118 163 194 231 294 358
#     4  10  21  37  58  87 121 154 191 238 296 347
#     4   9  18  36  59  89 118 146 189 252 290 334
#     4  11  23  38  58  85 123 154 192 241 295 345
#
# _framework density 19.711589
#
# number of rings (size 3 to 8) (size 9 to 14) (size 15 to 20)
#    0.000    1.714    4.286    2.143    0.000    1.143 
#    0.000    0.000    0.000    3.429    0.000    0.000 
#    0.000    0.000    0.000    0.000    0.000    0.000 
#
# Total GULP energy -346871.723779 kJ/mol
# GULP energy per Si atom -12388.275849 kJ/mol
# Density = 1.966672 g / cm^3
# Si number density = 19.711589 Si / 1000 Ang^3
#
#
#
# Elastic Constant Matrix: (Units=GPa)
#
#
# Indices 1 2 3 4 5 6 
#
# 1 140.0691 47.5561 38.5774 0.0000 15.9624 0.0000
# 2 47.5561 90.5616 14.4741 0.0000 2.4001 0.0000
# 3 38.5774 14.4741 61.9002 0.0000 18.4115 0.0000
# 4 0.0000 0.0000 0.0000 13.7326 0.0000 -1.5880
# 5 15.9624 2.4001 18.4115 0.0000 25.0799 0.0000
# 6 0.0000 0.0000 0.0000 -1.5880 0.0000 33.0409
#
#
#
# Elastic Compliance Matrix: (Units=1/GPa)
#
#
# Indices 1 2 3 4 5 6 
#
# 1 0.010252 -0.004593 -0.004485 0.000000 -0.002793 0.000000
# 2 -0.004593 0.013553 -0.001011 0.000000 0.002369 0.000000
# 3 -0.004485 -0.001011 0.023423 0.000000 -0.014244 0.000000
# 4 0.000000 0.000000 0.000000 0.073226 0.000000 0.003519
# 5 -0.002793 0.002369 -0.014244 0.000000 0.051881 0.000000
# 6 0.000000 0.000000 0.000000 0.003519 0.000000 0.030435
#
#
# Mechanical properties :
#
#
# Convention : Reuss Voigt Hill
#
# Bulk Modulus (GPa) = 36.96721 54.86067 45.91394
# Shear Modulus (GPa) = 21.55505 27.16556 24.36030
#
# Velocity S-wave (km/s) = 3.31043 3.71637 3.51926
# Velocity P-wave (km/s) = 5.77985 6.80495 6.31324
#
# Compressibility (1/GPa) = 0.02705100
#
# Stress axis : x y z
#
# Youngs Moduli (GPa) = 97.54045 73.78498 42.69286
#
# Poissons Ratio (x) = 0.33889 0.19146
# Poissons Ratio (y) = 0.44799 0.04317
# Poissons Ratio (z) = 0.43742 0.07461
#
# Static dielectric constant tensor:
#      x y z
#    x 3.615330 0.000000 0.157950 
#    y 0.000000 3.364770 0.000000 
#    z 0.157950 0.000000 3.783670 
# 
# 
# High freq. dielectric constant tensor:
#      x y z
#    x 1.768500 0.000000 0.025870 
#    y 0.000000 1.745680 0.000000 
#    z 0.025870 0.000000 1.763080 
# 
# From -- ./inp_files/205045.got.cif
#   From: 2010.06.25/outbox.cif.g09.slc.cpg/sg15_103_cif.got.tgz:205045.got - 2010.06.28 07:06:18.
