data_PCOD8135593
_publ_section_title
;
Structure prediction by ZEFSAII (Michael W. Deem and Ramdas Pophale) SiO2 
 PCOD8135593
Probable space group: C 2/C
;
_chemical_formula_sum "Si O2"
_cell_formula_units_Z 56
_cell_length_a 25.288744
_cell_length_b 18.052310
_cell_length_c 9.352660
_cell_angle_alpha 90.000000
_cell_angle_beta 132.553638
_cell_angle_gamma 90.000000
_cell_volume 3145.235520
_symmetry_space_group_name_H-M "C 2/C"
_symmetry_group_IT_number 15
_symmetry_cell_setting 'monoclinic'
loop_
_space_group_symop_operation_xyz
x,y,z
-x,y,1/2-z
-x,-y,-z
x,-y,1/2+z
1/2+x,1/2+y,z
1/2-x,1/2+y,1/2-z
1/2-x,1/2-y,-z
1/2+x,1/2-y,1/2+z
loop_
_atom_site_type_symbol
_atom_site_label
_atom_site_fract_x
_atom_site_fract_y
_atom_site_fract_z
Si Si1 0.683440 0.557330 0.103028
Si Si2 0.216694 0.081028 0.471723
Si Si3 0.928216 0.818214 0.440316
Si Si4 0.590513 0.698689 0.274391
Si Si5 0.690824 0.208797 0.796738
Si Si6 0.949042 0.975402 0.532249
Si Si7 0.312896 0.718760 0.516211
O O1 0.731176 0.560054 0.333504
O O2 0.709468 0.492353 0.049580
O O3 0.600824 0.542126 0.001383
O O4 0.694852 0.632989 0.038561
O O5 0.143864 0.129594 0.346483
O O6 0.287448 0.122726 0.660505
O O7 0.911181 0.780400 0.561391
O O8 0.901559 0.904622 0.394814
O O9 0.887026 0.773504 0.241112
O O10 0.013206 0.819955 0.566419
O O11 0.615719 0.772301 0.235468
O O12 0.686405 0.233026 0.624796
O O13 0.750000 0.250000 0.000000
O O14 0.000000 0.944036 0.750000
O O15 0.000000 0.000000 0.500000
O O16 0.250000 0.750000 0.500000
#
# Coordination Sequence:
#
# PCOD8135593 Si02
#       7
#     8   8   8   8   8   8   8
#     4  12  23  36  55  84 112 158 199 234 285 346
#     4  11  22  38  57  82 116 156 193 240 286 342
#     4  11  21  35  57  84 115 153 195 232 281 353
#     4  10  19  39  57  81 118 158 188 227 290 342
#     4  10  21  40  56  75 115 156 192 240 293 332
#     4  12  22  35  52  82 124 160 189 229 276 345
#     4  12  25  37  56  84 118 155 200 251 283 347
#
# _framework density 17.804708999999999
#
# number of rings (size 3 to 8) (size 9 to 14) (size 15 to 20)
#    0.000    0.857    5.714    5.143    2.000    0.571 
#    0.000    0.000    0.000    0.000    0.000    1.000 
#    0.000    0.000    0.000    0.000    0.000    0.000 
#
# Total GULP energy -347088.202248 kJ/mol
# GULP energy per Si atom -12396.007223 kJ/mol
# Density = 1.776418 g / cm^3
# Si number density = 17.804709 Si / 1000 Ang^3
#
#
#
# Elastic Constant Matrix: (Units=GPa)
#
#
# Indices 1 2 3 4 5 6 
#
# 1 111.3833 61.8859 43.7049 0.0000 -14.6441 0.0000
# 2 61.8859 97.2229 49.2177 0.0000 -1.4351 0.0000
# 3 43.7049 49.2177 130.2976 0.0000 -19.3098 0.0000
# 4 0.0000 0.0000 0.0000 32.7800 0.0000 -2.5962
# 5 -14.6441 -1.4351 -19.3098 0.0000 26.3232 0.0000
# 6 0.0000 0.0000 0.0000 -2.5962 0.0000 27.9899
#
#
#
# Elastic Compliance Matrix: (Units=1/GPa)
#
#
# Indices 1 2 3 4 5 6 
#
# 1 0.015445 -0.009490 -0.000448 0.000000 0.007746 0.000000
# 2 -0.009490 0.018790 -0.005099 0.000000 -0.007996 0.000000
# 3 -0.000448 -0.005099 0.010853 0.000000 0.007434 0.000000
# 4 0.000000 0.000000 0.000000 0.030732 0.000000 0.002851
# 5 0.007746 -0.007996 0.007434 0.000000 0.047316 0.000000
# 6 0.000000 0.000000 0.000000 0.002851 0.000000 0.035992
#
#
# Mechanical properties :
#
#
# Convention : Reuss Voigt Hill
#
# Bulk Modulus (GPa) = 66.60875 72.05787 69.33331
# Shear Modulus (GPa) = 25.74570 29.69166 27.71868
#
# Velocity S-wave (km/s) = 3.80676 4.08809 3.94993
# Velocity P-wave (km/s) = 7.53750 7.92732 7.73487
#
# Compressibility (1/GPa) = 0.01501304
#
# Stress axis : x y z
#
# Youngs Moduli (GPa) = 64.74519 53.21979 92.14184
#
# Poissons Ratio (x) = 0.50507 0.04127
# Poissons Ratio (y) = 0.61445 0.46986
# Poissons Ratio (z) = 0.02900 0.27138
#
# Static dielectric constant tensor:
#      x y z
#    x 3.561560 0.000000 -0.099830 
#    y 0.000000 3.509210 0.000000 
#    z -0.099830 0.000000 3.562360 
# 
# 
# High freq. dielectric constant tensor:
#      x y z
#    x 1.687160 0.000000 -0.028610 
#    y 0.000000 1.665330 0.000000 
#    z -0.028610 0.000000 1.691030 
# 
# From -- ./inp_files/62773.got.cif
#   From: 2010.06.25/outbox.cif.g09.slc.cpg/sg15_32_cif.got.tgz:62773.got - 2010.06.28 07:06:18.
