data_PCOD8135104
_publ_section_title
;
Structure prediction by ZEFSAII (Michael W. Deem and Ramdas Pophale) SiO2 
 PCOD8135104
Probable space group: C 2/C
;
_chemical_formula_sum "Si O2"
_cell_formula_units_Z 56
_cell_length_a 8.809212
_cell_length_b 18.709653
_cell_length_c 29.504662
_cell_angle_alpha 90.000000
_cell_angle_beta 145.806652
_cell_angle_gamma 90.000000
_cell_volume 2732.876328
_symmetry_space_group_name_H-M "C 2/C"
_symmetry_group_IT_number 15
_symmetry_cell_setting 'monoclinic'
loop_
_space_group_symop_operation_xyz
x,y,z
-x,y,1/2-z
-x,-y,-z
x,-y,1/2+z
1/2+x,1/2+y,z
1/2-x,1/2+y,1/2-z
1/2-x,1/2-y,-z
1/2+x,1/2-y,1/2+z
loop_
_atom_site_type_symbol
_atom_site_label
_atom_site_fract_x
_atom_site_fract_y
_atom_site_fract_z
Si Si1 0.334921 0.388527 0.754928
Si Si2 0.945926 0.812125 0.032868
Si Si3 0.443909 0.316767 0.184865
Si Si4 0.986611 0.740068 0.798345
Si Si5 0.759638 0.159035 0.387603
Si Si6 0.883856 0.068489 0.094456
Si Si7 0.286600 0.091541 0.951026
O O1 0.500000 0.404765 0.750000
O O2 0.419092 0.316497 0.803961
O O3 0.426598 0.446269 0.814825
O O4 0.013296 0.385450 0.668490
O O5 0.891608 0.875784 0.053337
O O6 0.256209 0.791906 0.114318
O O7 0.750000 0.750000 0.000000
O O8 0.910503 0.832315 0.972220
O O9 0.500000 0.341629 0.250000
O O10 0.299217 0.238338 0.147439
O O11 0.285393 0.376420 0.116670
O O12 0.743033 0.315457 0.238424
O O13 0.000000 0.764351 0.750000
O O14 0.949577 0.110759 0.402945
O O15 0.783051 0.990329 0.056194
O O16 0.603658 0.110133 0.036427
#
# Coordination Sequence:
#
# PCOD8135104 Si02
#       7
#     8   8   8   8   8   8   8
#     4  10  20  40  66  93 128 176 216 264 332 402
#     4  12  21  40  67  97 128 171 218 269 346 393
#     4  11  23  40  64  97 131 163 221 282 330 383
#     4  10  19  37  61  96 128 159 213 277 320 384
#     4  11  23  40  69 101 128 171 230 278 320 403
#     4  11  25  43  62  93 138 173 223 273 330 400
#     4  11  25  44  62  94 134 177 215 275 337 402
#
# _framework density 20.491230000000002
#
# number of rings (size 3 to 8) (size 9 to 14) (size 15 to 20)
#    0.000    1.143    2.857    5.571    2.000    1.714 
#    5.143    0.000    0.000    0.000    0.000    0.000 
#    0.000    0.000    0.000    0.000    0.000    0.000 
#
# Total GULP energy -346922.485084 kJ/mol
# GULP energy per Si atom -12390.088753 kJ/mol
# Density = 2.044459 g / cm^3
# Si number density = 20.491230 Si / 1000 Ang^3
#
#
#
# Elastic Constant Matrix: (Units=GPa)
#
#
# Indices 1 2 3 4 5 6 
#
# 1 99.7982 28.7280 37.8621 0.0011 -4.6895 0.0002
# 2 28.7280 52.6432 26.6429 0.0013 4.3878 0.0017
# 3 37.8621 26.6429 133.0093 0.0134 -0.0593 0.0082
# 4 0.0011 0.0013 0.0134 27.6516 0.0072 2.0476
# 5 -4.6895 4.3878 -0.0593 0.0072 51.1772 0.0031
# 6 0.0002 0.0017 0.0082 2.0476 0.0031 28.0497
#
#
#
# Elastic Compliance Matrix: (Units=1/GPa)
#
#
# Indices 1 2 3 4 5 6 
#
# 1 0.012706 -0.005834 -0.002448 0.000000 0.001662 0.000001
# 2 -0.005834 0.023988 -0.003145 0.000001 -0.002595 0.000000
# 3 -0.002448 -0.003145 0.008845 -0.000004 0.000056 -0.000002
# 4 0.000000 0.000001 -0.000004 0.036361 -0.000005 -0.002654
# 5 0.001662 -0.002595 0.000056 -0.000005 0.019915 -0.000002
# 6 0.000001 0.000000 -0.000002 -0.002654 -0.000002 0.035845
#
#
# Mechanical properties :
#
#
# Convention : Reuss Voigt Hill
#
# Bulk Modulus (GPa) = 44.08148 52.43519 48.25834
# Shear Modulus (GPa) = 29.74874 34.19022 31.96948
#
# Velocity S-wave (km/s) = 3.81436 4.08920 3.95416
# Velocity P-wave (km/s) = 6.39986 6.92387 6.66701
#
# Compressibility (1/GPa) = 0.02268526
#
# Stress axis : x y z
#
# Youngs Moduli (GPa) = 78.70185 41.68838 113.05692
#
# Poissons Ratio (x) = 0.24320 0.27672
# Poissons Ratio (y) = 0.45912 0.35562
# Poissons Ratio (z) = 0.19263 0.13113
#
# Static dielectric constant tensor:
#      x y z
#    x 3.782130 0.000000 0.181880 
#    y 0.000000 3.645870 -0.000010 
#    z 0.181880 -0.000010 3.913480 
# 
# 
# High freq. dielectric constant tensor:
#      x y z
#    x 1.806870 0.000000 0.000310 
#    y 0.000000 1.780740 0.000000 
#    z 0.000310 0.000000 1.821140 
# 
# From -- ./inp_files/309007.got.cif
#   From: 2010.06.25/outbox.cif.g09.slc.cpg/sg15_155_cif.got.tgz:309007.got - 2010.06.28 07:06:18.
