data_PCOD8135512
_publ_section_title
;
Structure prediction by ZEFSAII (Michael W. Deem and Ramdas Pophale) SiO2 
 PCOD8135512
Probable space group: C 2/C
;
_chemical_formula_sum "Si O2"
_cell_formula_units_Z 64
_cell_length_a 14.252246
_cell_length_b 13.731536
_cell_length_c 18.251205
_cell_angle_alpha 90.000000
_cell_angle_beta 58.659772
_cell_angle_gamma 90.000000
_cell_volume 3050.700494
_symmetry_space_group_name_H-M "C 2/C"
_symmetry_group_IT_number 15
_symmetry_cell_setting 'monoclinic'
loop_
_space_group_symop_operation_xyz
x,y,z
-x,y,1/2-z
-x,-y,-z
x,-y,1/2+z
1/2+x,1/2+y,z
1/2-x,1/2+y,1/2-z
1/2-x,1/2-y,-z
1/2+x,1/2-y,1/2+z
loop_
_atom_site_type_symbol
_atom_site_label
_atom_site_fract_x
_atom_site_fract_y
_atom_site_fract_z
Si Si1 0.988576 0.294516 0.839370
Si Si2 0.810254 0.431276 0.700913
Si Si3 0.968163 0.589406 0.677742
Si Si4 0.495144 0.355773 0.043773
Si Si5 0.258508 0.397005 0.936443
Si Si6 0.663933 0.036853 0.073183
Si Si7 0.164461 0.033170 0.383906
Si Si8 0.912580 0.752602 0.937638
O O1 0.874339 0.350986 0.904420
O O2 0.000000 0.265251 0.750000
O O3 0.095790 0.357103 0.813812
O O4 0.982101 0.197377 0.889425
O O5 0.850809 0.543305 0.700639
O O6 0.775609 0.405621 0.633176
O O7 0.698161 0.417248 0.793277
O O8 0.000000 0.581711 0.750000
O O9 0.054028 0.522132 0.599772
O O10 0.981377 0.700886 0.643827
O O11 0.416587 0.444408 0.096662
O O12 0.609026 0.389404 0.961182
O O13 0.436827 0.284790 0.010213
O O14 0.377954 0.346377 0.901210
O O15 0.250280 0.507363 0.973116
O O16 0.181679 0.328467 0.018051
O O17 0.720473 0.001335 0.125730
#
# Coordination Sequence:
#
# PCOD8135512 Si02
#       8
#     8   8   8   8   8   8   8   8
#     4  11  22  41  66  94 127 158 211 272 307 371
#     4  11  21  40  64  94 122 164 212 260 313 374
#     4  10  20  34  61  94 125 157 203 264 312 368
#     4  11  25  43  62  86 128 167 208 254 317 381
#     4  10  21  35  63  92 127 157 203 257 311 376
#     4  10  19  38  65  87 124 169 201 247 324 374
#     4  11  23  45  64  83 124 177 203 247 328 380
#     4  10  21  37  59  92 123 164 200 253 319 366
#
# _framework density 20.978788000000002
#
# number of rings (size 3 to 8) (size 9 to 14) (size 15 to 20)
#    0.000    1.500    5.000    0.750    1.750    3.000 
#    4.500    0.000    0.000    0.000    0.000    0.000 
#    0.000    0.000    0.000    0.000    0.000    0.000 
#
# Total GULP energy -396496.837084 kJ/mol
# GULP energy per Si atom -12390.526159 kJ/mol
# Density = 2.093104 g / cm^3
# Si number density = 20.978788 Si / 1000 Ang^3
#
#
#
# Elastic Constant Matrix: (Units=GPa)
#
#
# Indices 1 2 3 4 5 6 
#
# 1 73.1279 39.4974 51.5097 0.0000 19.8482 0.0000
# 2 39.4974 100.2953 71.1576 0.0000 3.1254 0.0000
# 3 51.5097 71.1576 117.1954 0.0000 16.6299 0.0000
# 4 0.0000 0.0000 0.0000 27.7535 0.0000 5.6888
# 5 19.8482 3.1254 16.6299 0.0000 39.9070 0.0000
# 6 0.0000 0.0000 0.0000 5.6888 0.0000 25.5118
#
#
#
# Elastic Compliance Matrix: (Units=1/GPa)
#
#
# Indices 1 2 3 4 5 6 
#
# 1 0.022570 -0.004268 -0.006147 0.000000 -0.008330 0.000000
# 2 -0.004268 0.018729 -0.010192 0.000000 0.004903 0.000000
# 3 -0.006147 -0.010192 0.017936 0.000000 -0.003619 0.000000
# 4 0.000000 0.000000 0.000000 0.037757 0.000000 -0.008419
# 5 -0.008330 0.004903 -0.003619 0.000000 0.030325 0.000000
# 6 0.000000 0.000000 0.000000 -0.008419 0.000000 0.041075
#
#
# Mechanical properties :
#
#
# Convention : Reuss Voigt Hill
#
# Bulk Modulus (GPa) = 55.48508 68.32756 61.90632
# Shear Modulus (GPa) = 23.18959 27.19807 25.19383
#
# Velocity S-wave (km/s) = 3.32834 3.60454 3.46919
# Velocity P-wave (km/s) = 6.42464 7.06853 6.75426
#
# Compressibility (1/GPa) = 0.01802286
#
# Stress axis : x y z
#
# Youngs Moduli (GPa) = 44.30593 53.39181 55.75337
#
# Poissons Ratio (x) = 0.22787 0.34270
# Poissons Ratio (y) = 0.18909 0.56823
# Poissons Ratio (z) = 0.27234 0.54416
#
# Static dielectric constant tensor:
#      x y z
#    x 3.759720 0.000000 -0.104660 
#    y 0.000000 3.887690 0.000000 
#    z -0.104660 0.000000 3.868680 
# 
# 
# High freq. dielectric constant tensor:
#      x y z
#    x 1.814260 0.000000 0.004410 
#    y 0.000000 1.807990 0.000000 
#    z 0.004410 0.000000 1.818860 
# 
# From -- ./inp_files/205391.got.cif
#   From: 2010.06.25/outbox.cif.g09.slc.cpg/sg15_103_cif.got.tgz:205391.got - 2010.06.28 07:06:18.
