data_PCOD8135430
_publ_section_title
;
Structure prediction by ZEFSAII (Michael W. Deem and Ramdas Pophale) SiO2 
 PCOD8135430
Probable space group: C 2/C
;
_chemical_formula_sum "Si O2"
_cell_formula_units_Z 40
_cell_length_a 9.208747
_cell_length_b 16.415020
_cell_length_c 27.479037
_cell_angle_alpha 90.000000
_cell_angle_beta 27.851104
_cell_angle_gamma 90.000000
_cell_volume 1940.543897
_symmetry_space_group_name_H-M "C 2/C"
_symmetry_group_IT_number 15
_symmetry_cell_setting 'monoclinic'
loop_
_space_group_symop_operation_xyz
x,y,z
-x,y,1/2-z
-x,-y,-z
x,-y,1/2+z
1/2+x,1/2+y,z
1/2-x,1/2+y,1/2-z
1/2-x,1/2-y,-z
1/2+x,1/2-y,1/2+z
loop_
_atom_site_type_symbol
_atom_site_label
_atom_site_fract_x
_atom_site_fract_y
_atom_site_fract_z
Si Si1 0.185347 0.549545 0.590700
Si Si2 0.253211 0.474460 0.962974
Si Si3 0.651864 0.802322 0.838936
Si Si4 0.673845 0.914463 0.748570
Si Si5 0.484853 0.637669 0.930104
O O1 0.500000 0.500000 0.500000
O O2 0.112245 0.564391 0.554828
O O3 0.274701 0.632116 0.594590
O O4 0.909142 0.495673 0.695572
O O5 0.461934 0.409624 0.872231
O O6 0.486227 0.550209 0.903985
O O7 0.000000 0.500000 0.000000
O O8 0.591744 0.831833 0.801816
O O9 0.622102 0.704993 0.852750
O O10 0.000000 0.832204 0.750000
O O11 0.378362 0.843953 0.951494
O O12 0.500000 0.913167 0.750000
#
# Coordination Sequence:
#
# PCOD8135430 Si02
#       5
#     8   8   8   8   8
#     4  10  19  38  62  91 119 161 215 249 308 386
#     4  11  22  37  65  97 125 156 220 272 312 362
#     4  11  23  37  61  89 129 164 210 257 322 381
#     4  12  21  37  67  91 123 171 213 258 320 384
#     4  10  21  41  59  89 125 171 202 260 319 382
#
# _framework density 20.612779
#
# number of rings (size 3 to 8) (size 9 to 14) (size 15 to 20)
#    0.000    1.200    8.000    1.200    2.800    0.000 
#    0.000    2.000    0.000    7.200    0.000    0.000 
#    0.000    0.000    0.000    0.000    0.000    0.000 
#
# Total GULP energy -247768.854188 kJ/mol
# GULP energy per Si atom -12388.442709 kJ/mol
# Density = 2.056586 g / cm^3
# Si number density = 20.612779 Si / 1000 Ang^3
#
#
#
# Elastic Constant Matrix: (Units=GPa)
#
#
# Indices 1 2 3 4 5 6 
#
# 1 111.0407 25.3404 66.2860 0.2562 4.2755 0.0135
# 2 25.3404 80.6607 30.6714 0.1787 15.3253 -0.0630
# 3 66.2860 30.6714 102.6151 0.1204 19.4988 -0.0860
# 4 0.2562 0.1787 0.1204 29.9657 0.0972 6.9248
# 5 4.2755 15.3253 19.4988 0.0972 29.1856 0.0423
# 6 0.0135 -0.0630 -0.0860 6.9248 0.0423 30.3483
#
#
#
# Elastic Compliance Matrix: (Units=1/GPa)
#
#
# Indices 1 2 3 4 5 6 
#
# 1 0.015526 -0.001971 -0.010543 -0.000091 0.005805 -0.000028
# 2 -0.001971 0.014966 -0.002018 -0.000055 -0.006222 0.000047
# 3 -0.010543 -0.002018 0.019087 0.000045 -0.010148 0.000058
# 4 -0.000091 -0.000055 0.000045 0.035230 -0.000093 -0.008039
# 5 0.005805 -0.006222 -0.010148 -0.000093 0.043461 -0.000084
# 6 -0.000028 0.000047 0.000058 -0.008039 -0.000084 0.034785
#
#
# Mechanical properties :
#
#
# Convention : Reuss Voigt Hill
#
# Bulk Modulus (GPa) = 48.74355 59.87912 54.31133
# Shear Modulus (GPa) = 25.13092 29.36783 27.24937
#
# Velocity S-wave (km/s) = 3.49548 3.77867 3.63983
# Velocity P-wave (km/s) = 6.32375 6.93904 6.63853
#
# Compressibility (1/GPa) = 0.02051554
#
# Stress axis : x y z
#
# Youngs Moduli (GPa) = 64.40844 66.81612 52.39181
#
# Poissons Ratio (x) = 0.13172 0.55236
# Poissons Ratio (y) = 0.12697 0.10571
# Poissons Ratio (z) = 0.67905 0.13481
#
# Static dielectric constant tensor:
#      x y z
#    x 4.305150 -0.001510 0.140420 
#    y -0.001510 3.804730 -0.002520 
#    z 0.140420 -0.002520 3.647280 
# 
# 
# High freq. dielectric constant tensor:
#      x y z
#    x 1.802450 0.000010 0.006770 
#    y 0.000010 1.770960 -0.000010 
#    z 0.006770 -0.000010 1.819920 
# 
# From -- ./inp_files/133961.got.cif
#   From: 2010.06.25/outbox.cif.g09.slc.cpg/sg15_67_cif.got.tgz:133961.got - 2010.06.28 07:06:18.
