data_PCOD8135995
_publ_section_title
;
Structure prediction by ZEFSAII (Michael W. Deem and Ramdas Pophale) SiO2 
 PCOD8135995
Probable space group: C 2/C
;
_chemical_formula_sum "Si O2"
_cell_formula_units_Z 60
_cell_length_a 14.368278
_cell_length_b 22.122352
_cell_length_c 9.253556
_cell_angle_alpha 90.000000
_cell_angle_beta 72.812814
_cell_angle_gamma 90.000000
_cell_volume 2809.989345
_symmetry_space_group_name_H-M "C 2/C"
_symmetry_group_IT_number 15
_symmetry_cell_setting 'monoclinic'
loop_
_space_group_symop_operation_xyz
x,y,z
-x,y,1/2-z
-x,-y,-z
x,-y,1/2+z
1/2+x,1/2+y,z
1/2-x,1/2+y,1/2-z
1/2-x,1/2-y,-z
1/2+x,1/2-y,1/2+z
loop_
_atom_site_type_symbol
_atom_site_label
_atom_site_fract_x
_atom_site_fract_y
_atom_site_fract_z
Si Si1 0.865186 0.016660 0.561853
Si Si2 0.104402 0.680597 0.253483
Si Si3 0.299087 0.379950 0.633294
Si Si4 0.725982 0.370336 0.338743
Si Si5 0.500000 0.506682 0.250000
Si Si6 0.648819 0.785804 0.057671
Si Si7 0.099225 0.836890 0.648612
Si Si8 0.891342 0.185127 0.846119
O O1 0.829770 0.947646 0.575139
O O2 0.914513 0.039588 0.385745
O O3 0.770002 0.056995 0.641874
O O4 0.943816 0.031274 0.652630
O O5 0.184626 0.632694 0.159415
O O6 0.105889 0.690833 0.425697
O O7 0.124596 0.743848 0.164966
O O8 0.000000 0.654917 0.250000
O O9 0.313039 0.363238 0.794773
O O10 0.373005 0.333644 0.519939
O O11 0.828536 0.342611 0.346541
O O12 0.628649 0.349463 0.470551
O O13 0.697810 0.350530 0.190823
O O14 0.580088 0.736182 0.165942
O O15 0.750000 0.750000 0.000000
O O16 0.000000 0.869394 0.750000
O O17 0.000000 0.165345 0.750000
#
# Coordination Sequence:
#
# PCOD8135995 Si02
#       8
#     8   8   8   8   4   8   8   8
#     4  11  25  37  58  89 126 166 204 240 300 373
#     4  11  23  43  64  88 119 162 210 264 309 350
#     4  12  24  38  60  91 128 163 209 245 305 369
#     4  11  21  39  61  81 128 166 197 246 299 364
#     4  10  24  38  54  86 132 160 204 238 292 374
#     4  10  19  42  61  86 118 155 207 251 307 355
#     4  11  22  35  64  93 120 162 203 247 301 380
#     4  11  23  36  59  93 130 160 191 255 312 367
#
# _framework density 21.352394
#
# number of rings (size 3 to 8) (size 9 to 14) (size 15 to 20)
#    0.000    1.067    5.333    2.800   13.067    0.000 
#    0.000    0.000    0.000    1.600    0.000    0.000 
#    0.000    0.000    0.000    0.000    0.000    0.000 
#
# Total GULP energy -371678.368462 kJ/mol
# GULP energy per Si atom -12389.278949 kJ/mol
# Density = 2.130379 g / cm^3
# Si number density = 21.352394 Si / 1000 Ang^3
#
#
#
# Elastic Constant Matrix: (Units=GPa)
#
#
# Indices 1 2 3 4 5 6 
#
# 1 97.9498 22.4985 22.0697 0.0000 6.8279 0.0000
# 2 22.4985 84.2000 11.0345 0.0000 1.0422 0.0000
# 3 22.0697 11.0345 61.7554 0.0000 8.8169 0.0000
# 4 0.0000 0.0000 0.0000 21.8306 0.0000 -6.1024
# 5 6.8279 1.0422 8.8169 0.0000 31.8273 0.0000
# 6 0.0000 0.0000 0.0000 -6.1024 0.0000 27.4172
#
#
#
# Elastic Compliance Matrix: (Units=1/GPa)
#
#
# Indices 1 2 3 4 5 6 
#
# 1 0.011709 -0.002652 -0.003503 0.000000 -0.001455 0.000000
# 2 -0.002652 0.012763 -0.001410 0.000000 0.000542 0.000000
# 3 -0.003503 -0.001410 0.018307 0.000000 -0.004274 0.000000
# 4 0.000000 0.000000 0.000000 0.048846 0.000000 0.010872
# 5 -0.001455 0.000542 -0.004274 0.000000 0.032898 0.000000
# 6 0.000000 0.000000 0.000000 0.010872 0.000000 0.038893
#
#
# Mechanical properties :
#
#
# Convention : Reuss Voigt Hill
#
# Bulk Modulus (GPa) = 36.16715 39.45672 37.81194
# Shear Modulus (GPa) = 26.62934 28.76852 27.69893
#
# Velocity S-wave (km/s) = 3.53531 3.67457 3.60561
# Velocity P-wave (km/s) = 5.79996 6.04336 5.92291
#
# Compressibility (1/GPa) = 0.02764940
#
# Stress axis : x y z
#
# Youngs Moduli (GPa) = 85.40391 78.35084 54.62407
#
# Poissons Ratio (x) = 0.20776 0.19135
# Poissons Ratio (y) = 0.22646 0.07703
# Poissons Ratio (z) = 0.29917 0.11049
#
# Static dielectric constant tensor:
#      x y z
#    x 3.893950 0.000000 0.107330 
#    y 0.000000 4.128800 0.000000 
#    z 0.107330 0.000000 3.868480 
# 
# 
# High freq. dielectric constant tensor:
#      x y z
#    x 1.809970 0.000000 0.019700 
#    y 0.000000 1.826220 0.000000 
#    z 0.019700 0.000000 1.843510 
# 
# From -- ./inp_files/42178.got.cif
#   From: 2010.06.25/outbox.cif.g09.slc.cpg/sg15_22_cif.got.tgz:42178.got - 2010.06.28 07:06:18.
