data_PCOD8135710
_publ_section_title
;
Structure prediction by ZEFSAII (Michael W. Deem and Ramdas Pophale) SiO2 
 PCOD8135710
Probable space group: C 2/C
;
_chemical_formula_sum "Si O2"
_cell_formula_units_Z 44
_cell_length_a 9.958044
_cell_length_b 16.076429
_cell_length_c 13.630516
_cell_angle_alpha 90.000000
_cell_angle_beta 57.165097
_cell_angle_gamma 90.000000
_cell_volume 1833.485350
_symmetry_space_group_name_H-M "C 2/C"
_symmetry_group_IT_number 15
_symmetry_cell_setting 'monoclinic'
loop_
_space_group_symop_operation_xyz
x,y,z
-x,y,1/2-z
-x,-y,-z
x,-y,1/2+z
1/2+x,1/2+y,z
1/2-x,1/2+y,1/2-z
1/2-x,1/2-y,-z
1/2+x,1/2-y,1/2+z
loop_
_atom_site_type_symbol
_atom_site_label
_atom_site_fract_x
_atom_site_fract_y
_atom_site_fract_z
Si Si1 0.987913 0.194405 0.888925
Si Si2 0.000000 0.774552 0.750000
Si Si3 0.688723 0.863436 0.289435
Si Si4 0.256997 0.990512 0.876069
Si Si5 0.865888 0.631807 0.473319
Si Si6 0.466917 0.611589 0.434757
O O1 0.823428 0.145663 0.948233
O O2 0.124142 0.159816 0.759439
O O3 0.963555 0.292764 0.886603
O O4 0.060098 0.176896 0.967281
O O5 0.875850 0.718173 0.739880
O O6 0.914777 0.837933 0.859025
O O7 0.590239 0.881871 0.428959
O O8 0.666565 0.943924 0.229609
O O9 0.149124 0.924198 0.857745
O O10 0.395557 0.944885 0.886258
O O11 0.150161 0.034196 0.002320
#
# Coordination Sequence:
#
# PCOD8135710 Si02
#       6
#     8   4   8   8   8   8
#     4   9  19  37  64  91 120 154 212 254 311 364
#     4  12  24  38  62  88 130 164 214 240 310 380
#     4  11  23  40  62  94 125 171 203 257 312 368
#     4   9  21  38  63  89 126 156 213 254 315 361
#     4  10  19  39  64  93 127 157 204 271 301 369
#     4   9  19  38  58  90 116 162 205 255 290 384
#
# _framework density 23.998011000000002
#
# number of rings (size 3 to 8) (size 9 to 14) (size 15 to 20)
#    0.000    2.182    1.818    1.636    2.545    2.909 
#    0.000    2.727    0.000    0.000    0.000    0.000 
#    0.000    0.000    0.000    0.000    0.000    0.000 
#
# Total GULP energy -272662.506373 kJ/mol
# GULP energy per Si atom -12393.750290 kJ/mol
# Density = 2.394339 g / cm^3
# Si number density = 23.998011 Si / 1000 Ang^3
#
#
#
# Elastic Constant Matrix: (Units=GPa)
#
#
# Indices 1 2 3 4 5 6 
#
# 1 36.3164 28.9368 -0.9015 0.0000 10.5733 0.0000
# 2 28.9368 145.6696 37.1937 0.0000 21.9545 0.0000
# 3 -0.9015 37.1937 71.2169 0.0000 23.9419 0.0000
# 4 0.0000 0.0000 0.0000 27.3178 0.0000 12.9743
# 5 10.5733 21.9545 23.9419 0.0000 26.9894 0.0000
# 6 0.0000 0.0000 0.0000 12.9743 0.0000 49.6629
#
#
#
# Elastic Compliance Matrix: (Units=1/GPa)
#
#
# Indices 1 2 3 4 5 6 
#
# 1 0.039483 -0.007791 0.010884 0.000000 -0.018785 0.000000
# 2 -0.007791 0.009766 -0.005065 0.000000 -0.000399 0.000000
# 3 0.010884 -0.005065 0.024043 0.000000 -0.021472 0.000000
# 4 0.000000 0.000000 0.000000 0.041791 0.000000 -0.010918
# 5 -0.018785 -0.000399 -0.021472 0.000000 0.063783 0.000000
# 6 0.000000 0.000000 0.000000 -0.010918 0.000000 0.022988
#
#
# Mechanical properties :
#
#
# Convention : Reuss Voigt Hill
#
# Bulk Modulus (GPa) = 14.41998 42.62899 28.52449
# Shear Modulus (GPa) = 21.84226 33.32560 27.58393
#
# Velocity S-wave (km/s) = 3.02017 3.73055 3.39400
# Velocity P-wave (km/s) = 4.26425 6.02977 5.22216
#
# Compressibility (1/GPa) = 0.06934822
#
# Stress axis : x y z
#
# Youngs Moduli (GPa) = 25.32734 102.39791 41.59202
#
# Poissons Ratio (x) = 0.79778 -0.45269
# Poissons Ratio (y) = 0.19732 0.21066
# Poissons Ratio (z) = -0.27566 0.51863
#
# Static dielectric constant tensor:
#      x y z
#    x 4.099870 0.000000 0.252540 
#    y 0.000000 4.387790 0.000000 
#    z 0.252540 0.000000 4.395350 
# 
# 
# High freq. dielectric constant tensor:
#      x y z
#    x 1.929260 0.000000 0.017680 
#    y 0.000000 1.956380 0.000000 
#    z 0.017680 0.000000 1.946760 
# 
# From -- ./inp_files/143369.got.cif
#   From: 2010.06.25/outbox.cif.g09.slc.cpg/sg15_72_cif.got.tgz:143369.got - 2010.06.28 07:06:18.
