data_PCOD8135007
_publ_section_title
;
Structure prediction by ZEFSAII (Michael W. Deem and Ramdas Pophale) SiO2 
 PCOD8135007
Probable space group: C 2/C
;
_chemical_formula_sum "Si O2"
_cell_formula_units_Z 44
_cell_length_a 18.991566
_cell_length_b 14.968769
_cell_length_c 8.914061
_cell_angle_alpha 90.000000
_cell_angle_beta 63.409643
_cell_angle_gamma 90.000000
_cell_volume 2266.060488
_symmetry_space_group_name_H-M "C 2/C"
_symmetry_group_IT_number 15
_symmetry_cell_setting 'monoclinic'
loop_
_space_group_symop_operation_xyz
x,y,z
-x,y,1/2-z
-x,-y,-z
x,-y,1/2+z
1/2+x,1/2+y,z
1/2-x,1/2+y,1/2-z
1/2-x,1/2-y,-z
1/2+x,1/2-y,1/2+z
loop_
_atom_site_type_symbol
_atom_site_label
_atom_site_fract_x
_atom_site_fract_y
_atom_site_fract_z
Si Si1 0.563552 0.187942 0.888709
Si Si2 0.330736 0.059595 0.533956
Si Si3 0.416650 0.388552 0.583156
Si Si4 0.000000 0.002854 0.750000
Si Si5 0.762811 0.414725 0.785291
Si Si6 0.600103 0.122331 0.539570
O O1 0.622753 0.145245 0.951541
O O2 0.546888 0.289985 0.947141
O O3 0.601207 0.183283 0.686590
O O4 0.480987 0.135409 0.973249
O O5 0.276127 0.091576 0.449928
O O6 0.274747 0.017513 0.717555
O O7 0.392298 0.982582 0.420854
O O8 0.443137 0.441967 0.704686
O O9 0.444779 0.436150 0.405295
O O10 0.322882 0.379876 0.673867
O O11 0.826469 0.351493 0.638229
#
# Coordination Sequence:
#
# PCOD8135007 Si02
#       6
#     8   8   8   4   8   8
#     4  11  21  37  62  93 125 157 218 245 303 361
#     4  10  19  37  59  90 126 166 194 253 306 378
#     4  11  24  43  67  89 118 165 209 264 295 377
#     4  10  24  46  64  84 120 166 208 250 322 356
#     4  10  21  37  60  88 124 166 199 244 322 352
#     4   9  20  37  58  91 124 165 192 250 308 370
#
# _framework density 19.416958000000001
#
# number of rings (size 3 to 8) (size 9 to 14) (size 15 to 20)
#    1.091    0.727    1.818    2.727    0.000    3.636 
#    0.000    3.636    0.000    0.000    0.000    0.000 
#    0.000    0.000    0.000    0.000    0.000    0.000 
#
# Total GULP energy -272768.317518 kJ/mol
# GULP energy per Si atom -12398.559887 kJ/mol
# Density = 1.937276 g / cm^3
# Si number density = 19.416958 Si / 1000 Ang^3
#
#
#
# Elastic Constant Matrix: (Units=GPa)
#
#
# Indices 1 2 3 4 5 6 
#
# 1 116.3851 15.8607 44.7156 0.0000 8.0338 0.0000
# 2 15.8607 83.8950 13.0802 0.0000 8.3615 0.0000
# 3 44.7156 13.0802 86.5869 0.0000 11.7780 0.0000
# 4 0.0000 0.0000 0.0000 9.1905 0.0000 1.7391
# 5 8.0338 8.3615 11.7780 0.0000 34.6850 0.0000
# 6 0.0000 0.0000 0.0000 1.7391 0.0000 14.1762
#
#
#
# Elastic Compliance Matrix: (Units=1/GPa)
#
#
# Indices 1 2 3 4 5 6 
#
# 1 0.010842 -0.001172 -0.005367 0.000000 -0.000406 0.000000
# 2 -0.001172 0.012532 -0.000958 0.000000 -0.002424 0.000000
# 3 -0.005367 -0.000958 0.014956 0.000000 -0.003605 0.000000
# 4 0.000000 0.000000 0.000000 0.111394 0.000000 -0.013666
# 5 -0.000406 -0.002424 -0.003605 0.000000 0.030733 0.000000
# 6 0.000000 0.000000 0.000000 -0.013666 0.000000 0.072217
#
#
# Mechanical properties :
#
#
# Convention : Reuss Voigt Hill
#
# Bulk Modulus (GPa) = 42.85288 48.24222 45.54755
# Shear Modulus (GPa) = 18.15229 25.82437 21.98833
#
# Velocity S-wave (km/s) = 3.06088 3.65086 3.36881
# Velocity P-wave (km/s) = 5.88300 6.53231 6.21614
#
# Compressibility (1/GPa) = 0.02333566
#
# Stress axis : x y z
#
# Youngs Moduli (GPa) = 92.23492 79.79384 66.86472
#
# Poissons Ratio (x) = 0.09356 0.35884
# Poissons Ratio (y) = 0.10815 0.06405
# Poissons Ratio (z) = 0.49499 0.07643
#
# Static dielectric constant tensor:
#      x y z
#    x 3.416290 0.000000 0.064710 
#    y 0.000000 3.287690 0.000000 
#    z 0.064710 0.000000 3.461680 
# 
# 
# High freq. dielectric constant tensor:
#      x y z
#    x 1.761710 0.000000 0.011340 
#    y 0.000000 1.735120 0.000000 
#    z 0.011340 0.000000 1.753740 
# 
# From -- ./inp_files/54907.got.cif
#   From: 2010.06.25/outbox.cif.g09.slc.cpg/sg15_28_cif.got.tgz:54907.got - 2010.06.28 07:06:18.
