data_PCOD8135355
_publ_section_title
;
Structure prediction by ZEFSAII (Michael W. Deem and Ramdas Pophale) SiO2 
 PCOD8135355
Probable space group: C 2/C
;
_chemical_formula_sum "Si O2"
_cell_formula_units_Z 48
_cell_length_a 15.617870
_cell_length_b 10.341477
_cell_length_c 23.761706
_cell_angle_alpha 90.000000
_cell_angle_beta 41.277219
_cell_angle_gamma 90.000000
_cell_volume 2531.805810
_symmetry_space_group_name_H-M "C 2/C"
_symmetry_group_IT_number 15
_symmetry_cell_setting 'monoclinic'
loop_
_space_group_symop_operation_xyz
x,y,z
-x,y,1/2-z
-x,-y,-z
x,-y,1/2+z
1/2+x,1/2+y,z
1/2-x,1/2+y,1/2-z
1/2-x,1/2-y,-z
1/2+x,1/2-y,1/2+z
loop_
_atom_site_type_symbol
_atom_site_label
_atom_site_fract_x
_atom_site_fract_y
_atom_site_fract_z
Si Si1 0.969135 0.450595 0.452885
Si Si2 0.642477 0.149253 0.070464
Si Si3 0.282748 0.004568 0.241448
Si Si4 0.039957 0.811638 0.493311
Si Si5 0.786256 0.044669 0.102957
Si Si6 0.619278 0.732987 0.827421
O O1 0.860467 0.539698 0.477051
O O2 0.923510 0.302520 0.481427
O O3 0.000000 0.500000 0.500000
O O4 0.090658 0.451000 0.351091
O O5 0.678822 0.089104 0.112222
O O6 0.503719 0.219313 0.148263
O O7 0.750000 0.250000 0.000000
O O8 0.164773 0.907764 0.282112
O O9 0.292690 0.992147 0.304197
O O10 0.266286 0.157077 0.233549
O O11 0.071969 0.769552 0.414462
O O12 0.885820 0.842080 0.572831
O O13 0.125717 0.933846 0.469497
#
# Coordination Sequence:
#
# PCOD8135355 Si02
#       6
#     8   8   8   8   8   8
#     4  11  20  36  60  84 117 156 202 243 296 356
#     4  11  21  37  60  90 120 151 197 254 299 362
#     4  10  21  36  59  90 115 160 200 251 293 366
#     4  10  19  38  60  86 116 161 198 241 297 376
#     4  10  21  36  60  89 121 152 200 244 308 359
#     4  10  20  36  62  88 118 156 203 248 299 353
#
# _framework density 18.9588
#
# number of rings (size 3 to 8) (size 9 to 14) (size 15 to 20)
#    0.000    1.667    5.000    1.000    0.000    3.333 
#    0.000    0.000    0.000    0.000    0.000    0.000 
#    0.000    0.000    0.000    0.000    0.000    0.000 
#
# Total GULP energy -297430.966520 kJ/mol
# GULP energy per Si atom -12392.956938 kJ/mol
# Density = 1.891565 g / cm^3
# Si number density = 18.958800 Si / 1000 Ang^3
#
#
#
# Elastic Constant Matrix: (Units=GPa)
#
#
# Indices 1 2 3 4 5 6 
#
# 1 106.0602 55.8695 38.3365 0.0000 -4.1018 0.0000
# 2 55.8695 127.1817 43.2600 0.0000 -10.7504 0.0000
# 3 38.3365 43.2600 102.6833 0.0000 4.9814 0.0000
# 4 0.0000 0.0000 0.0000 40.6654 0.0000 -0.0852
# 5 -4.1018 -10.7504 4.9814 0.0000 20.6931 0.0000
# 6 0.0000 0.0000 0.0000 -0.0852 0.0000 38.0512
#
#
#
# Elastic Compliance Matrix: (Units=1/GPa)
#
#
# Indices 1 2 3 4 5 6 
#
# 1 0.012956 -0.004620 -0.002933 0.000000 0.000874 0.000000
# 2 -0.004620 0.011560 -0.003432 0.000000 0.005916 0.000000
# 3 -0.002933 -0.003432 0.012541 0.000000 -0.005384 0.000000
# 4 0.000000 0.000000 0.000000 0.024591 0.000000 0.000055
# 5 0.000874 0.005916 -0.005384 0.000000 0.052868 0.000000
# 6 0.000000 0.000000 0.000000 0.000055 0.000000 0.026280
#
#
# Mechanical properties :
#
#
# Convention : Reuss Voigt Hill
#
# Bulk Modulus (GPa) = 66.28581 67.87302 67.07942
# Shear Modulus (GPa) = 29.79805 33.11256 31.45530
#
# Velocity S-wave (km/s) = 3.96880 4.18371 4.07767
# Velocity P-wave (km/s) = 7.48604 7.69519 7.59134
#
# Compressibility (1/GPa) = 0.01508619
#
# Stress axis : x y z
#
# Youngs Moduli (GPa) = 77.18236 86.50692 79.73867
#
# Poissons Ratio (x) = 0.39966 0.23389
# Poissons Ratio (y) = 0.35658 0.27368
# Poissons Ratio (z) = 0.22640 0.29691
#
# Static dielectric constant tensor:
#      x y z
#    x 3.454420 0.000000 0.019390 
#    y 0.000000 4.107580 0.000000 
#    z 0.019390 0.000000 3.559960 
# 
# 
# High freq. dielectric constant tensor:
#      x y z
#    x 1.697780 0.000000 0.007060 
#    y 0.000000 1.755980 0.000000 
#    z 0.007060 0.000000 1.744350 
# 
# From -- ./inp_files/151950.got.cif
#   From: 2010.06.25/outbox.cif.g09.slc.cpg/sg15_76_cif.got.tgz:151950.got - 2010.06.28 07:06:18.
