data_PCOD8135006
_publ_section_title
;
Structure prediction by ZEFSAII (Michael W. Deem and Ramdas Pophale) SiO2 
 PCOD8135006
Probable space group: C 2/C
;
_chemical_formula_sum "Si O2"
_cell_formula_units_Z 64
_cell_length_a 23.627220
_cell_length_b 10.728312
_cell_length_c 13.237304
_cell_angle_alpha 90.000000
_cell_angle_beta 69.215158
_cell_angle_gamma 90.000000
_cell_volume 3137.023867
_symmetry_space_group_name_H-M "C 2/C"
_symmetry_group_IT_number 15
_symmetry_cell_setting 'monoclinic'
loop_
_space_group_symop_operation_xyz
x,y,z
-x,y,1/2-z
-x,-y,-z
x,-y,1/2+z
1/2+x,1/2+y,z
1/2-x,1/2+y,1/2-z
1/2-x,1/2-y,-z
1/2+x,1/2-y,1/2+z
loop_
_atom_site_type_symbol
_atom_site_label
_atom_site_fract_x
_atom_site_fract_y
_atom_site_fract_z
Si Si1 0.224720 0.599543 0.426321
Si Si2 0.393122 0.364728 0.447829
Si Si3 0.491496 0.353164 0.021371
Si Si4 0.739587 0.621147 0.454435
Si Si5 0.668183 0.777316 0.151041
Si Si6 0.336433 0.033988 0.238207
Si Si7 0.558256 0.371609 0.649504
Si Si8 0.936409 0.716790 0.238936
O O1 0.255782 0.486569 0.465350
O O2 0.277794 0.686334 0.346541
O O3 0.182559 0.677208 0.528770
O O4 0.180712 0.547226 0.367870
O O5 0.440964 0.303263 0.496039
O O6 0.328891 0.374018 0.544268
O O7 0.410284 0.503013 0.405006
O O8 0.391524 0.279655 0.348471
O O9 0.447825 0.317214 0.142488
O O10 0.500000 0.500000 0.000000
O O11 0.463833 0.294857 0.936408
O O12 0.750000 0.750000 0.500000
O O13 0.784677 0.603268 0.333880
O O14 0.603722 0.708963 0.188196
O O15 0.661895 0.888856 0.234680
O O16 0.402137 0.095131 0.217548
O O17 0.500000 0.409401 0.750000
O O18 0.000000 0.676113 0.250000
#
# Coordination Sequence:
#
# PCOD8135006 Si02
#       8
#     8   8   8   8   8   8   8   8
#     4  10  23  44  62  89 125 165 211 261 316 380
#     4  10  19  37  59  90 124 156 201 261 309 367
#     4   9  19  35  60  93 118 161 207 248 314 382
#     4  11  22  40  63  93 127 159 206 265 315 371
#     4  10  23  42  63  87 127 168 208 263 319 380
#     4  11  24  39  64  92 122 169 211 254 321 387
#     4  11  21  38  60  89 125 161 205 257 310 367
#     4  10  20  38  62  85 125 162 204 258 317 368
#
# _framework density 20.401503999999999
#
# number of rings (size 3 to 8) (size 9 to 14) (size 15 to 20)
#    0.000    1.750    2.500    2.625    1.750    1.500 
#    4.500    0.000    0.000    4.500    0.000    0.000 
#    0.000    0.000    0.000    0.000    0.000    0.000 
#
# Total GULP energy -396736.418667 kJ/mol
# GULP energy per Si atom -12398.013083 kJ/mol
# Density = 2.035507 g / cm^3
# Si number density = 20.401504 Si / 1000 Ang^3
#
#
#
# Elastic Constant Matrix: (Units=GPa)
#
#
# Indices 1 2 3 4 5 6 
#
# 1 108.6184 15.1196 22.6087 0.0000 -1.1871 0.0000
# 2 15.1196 67.3428 -2.9290 0.0000 -1.7329 0.0000
# 3 22.6087 -2.9290 42.4159 0.0000 6.2120 0.0000
# 4 0.0000 0.0000 0.0000 24.2985 0.0000 -2.6076
# 5 -1.1871 -1.7329 6.2120 0.0000 39.7499 0.0000
# 6 0.0000 0.0000 0.0000 -2.6076 0.0000 30.1569
#
#
#
# Elastic Compliance Matrix: (Units=1/GPa)
#
#
# Indices 1 2 3 4 5 6 
#
# 1 0.010873 -0.002679 -0.006152 0.000000 0.001169 0.000000
# 2 -0.002679 0.015564 0.002471 0.000000 0.000212 0.000000
# 3 -0.006152 0.002471 0.027670 0.000000 -0.004400 0.000000
# 4 0.000000 0.000000 0.000000 0.041540 0.000000 0.003592
# 5 0.001169 0.000212 -0.004400 0.000000 0.025889 0.000000
# 6 0.000000 0.000000 0.000000 0.003592 0.000000 0.033470
#
#
# Mechanical properties :
#
#
# Convention : Reuss Voigt Hill
#
# Bulk Modulus (GPa) = 24.16104 31.99729 28.07917
# Shear Modulus (GPa) = 27.54517 31.07959 29.31238
#
# Velocity S-wave (km/s) = 3.67843 3.90731 3.79459
# Velocity P-wave (km/s) = 5.46897 6.00615 5.74385
#
# Compressibility (1/GPa) = 0.04138894
#
# Stress axis : x y z
#
# Youngs Moduli (GPa) = 91.97421 64.25193 36.14012
#
# Poissons Ratio (x) = 0.17210 0.22232
# Poissons Ratio (y) = 0.24636 -0.08932
# Poissons Ratio (z) = 0.56579 -0.15879
#
# Static dielectric constant tensor:
#      x y z
#    x 3.836020 0.000000 0.305400 
#    y 0.000000 3.542540 0.000000 
#    z 0.305400 0.000000 3.587570 
# 
# 
# High freq. dielectric constant tensor:
#      x y z
#    x 1.811960 0.000000 0.002030 
#    y 0.000000 1.783800 0.000000 
#    z 0.002030 0.000000 1.789810 
# 
# From -- ./inp_files/118012.got.cif
#   From: 2010.06.25/outbox.cif.g09.slc.cpg/sg15_60_cif.got.tgz:118012.got - 2010.06.28 07:06:18.
