data_PCOD8135262
_publ_section_title
;
Structure prediction by ZEFSAII (Michael W. Deem and Ramdas Pophale) SiO2 
 PCOD8135262
Probable space group: C 2/C
;
_chemical_formula_sum "Si O2"
_cell_formula_units_Z 56
_cell_length_a 17.983951
_cell_length_b 5.614437
_cell_length_c 26.369795
_cell_angle_alpha 90.000000
_cell_angle_beta 71.417382
_cell_angle_gamma 90.000000
_cell_volume 2523.740074
_symmetry_space_group_name_H-M "C 2/C"
_symmetry_group_IT_number 15
_symmetry_cell_setting 'monoclinic'
loop_
_space_group_symop_operation_xyz
x,y,z
-x,y,1/2-z
-x,-y,-z
x,-y,1/2+z
1/2+x,1/2+y,z
1/2-x,1/2+y,1/2-z
1/2-x,1/2-y,-z
1/2+x,1/2-y,1/2+z
loop_
_atom_site_type_symbol
_atom_site_label
_atom_site_fract_x
_atom_site_fract_y
_atom_site_fract_z
Si Si1 0.076422 0.645405 0.573182
Si Si2 0.002540 0.147959 0.888637
Si Si3 0.319375 0.211999 0.618397
Si Si4 0.399982 0.165685 0.046153
Si Si5 0.140181 0.961834 0.298975
Si Si6 0.735965 0.104098 0.588761
Si Si7 0.721469 0.672722 0.194022
O O1 0.058730 0.634526 0.516940
O O2 0.169989 0.638167 0.561045
O O3 0.045545 0.397186 0.604035
O O4 0.046692 0.899527 0.602274
O O5 0.052977 0.143463 0.930143
O O6 0.055704 0.162811 0.825568
O O7 0.356721 0.388217 0.650406
O O8 0.273418 0.340522 0.582091
O O9 0.396427 0.079014 0.579333
O O10 0.254384 0.061228 0.661115
O O11 0.307634 0.221476 0.060222
O O12 0.145650 0.113016 0.245615
O O13 0.211851 0.775441 0.282738
O O14 0.698916 0.148596 0.653393
#
# Coordination Sequence:
#
# PCOD8135262 Si02
#       7
#     8   8   8   8   8   8   8
#     4  12  29  44  67  98 146 186 213 278 351 400
#     4  12  26  44  67 100 141 174 228 276 342 410
#     4  10  19  37  68  97 131 155 237 282 326 382
#     4  11  23  43  71  98 129 182 236 279 322 402
#     4  11  20  37  67 101 124 172 216 294 328 392
#     4  10  24  43  67  98 133 177 230 283 326 414
#     4  10  20  36  70  96 126 163 234 278 335 378
#
# _framework density 22.18929
#
# number of rings (size 3 to 8) (size 9 to 14) (size 15 to 20)
#    0.000    1.143    5.714    2.143    6.000    0.571 
#    0.000    0.714    0.000    0.000    0.000    0.000 
#    0.000    0.000    0.000    0.000    0.000    0.000 
#
# Total GULP energy -346967.279070 kJ/mol
# GULP energy per Si atom -12391.688538 kJ/mol
# Density = 2.213879 g / cm^3
# Si number density = 22.189290 Si / 1000 Ang^3
#
#
#
# Elastic Constant Matrix: (Units=GPa)
#
#
# Indices 1 2 3 4 5 6 
#
# 1 49.3019 11.1460 -8.6803 0.0004 -6.0377 -0.0044
# 2 11.1460 117.9105 18.2843 0.0012 -13.6285 -0.0039
# 3 -8.6803 18.2843 65.2786 0.0025 -19.0195 -0.0027
# 4 0.0004 0.0012 0.0025 26.9747 0.0013 -7.9593
# 5 -6.0377 -13.6285 -19.0195 0.0013 27.4801 -0.0003
# 6 -0.0044 -0.0039 -0.0027 -7.9593 -0.0003 30.9371
#
#
#
# Elastic Compliance Matrix: (Units=1/GPa)
#
#
# Indices 1 2 3 4 5 6 
#
# 1 0.022816 -0.002151 0.005995 0.000000 0.008096 0.000004
# 2 -0.002151 0.009323 -0.002114 0.000000 0.002688 0.000001
# 3 0.005995 -0.002114 0.021027 -0.000002 0.014822 0.000002
# 4 0.000000 0.000000 -0.000002 0.040117 -0.000003 0.010321
# 5 0.008096 0.002688 0.014822 -0.000003 0.049760 0.000002
# 6 0.000004 0.000001 0.000002 0.010321 0.000002 0.034979
#
#
# Mechanical properties :
#
#
# Convention : Reuss Voigt Hill
#
# Bulk Modulus (GPa) = 17.65964 30.44346 24.05155
# Shear Modulus (GPa) = 25.84819 31.19444 28.52132
#
# Velocity S-wave (km/s) = 3.41676 3.75351 3.58909
# Velocity P-wave (km/s) = 4.85196 5.70393 5.29511
#
# Compressibility (1/GPa) = 0.05662629
#
# Stress axis : x y z
#
# Youngs Moduli (GPa) = 43.82821 107.26366 47.55848
#
# Poissons Ratio (x) = 0.23070 -0.28512
# Poissons Ratio (y) = 0.09426 0.10055
# Poissons Ratio (z) = -0.26276 0.22677
#
# Static dielectric constant tensor:
#      x y z
#    x 3.778970 -0.000010 -0.143070 
#    y -0.000010 4.296860 -0.000020 
#    z -0.143070 -0.000020 3.950550 
# 
# 
# High freq. dielectric constant tensor:
#      x y z
#    x 1.844210 0.000000 -0.020400 
#    y 0.000000 1.886030 0.000000 
#    z -0.020400 0.000000 1.867810 
# 
# From -- ./inp_files/297734.got.cif
#   From: 2010.06.25/outbox.cif.g09.slc.cpg/sg15_149_cif.got.tgz:297734.got - 2010.06.28 07:06:18.
