data_PCOD8135910
_publ_section_title
;
Structure prediction by ZEFSAII (Michael W. Deem and Ramdas Pophale) SiO2 
 PCOD8135910
Probable space group: C 2/C
;
_chemical_formula_sum "Si O2"
_cell_formula_units_Z 44
_cell_length_a 13.920967
_cell_length_b 33.957130
_cell_length_c 5.100378
_cell_angle_alpha 90.000000
_cell_angle_beta 116.666211
_cell_angle_gamma 90.000000
_cell_volume 2154.584359
_symmetry_space_group_name_H-M "C 2/C"
_symmetry_group_IT_number 15
_symmetry_cell_setting 'monoclinic'
loop_
_space_group_symop_operation_xyz
x,y,z
-x,y,1/2-z
-x,-y,-z
x,-y,1/2+z
1/2+x,1/2+y,z
1/2-x,1/2+y,1/2-z
1/2-x,1/2-y,-z
1/2+x,1/2-y,1/2+z
loop_
_atom_site_type_symbol
_atom_site_label
_atom_site_fract_x
_atom_site_fract_y
_atom_site_fract_z
Si Si1 0.268609 0.599393 0.010177
Si Si2 0.216200 0.647944 0.442045
Si Si3 0.500000 0.243852 0.750000
Si Si4 0.500000 0.621249 0.250000
Si Si5 0.000000 0.307989 0.750000
Si Si6 0.912356 0.807433 0.338039
Si Si7 0.379495 0.025887 0.638173
O O1 0.234532 0.632537 0.172868
O O2 0.398137 0.593564 0.197951
O O3 0.234526 0.613711 0.679154
O O4 0.209566 0.559147 0.011445
O O5 0.294749 0.685392 0.577249
O O6 0.096454 0.663288 0.300094
O O7 0.533106 0.217352 0.544158
O O8 0.402443 0.274488 0.556145
O O9 0.539780 0.649811 0.529509
O O10 0.000000 0.788326 0.250000
O O11 0.500000 0.043630 0.750000
O O12 0.362585 0.991550 0.406215
#
# Coordination Sequence:
#
# PCOD8135910 Si02
#       7
#     8   8   4   4   4   8   8
#     4  11  22  40  65  92 118 164 192 257 298 348
#     4  11  25  38  64  87 125 151 206 252 304 354
#     4  11  24  40  62  80 122 159 204 247 312 362
#     4   9  20  36  64  92 118 147 216 249 294 348
#     4  12  26  42  52  94 120 154 200 258 310 366
#     4  10  19  41  61  86 111 162 207 248 293 367
#     4  10  22  40  62  91 127 163 201 232 282 364
#
# _framework density 20.421571
#
# number of rings (size 3 to 8) (size 9 to 14) (size 15 to 20)
#    0.000    1.455    2.727    2.182    2.545    1.455 
#    0.000    0.909    0.000    0.000    0.000    0.000 
#    0.000    0.000    0.000    0.000    0.000    0.000 
#
# Total GULP energy -272718.646593 kJ/mol
# GULP energy per Si atom -12396.302118 kJ/mol
# Density = 2.037509 g / cm^3
# Si number density = 20.421571 Si / 1000 Ang^3
#
#
#
# Elastic Constant Matrix: (Units=GPa)
#
#
# Indices 1 2 3 4 5 6 
#
# 1 136.8135 48.8259 37.0901 0.0000 28.4219 0.0000
# 2 48.8259 68.4318 18.4238 0.0000 19.7211 0.0000
# 3 37.0901 18.4238 71.3116 0.0000 3.8542 0.0000
# 4 0.0000 0.0000 0.0000 27.4747 0.0000 8.3304
# 5 28.4219 19.7211 3.8542 0.0000 41.7568 0.0000
# 6 0.0000 0.0000 0.0000 8.3304 0.0000 8.7737
#
#
#
# Elastic Compliance Matrix: (Units=1/GPa)
#
#
# Indices 1 2 3 4 5 6 
#
# 1 0.011469 -0.005676 -0.004243 0.000000 -0.004734 0.000000
# 2 -0.005676 0.020915 -0.002137 0.000000 -0.005817 0.000000
# 3 -0.004243 -0.002137 0.016654 0.000000 0.002360 0.000000
# 4 0.000000 0.000000 0.000000 0.051111 0.000000 -0.048528
# 5 -0.004734 -0.005817 0.002360 0.000000 0.029700 0.000000
# 6 0.000000 0.000000 0.000000 -0.048528 0.000000 0.160053
#
#
# Mechanical properties :
#
#
# Convention : Reuss Voigt Hill
#
# Bulk Modulus (GPa) = 40.11866 53.91517 47.01692
# Shear Modulus (GPa) = 15.51251 27.08219 21.29735
#
# Velocity S-wave (km/s) = 2.75910 3.64559 3.23288
# Velocity P-wave (km/s) = 5.46242 6.64672 6.08346
#
# Compressibility (1/GPa) = 0.02492605
#
# Stress axis : x y z
#
# Youngs Moduli (GPa) = 87.19506 47.81314 60.04535
#
# Poissons Ratio (x) = 0.27141 0.25475
# Poissons Ratio (y) = 0.49495 0.12830
# Poissons Ratio (z) = 0.36993 0.10216
#
# Static dielectric constant tensor:
#      x y z
#    x 3.809630 0.000000 -0.000740 
#    y 0.000000 3.405130 0.000000 
#    z -0.000740 0.000000 3.914840 
# 
# 
# High freq. dielectric constant tensor:
#      x y z
#    x 1.797090 0.000000 -0.007680 
#    y 0.000000 1.774850 0.000000 
#    z -0.007680 0.000000 1.812680 
# 
# From -- ./inp_files/8330.got.cif
#   From: 2010.06.25/outbox.cif.g09.slc.cpg/sg15_5_cif.got.tgz:8330.got - 2010.06.28 07:06:18.
