data_PCOD8135303
_publ_section_title
;
Structure prediction by ZEFSAII (Michael W. Deem and Ramdas Pophale) SiO2 
 PCOD8135303
Probable space group: C 2/C
;
_chemical_formula_sum "Si O2"
_cell_formula_units_Z 56
_cell_length_a 24.944870
_cell_length_b 17.230709
_cell_length_c 9.174563
_cell_angle_alpha 90.000000
_cell_angle_beta 48.939270
_cell_angle_gamma 90.000000
_cell_volume 2973.370715
_symmetry_space_group_name_H-M "C 2/C"
_symmetry_group_IT_number 15
_symmetry_cell_setting 'monoclinic'
loop_
_space_group_symop_operation_xyz
x,y,z
-x,y,1/2-z
-x,-y,-z
x,-y,1/2+z
1/2+x,1/2+y,z
1/2-x,1/2+y,1/2-z
1/2-x,1/2-y,-z
1/2+x,1/2-y,1/2+z
loop_
_atom_site_type_symbol
_atom_site_label
_atom_site_fract_x
_atom_site_fract_y
_atom_site_fract_z
Si Si1 0.666807 0.726210 0.984441
Si Si2 0.137829 0.331705 0.807138
Si Si3 0.362127 0.165458 0.699126
Si Si4 0.276788 0.574889 0.513253
Si Si5 0.503522 0.082342 0.417658
Si Si6 0.269612 0.583523 0.181692
Si Si7 0.190167 0.244934 0.447671
O O1 0.664348 0.772753 0.137304
O O2 0.609718 0.765402 0.973216
O O3 0.663238 0.634755 0.029170
O O4 0.741502 0.741422 0.774171
O O5 0.074336 0.372354 0.836660
O O6 0.186020 0.396397 0.802647
O O7 0.191847 0.285245 0.602936
O O8 0.302496 0.098410 0.794502
O O9 0.437695 0.129028 0.602222
O O10 0.372882 0.211288 0.527225
O O11 0.282029 0.569950 0.330117
O O12 0.293755 0.491852 0.550643
O O13 0.500000 0.072422 0.250000
O O14 0.500000 0.000000 0.500000
O O15 0.320717 0.651925 0.027407
#
# Coordination Sequence:
#
# PCOD8135303 Si02
#       7
#     8   8   8   8   8   8   8
#     4  10  20  38  59  83 109 155 193 242 292 345
#     4  11  23  38  59  83 115 158 198 232 284 346
#     4  11  20  40  61  75 120 158 196 236 283 346
#     4  11  22  34  55  87 118 147 183 239 297 343
#     4  12  28  42  57  86 122 162 200 237 278 341
#     4  11  22  34  54  88 117 147 185 238 298 340
#     4  10  19  38  58  81 113 150 195 242 291 345
#
# _framework density 18.833843999999999
#
# number of rings (size 3 to 8) (size 9 to 14) (size 15 to 20)
#    0.000    1.143    5.714    3.429    8.000    2.286 
#    0.000    0.000    0.000    0.000    0.000    6.000 
#    0.000    0.000    0.000    0.000    0.000    0.000 
#
# Total GULP energy -346969.881601 kJ/mol
# GULP energy per Si atom -12391.781486 kJ/mol
# Density = 1.879098 g / cm^3
# Si number density = 18.833844 Si / 1000 Ang^3
#
#
#
# Elastic Constant Matrix: (Units=GPa)
#
#
# Indices 1 2 3 4 5 6 
#
# 1 81.2062 52.3266 24.3035 0.0000 22.5024 0.0000
# 2 52.3266 155.0958 41.7347 0.0000 21.3506 0.0000
# 3 24.3035 41.7347 64.0756 0.0000 24.9833 0.0000
# 4 0.0000 0.0000 0.0000 31.8476 0.0000 12.9412
# 5 22.5024 21.3506 24.9833 0.0000 36.9247 0.0000
# 6 0.0000 0.0000 0.0000 12.9412 0.0000 31.2839
#
#
#
# Elastic Compliance Matrix: (Units=1/GPa)
#
#
# Indices 1 2 3 4 5 6 
#
# 1 0.017666 -0.004740 -0.000658 0.000000 -0.007580 0.000000
# 2 -0.004740 0.009148 -0.004380 0.000000 0.000562 0.000000
# 3 -0.000658 -0.004380 0.023859 0.000000 -0.013210 0.000000
# 4 0.000000 0.000000 0.000000 0.037744 0.000000 -0.015614
# 5 -0.007580 0.000562 -0.013210 0.000000 0.040314 0.000000
# 6 0.000000 0.000000 0.000000 -0.015614 0.000000 0.038424
#
#
# Mechanical properties :
#
#
# Convention : Reuss Voigt Hill
#
# Bulk Modulus (GPa) = 32.13558 59.67860 45.90709
# Shear Modulus (GPa) = 25.37002 32.14542 28.75772
#
# Velocity S-wave (km/s) = 3.67419 4.13581 3.91182
# Velocity P-wave (km/s) = 5.92447 7.38663 6.69558
#
# Compressibility (1/GPa) = 0.03111815
#
# Stress axis : x y z
#
# Youngs Moduli (GPa) = 56.60675 109.31521 41.91207
#
# Poissons Ratio (x) = 0.51811 0.02758
# Poissons Ratio (y) = 0.26829 0.18357
# Poissons Ratio (z) = 0.03725 0.47879
#
# Static dielectric constant tensor:
#      x y z
#    x 3.723340 0.000000 0.396850 
#    y 0.000000 3.916000 0.000000 
#    z 0.396850 0.000000 3.382260 
# 
# 
# High freq. dielectric constant tensor:
#      x y z
#    x 1.718290 0.000000 0.044820 
#    y 0.000000 1.741970 0.000000 
#    z 0.044820 0.000000 1.719920 
# 
# From -- ./inp_files/62403.got.cif
#   From: 2010.06.25/outbox.cif.g09.slc.cpg/sg15_32_cif.got.tgz:62403.got - 2010.06.28 07:06:18.
