data_PCOD8135395
_publ_section_title
;
Structure prediction by ZEFSAII (Michael W. Deem and Ramdas Pophale) SiO2 
 PCOD8135395
Probable space group: C 2/C
;
_chemical_formula_sum "Si O2"
_cell_formula_units_Z 48
_cell_length_a 29.923359
_cell_length_b 8.321753
_cell_length_c 9.717751
_cell_angle_alpha 90.000000
_cell_angle_beta 95.514935
_cell_angle_gamma 90.000000
_cell_volume 2408.662734
_symmetry_space_group_name_H-M "C 2/C"
_symmetry_group_IT_number 15
_symmetry_cell_setting 'monoclinic'
loop_
_space_group_symop_operation_xyz
x,y,z
-x,y,1/2-z
-x,-y,-z
x,-y,1/2+z
1/2+x,1/2+y,z
1/2-x,1/2+y,1/2-z
1/2-x,1/2-y,-z
1/2+x,1/2-y,1/2+z
loop_
_atom_site_type_symbol
_atom_site_label
_atom_site_fract_x
_atom_site_fract_y
_atom_site_fract_z
Si Si1 0.578538 0.591757 0.109779
Si Si2 0.202291 0.194141 0.038782
Si Si3 0.360478 0.821505 0.711738
Si Si4 0.851457 0.308743 0.238072
Si Si5 0.952617 0.841270 0.191888
Si Si6 0.660107 0.374913 0.043839
O O1 0.602930 0.752345 0.172918
O O2 0.551479 0.510807 0.227438
O O3 0.546115 0.634925 0.972886
O O4 0.614723 0.468279 0.062318
O O5 0.163087 0.227043 0.917992
O O6 0.201564 0.001577 0.067450
O O7 0.250000 0.250000 0.000000
O O8 0.191173 0.292620 0.173504
O O9 0.412954 0.777994 0.725856
O O10 0.356075 0.010427 0.688512
O O11 0.335471 0.769216 0.845062
O O12 0.841265 0.194257 0.108119
O O13 0.000000 0.761892 0.250000
#
# Coordination Sequence:
#
# PCOD8135395 Si02
#       6
#     8   8   8   8   8   8
#     4  10  19  38  61  89 118 159 207 248 301 362
#     4  11  23  41  64  90 118 158 205 252 301 364
#     4  11  23  39  61  90 126 161 199 250 306 362
#     4  11  21  39  63  88 126 162 196 250 308 361
#     4  11  21  38  63  91 121 159 209 254 302 365
#     4  10  20  39  65  85 120 162 200 243 301 359
#
# _framework density 19.928069000000001
#
# number of rings (size 3 to 8) (size 9 to 14) (size 15 to 20)
#    0.000    1.333    5.000    3.500    0.000    2.667 
#    0.000    4.167    0.000    0.000    0.000    0.000 
#    0.000    0.000    0.000    0.000    0.000    0.000 
#
# Total GULP energy -297626.008150 kJ/mol
# GULP energy per Si atom -12401.083673 kJ/mol
# Density = 1.988271 g / cm^3
# Si number density = 19.928069 Si / 1000 Ang^3
#
#
#
# Elastic Constant Matrix: (Units=GPa)
#
#
# Indices 1 2 3 4 5 6 
#
# 1 87.6076 26.0083 8.5357 0.0000 -10.2498 0.0000
# 2 26.0083 86.9867 10.3868 0.0000 -1.2201 0.0000
# 3 8.5357 10.3868 95.0542 0.0000 -7.9008 0.0000
# 4 0.0000 0.0000 0.0000 24.8956 0.0000 -2.1590
# 5 -10.2498 -1.2201 -7.9008 0.0000 17.4512 0.0000
# 6 0.0000 0.0000 0.0000 -2.1590 0.0000 17.3643
#
#
#
# Elastic Compliance Matrix: (Units=1/GPa)
#
#
# Indices 1 2 3 4 5 6 
#
# 1 0.013474 -0.003904 -0.000154 0.000000 0.007571 0.000000
# 2 -0.003904 0.012780 -0.001208 0.000000 -0.001946 0.000000
# 3 -0.000154 -0.001208 0.011068 0.000000 0.004836 0.000000
# 4 0.000000 0.000000 0.000000 0.040606 0.000000 0.005049
# 5 0.007571 -0.001946 0.004836 0.000000 0.063803 0.000000
# 6 0.000000 0.000000 0.000000 0.005049 0.000000 0.058217
#
#
# Mechanical properties :
#
#
# Convention : Reuss Voigt Hill
#
# Bulk Modulus (GPa) = 37.32611 39.94557 38.63584
# Shear Modulus (GPa) = 22.78836 26.92341 24.85588
#
# Velocity S-wave (km/s) = 3.38528 3.67962 3.53552
# Velocity P-wave (km/s) = 5.83535 6.17586 6.00801
#
# Compressibility (1/GPa) = 0.02679090
#
# Stress axis : x y z
#
# Youngs Moduli (GPa) = 74.21488 78.24587 90.34991
#
# Poissons Ratio (x) = 0.30548 0.01392
# Poissons Ratio (y) = 0.28974 0.10912
# Poissons Ratio (z) = 0.01143 0.09450
#
# Static dielectric constant tensor:
#      x y z
#    x 3.466870 0.000000 -0.147120 
#    y 0.000000 3.562960 0.000000 
#    z -0.147120 0.000000 3.999290 
# 
# 
# High freq. dielectric constant tensor:
#      x y z
#    x 1.755530 0.000000 -0.006290 
#    y 0.000000 1.766220 0.000000 
#    z -0.006290 0.000000 1.800210 
# 
# From -- ./inp_files/68575.got.cif
#   From: 2010.06.25/outbox.cif.g09.slc.cpg/sg15_35_cif.got.tgz:68575.got - 2010.06.28 07:06:18.
