data_PCOD8135423
_publ_section_title
;
Structure prediction by ZEFSAII (Michael W. Deem and Ramdas Pophale) SiO2 
 PCOD8135423
Probable space group: C 2/C
;
_chemical_formula_sum "Si O2"
_cell_formula_units_Z 36
_cell_length_a 10.006832
_cell_length_b 19.251717
_cell_length_c 8.051100
_cell_angle_alpha 90.000000
_cell_angle_beta 86.611973
_cell_angle_gamma 90.000000
_cell_volume 1548.323032
_symmetry_space_group_name_H-M "C 2/C"
_symmetry_group_IT_number 15
_symmetry_cell_setting 'monoclinic'
loop_
_space_group_symop_operation_xyz
x,y,z
-x,y,1/2-z
-x,-y,-z
x,-y,1/2+z
1/2+x,1/2+y,z
1/2-x,1/2+y,1/2-z
1/2-x,1/2-y,-z
1/2+x,1/2-y,1/2+z
loop_
_atom_site_type_symbol
_atom_site_label
_atom_site_fract_x
_atom_site_fract_y
_atom_site_fract_z
Si Si1 0.412815 0.559340 0.085923
Si Si2 0.629409 0.657808 0.010378
Si Si3 0.421259 0.187050 0.083895
Si Si4 0.719531 0.444550 0.225333
Si Si5 0.000000 0.606712 0.750000
O O1 0.338896 0.523487 0.249790
O O2 0.500000 0.500000 0.000000
O O3 0.510036 0.623660 0.129021
O O4 0.301489 0.582031 0.960683
O O5 0.579323 0.731396 0.948573
O O6 0.647311 0.610764 0.847057
O O7 0.766000 0.661716 0.109543
O O8 0.500000 0.169531 0.250000
O O9 0.492318 0.153280 0.917336
O O10 0.876413 0.445793 0.250020
#
# Coordination Sequence:
#
# PCOD8135423 Si02
#       5
#     8   8   8   8   4
#     4  10  19  38  62  88 121 165 208 269 317 364
#     4   9  19  38  65  93 132 160 213 269 310 385
#     4  10  20  41  65  93 131 173 206 259 326 384
#     4  10  21  40  61  89 128 162 212 270 318 378
#     4  10  24  44  58  96 130 170 214 260 322 384
#
# _framework density 23.250961
#
# number of rings (size 3 to 8) (size 9 to 14) (size 15 to 20)
#    0.000    2.222    0.000    4.000    0.000    0.889 
#   24.000   15.556    0.000    0.000    0.000    0.000 
#    0.000    0.000    0.000    0.000    0.000    0.000 
#
# Total GULP energy -223017.531919 kJ/mol
# GULP energy per Si atom -12389.862884 kJ/mol
# Density = 2.319804 g / cm^3
# Si number density = 23.250961 Si / 1000 Ang^3
#
#
#
# Elastic Constant Matrix: (Units=GPa)
#
#
# Indices 1 2 3 4 5 6 
#
# 1 139.9551 69.6286 67.4455 0.0000 10.2818 0.0000
# 2 69.6286 111.7705 37.4682 0.0000 2.2578 0.0000
# 3 67.4455 37.4682 167.4262 0.0000 32.3951 0.0000
# 4 0.0000 0.0000 0.0000 24.0576 0.0000 2.0618
# 5 10.2818 2.2578 32.3951 0.0000 40.3023 0.0000
# 6 0.0000 0.0000 0.0000 2.0618 0.0000 42.0541
#
#
#
# Elastic Compliance Matrix: (Units=1/GPa)
#
#
# Indices 1 2 3 4 5 6 
#
# 1 0.011902 -0.006276 -0.003399 0.000000 0.000048 0.000000
# 2 -0.006276 0.013051 -0.000664 0.000000 0.001404 0.000000
# 3 -0.003399 -0.000664 0.008663 0.000000 -0.006059 0.000000
# 4 0.000000 0.000000 0.000000 0.041742 0.000000 -0.002047
# 5 0.000048 0.001404 -0.006059 0.000000 0.029592 0.000000
# 6 0.000000 0.000000 0.000000 -0.002047 0.000000 0.023879
#
#
# Mechanical properties :
#
#
# Convention : Reuss Voigt Hill
#
# Bulk Modulus (GPa) = 77.29541 85.35959 81.32750
# Shear Modulus (GPa) = 32.50536 37.59012 35.04774
#
# Velocity S-wave (km/s) = 3.74307 4.02520 3.88669
# Velocity P-wave (km/s) = 7.21089 7.64166 7.42940
#
# Compressibility (1/GPa) = 0.01293738
#
# Stress axis : x y z
#
# Youngs Moduli (GPa) = 84.01825 76.62337 115.43187
#
# Poissons Ratio (x) = 0.48089 0.39239
# Poissons Ratio (y) = 0.52730 0.07665
# Poissons Ratio (z) = 0.28561 0.05088
#
# Static dielectric constant tensor:
#      x y z
#    x 4.674430 0.000000 -0.227730 
#    y 0.000000 4.598880 0.000000 
#    z -0.227730 0.000000 5.289430 
# 
# 
# High freq. dielectric constant tensor:
#      x y z
#    x 1.925140 0.000000 0.015220 
#    y 0.000000 1.910090 0.000000 
#    z 0.015220 0.000000 1.935250 
# 
# From -- ./inp_files/22504.got.cif
#   From: 2010.06.25/outbox.cif.g09.slc.cpg/sg15_12_cif.got.tgz:22504.got - 2010.06.28 07:06:18.
