data_PCOD8135258
_publ_section_title
;
Structure prediction by ZEFSAII (Michael W. Deem and Ramdas Pophale) SiO2 
 PCOD8135258
Probable space group: C 2/C
;
_chemical_formula_sum "Si O2"
_cell_formula_units_Z 44
_cell_length_a 26.354821
_cell_length_b 9.453814
_cell_length_c 14.855137
_cell_angle_alpha 90.000000
_cell_angle_beta 33.501855
_cell_angle_gamma 90.000000
_cell_volume 2042.934890
_symmetry_space_group_name_H-M "C 2/C"
_symmetry_group_IT_number 15
_symmetry_cell_setting 'monoclinic'
loop_
_space_group_symop_operation_xyz
x,y,z
-x,y,1/2-z
-x,-y,-z
x,-y,1/2+z
1/2+x,1/2+y,z
1/2-x,1/2+y,1/2-z
1/2-x,1/2-y,-z
1/2+x,1/2-y,1/2+z
loop_
_atom_site_type_symbol
_atom_site_label
_atom_site_fract_x
_atom_site_fract_y
_atom_site_fract_z
Si Si1 0.090946 0.855173 0.414065
Si Si2 0.000000 0.825502 0.250000
Si Si3 0.538247 0.129847 0.354709
Si Si4 0.343418 0.545233 0.506190
Si Si5 0.356434 0.908702 0.218303
Si Si6 0.120012 0.895493 0.751994
O O1 0.084363 0.706538 0.372935
O O2 0.136535 0.838840 0.445599
O O3 0.988688 0.907645 0.583622
O O4 0.150750 0.968055 0.265804
O O5 0.047070 0.728537 0.255480
O O6 0.084919 0.915877 0.083815
O O7 0.431750 0.089255 0.526969
O O8 0.598952 0.986503 0.259263
O O9 0.235335 0.508235 0.677180
O O10 0.351716 0.602807 0.393517
O O11 0.335210 0.745728 0.273296
#
# Coordination Sequence:
#
# PCOD8135258 Si02
#       6
#     8   4   8   8   8   8
#     4  10  19  37  68  87 126 165 212 256 320 374
#     4  12  22  42  72  92 128 174 224 252 326 388
#     4  10  23  46  60  90 133 172 203 271 317 385
#     4  12  21  38  68  98 118 170 218 264 311 392
#     4  10  24  41  61  92 135 159 211 269 327 366
#     4  10  19  40  60  91 125 165 206 264 310 383
#
# _framework density 21.537642000000002
#
# number of rings (size 3 to 8) (size 9 to 14) (size 15 to 20)
#    0.000    1.455    3.636    2.727    0.000    3.636 
#   13.091    0.000    0.000    0.000    0.000    0.000 
#    0.000    0.000    0.000    0.000    0.000    0.000 
#
# Total GULP energy -272579.885425 kJ/mol
# GULP energy per Si atom -12389.994792 kJ/mol
# Density = 2.148862 g / cm^3
# Si number density = 21.537642 Si / 1000 Ang^3
#
#
#
# Elastic Constant Matrix: (Units=GPa)
#
#
# Indices 1 2 3 4 5 6 
#
# 1 86.9066 11.5288 40.7834 0.0000 6.3705 0.0000
# 2 11.5288 70.8788 35.6052 -0.0001 -10.5467 0.0000
# 3 40.7834 35.6052 55.4924 0.0000 -0.4102 0.0000
# 4 0.0000 -0.0001 0.0000 12.5345 0.0000 2.8916
# 5 6.3705 -10.5467 -0.4102 0.0000 26.2479 0.0000
# 6 0.0000 0.0000 0.0000 2.8916 0.0000 25.1681
#
#
#
# Elastic Compliance Matrix: (Units=1/GPa)
#
#
# Indices 1 2 3 4 5 6 
#
# 1 0.019249 0.005260 -0.017542 0.000000 -0.002832 0.000000
# 2 0.005260 0.024162 -0.019309 0.000000 0.008130 0.000000
# 3 -0.017542 -0.019309 0.043281 0.000000 -0.002824 0.000000
# 4 0.000000 0.000000 0.000000 0.081952 0.000000 -0.009416
# 5 -0.002832 0.008130 -0.002824 0.000000 0.042008 0.000000
# 6 0.000000 0.000000 0.000000 -0.009416 0.000000 0.040815
#
#
# Mechanical properties :
#
#
# Convention : Reuss Voigt Hill
#
# Bulk Modulus (GPa) = 42.53561 43.23473 42.88517
# Shear Modulus (GPa) = 15.50453 21.14746 18.32599
#
# Velocity S-wave (km/s) = 2.68597 3.13690 2.92015
# Velocity P-wave (km/s) = 5.42324 5.76522 5.59685
#
# Compressibility (1/GPa) = 0.02350972
#
# Stress axis : x y z
#
# Youngs Moduli (GPa) = 51.95139 41.38674 23.10481
#
# Poissons Ratio (x) = -0.21769 0.40531
# Poissons Ratio (y) = -0.27326 0.44612
# Poissons Ratio (z) = 0.91135 0.79912
#
# Static dielectric constant tensor:
#      x y z
#    x 3.844760 0.000000 0.063350 
#    y 0.000000 3.933490 0.000000 
#    z 0.063350 0.000000 4.001460 
# 
# 
# High freq. dielectric constant tensor:
#      x y z
#    x 1.838450 0.000000 -0.000350 
#    y 0.000000 1.839130 0.000000 
#    z -0.000350 0.000000 1.833240 
# 
# From -- ./inp_files/159790.got.cif
#   From: 2010.06.25/outbox.cif.g09.slc.cpg/sg15_80_cif.got.tgz:159790.got - 2010.06.28 07:06:18.
