data_PCOD8135559
_publ_section_title
;
Structure prediction by ZEFSAII (Michael W. Deem and Ramdas Pophale) SiO2 
 PCOD8135559
Probable space group: C 2/C
;
_chemical_formula_sum "Si O2"
_cell_formula_units_Z 60
_cell_length_a 20.049088
_cell_length_b 9.038635
_cell_length_c 18.941945
_cell_angle_alpha 90.000000
_cell_angle_beta 58.928890
_cell_angle_gamma 90.000000
_cell_volume 2940.108214
_symmetry_space_group_name_H-M "C 2/C"
_symmetry_group_IT_number 15
_symmetry_cell_setting 'monoclinic'
loop_
_space_group_symop_operation_xyz
x,y,z
-x,y,1/2-z
-x,-y,-z
x,-y,1/2+z
1/2+x,1/2+y,z
1/2-x,1/2+y,1/2-z
1/2-x,1/2-y,-z
1/2+x,1/2-y,1/2+z
loop_
_atom_site_type_symbol
_atom_site_label
_atom_site_fract_x
_atom_site_fract_y
_atom_site_fract_z
Si Si1 0.500000 0.102284 0.250000
Si Si2 0.305881 0.770948 0.204121
Si Si3 0.132232 0.368850 0.184568
Si Si4 0.742594 0.025068 0.026465
Si Si5 0.117948 0.950109 0.647377
Si Si6 0.490864 0.662091 0.873415
Si Si7 0.153986 0.943321 0.280488
Si Si8 0.845246 0.279436 0.027938
O O1 0.490442 0.199328 0.185803
O O2 0.575956 0.003909 0.200585
O O3 0.352215 0.852097 0.240964
O O4 0.215060 0.811900 0.259942
O O5 0.313677 0.594064 0.203637
O O6 0.342150 0.830210 0.110973
O O7 0.211171 0.403314 0.098483
O O8 0.094093 0.217511 0.177244
O O9 0.777356 0.159796 0.052730
O O10 0.672668 0.082654 0.013894
O O11 0.808797 0.947709 0.944484
O O12 0.043832 0.027150 0.652980
O O13 0.141601 0.041917 0.703550
O O14 0.572190 0.603587 0.862140
O O15 0.430784 0.711922 0.966804
#
# Coordination Sequence:
#
# PCOD8135559 Si02
#       8
#     4   8   8   8   8   8   8   8
#     4  12  24  38  68  92 124 166 224 266 306 388
#     4  11  25  41  64  93 136 166 210 265 333 388
#     4  11  25  39  64  99 126 167 210 275 324 377
#     4  10  19  38  67  94 123 169 224 262 307 388
#     4  10  21  39  66  94 126 160 219 271 315 363
#     4  11  23  40  67  92 122 170 222 265 311 383
#     4  11  23  39  64  91 128 171 210 261 325 386
#     4  10  21  39  65  95 125 172 217 265 313 387
#
# _framework density 20.407412000000001
#
# number of rings (size 3 to 8) (size 9 to 14) (size 15 to 20)
#    0.000    1.333    4.000    1.200    7.467    0.533 
#    0.000    0.667    5.867    0.000    0.000    0.000 
#    0.000    0.000    0.000    0.000    0.000    0.000 
#
# Total GULP energy -372129.598572 kJ/mol
# GULP energy per Si atom -12404.319952 kJ/mol
# Density = 2.036096 g / cm^3
# Si number density = 20.407412 Si / 1000 Ang^3
#
#
#
# Elastic Constant Matrix: (Units=GPa)
#
#
# Indices 1 2 3 4 5 6 
#
# 1 76.3751 48.9867 38.7844 -0.0001 -13.8745 0.0005
# 2 48.9867 100.8880 33.1133 -0.0002 -10.9317 0.0011
# 3 38.7844 33.1133 98.0811 0.0000 2.5094 -0.0002
# 4 -0.0001 -0.0002 0.0000 31.4206 0.0000 -1.5824
# 5 -13.8745 -10.9317 2.5094 0.0000 35.5308 0.0000
# 6 0.0005 0.0011 -0.0002 -1.5824 0.0000 30.9411
#
#
#
# Elastic Compliance Matrix: (Units=1/GPa)
#
#
# Indices 1 2 3 4 5 6 
#
# 1 0.022916 -0.008268 -0.006446 0.000000 0.006860 0.000000
# 2 -0.008268 0.014639 -0.001708 0.000000 0.001396 0.000000
# 3 -0.006446 -0.001708 0.013423 0.000000 -0.003991 0.000000
# 4 0.000000 0.000000 0.000000 0.031908 0.000000 0.001632
# 5 0.006860 0.001396 -0.003991 0.000000 0.031535 0.000000
# 6 0.000000 0.000000 0.000000 0.001632 0.000000 0.032403
#
#
# Mechanical properties :
#
#
# Convention : Reuss Voigt Hill
#
# Bulk Modulus (GPa) = 55.14699 57.45699 56.30199
# Shear Modulus (GPa) = 26.92334 29.87580 28.39957
#
# Velocity S-wave (km/s) = 3.63615 3.83033 3.73450
# Velocity P-wave (km/s) = 6.68659 6.91217 6.80031
#
# Compressibility (1/GPa) = 0.01813336
#
# Stress axis : x y z
#
# Youngs Moduli (GPa) = 43.63814 68.31294 74.49679
#
# Poissons Ratio (x) = 0.56481 0.48019
# Poissons Ratio (y) = 0.36080 0.12727
# Poissons Ratio (z) = 0.28128 0.11671
#
# Static dielectric constant tensor:
#      x y z
#    x 3.653980 0.000000 -0.045550 
#    y 0.000000 3.649250 0.000000 
#    z -0.045550 0.000000 3.749600 
# 
# 
# High freq. dielectric constant tensor:
#      x y z
#    x 1.784840 0.000000 -0.007750 
#    y 0.000000 1.797400 0.000000 
#    z -0.007750 0.000000 1.804650 
# 
# From -- ./inp_files/247835.got.cif
#   From: 2010.06.25/outbox.cif.g09.slc.cpg/sg15_124_cif.got.tgz:247835.got - 2010.06.28 07:06:18.
