data_PCOD8135337
_publ_section_title
;
Structure prediction by ZEFSAII (Michael W. Deem and Ramdas Pophale) SiO2 
 PCOD8135337
Probable space group: C 2/C
;
_chemical_formula_sum "Si O2"
_cell_formula_units_Z 64
_cell_length_a 20.686395
_cell_length_b 14.468026
_cell_length_c 12.385276
_cell_angle_alpha 90.000000
_cell_angle_beta 63.849874
_cell_angle_gamma 90.000000
_cell_volume 3327.385460
_symmetry_space_group_name_H-M "C 2/C"
_symmetry_group_IT_number 15
_symmetry_cell_setting 'monoclinic'
loop_
_space_group_symop_operation_xyz
x,y,z
-x,y,1/2-z
-x,-y,-z
x,-y,1/2+z
1/2+x,1/2+y,z
1/2-x,1/2+y,1/2-z
1/2-x,1/2-y,-z
1/2+x,1/2-y,1/2+z
loop_
_atom_site_type_symbol
_atom_site_label
_atom_site_fract_x
_atom_site_fract_y
_atom_site_fract_z
Si Si1 0.280091 0.881037 0.055347
Si Si2 0.328335 0.678089 0.047216
Si Si3 0.921754 0.729055 0.852409
Si Si4 0.422906 0.600679 0.496756
Si Si5 0.708298 0.688117 0.185377
Si Si6 0.184756 0.426917 0.035193
Si Si7 0.974646 0.085869 0.884440
Si Si8 0.733994 0.382708 0.327243
O O1 0.327318 0.788962 0.032836
O O2 0.240527 0.903532 0.196335
O O3 0.331481 0.968575 0.991348
O O4 0.221528 0.871539 0.003984
O O5 0.302927 0.648173 0.185844
O O6 0.409857 0.648687 0.972852
O O7 0.936479 0.799370 0.937836
O O8 0.868964 0.778170 0.804097
O O9 0.000000 0.700917 0.750000
O O10 0.885603 0.636546 0.928674
O O11 0.458628 0.599694 0.586748
O O12 0.453914 0.522215 0.394827
O O13 0.340053 0.576093 0.575575
O O14 0.745297 0.612362 0.081121
O O15 0.763932 0.773080 0.150220
O O16 0.202811 0.430651 0.149775
O O17 0.000000 0.120609 0.750000
#
# Coordination Sequence:
#
# PCOD8135337 Si02
#       8
#     8   8   8   8   8   8   8   8
#     4  10  23  37  61  85 116 152 201 241 288 349
#     4  10  22  41  57  85 119 158 192 240 298 345
#     4  11  21  38  60  89 122 150 189 247 301 346
#     4  11  21  36  57  85 114 154 190 237 302 351
#     4  10  20  37  64  87 115 151 194 249 293 341
#     4  11  21  37  62  92 115 150 199 249 290 339
#     4  11  24  37  53  82 120 156 195 231 291 361
#     4  10  19  38  59  88 116 145 196 248 290 339
#
# _framework density 19.234318999999999
#
# number of rings (size 3 to 8) (size 9 to 14) (size 15 to 20)
#    0.000    1.500    2.500    3.375    3.500    1.000 
#    0.000    0.625    0.000   10.500    0.000    0.000 
#    0.000    0.000    0.000    0.000    0.000    0.000 
#
# Total GULP energy -396845.325830 kJ/mol
# GULP energy per Si atom -12401.416432 kJ/mol
# Density = 1.919054 g / cm^3
# Si number density = 19.234319 Si / 1000 Ang^3
#
#
#
# Elastic Constant Matrix: (Units=GPa)
#
#
# Indices 1 2 3 4 5 6 
#
# 1 73.2033 28.9709 30.8163 0.0000 -12.8659 0.0000
# 2 28.9709 101.2910 38.1772 0.0000 -3.0885 0.0000
# 3 30.8163 38.1772 105.3871 0.0000 6.0009 0.0000
# 4 0.0000 0.0000 0.0000 18.2410 0.0000 -4.2853
# 5 -12.8659 -3.0885 6.0009 0.0000 26.6990 0.0000
# 6 0.0000 0.0000 0.0000 -4.2853 0.0000 24.3029
#
#
#
# Elastic Compliance Matrix: (Units=1/GPa)
#
#
# Indices 1 2 3 4 5 6 
#
# 1 0.018686 -0.003220 -0.004851 0.000000 0.009722 0.000000
# 2 -0.003220 0.012127 -0.003488 0.000000 0.000635 0.000000
# 3 -0.004851 -0.003488 0.012487 0.000000 -0.005548 0.000000
# 4 0.000000 0.000000 0.000000 0.057191 0.000000 0.010084
# 5 0.009722 0.000635 -0.005548 0.000000 0.043460 0.000000
# 6 0.000000 0.000000 0.000000 0.010084 0.000000 0.042925
#
#
# Mechanical properties :
#
#
# Convention : Reuss Voigt Hill
#
# Bulk Modulus (GPa) = 49.54791 52.86779 51.20785
# Shear Modulus (GPa) = 23.07115 25.97639 24.52377
#
# Velocity S-wave (km/s) = 3.46711 3.67893 3.57459
# Velocity P-wave (km/s) = 6.46868 6.75218 6.61195
#
# Compressibility (1/GPa) = 0.02018249
#
# Stress axis : x y z
#
# Youngs Moduli (GPa) = 53.51689 82.45787 80.08452
#
# Poissons Ratio (x) = 0.26547 0.38851
# Poissons Ratio (y) = 0.17230 0.27933
# Poissons Ratio (z) = 0.25962 0.28761
#
# Static dielectric constant tensor:
#      x y z
#    x 3.408870 0.000000 0.140740 
#    y 0.000000 3.551120 0.000000 
#    z 0.140740 0.000000 3.642250 
# 
# 
# High freq. dielectric constant tensor:
#      x y z
#    x 1.736700 0.000000 0.013050 
#    y 0.000000 1.746860 0.000000 
#    z 0.013050 0.000000 1.755020 
# 
# From -- ./inp_files/112731.got.cif
#   From: 2010.06.25/outbox.cif.g09.slc.cpg/sg15_57_cif.got.tgz:112731.got - 2010.06.28 07:06:18.
