data_PCOD8135764
_publ_section_title
;
Structure prediction by ZEFSAII (Michael W. Deem and Ramdas Pophale) SiO2 
 PCOD8135764
Probable space group: C 2/C
;
_chemical_formula_sum "Si O2"
_cell_formula_units_Z 52
_cell_length_a 11.229497
_cell_length_b 14.638278
_cell_length_c 19.505543
_cell_angle_alpha 90.000000
_cell_angle_beta 53.664399
_cell_angle_gamma 90.000000
_cell_volume 2582.892798
_symmetry_space_group_name_H-M "C 2/C"
_symmetry_group_IT_number 15
_symmetry_cell_setting 'monoclinic'
loop_
_space_group_symop_operation_xyz
x,y,z
-x,y,1/2-z
-x,-y,-z
x,-y,1/2+z
1/2+x,1/2+y,z
1/2-x,1/2+y,1/2-z
1/2-x,1/2-y,-z
1/2+x,1/2-y,1/2+z
loop_
_atom_site_type_symbol
_atom_site_label
_atom_site_fract_x
_atom_site_fract_y
_atom_site_fract_z
Si Si1 0.830977 0.001455 0.578494
Si Si2 0.494415 0.631002 0.325707
Si Si3 0.201594 0.800670 0.869477
Si Si4 0.500000 0.290478 0.250000
Si Si5 0.367414 0.892426 0.084093
Si Si6 0.201876 0.445140 0.984813
Si Si7 0.356312 0.436778 0.219207
O O1 0.785929 0.895575 0.595621
O O2 0.732544 0.049631 0.555024
O O3 0.806527 0.059106 0.656618
O O4 0.000000 0.000000 0.500000
O O5 0.500000 0.680881 0.250000
O O6 0.586147 0.693474 0.346315
O O7 0.326054 0.619154 0.408352
O O8 0.575399 0.534572 0.287312
O O9 0.365734 0.778561 0.789887
O O10 0.153771 0.713172 0.931384
O O11 0.483048 0.359451 0.189950
O O12 0.285412 0.914804 0.184280
O O13 0.295322 0.954766 0.050071
O O14 0.541931 0.902962 0.029953
#
# Coordination Sequence:
#
# PCOD8135764 Si02
#       7
#     8   8   8   4   8   8   8
#     4  11  23  39  62  95 122 166 203 256 311 369
#     4  11  19  39  66  85 117 172 203 249 304 382
#     4  10  23  39  62  92 127 152 215 255 313 355
#     4  10  20  42  62  94 116 162 212 266 298 380
#     4  10  23  42  62  94 119 172 202 259 305 371
#     4  11  22  41  66  88 128 162 210 246 312 377
#     4  10  19  39  68  80 123 165 208 240 317 370
#
# _framework density 20.132465
#
# number of rings (size 3 to 8) (size 9 to 14) (size 15 to 20)
#    0.000    1.538    5.385    0.923    0.000    4.308 
#    5.538    0.000    0.000    0.000    0.000    0.000 
#    0.000    0.000    0.000    0.000    0.000    0.000 
#
# Total GULP energy -322175.100036 kJ/mol
# GULP energy per Si atom -12391.350001 kJ/mol
# Density = 2.008664 g / cm^3
# Si number density = 20.132465 Si / 1000 Ang^3
#
#
#
# Elastic Constant Matrix: (Units=GPa)
#
#
# Indices 1 2 3 4 5 6 
#
# 1 97.7788 -0.7518 35.5207 0.0000 -4.4658 0.0000
# 2 -0.7518 59.7410 14.6978 0.0000 -10.7051 0.0000
# 3 35.5207 14.6978 90.2405 0.0000 -0.2780 0.0000
# 4 0.0000 0.0000 0.0000 24.8669 0.0000 -5.2273
# 5 -4.4658 -10.7051 -0.2780 0.0000 45.5306 0.0000
# 6 0.0000 0.0000 0.0000 -5.2273 0.0000 32.1424
#
#
#
# Elastic Compliance Matrix: (Units=1/GPa)
#
#
# Indices 1 2 3 4 5 6 
#
# 1 0.012145 0.001673 -0.005048 0.000000 0.001554 0.000000
# 2 0.001673 0.018462 -0.003652 0.000000 0.004482 0.000000
# 3 -0.005048 -0.003652 0.013659 0.000000 -0.001270 0.000000
# 4 0.000000 0.000000 0.000000 0.041637 0.000000 0.006771
# 5 0.001554 0.004482 -0.001270 0.000000 0.023162 0.000000
# 6 0.000000 0.000000 0.000000 0.006771 0.000000 0.032213
#
#
# Mechanical properties :
#
#
# Convention : Reuss Voigt Hill
#
# Bulk Modulus (GPa) = 33.09883 38.52152 35.81018
# Shear Modulus (GPa) = 30.22933 33.72757 31.97845
#
# Velocity S-wave (km/s) = 3.87915 4.09746 3.98980
# Velocity P-wave (km/s) = 6.04483 6.44679 6.24905
#
# Compressibility (1/GPa) = 0.03021254
#
# Stress axis : x y z
#
# Youngs Moduli (GPa) = 82.33908 54.16642 73.20930
#
# Poissons Ratio (x) = -0.09063 0.36958
# Poissons Ratio (y) = -0.13777 0.26734
# Poissons Ratio (z) = 0.41567 0.19780
#
# Static dielectric constant tensor:
#      x y z
#    x 4.129010 0.000000 0.120710 
#    y 0.000000 3.332940 0.000000 
#    z 0.120710 0.000000 3.657330 
# 
# 
# High freq. dielectric constant tensor:
#      x y z
#    x 1.798600 0.000000 -0.008980 
#    y 0.000000 1.779260 0.000000 
#    z -0.008980 0.000000 1.776700 
# 
# From -- ./inp_files/238645.got.cif
#   From: 2010.06.25/outbox.cif.g09.slc.cpg/sg15_120_cif.got.tgz:238645.got - 2010.06.28 07:06:18.
