data_PCOD8135795
_publ_section_title
;
Structure prediction by ZEFSAII (Michael W. Deem and Ramdas Pophale) SiO2 
 PCOD8135795
Probable space group: C 2/C
;
_chemical_formula_sum "Si O2"
_cell_formula_units_Z 44
_cell_length_a 10.055374
_cell_length_b 8.131970
_cell_length_c 19.081726
_cell_angle_alpha 90.000000
_cell_angle_beta 102.335517
_cell_angle_gamma 90.000000
_cell_volume 1524.290307
_symmetry_space_group_name_H-M "C 2/C"
_symmetry_group_IT_number 15
_symmetry_cell_setting 'monoclinic'
loop_
_space_group_symop_operation_xyz
x,y,z
-x,y,1/2-z
-x,-y,-z
x,-y,1/2+z
1/2+x,1/2+y,z
1/2-x,1/2+y,1/2-z
1/2-x,1/2-y,-z
1/2+x,1/2-y,1/2+z
loop_
_atom_site_type_symbol
_atom_site_label
_atom_site_fract_x
_atom_site_fract_y
_atom_site_fract_z
Si Si1 0.000000 0.959492 0.750000
Si Si2 0.300648 0.930689 0.163230
Si Si3 0.763025 0.375159 0.438789
Si Si4 0.611362 0.845831 0.472765
Si Si5 0.227754 0.769086 0.286478
Si Si6 0.979084 0.934080 0.898827
O O1 0.872444 0.079444 0.728127
O O2 0.029987 0.855424 0.682171
O O3 0.342981 0.090918 0.213945
O O4 0.150513 0.946290 0.108565
O O5 0.399809 0.907632 0.109119
O O6 0.309280 0.777631 0.220309
O O7 0.750000 0.250000 0.500000
O O8 0.887777 0.503603 0.470892
O O9 0.808196 0.287703 0.370590
O O10 0.617778 0.462672 0.415472
O O11 0.750000 0.750000 0.500000
O O12 0.488987 0.707876 0.461994
#
# Coordination Sequence:
#
# PCOD8135795 Si02
#       6
#     4   8   8   8   8   8
#     4   8  18  40  62  78 124 160 198 254 322 356
#     4  11  23  41  63  93 122 159 216 260 307 386
#     4  10  19  40  61  84 123 162 198 254 318 367
#     4  10  22  38  65  87 123 162 204 252 314 378
#     4  10  22  39  62  87 120 160 204 260 309 372
#     4   9  21  38  63  87 118 168 201 253 316 369
#
# _framework density 28.865891999999999
#
# number of rings (size 3 to 8) (size 9 to 14) (size 15 to 20)
#    0.000    2.182    1.818    0.000   10.182    2.909 
#    3.273    0.909    0.000    0.000    0.000    0.000 
#    0.000    0.000    0.000    0.000    0.000    0.000 
#
# Total GULP energy -272570.455425 kJ/mol
# GULP energy per Si atom -12389.566156 kJ/mol
# Density = 2.880019 g / cm^3
# Si number density = 28.865892 Si / 1000 Ang^3
#
#
#
# Elastic Constant Matrix: (Units=GPa)
#
#
# Indices 1 2 3 4 5 6 
#
# 1 68.2645 -19.3103 22.9287 0.0000 2.1146 0.0000
# 2 -19.3103 78.2101 37.5956 0.0000 -5.8307 0.0000
# 3 22.9287 37.5956 156.6647 0.0000 -14.7285 0.0000
# 4 0.0000 0.0000 0.0000 73.8933 0.0000 -11.6058
# 5 2.1146 -5.8307 -14.7285 0.0000 63.5798 0.0000
# 6 0.0000 0.0000 0.0000 -11.6058 0.0000 5.9608
#
#
#
# Elastic Compliance Matrix: (Units=1/GPa)
#
#
# Indices 1 2 3 4 5 6 
#
# 1 0.017915 0.006392 -0.004249 0.000000 -0.000994 0.000000
# 2 0.006392 0.016752 -0.004939 0.000000 0.000180 0.000000
# 3 -0.004249 -0.004939 0.008342 0.000000 0.001621 0.000000
# 4 0.000000 0.000000 0.000000 0.019495 0.000000 0.037957
# 5 -0.000994 0.000180 0.001621 0.000000 0.016153 0.000000
# 6 0.000000 0.000000 0.000000 0.037957 0.000000 0.241667
#
#
# Mechanical properties :
#
#
# Convention : Reuss Voigt Hill
#
# Bulk Modulus (GPa) = 26.72582 42.84081 34.78331
# Shear Modulus (GPa) = 14.77590 46.14845 30.46218
#
# Velocity S-wave (km/s) = 2.26493 4.00274 3.25206
# Velocity P-wave (km/s) = 4.01480 6.01964 5.11638
#
# Compressibility (1/GPa) = 0.03741701
#
# Stress axis : x y z
#
# Youngs Moduli (GPa) = 55.81908 59.69592 119.86837
#
# Poissons Ratio (x) = -0.38156 0.50935
# Poissons Ratio (y) = -0.35678 0.59197
# Poissons Ratio (z) = 0.23719 0.29481
#
# Static dielectric constant tensor:
#      x y z
#    x 5.799130 0.000000 -0.049110 
#    y 0.000000 5.505900 0.000000 
#    z -0.049110 0.000000 6.527120 
# 
# 
# High freq. dielectric constant tensor:
#      x y z
#    x 2.185450 0.000000 0.015160 
#    y 0.000000 2.183800 0.000000 
#    z 0.015160 0.000000 2.201790 
# 
# From -- ./inp_files/202571.got.cif
#   From: 2010.06.25/outbox.cif.g09.slc.cpg/sg15_102_cif.got.tgz:202571.got - 2010.06.28 07:06:18.
