data_PCOD8135880
_publ_section_title
;
Structure prediction by ZEFSAII (Michael W. Deem and Ramdas Pophale) SiO2 
 PCOD8135880
Probable space group: C 2/C
;
_chemical_formula_sum "Si O2"
_cell_formula_units_Z 44
_cell_length_a 24.938881
_cell_length_b 13.490155
_cell_length_c 11.729645
_cell_angle_alpha 90.000000
_cell_angle_beta 149.248417
_cell_angle_gamma 90.000000
_cell_volume 2017.756982
_symmetry_space_group_name_H-M "C 2/C"
_symmetry_group_IT_number 15
_symmetry_cell_setting 'monoclinic'
loop_
_space_group_symop_operation_xyz
x,y,z
-x,y,1/2-z
-x,-y,-z
x,-y,1/2+z
1/2+x,1/2+y,z
1/2-x,1/2+y,1/2-z
1/2-x,1/2-y,-z
1/2+x,1/2-y,1/2+z
loop_
_atom_site_type_symbol
_atom_site_label
_atom_site_fract_x
_atom_site_fract_y
_atom_site_fract_z
Si Si1 0.302050 0.933181 0.673825
Si Si2 0.601064 0.898079 0.863567
Si Si3 0.896704 0.811625 0.233332
Si Si4 0.700260 0.582867 0.630015
Si Si5 0.402453 0.227764 0.491791
Si Si6 0.000000 0.045263 0.750000
O O1 0.398118 0.948261 0.760802
O O2 0.220060 0.855827 0.466658
O O3 0.247644 0.038776 0.598815
O O4 0.344859 0.877209 0.865326
O O5 0.500000 0.933533 0.750000
O O6 0.601556 0.779735 0.851105
O O7 0.707782 0.937513 0.113175
O O8 0.934892 0.780129 0.430193
O O9 0.971845 0.892172 0.311326
O O10 0.673798 0.699189 0.575297
O O11 0.595528 0.522185 0.469300
O O12 0.500000 0.204648 0.750000
#
# Coordination Sequence:
#
# PCOD8135880 Si02
#       6
#     8   8   8   8   8   4
#     4  10  22  40  64  91 128 168 212 261 315 380
#     4  11  21  39  66  88 123 174 217 249 312 388
#     4  10  19  40  68  91 121 168 219 261 313 381
#     4  11  22  37  63  97 125 162 209 264 313 375
#     4  11  21  38  64  95 127 165 202 267 323 364
#     4  10  22  36  66 100 122 158 218 276 310 374
#
# _framework density 21.806391999999999
#
# number of rings (size 3 to 8) (size 9 to 14) (size 15 to 20)
#    0.000    1.455    5.455    1.091    0.000    3.636 
#    0.000    1.818    0.000    7.636    0.000    0.000 
#    0.000    0.000    0.000    0.000    0.000    0.000 
#
# Total GULP energy -272619.138028 kJ/mol
# GULP energy per Si atom -12391.779001 kJ/mol
# Density = 2.175676 g / cm^3
# Si number density = 21.806392 Si / 1000 Ang^3
#
#
#
# Elastic Constant Matrix: (Units=GPa)
#
#
# Indices 1 2 3 4 5 6 
#
# 1 129.6901 47.4208 39.3543 0.0000 19.2626 0.0000
# 2 47.4208 49.7728 23.5311 0.0000 11.7241 0.0000
# 3 39.3543 23.5311 138.0251 0.0000 9.5141 0.0000
# 4 0.0000 0.0000 0.0000 25.6665 0.0000 -10.6468
# 5 19.2626 11.7241 9.5141 0.0000 26.6437 0.0000
# 6 0.0000 0.0000 0.0000 -10.6468 0.0000 8.7996
#
#
#
# Elastic Compliance Matrix: (Units=1/GPa)
#
#
# Indices 1 2 3 4 5 6 
#
# 1 0.012525 -0.010262 -0.001547 0.000000 -0.003987 0.000000
# 2 -0.010262 0.032313 -0.002167 0.000000 -0.006025 0.000000
# 3 -0.001547 -0.002167 0.008112 0.000000 -0.000825 0.000000
# 4 0.000000 0.000000 0.000000 0.078218 0.000000 0.094637
# 5 -0.003987 -0.006025 -0.000825 0.000000 0.043361 0.000000
# 6 0.000000 0.000000 0.000000 0.094637 0.000000 0.228144
#
#
# Mechanical properties :
#
#
# Convention : Reuss Voigt Hill
#
# Bulk Modulus (GPa) = 40.00522 59.78893 49.89707
# Shear Modulus (GPa) = 11.39063 26.03406 18.71235
#
# Velocity S-wave (km/s) = 2.28798 3.45900 2.93253
# Velocity P-wave (km/s) = 5.03640 6.59018 5.86497
#
# Compressibility (1/GPa) = 0.02499674
#
# Stress axis : x y z
#
# Youngs Moduli (GPa) = 79.84269 30.94749 123.26776
#
# Poissons Ratio (x) = 0.31760 0.19066
# Poissons Ratio (y) = 0.81938 0.26717
# Poissons Ratio (z) = 0.12349 0.06708
#
# Static dielectric constant tensor:
#      x y z
#    x 3.987450 0.000000 0.091420 
#    y 0.000000 3.988500 0.000000 
#    z 0.091420 0.000000 3.821600 
# 
# 
# High freq. dielectric constant tensor:
#      x y z
#    x 1.851140 0.000000 0.006740 
#    y 0.000000 1.853100 0.000000 
#    z 0.006740 0.000000 1.850070 
# 
# From -- ./inp_files/123258.got.cif
#   From: 2010.06.25/outbox.cif.g09.slc.cpg/sg15_62_cif.got.tgz:123258.got - 2010.06.28 07:06:18.
