data_PCOD8135652
_publ_section_title
;
Structure prediction by ZEFSAII (Michael W. Deem and Ramdas Pophale) SiO2 
 PCOD8135652
Probable space group: C 2/C
;
_chemical_formula_sum "Si O2"
_cell_formula_units_Z 64
_cell_length_a 16.393839
_cell_length_b 11.818884
_cell_length_c 28.917094
_cell_angle_alpha 90.000000
_cell_angle_beta 34.726779
_cell_angle_gamma 90.000000
_cell_volume 3191.760835
_symmetry_space_group_name_H-M "C 2/C"
_symmetry_group_IT_number 15
_symmetry_cell_setting 'monoclinic'
loop_
_space_group_symop_operation_xyz
x,y,z
-x,y,1/2-z
-x,-y,-z
x,-y,1/2+z
1/2+x,1/2+y,z
1/2-x,1/2+y,1/2-z
1/2-x,1/2-y,-z
1/2+x,1/2-y,1/2+z
loop_
_atom_site_type_symbol
_atom_site_label
_atom_site_fract_x
_atom_site_fract_y
_atom_site_fract_z
Si Si1 0.651624 0.094755 0.655074
Si Si2 0.661388 0.010962 0.852343
Si Si3 0.004082 0.461134 0.655038
Si Si4 0.167823 0.733214 0.380321
Si Si5 0.110747 0.901066 0.325805
Si Si6 0.132643 0.290160 0.431928
Si Si7 0.208935 0.067462 0.346023
Si Si8 0.849740 0.228090 0.910669
O O1 0.500000 0.080519 0.750000
O O2 0.721117 0.216976 0.633079
O O3 0.609597 0.064485 0.621707
O O4 0.768838 0.001887 0.616921
O O5 0.780871 0.074207 0.766567
O O6 0.606133 0.092515 0.918345
O O7 0.520509 0.977936 0.888053
O O8 0.719628 0.894752 0.847539
O O9 0.072730 0.343696 0.637634
O O10 0.850153 0.454706 0.750415
O O11 0.175126 0.800018 0.327980
O O12 0.007740 0.744099 0.474421
O O13 0.961254 0.869819 0.371903
O O14 0.086007 0.010235 0.370920
O O15 0.169885 0.195672 0.375947
O O16 0.263732 0.309965 0.405602
O O17 0.750000 0.250000 0.000000
#
# Coordination Sequence:
#
# PCOD8135652 Si02
#       8
#     8   8   8   8   8   8   8   8
#     4   9  19  38  64  87 117 164 212 258 302 370
#     4  11  24  41  65  89 130 172 211 252 329 388
#     4  10  19  39  62  87 123 168 217 253 305 380
#     4  11  23  43  63  94 130 166 207 264 329 374
#     4  10  22  40  65  90 126 168 217 264 310 373
#     4  12  24  39  66  96 132 166 206 267 329 384
#     4   9  20  36  63  95 118 159 218 263 308 371
#     4  12  22  38  61  93 129 161 210 267 321 366
#
# _framework density 20.051628000000001
#
# number of rings (size 3 to 8) (size 9 to 14) (size 15 to 20)
#    0.000    1.500    3.750    1.875    1.750    4.500 
#    2.250    0.625    0.000    0.000    0.000    0.000 
#    0.000    0.000    0.000    0.000    0.000    0.000 
#
# Total GULP energy -396639.811652 kJ/mol
# GULP energy per Si atom -12394.994114 kJ/mol
# Density = 2.000599 g / cm^3
# Si number density = 20.051628 Si / 1000 Ang^3
#
#
#
# Elastic Constant Matrix: (Units=GPa)
#
#
# Indices 1 2 3 4 5 6 
#
# 1 120.8683 57.3522 25.6019 0.0000 -5.1559 0.0001
# 2 57.3522 126.8960 23.8762 0.0000 2.8963 0.0002
# 3 25.6019 23.8762 40.4455 0.0000 -4.9854 0.0000
# 4 0.0000 0.0000 0.0000 23.4723 0.0000 1.6424
# 5 -5.1559 2.8963 -4.9854 0.0000 23.7142 0.0000
# 6 0.0001 0.0002 0.0000 1.6424 0.0000 41.3027
#
#
#
# Elastic Compliance Matrix: (Units=1/GPa)
#
#
# Indices 1 2 3 4 5 6 
#
# 1 0.011354 -0.004359 -0.004356 0.000000 0.002085 0.000000
# 2 -0.004359 0.010657 -0.003910 0.000000 -0.003071 0.000000
# 3 -0.004356 -0.003910 0.030523 0.000000 0.005947 0.000000
# 4 0.000000 0.000000 0.000000 0.042722 0.000000 -0.001699
# 5 0.002085 -0.003071 0.005947 0.000000 0.044247 0.000000
# 6 0.000000 0.000000 0.000000 -0.001699 0.000000 0.024279
#
#
# Mechanical properties :
#
#
# Convention : Reuss Voigt Hill
#
# Bulk Modulus (GPa) = 36.65392 55.76337 46.20865
# Shear Modulus (GPa) = 25.23622 29.78981 27.51302
#
# Velocity S-wave (km/s) = 3.55147 3.85860 3.70822
# Velocity P-wave (km/s) = 5.92762 6.90811 6.43656
#
# Compressibility (1/GPa) = 0.02728221
#
# Stress axis : x y z
#
# Youngs Moduli (GPa) = 88.07714 93.83923 32.76173
#
# Poissons Ratio (x) = 0.40908 0.14272
# Poissons Ratio (y) = 0.38396 0.12810
# Poissons Ratio (z) = 0.38370 0.36691
#
# Static dielectric constant tensor:
#      x y z
#    x 4.032670 0.000000 -0.025240 
#    y 0.000000 3.678980 0.000000 
#    z -0.025240 0.000000 3.427860 
# 
# 
# High freq. dielectric constant tensor:
#      x y z
#    x 1.789540 0.000000 0.002120 
#    y 0.000000 1.779610 0.000000 
#    z 0.002120 0.000000 1.765800 
# 
# From -- ./inp_files/248642.got.cif
#   From: 2010.06.25/outbox.cif.g09.slc.cpg/sg15_125_cif.got.tgz:248642.got - 2010.06.28 07:06:18.
