data_PCOD8135600
_publ_section_title
;
Structure prediction by ZEFSAII (Michael W. Deem and Ramdas Pophale) SiO2 
 PCOD8135600
Probable space group: C 2/C
;
_chemical_formula_sum "Si O2"
_cell_formula_units_Z 56
_cell_length_a 13.671052
_cell_length_b 11.643615
_cell_length_c 26.597560
_cell_angle_alpha 90.000000
_cell_angle_beta 138.935784
_cell_angle_gamma 90.000000
_cell_volume 2781.210072
_symmetry_space_group_name_H-M "C 2/C"
_symmetry_group_IT_number 15
_symmetry_cell_setting 'monoclinic'
loop_
_space_group_symop_operation_xyz
x,y,z
-x,y,1/2-z
-x,-y,-z
x,-y,1/2+z
1/2+x,1/2+y,z
1/2-x,1/2+y,1/2-z
1/2-x,1/2-y,-z
1/2+x,1/2-y,1/2+z
loop_
_atom_site_type_symbol
_atom_site_label
_atom_site_fract_x
_atom_site_fract_y
_atom_site_fract_z
Si Si1 0.635870 0.699368 0.113321
Si Si2 0.767972 0.520015 0.235439
Si Si3 0.339349 0.688761 0.490812
Si Si4 0.497738 0.851948 0.362026
Si Si5 0.891495 0.839371 0.747532
Si Si6 0.836164 0.836336 0.374482
Si Si7 0.321781 0.423862 0.476506
O O1 0.760294 0.626047 0.192736
O O2 0.600997 0.822244 0.126390
O O3 0.703671 0.719832 0.083730
O O4 0.475120 0.635663 0.052562
O O5 0.934151 0.469086 0.310824
O O6 0.699019 0.560327 0.260962
O O7 0.670851 0.413300 0.178190
O O8 0.250000 0.750000 0.500000
O O9 0.508212 0.729469 0.563214
O O10 0.327783 0.554134 0.496362
O O11 0.483376 0.740328 0.321322
O O12 0.672643 0.868045 0.442767
O O13 0.786000 0.761374 0.672512
O O14 0.000000 0.901230 0.750000
O O15 0.809968 0.920571 0.411540
#
# Coordination Sequence:
#
# PCOD8135600 Si02
#       7
#     8   8   8   8   8   8   8
#     4  10  20  42  60  86 119 155 197 244 290 353
#     4  10  20  37  59  84 124 149 188 243 300 343
#     4  11  23  38  61  85 118 155 199 241 304 345
#     4  10  22  35  62  91 113 152 197 245 289 350
#     4  10  20  36  58  85 116 152 201 239 290 349
#     4  10  19  39  58  84 110 159 198 243 278 362
#     4  11  19  38  65  82 112 154 204 242 285 346
#
# _framework density 20.135121000000002
#
# number of rings (size 3 to 8) (size 9 to 14) (size 15 to 20)
#    0.000    1.714    4.286    1.286    2.000    0.000 
#    2.571    0.714    0.000    0.000    0.000    0.000 
#    0.000    0.000    0.000    0.000    0.000    0.000 
#
# Total GULP energy -347013.022240 kJ/mol
# GULP energy per Si atom -12393.322223 kJ/mol
# Density = 2.008929 g / cm^3
# Si number density = 20.135121 Si / 1000 Ang^3
#
#
#
# Elastic Constant Matrix: (Units=GPa)
#
#
# Indices 1 2 3 4 5 6 
#
# 1 99.3506 29.2845 19.6249 0.0000 -20.3551 0.0000
# 2 29.2845 57.1776 22.7167 0.0000 -4.7395 0.0000
# 3 19.6249 22.7167 63.5079 0.0000 -5.8363 0.0000
# 4 0.0000 0.0000 0.0000 16.1638 0.0000 -5.8289
# 5 -20.3551 -4.7395 -5.8363 0.0000 27.7882 0.0000
# 6 0.0000 0.0000 0.0000 -5.8289 0.0000 33.8240
#
#
#
# Elastic Compliance Matrix: (Units=1/GPa)
#
#
# Indices 1 2 3 4 5 6 
#
# 1 0.013874 -0.005817 -0.001390 0.000000 0.008878 0.000000
# 2 -0.005817 0.022934 -0.006565 0.000000 -0.001728 0.000000
# 3 -0.001390 -0.006565 0.018688 0.000000 0.001787 0.000000
# 4 0.000000 0.000000 0.000000 0.065966 0.000000 0.011368
# 5 0.008878 -0.001728 0.001787 0.000000 0.042571 0.000000
# 6 0.000000 0.000000 0.000000 0.011368 0.000000 0.031524
#
#
# Mechanical properties :
#
#
# Convention : Reuss Voigt Hill
#
# Bulk Modulus (GPa) = 35.77704 40.36536 38.07120
# Shear Modulus (GPa) = 21.51303 25.44921 23.48112
#
# Velocity S-wave (km/s) = 3.27224 3.55902 3.41864
# Velocity P-wave (km/s) = 5.66425 6.08109 5.87637
#
# Compressibility (1/GPa) = 0.02795089
#
# Stress axis : x y z
#
# Youngs Moduli (GPa) = 72.07856 43.60415 53.51005
#
# Poissons Ratio (x) = 0.25366 0.07440
# Poissons Ratio (y) = 0.41930 0.35127
# Poissons Ratio (z) = 0.10022 0.28624
#
# Static dielectric constant tensor:
#      x y z
#    x 3.598710 0.000000 -0.023390 
#    y 0.000000 3.459370 0.000000 
#    z -0.023390 0.000000 3.881360 
# 
# 
# High freq. dielectric constant tensor:
#      x y z
#    x 1.773710 0.000000 -0.002130 
#    y 0.000000 1.764310 0.000000 
#    z -0.002130 0.000000 1.792940 
# 
# From -- ./inp_files/268979.got.cif
#   From: 2010.06.25/outbox.cif.g09.slc.cpg/sg15_135_cif.got.tgz:268979.got - 2010.06.28 07:06:18.
