data_PCOD8135548
_publ_section_title
;
Structure prediction by ZEFSAII (Michael W. Deem and Ramdas Pophale) SiO2 
 PCOD8135548
Probable space group: C 2/C
;
_chemical_formula_sum "Si O2"
_cell_formula_units_Z 60
_cell_length_a 13.364139
_cell_length_b 21.061696
_cell_length_c 15.011345
_cell_angle_alpha 90.000000
_cell_angle_beta 137.388103
_cell_angle_gamma 90.000000
_cell_volume 2860.625947
_symmetry_space_group_name_H-M "C 2/C"
_symmetry_group_IT_number 15
_symmetry_cell_setting 'monoclinic'
loop_
_space_group_symop_operation_xyz
x,y,z
-x,y,1/2-z
-x,-y,-z
x,-y,1/2+z
1/2+x,1/2+y,z
1/2-x,1/2+y,1/2-z
1/2-x,1/2-y,-z
1/2+x,1/2-y,1/2+z
loop_
_atom_site_type_symbol
_atom_site_label
_atom_site_fract_x
_atom_site_fract_y
_atom_site_fract_z
Si Si1 0.286898 0.227892 0.427176
Si Si2 0.073674 0.080196 0.895292
Si Si3 0.361612 0.441627 0.527963
Si Si4 0.451206 0.138013 0.937658
Si Si5 0.160923 0.147364 0.646565
Si Si6 0.581029 0.106084 0.388638
Si Si7 0.500000 0.653735 0.250000
Si Si8 0.451594 0.963531 0.122951
O O1 0.250000 0.250000 0.500000
O O2 0.419712 0.178415 0.522365
O O3 0.348385 0.286117 0.410376
O O4 0.133663 0.195495 0.295480
O O5 0.990171 0.132295 0.900421
O O6 0.000000 0.077782 0.750000
O O7 0.057892 0.010072 0.929838
O O8 0.242829 0.102980 0.005326
O O9 0.308857 0.412600 0.398942
O O10 0.463053 0.389705 0.641353
O O11 0.223494 0.454101 0.502289
O O12 0.289524 0.159219 0.802056
O O13 0.469104 0.066998 0.910467
O O14 0.462248 0.144517 0.051263
O O15 0.500000 0.138627 0.250000
O O16 0.506444 0.037295 0.350877
O O17 0.500000 0.933276 0.250000
#
# Coordination Sequence:
#
# PCOD8135548 Si02
#       8
#     8   8   8   8   8   8   4   8
#     4  12  26  44  66  97 136 174 216 282 334 408
#     4  11  23  45  69  97 140 179 226 284 340 402
#     4  11  22  39  66 101 134 174 217 279 344 403
#     4  12  23  42  70  95 132 181 227 269 343 408
#     4  12  25  43  67  99 131 183 232 272 337 412
#     4  10  24  44  67  99 136 176 225 284 334 398
#     4  12  22  40  64  98 140 170 214 272 344 400
#     4  10  19  38  66  99 137 170 210 271 340 407
#
# _framework density 20.974430999999999
#
# number of rings (size 3 to 8) (size 9 to 14) (size 15 to 20)
#    0.000    0.800    6.000    1.600    0.000    1.067 
#    2.400    1.333    0.000    0.000    0.000    0.000 
#    0.000    0.000    0.000    0.000    0.000    0.000 
#
# Total GULP energy -371931.489495 kJ/mol
# GULP energy per Si atom -12397.716317 kJ/mol
# Density = 2.092669 g / cm^3
# Si number density = 20.974431 Si / 1000 Ang^3
#
#
#
# Elastic Constant Matrix: (Units=GPa)
#
#
# Indices 1 2 3 4 5 6 
#
# 1 98.9687 43.3648 44.0066 0.0000 0.3879 0.0000
# 2 43.3648 83.5171 31.0515 0.0000 3.8110 0.0000
# 3 44.0066 31.0515 134.1082 0.0001 -5.7493 0.0000
# 4 0.0000 0.0000 0.0001 23.4415 0.0001 -0.9580
# 5 0.3879 3.8110 -5.7493 0.0001 40.8941 0.0000
# 6 0.0000 0.0000 0.0000 -0.9580 0.0000 41.1601
#
#
#
# Elastic Compliance Matrix: (Units=1/GPa)
#
#
# Indices 1 2 3 4 5 6 
#
# 1 0.014264 -0.006199 -0.003246 0.000000 -0.000014 0.000000
# 2 -0.006199 0.015908 -0.001721 0.000000 -0.001666 0.000000
# 3 -0.003246 -0.001721 0.008983 0.000000 0.001454 0.000000
# 4 0.000000 0.000000 0.000000 0.042700 0.000000 0.000994
# 5 -0.000014 -0.001666 0.001454 0.000000 0.024813 0.000000
# 6 0.000000 0.000000 0.000000 0.000994 0.000000 0.024319
#
#
# Mechanical properties :
#
#
# Convention : Reuss Voigt Hill
#
# Bulk Modulus (GPa) = 59.44035 61.49331 60.46683
# Shear Modulus (GPa) = 31.46161 34.31056 32.88608
#
# Velocity S-wave (km/s) = 3.87718 4.04892 3.96398
# Velocity P-wave (km/s) = 6.96020 7.15823 7.05991
#
# Compressibility (1/GPa) = 0.01682359
#
# Stress axis : x y z
#
# Youngs Moduli (GPa) = 70.10863 62.86184 111.32748
#
# Poissons Ratio (x) = 0.38966 0.36135
# Poissons Ratio (y) = 0.43458 0.19156
# Poissons Ratio (z) = 0.22756 0.10816
#
# Static dielectric constant tensor:
#      x y z
#    x 3.655710 0.000000 -0.083230 
#    y 0.000000 4.226510 0.000000 
#    z -0.083230 0.000000 3.987410 
# 
# 
# High freq. dielectric constant tensor:
#      x y z
#    x 1.814550 0.000000 0.005350 
#    y 0.000000 1.807240 0.000000 
#    z 0.005350 0.000000 1.834300 
# 
# From -- ./inp_files/156380.got.cif
#   From: 2010.06.25/outbox.cif.g09.slc.cpg/sg15_79_cif.got.tgz:156380.got - 2010.06.28 07:06:18.
