data_PCOD8135002
_publ_section_title
;
Structure prediction by ZEFSAII (Michael W. Deem and Ramdas Pophale) SiO2 
 PCOD8135002
Probable space group: C 2/C
;
_chemical_formula_sum "Si O2"
_cell_formula_units_Z 52
_cell_length_a 15.310050
_cell_length_b 19.070790
_cell_length_c 15.200680
_cell_angle_alpha 90.000000
_cell_angle_beta 36.034031
_cell_angle_gamma 90.000000
_cell_volume 2610.849340
_symmetry_space_group_name_H-M "C 2/C"
_symmetry_group_IT_number 15
_symmetry_cell_setting 'monoclinic'
loop_
_space_group_symop_operation_xyz
x,y,z
-x,y,1/2-z
-x,-y,-z
x,-y,1/2+z
1/2+x,1/2+y,z
1/2-x,1/2+y,1/2-z
1/2-x,1/2-y,-z
1/2+x,1/2-y,1/2+z
loop_
_atom_site_type_symbol
_atom_site_label
_atom_site_fract_x
_atom_site_fract_y
_atom_site_fract_z
Si Si1 0.956553 0.788883 0.097753
Si Si2 0.334432 0.820792 0.412447
Si Si3 0.262751 0.893058 0.295386
Si Si4 0.422680 0.846402 0.523756
Si Si5 0.903082 0.531715 0.156055
Si Si6 0.284511 0.209872 0.384263
Si Si7 0.000000 0.410837 0.750000
O O1 0.880812 0.863679 0.138660
O O2 0.903334 0.755701 0.233172
O O3 0.908847 0.735317 0.059258
O O4 0.132669 0.801494 0.954003
O O5 0.500000 0.799815 0.250000
O O6 0.250000 0.750000 0.500000
O O7 0.257970 0.869012 0.401104
O O8 0.337827 0.863458 0.501950
O O9 0.403687 0.862967 0.128291
O O10 0.267428 0.978334 0.288178
O O11 0.349689 0.892166 0.663038
O O12 0.007524 0.540225 0.157261
O O13 0.000000 0.500000 0.000000
O O14 0.250000 0.250000 0.500000
O O15 0.352118 0.135265 0.357873
#
# Coordination Sequence:
#
# PCOD8135002 Si02
#       7
#     8   8   8   8   8   8   4
#     4  12  21  38  64  96 129 160 209 271 322 371
#     4  10  20  34  58  91 122 158 205 260 312 370
#     4  10  22  37  60  94 127 165 216 258 313 381
#     4  10  19  37  59  89 127 167 211 257 314 373
#     4  10  23  39  61  90 125 169 217 258 308 382
#     4  12  23  39  63  96 127 159 211 264 322 375
#     4  12  24  42  66  94 124 170 218 264 316 384
#
# _framework density 19.916889999999999
#
# number of rings (size 3 to 8) (size 9 to 14) (size 15 to 20)
#    0.000    1.231    6.154    0.000    7.538    0.000 
#    0.000    0.769    0.000    0.000    4.000    0.000 
#    0.000    0.000    0.000    0.000    0.000    0.000 
#
# Total GULP energy -322325.815691 kJ/mol
# GULP energy per Si atom -12397.146757 kJ/mol
# Density = 1.987156 g / cm^3
# Si number density = 19.916890 Si / 1000 Ang^3
#
#
#
# Elastic Constant Matrix: (Units=GPa)
#
#
# Indices 1 2 3 4 5 6 
#
# 1 101.9322 54.9897 37.5216 0.0000 14.4928 0.0002
# 2 54.9897 108.2547 25.1613 0.0006 -0.7292 0.0003
# 3 37.5216 25.1613 59.9790 0.0005 9.3470 0.0006
# 4 0.0000 0.0006 0.0005 37.1414 0.0013 1.4510
# 5 14.4928 -0.7292 9.3470 0.0013 39.3678 -0.0010
# 6 0.0002 0.0003 0.0006 1.4510 -0.0010 39.2502
#
#
#
# Elastic Compliance Matrix: (Units=1/GPa)
#
#
# Indices 1 2 3 4 5 6 
#
# 1 0.016734 -0.006945 -0.006828 0.000000 -0.004668 0.000000
# 2 -0.006945 0.013178 -0.001682 0.000000 0.003200 0.000000
# 3 -0.006828 -0.001682 0.022080 0.000000 -0.002760 0.000000
# 4 0.000000 0.000000 0.000000 0.026963 -0.000001 -0.000997
# 5 -0.004668 0.003200 -0.002760 -0.000001 0.027835 0.000001
# 6 0.000000 0.000000 0.000000 -0.000997 0.000001 0.025514
#
#
# Mechanical properties :
#
#
# Convention : Reuss Voigt Hill
#
# Bulk Modulus (GPa) = 47.43409 56.16789 51.80099
# Shear Modulus (GPa) = 29.37031 33.31810 31.34421
#
# Velocity S-wave (km/s) = 3.84427 4.09449 3.97136
# Velocity P-wave (km/s) = 6.60093 7.11446 6.86250
#
# Compressibility (1/GPa) = 0.02108188
#
# Stress axis : x y z
#
# Youngs Moduli (GPa) = 59.75874 75.88533 45.29083
#
# Poissons Ratio (x) = 0.52701 0.30923
# Poissons Ratio (y) = 0.41501 0.07619
# Poissons Ratio (z) = 0.40801 0.12766
#
# Static dielectric constant tensor:
#      x y z
#    x 3.770780 0.000000 0.145440 
#    y 0.000000 4.139120 0.000010 
#    z 0.145440 0.000010 3.548860 
# 
# 
# High freq. dielectric constant tensor:
#      x y z
#    x 1.782780 0.000000 0.027430 
#    y 0.000000 1.770920 0.000000 
#    z 0.027430 0.000000 1.761270 
# 
# From -- ./inp_files/155421.got.cif
#   From: 2010.06.25/outbox.cif.g09.slc.cpg/sg15_78_cif.got.tgz:155421.got - 2010.06.28 07:06:18.
