data_PCOD8135008
_publ_section_title
;
Structure prediction by ZEFSAII (Michael W. Deem and Ramdas Pophale) SiO2 
 PCOD8135008
Probable space group: C 2/C
;
_chemical_formula_sum "Si O2"
_cell_formula_units_Z 60
_cell_length_a 28.555838
_cell_length_b 20.323364
_cell_length_c 14.703199
_cell_angle_alpha 90.000000
_cell_angle_beta 20.851346
_cell_angle_gamma 90.000000
_cell_volume 3037.279175
_symmetry_space_group_name_H-M "C 2/C"
_symmetry_group_IT_number 15
_symmetry_cell_setting 'monoclinic'
loop_
_space_group_symop_operation_xyz
x,y,z
-x,y,1/2-z
-x,-y,-z
x,-y,1/2+z
1/2+x,1/2+y,z
1/2-x,1/2+y,1/2-z
1/2-x,1/2-y,-z
1/2+x,1/2-y,1/2+z
loop_
_atom_site_type_symbol
_atom_site_label
_atom_site_fract_x
_atom_site_fract_y
_atom_site_fract_z
Si Si1 0.000000 0.459722 0.750000
Si Si2 0.466470 0.173672 0.707469
Si Si3 0.051008 0.459166 0.990089
Si Si4 0.053091 0.047086 0.553599
Si Si5 0.310352 0.629118 0.338718
Si Si6 0.301459 0.526351 0.491106
Si Si7 0.214500 0.922761 0.292650
Si Si8 0.515136 0.680543 0.114475
O O1 0.978080 0.508798 0.707062
O O2 0.128542 0.413518 0.505062
O O3 0.500000 0.154331 0.750000
O O4 0.526855 0.118867 0.530630
O O5 0.535590 0.242278 0.555089
O O6 0.307505 0.176577 0.981070
O O7 0.207594 0.471027 0.705206
O O8 0.000000 0.500000 0.000000
O O9 0.099018 0.110815 0.412869
O O10 0.000000 0.068362 0.750000
O O11 0.174266 0.996211 0.335011
O O12 0.935213 0.008798 0.717096
O O13 0.245929 0.563320 0.501765
O O14 0.396587 0.659618 0.263487
O O15 0.326573 0.581118 0.525418
O O16 0.142584 0.865639 0.364035
O O17 0.500000 0.674770 0.250000
#
# Coordination Sequence:
#
# PCOD8135008 Si02
#       8
#     4   8   8   8   8   8   8   8
#     4  10  22  34  58  98 122 158 198 260 316 366
#     4  11  25  40  60  92 127 167 205 256 310 365
#     4  11  21  36  59  91 124 153 203 257 315 363
#     4  10  21  34  58  95 129 158 204 262 313 368
#     4  12  21  38  63  95 120 164 210 258 314 358
#     4  10  20  33  59  92 123 157 199 261 308 365
#     4  10  19  37  59  90 131 157 203 252 312 364
#     4  11  22  40  64  91 124 163 211 257 296 375
#
# _framework density 19.754522000000001
#
# number of rings (size 3 to 8) (size 9 to 14) (size 15 to 20)
#    0.000    1.333    4.667    2.000    3.733    0.000 
#    0.000    0.000    0.000    6.400    1.733    0.000 
#    0.000    0.000    0.000    0.000    0.000    0.000 
#
# Total GULP energy -371724.408990 kJ/mol
# GULP energy per Si atom -12390.813633 kJ/mol
# Density = 1.970956 g / cm^3
# Si number density = 19.754522 Si / 1000 Ang^3
#
#
#
# Elastic Constant Matrix: (Units=GPa)
#
#
# Indices 1 2 3 4 5 6 
#
# 1 111.1813 47.9427 32.7431 -0.0010 -8.2241 0.0006
# 2 47.9427 113.3325 45.6158 -0.0003 -1.5823 0.0005
# 3 32.7431 45.6158 76.5225 -0.0004 -11.2560 0.0006
# 4 -0.0010 -0.0003 -0.0004 17.3659 0.0006 -0.6653
# 5 -8.2241 -1.5823 -11.2560 0.0006 35.4922 -0.0006
# 6 0.0006 0.0005 0.0006 -0.6653 -0.0006 23.9821
#
#
#
# Elastic Compliance Matrix: (Units=1/GPa)
#
#
# Indices 1 2 3 4 5 6 
#
# 1 0.011492 -0.003896 -0.002338 0.000000 0.001748 0.000000
# 2 -0.003896 0.013036 -0.006452 0.000000 -0.002368 0.000000
# 3 -0.002338 -0.006452 0.018663 0.000000 0.005089 0.000000
# 4 0.000000 0.000000 0.000000 0.057645 -0.000001 0.001599
# 5 0.001748 -0.002368 0.005089 -0.000001 0.030089 0.000001
# 6 0.000000 0.000000 0.000000 0.001599 0.000001 0.041742
#
#
# Mechanical properties :
#
#
# Convention : Reuss Voigt Hill
#
# Bulk Modulus (GPa) = 56.11897 61.51552 58.81725
# Shear Modulus (GPa) = 24.51248 27.01702 25.76475
#
# Velocity S-wave (km/s) = 3.52640 3.70217 3.61535
# Velocity P-wave (km/s) = 6.71196 7.03437 6.87506
#
# Compressibility (1/GPa) = 0.01781929
#
# Stress axis : x y z
#
# Youngs Moduli (GPa) = 87.01601 76.71346 53.58213
#
# Poissons Ratio (x) = 0.29889 0.12526
# Poissons Ratio (y) = 0.33903 0.34570
# Poissons Ratio (z) = 0.20342 0.49494
#
# Static dielectric constant tensor:
#      x y z
#    x 3.856630 0.000000 -0.358390 
#    y 0.000000 3.769380 -0.000020 
#    z -0.358390 -0.000020 4.054480 
# 
# 
# High freq. dielectric constant tensor:
#      x y z
#    x 1.789230 0.000000 -0.015930 
#    y 0.000000 1.738880 0.000000 
#    z -0.015930 0.000000 1.757710 
# 
# From -- ./inp_files/183053.got.cif
#   From: 2010.06.25/outbox.cif.g09.slc.cpg/sg15_92_cif.got.tgz:183053.got - 2010.06.28 07:06:18.
