data_PCOD8135119
_publ_section_title
;
Structure prediction by ZEFSAII (Michael W. Deem and Ramdas Pophale) SiO2 
 PCOD8135119
Probable space group: C 2/C
;
_chemical_formula_sum "Si O2"
_cell_formula_units_Z 56
_cell_length_a 19.004698
_cell_length_b 12.067645
_cell_length_c 22.989342
_cell_angle_alpha 90.000000
_cell_angle_beta 147.092856
_cell_angle_gamma 90.000000
_cell_volume 2864.396045
_symmetry_space_group_name_H-M "C 2/C"
_symmetry_group_IT_number 15
_symmetry_cell_setting 'monoclinic'
loop_
_space_group_symop_operation_xyz
x,y,z
-x,y,1/2-z
-x,-y,-z
x,-y,1/2+z
1/2+x,1/2+y,z
1/2-x,1/2+y,1/2-z
1/2-x,1/2-y,-z
1/2+x,1/2-y,1/2+z
loop_
_atom_site_type_symbol
_atom_site_label
_atom_site_fract_x
_atom_site_fract_y
_atom_site_fract_z
Si Si1 0.963173 0.929271 0.600938
Si Si2 0.323607 0.094367 0.778348
Si Si3 0.893931 0.636510 0.290481
Si Si4 0.305769 0.144896 0.630204
Si Si5 0.500000 0.963412 0.750000
Si Si6 0.036855 0.853110 0.102223
Si Si7 0.892297 0.803265 0.888519
Si Si8 0.000000 0.836516 0.750000
O O1 0.840007 0.857020 0.494700
O O2 0.087983 0.883467 0.652897
O O3 0.991723 0.916941 0.688846
O O4 0.944338 0.059332 0.571637
O O5 0.316460 0.131990 0.706682
O O6 0.180055 0.096277 0.704890
O O7 0.409291 0.177697 0.876921
O O8 0.390469 0.973806 0.828255
O O9 0.963922 0.615448 0.278222
O O10 0.976339 0.732384 0.378269
O O11 0.747008 0.676848 0.178800
O O12 0.370858 0.261651 0.659189
O O13 0.380054 0.043424 0.650127
O O14 0.000022 0.836692 0.009746
#
# Coordination Sequence:
#
# PCOD8135119 Si02
#       8
#     8   8   8   8   4   8   8   4
#     4  12  22  39  63  91 124 155 203 250 306 361
#     4  10  19  37  62  89 117 154 202 254 295 350
#     4  10  22  39  60  87 122 162 203 244 303 357
#     4  10  20  38  63  89 117 158 202 245 307 351
#     4   9  20  39  60  82 124 167 199 236 294 380
#     4  11  22  37  61  91 119 160 201 248 300 358
#     4  11  21  37  65  89 117 157 207 254 302 352
#     4  11  24  39  58  96 126 157 195 256 308 350
#
# _framework density 19.550369
#
# number of rings (size 3 to 8) (size 9 to 14) (size 15 to 20)
#    0.000    1.429    4.286    2.571    0.000    1.143 
#    0.000    5.714    0.000    0.000    0.000    0.000 
#    0.000    0.000    0.000    0.000    0.000    0.000 
#
# Total GULP energy -347183.708625 kJ/mol
# GULP energy per Si atom -12399.418165 kJ/mol
# Density = 1.950587 g / cm^3
# Si number density = 19.550369 Si / 1000 Ang^3
#
#
#
# Elastic Constant Matrix: (Units=GPa)
#
#
# Indices 1 2 3 4 5 6 
#
# 1 107.9664 53.4171 34.4952 0.0000 -15.4290 0.0000
# 2 53.4171 149.2999 41.8320 -0.0002 -19.5631 0.0000
# 3 34.4952 41.8320 71.0837 -0.0002 -15.0139 0.0000
# 4 0.0000 -0.0002 -0.0002 20.0000 -0.0001 -0.3742
# 5 -15.4290 -19.5631 -15.0139 -0.0001 28.8474 0.0000
# 6 0.0000 0.0000 0.0000 -0.3742 0.0000 28.2005
#
#
#
# Elastic Compliance Matrix: (Units=1/GPa)
#
#
# Indices 1 2 3 4 5 6 
#
# 1 0.012300 -0.003041 -0.003624 0.000000 0.002631 0.000000
# 2 -0.003041 0.009071 -0.003266 0.000000 0.002826 0.000000
# 3 -0.003624 -0.003266 0.018955 0.000000 0.005712 0.000000
# 4 0.000000 0.000000 0.000000 0.050012 0.000000 0.000664
# 5 0.002631 0.002826 0.005712 0.000000 0.040961 0.000000
# 6 0.000000 0.000000 0.000000 0.000664 0.000000 0.035469
#
#
# Mechanical properties :
#
#
# Convention : Reuss Voigt Hill
#
# Bulk Modulus (GPa) = 48.86335 65.31540 57.08938
# Shear Modulus (GPa) = 25.84614 28.64996 27.24805
#
# Velocity S-wave (km/s) = 3.63992 3.83226 3.73733
# Velocity P-wave (km/s) = 6.53553 7.28443 6.92012
#
# Compressibility (1/GPa) = 0.02046524
#
# Stress axis : x y z
#
# Youngs Moduli (GPa) = 81.29834 110.23930 52.75658
#
# Poissons Ratio (x) = 0.33521 0.19119
# Poissons Ratio (y) = 0.24721 0.17230
# Poissons Ratio (z) = 0.29462 0.36003
#
# Static dielectric constant tensor:
#      x y z
#    x 3.646450 0.000000 0.111440 
#    y 0.000000 3.724360 0.000000 
#    z 0.111440 0.000000 3.269680 
# 
# 
# High freq. dielectric constant tensor:
#      x y z
#    x 1.765650 0.000000 0.006340 
#    y 0.000000 1.766180 0.000000 
#    z 0.006340 0.000000 1.736670 
# 
# From -- ./inp_files/111108.got.cif
#   From: 2010.06.25/outbox.cif.g09.slc.cpg/sg15_56_cif.got.tgz:111108.got - 2010.06.28 07:06:18.
