data_PCOD8135900
_publ_section_title
;
Structure prediction by ZEFSAII (Michael W. Deem and Ramdas Pophale) SiO2 
 PCOD8135900
Probable space group: C 2/C
;
_chemical_formula_sum "Si O2"
_cell_formula_units_Z 48
_cell_length_a 10.657639
_cell_length_b 16.535108
_cell_length_c 18.225036
_cell_angle_alpha 90.000000
_cell_angle_beta 136.670942
_cell_angle_gamma 90.000000
_cell_volume 2203.835377
_symmetry_space_group_name_H-M "C 2/C"
_symmetry_group_IT_number 15
_symmetry_cell_setting 'monoclinic'
loop_
_space_group_symop_operation_xyz
x,y,z
-x,y,1/2-z
-x,-y,-z
x,-y,1/2+z
1/2+x,1/2+y,z
1/2-x,1/2+y,1/2-z
1/2-x,1/2-y,-z
1/2+x,1/2-y,1/2+z
loop_
_atom_site_type_symbol
_atom_site_label
_atom_site_fract_x
_atom_site_fract_y
_atom_site_fract_z
Si Si1 0.976126 0.683942 0.031048
Si Si2 0.093935 0.837002 0.421113
Si Si3 0.000000 0.280485 0.750000
Si Si4 0.056437 0.291108 0.404072
Si Si5 0.783162 0.150228 0.272158
Si Si6 0.118754 0.987802 0.123397
Si Si7 0.500000 0.087500 0.750000
O O1 0.156349 0.648106 0.146015
O O2 0.949274 0.782163 0.025438
O O3 0.983922 0.666072 0.947745
O O4 0.806274 0.639226 0.999968
O O5 0.043425 0.776182 0.335637
O O6 0.968665 0.915517 0.366702
O O7 0.169182 0.336847 0.798921
O O8 0.250000 0.250000 0.500000
O O9 0.066439 0.359338 0.346724
O O10 0.921014 0.223052 0.316958
O O11 0.892057 0.066573 0.329393
O O12 0.329897 0.969437 0.197178
O O13 0.000000 0.000000 0.000000
#
# Coordination Sequence:
#
# PCOD8135900 Si02
#       7
#     8   8   4   8   8   8   4
#     4  10  22  40  72  99 130 180 234 282 326 411
#     4  10  21  40  68 104 132 172 233 284 334 399
#     4  10  19  40  73  96 126 174 238 280 315 406
#     4  12  23  45  72 101 136 182 232 280 336 423
#     4  11  23  41  68 102 132 176 226 279 348 398
#     4  12  27  43  66 102 142 182 222 291 355 414
#     4  12  27  46  71  98 142 184 234 276 355 422
#
# _framework density 21.780211000000001
#
# number of rings (size 3 to 8) (size 9 to 14) (size 15 to 20)
#    0.000    1.000    1.667    6.500    7.000    0.000 
#    0.000    5.000    0.000    0.000    0.000    0.000 
#    0.000    0.000    0.000    0.000    0.000    0.000 
#
# Total GULP energy -297630.057965 kJ/mol
# GULP energy per Si atom -12401.252415 kJ/mol
# Density = 2.173064 g / cm^3
# Si number density = 21.780211 Si / 1000 Ang^3
#
#
#
# Elastic Constant Matrix: (Units=GPa)
#
#
# Indices 1 2 3 4 5 6 
#
# 1 57.4788 7.1504 17.0148 0.0000 -4.2686 0.0000
# 2 7.1504 81.3323 17.6812 0.0000 -2.5793 0.0000
# 3 17.0148 17.6812 110.9834 0.0000 6.5182 0.0000
# 4 0.0000 0.0000 0.0000 70.8980 0.0000 -50.9303
# 5 -4.2686 -2.5793 6.5182 0.0000 46.8085 0.0000
# 6 0.0000 0.0000 0.0000 -50.9303 0.0000 133.4623
#
#
#
# Elastic Compliance Matrix: (Units=1/GPa)
#
#
# Indices 1 2 3 4 5 6 
#
# 1 0.018496 -0.000953 -0.002803 0.000000 0.002025 0.000000
# 2 -0.000953 0.012831 -0.001951 0.000000 0.000892 0.000000
# 3 -0.002803 -0.001951 0.009853 0.000000 -0.001735 0.000000
# 4 0.000000 0.000000 0.000000 0.019432 0.000000 0.007415
# 5 0.002025 0.000892 -0.001735 0.000000 0.021839 0.000000
# 6 0.000000 0.000000 0.000000 0.007415 0.000000 0.010322
#
#
# Mechanical properties :
#
#
# Convention : Reuss Voigt Hill
#
# Bulk Modulus (GPa) = 33.59267 37.05413 35.32340
# Shear Modulus (GPa) = 43.81815 64.09697 53.95756
#
# Velocity S-wave (km/s) = 4.49021 5.43073 4.98271
# Velocity P-wave (km/s) = 6.50689 7.50823 7.02542
#
# Compressibility (1/GPa) = 0.02976840
#
# Stress axis : x y z
#
# Youngs Moduli (GPa) = 54.06506 77.93437 101.49502
#
# Poissons Ratio (x) = 0.07424 0.28447
# Poissons Ratio (y) = 0.05150 0.19797
# Poissons Ratio (z) = 0.15153 0.15201
#
# Static dielectric constant tensor:
#      x y z
#    x 4.550350 0.000000 0.103040 
#    y 0.000000 3.851660 0.000000 
#    z 0.103040 0.000000 3.779380 
# 
# 
# High freq. dielectric constant tensor:
#      x y z
#    x 1.857100 0.000000 0.007610 
#    y 0.000000 1.836280 0.000000 
#    z 0.007610 0.000000 1.877620 
# 
# From -- ./inp_files/144428.got.cif
#   From: 2010.06.25/outbox.cif.g09.slc.cpg/sg15_73_cif.got.tgz:144428.got - 2010.06.28 07:06:18.
