data_PCOD8135241
_publ_section_title
;
Structure prediction by ZEFSAII (Michael W. Deem and Ramdas Pophale) SiO2 
 PCOD8135241
Probable space group: C 2/C
;
_chemical_formula_sum "Si O2"
_cell_formula_units_Z 60
_cell_length_a 23.548932
_cell_length_b 7.929777
_cell_length_c 22.287867
_cell_angle_alpha 90.000000
_cell_angle_beta 142.483559
_cell_angle_gamma 90.000000
_cell_volume 2534.604408
_symmetry_space_group_name_H-M "C 2/C"
_symmetry_group_IT_number 15
_symmetry_cell_setting 'monoclinic'
loop_
_space_group_symop_operation_xyz
x,y,z
-x,y,1/2-z
-x,-y,-z
x,-y,1/2+z
1/2+x,1/2+y,z
1/2-x,1/2+y,1/2-z
1/2-x,1/2-y,-z
1/2+x,1/2-y,1/2+z
loop_
_atom_site_type_symbol
_atom_site_label
_atom_site_fract_x
_atom_site_fract_y
_atom_site_fract_z
Si Si1 0.120066 0.415678 0.766163
Si Si2 0.847137 0.384590 0.041209
Si Si3 0.555554 0.238456 0.410908
Si Si4 0.474268 0.694240 0.478703
Si Si5 0.818664 0.610435 0.794418
Si Si6 0.724906 0.409363 0.516980
Si Si7 0.500000 0.142612 0.750000
Si Si8 0.168396 0.324275 0.606324
O O1 0.126147 0.490525 0.704909
O O2 0.050662 0.253311 0.703594
O O3 0.077286 0.539417 0.779014
O O4 0.223446 0.375525 0.876100
O O5 0.897167 0.564477 0.071288
O O6 0.928729 0.266956 0.142072
O O7 0.756013 0.418201 0.008364
O O8 0.811031 0.307780 0.948063
O O9 0.553000 0.237556 0.479698
O O10 0.613634 0.402118 0.436405
O O11 0.500000 0.500000 0.500000
O O12 0.383774 0.727563 0.361589
O O13 0.558684 0.804564 0.523699
O O14 0.798673 0.503591 0.838429
O O15 0.722302 0.673066 0.684754
O O16 0.750000 0.250000 0.500000
#
# Coordination Sequence:
#
# PCOD8135241 Si02
#       8
#     8   8   8   8   8   8   4   8
#     4  10  20  38  66  94 126 175 224 276 332 405
#     4   9  18  38  64  97 129 174 225 279 333 404
#     4  10  19  37  66  94 130 172 216 276 335 396
#     4  12  25  42  65 101 138 177 228 279 340 416
#     4  12  26  44  68 102 135 183 226 279 353 415
#     4   9  20  35  64 100 128 170 231 276 331 411
#     4   8  16  34  64  94 116 170 228 262 328 406
#     4  12  25  43  70 100 142 184 228 285 349 417
#
# _framework density 23.672332000000001
#
# number of rings (size 3 to 8) (size 9 to 14) (size 15 to 20)
#    0.000    1.600    2.667    3.600    3.733    0.000 
#    4.800    2.667    2.933    0.000    0.000    0.000 
#    0.000    0.000    0.000    0.000    0.000    0.000 
#
# Total GULP energy -371702.516748 kJ/mol
# GULP energy per Si atom -12390.083892 kJ/mol
# Density = 2.361845 g / cm^3
# Si number density = 23.672332 Si / 1000 Ang^3
#
#
#
# Elastic Constant Matrix: (Units=GPa)
#
#
# Indices 1 2 3 4 5 6 
#
# 1 98.9183 -2.8222 39.3375 0.0000 -4.9379 0.0000
# 2 -2.8222 39.3161 36.3289 -0.0001 1.8878 -0.0002
# 3 39.3375 36.3289 137.0966 0.0000 -19.2343 -0.0001
# 4 0.0000 -0.0001 0.0000 39.5318 0.0000 -3.7127
# 5 -4.9379 1.8878 -19.2343 0.0000 37.1585 0.0000
# 6 0.0000 -0.0002 -0.0001 -3.7127 0.0000 22.4018
#
#
#
# Elastic Compliance Matrix: (Units=1/GPa)
#
#
# Indices 1 2 3 4 5 6 
#
# 1 0.012299 0.005813 -0.005264 0.000000 -0.001386 0.000000
# 2 0.005813 0.038116 -0.012866 0.000000 -0.007824 0.000000
# 3 -0.005264 -0.012866 0.013163 0.000000 0.006768 0.000000
# 4 0.000000 0.000000 0.000000 0.025696 0.000000 0.004259
# 5 -0.001386 -0.007824 0.006768 0.000000 0.030628 0.000000
# 6 0.000000 0.000000 0.000000 0.004259 0.000000 0.045345
#
#
# Mechanical properties :
#
#
# Convention : Reuss Voigt Hill
#
# Bulk Modulus (GPa) = 25.67662 46.77992 36.22827
# Shear Modulus (GPa) = 24.64710 33.31756 28.98233
#
# Velocity S-wave (km/s) = 3.23023 3.75567 3.50281
# Velocity P-wave (km/s) = 4.97823 6.21378 5.63000
#
# Compressibility (1/GPa) = 0.03894594
#
# Stress axis : x y z
#
# Youngs Moduli (GPa) = 81.30467 26.23548 75.96824
#
# Poissons Ratio (x) = -0.15252 0.39990
# Poissons Ratio (y) = -0.47266 0.97741
# Poissons Ratio (z) = 0.42799 0.33755
#
# Static dielectric constant tensor:
#      x y z
#    x 4.704180 0.000000 0.097480 
#    y 0.000000 4.113420 0.000000 
#    z 0.097480 0.000000 4.537920 
# 
# 
# High freq. dielectric constant tensor:
#      x y z
#    x 1.950660 0.000000 -0.004550 
#    y 0.000000 1.892220 0.000000 
#    z -0.004550 0.000000 1.957660 
# 
# From -- ./inp_files/283396.got.cif
#   From: 2010.06.25/outbox.cif.g09.slc.cpg/sg15_142_cif.got.tgz:283396.got - 2010.06.28 07:06:18.
