data_PCOD8135277
_publ_section_title
;
Structure prediction by ZEFSAII (Michael W. Deem and Ramdas Pophale) SiO2 
 PCOD8135277
Probable space group: C 2/C
;
_chemical_formula_sum "Si O2"
_cell_formula_units_Z 52
_cell_length_a 5.388195
_cell_length_b 26.634451
_cell_length_c 20.131128
_cell_angle_alpha 90.000000
_cell_angle_beta 117.710436
_cell_angle_gamma 90.000000
_cell_volume 2557.702428
_symmetry_space_group_name_H-M "C 2/C"
_symmetry_group_IT_number 15
_symmetry_cell_setting 'monoclinic'
loop_
_space_group_symop_operation_xyz
x,y,z
-x,y,1/2-z
-x,-y,-z
x,-y,1/2+z
1/2+x,1/2+y,z
1/2-x,1/2+y,1/2-z
1/2-x,1/2-y,-z
1/2+x,1/2-y,1/2+z
loop_
_atom_site_type_symbol
_atom_site_label
_atom_site_fract_x
_atom_site_fract_y
_atom_site_fract_z
Si Si1 0.504468 0.501611 0.893199
Si Si2 0.331653 0.232162 0.406085
Si Si3 0.000000 0.531346 0.750000
Si Si4 0.000000 0.845051 0.250000
Si Si5 0.564300 0.688328 0.033631
Si Si6 0.881596 0.080497 0.992848
Si Si7 0.176130 0.421047 0.140831
Si Si8 0.000000 0.282094 0.250000
O O1 0.227684 0.495178 0.813473
O O2 0.472375 0.542891 0.946515
O O3 0.743009 0.523778 0.875586
O O4 0.600083 0.448255 0.934186
O O5 0.420516 0.282719 0.454947
O O6 0.611761 0.203349 0.417804
O O7 0.123787 0.197997 0.424415
O O8 0.166672 0.246236 0.319882
O O9 0.109950 0.570511 0.709649
O O10 0.917456 0.878524 0.174218
O O11 0.726414 0.813732 0.236296
O O12 0.576503 0.629097 0.019625
O O13 0.569178 0.099533 0.937123
#
# Coordination Sequence:
#
# PCOD8135277 Si02
#       8
#     8   8   4   4   8   8   8   4
#     4  10  21  38  58  90 129 167 206 271 305 379
#     4  10  23  42  65  90 127 160 207 270 319 373
#     4  10  19  38  54  83 128 172 207 258 321 362
#     4  12  24  34  66  98 128 165 207 260 342 382
#     4  10  22  42  65  91 123 169 209 257 318 381
#     4  10  23  37  61  91 123 167 224 251 316 377
#     4  11  21  35  59  89 132 163 207 268 314 381
#     4  12  25  42  64 101 126 161 210 274 333 386
#
# _framework density 20.330746999999999
#
# number of rings (size 3 to 8) (size 9 to 14) (size 15 to 20)
#    0.000    1.538    1.538    2.769    6.462    1.231 
#    0.000    1.538    0.000    0.000    0.000    0.000 
#    0.000    0.000    0.000    0.000    0.000    0.000 
#
# Total GULP energy -322313.652766 kJ/mol
# GULP energy per Si atom -12396.678953 kJ/mol
# Density = 2.028447 g / cm^3
# Si number density = 20.330747 Si / 1000 Ang^3
#
#
#
# Elastic Constant Matrix: (Units=GPa)
#
#
# Indices 1 2 3 4 5 6 
#
# 1 117.5585 36.2036 45.6034 0.0000 15.7495 0.0000
# 2 36.2036 106.4285 61.0436 0.0000 17.2481 0.0000
# 3 45.6034 61.0436 150.8804 0.0000 24.2234 0.0000
# 4 0.0000 0.0000 0.0000 14.4700 0.0000 -1.4765
# 5 15.7495 17.2481 24.2234 0.0000 29.4901 0.0000
# 6 0.0000 0.0000 0.0000 -1.4765 0.0000 23.9120
#
#
#
# Elastic Compliance Matrix: (Units=1/GPa)
#
#
# Indices 1 2 3 4 5 6 
#
# 1 0.010198 -0.001961 -0.001841 0.000000 -0.002787 0.000000
# 2 -0.001961 0.012946 -0.004144 0.000000 -0.003120 0.000000
# 3 -0.001841 -0.004144 0.009577 0.000000 -0.004459 0.000000
# 4 0.000000 0.000000 0.000000 0.069547 0.000000 0.004294
# 5 -0.002787 -0.003120 -0.004459 0.000000 0.040886 0.000000
# 6 0.000000 0.000000 0.000000 0.004294 0.000000 0.042085
#
#
# Mechanical properties :
#
#
# Convention : Reuss Voigt Hill
#
# Bulk Modulus (GPa) = 59.42680 73.39650 66.41165
# Shear Modulus (GPa) = 24.18490 29.04222 26.61356
#
# Velocity S-wave (km/s) = 3.45276 3.78363 3.62198
# Velocity P-wave (km/s) = 6.72227 7.43421 7.08718
#
# Compressibility (1/GPa) = 0.01682742
#
# Stress axis : x y z
#
# Youngs Moduli (GPa) = 98.05774 77.24656 104.41910
#
# Poissons Ratio (x) = 0.15150 0.19229
# Poissons Ratio (y) = 0.19231 0.43269
# Poissons Ratio (z) = 0.18057 0.32009
#
# Static dielectric constant tensor:
#      x y z
#    x 3.833240 0.000000 0.085710 
#    y 0.000000 3.495580 0.000000 
#    z 0.085710 0.000000 3.878940 
# 
# 
# High freq. dielectric constant tensor:
#      x y z
#    x 1.803090 0.000000 0.008830 
#    y 0.000000 1.771010 0.000000 
#    z 0.008830 0.000000 1.802170 
# 
# From -- ./inp_files/185852.got.cif
#   From: 2010.06.25/outbox.cif.g09.slc.cpg/sg15_93_cif.got.tgz:185852.got - 2010.06.28 07:06:18.
