data_PCOD8135522
_publ_section_title
;
Structure prediction by ZEFSAII (Michael W. Deem and Ramdas Pophale) SiO2 
 PCOD8135522
Probable space group: C 2/C
;
_chemical_formula_sum "Si O2"
_cell_formula_units_Z 40
_cell_length_a 7.711351
_cell_length_b 14.001983
_cell_length_c 21.332509
_cell_angle_alpha 90.000000
_cell_angle_beta 134.148409
_cell_angle_gamma 90.000000
_cell_volume 1652.748994
_symmetry_space_group_name_H-M "C 2/C"
_symmetry_group_IT_number 15
_symmetry_cell_setting 'monoclinic'
loop_
_space_group_symop_operation_xyz
x,y,z
-x,y,1/2-z
-x,-y,-z
x,-y,1/2+z
1/2+x,1/2+y,z
1/2-x,1/2+y,1/2-z
1/2-x,1/2-y,-z
1/2+x,1/2-y,1/2+z
loop_
_atom_site_type_symbol
_atom_site_label
_atom_site_fract_x
_atom_site_fract_y
_atom_site_fract_z
Si Si1 0.277472 0.465585 0.799840
Si Si2 0.636738 0.149701 0.153726
Si Si3 0.430574 0.785033 0.992772
Si Si4 0.448117 0.345598 0.163629
Si Si5 0.136559 0.906078 0.549394
O O1 0.319928 0.409027 0.744526
O O2 0.432565 0.562607 0.839465
O O3 0.375234 0.393338 0.878000
O O4 0.000000 0.489449 0.750000
O O5 0.574376 0.250220 0.170119
O O6 0.405910 0.080565 0.092366
O O7 0.714937 0.162033 0.100485
O O8 0.657901 0.845552 0.077235
O O9 0.532107 0.686804 0.988101
O O10 0.250000 0.750000 0.000000
O O11 0.500000 0.352077 0.250000
O O12 0.000000 0.000000 0.500000
#
# Coordination Sequence:
#
# PCOD8135522 Si02
#       5
#     8   8   8   8   8
#     4  10  22  40  66  97 129 174 224 281 347 405
#     4  10  21  41  64  91 128 171 219 275 336 403
#     4  11  24  41  65  95 130 176 225 279 339 401
#     4  11  23  42  65  96 135 175 222 279 337 409
#     4  10  19  38  65  93 126 168 215 266 333 408
#
# _framework density 24.202100000000002
#
# number of rings (size 3 to 8) (size 9 to 14) (size 15 to 20)
#    0.000    1.600    0.000    7.800    0.000    6.400 
#    0.000    6.000    0.000    0.000    0.000    0.000 
#    0.000    0.000    0.000    0.000    0.000    0.000 
#
# Total GULP energy -247787.634267 kJ/mol
# GULP energy per Si atom -12389.381713 kJ/mol
# Density = 2.414702 g / cm^3
# Si number density = 24.202100 Si / 1000 Ang^3
#
#
#
# Elastic Constant Matrix: (Units=GPa)
#
#
# Indices 1 2 3 4 5 6 
#
# 1 92.8794 25.6357 47.5279 0.0000 -24.9605 0.0000
# 2 25.6357 98.4478 35.3717 0.0000 6.0500 0.0000
# 3 47.5279 35.3717 107.8258 0.0000 -7.8089 0.0000
# 4 0.0000 0.0000 0.0000 43.3187 0.0000 -1.9752
# 5 -24.9605 6.0500 -7.8089 0.0000 26.7272 0.0000
# 6 0.0000 0.0000 0.0000 -1.9752 0.0000 34.4094
#
#
#
# Elastic Compliance Matrix: (Units=1/GPa)
#
#
# Indices 1 2 3 4 5 6 
#
# 1 0.019709 -0.004018 -0.006099 0.000000 0.017534 0.000000
# 2 -0.004018 0.012723 -0.002945 0.000000 -0.007493 0.000000
# 3 -0.006099 -0.002945 0.012836 0.000000 -0.001279 0.000000
# 4 0.000000 0.000000 0.000000 0.023145 0.000000 0.001329
# 5 0.017534 -0.007493 -0.001279 0.000000 0.055112 0.000000
# 6 0.000000 0.000000 0.000000 0.001329 0.000000 0.029138
#
#
# Mechanical properties :
#
#
# Convention : Reuss Voigt Hill
#
# Bulk Modulus (GPa) = 52.24020 57.35817 54.79919
# Shear Modulus (GPa) = 27.00229 33.59891 30.30060
#
# Velocity S-wave (km/s) = 3.34383 3.72998 3.54217
# Velocity P-wave (km/s) = 6.04484 6.50396 6.27860
#
# Compressibility (1/GPa) = 0.01914235
#
# Stress axis : x y z
#
# Youngs Moduli (GPa) = 50.73850 78.60016 77.90465
#
# Poissons Ratio (x) = 0.31583 0.47517
# Poissons Ratio (y) = 0.20388 0.22943
# Poissons Ratio (z) = 0.30947 0.23148
#
# Static dielectric constant tensor:
#      x y z
#    x 4.253960 0.000000 -0.157440 
#    y 0.000000 4.386220 0.000000 
#    z -0.157440 0.000000 5.041450 
# 
# 
# High freq. dielectric constant tensor:
#      x y z
#    x 1.959000 0.000000 -0.012030 
#    y 0.000000 1.956870 0.000000 
#    z -0.012030 0.000000 1.979160 
# 
# From -- ./inp_files/231444.got.cif
#   From: 2010.06.25/outbox.cif.g09.slc.cpg/sg15_116_cif.got.tgz:231444.got - 2010.06.28 07:06:18.
