data_PCOD8135572
_publ_section_title
;
Structure prediction by ZEFSAII (Michael W. Deem and Ramdas Pophale) SiO2 
 PCOD8135572
Probable space group: C 2/C
;
_chemical_formula_sum "Si O2"
_cell_formula_units_Z 56
_cell_length_a 18.004988
_cell_length_b 9.711276
_cell_length_c 23.726882
_cell_angle_alpha 90.000000
_cell_angle_beta 142.359380
_cell_angle_gamma 90.000000
_cell_volume 2533.625918
_symmetry_space_group_name_H-M "C 2/C"
_symmetry_group_IT_number 15
_symmetry_cell_setting 'monoclinic'
loop_
_space_group_symop_operation_xyz
x,y,z
-x,y,1/2-z
-x,-y,-z
x,-y,1/2+z
1/2+x,1/2+y,z
1/2-x,1/2+y,1/2-z
1/2-x,1/2-y,-z
1/2+x,1/2-y,1/2+z
loop_
_atom_site_type_symbol
_atom_site_label
_atom_site_fract_x
_atom_site_fract_y
_atom_site_fract_z
Si Si1 0.827815 0.551636 0.072125
Si Si2 0.372430 0.969244 0.393188
Si Si3 0.778819 0.763054 0.351874
Si Si4 0.193236 0.723110 0.551311
Si Si5 0.021959 0.075732 0.571281
Si Si6 0.378761 0.653059 0.029873
Si Si7 0.537031 0.123668 0.672720
O O1 0.795543 0.656675 0.104153
O O2 0.745361 0.415204 0.024092
O O3 0.971124 0.509785 0.160951
O O4 0.796524 0.616914 0.993349
O O5 0.293028 0.858179 0.381387
O O6 0.399078 0.907681 0.348107
O O7 0.500000 0.000000 0.500000
O O8 0.289587 0.105863 0.337759
O O9 0.840410 0.866948 0.342690
O O10 0.854895 0.778280 0.454836
O O11 0.639298 0.812530 0.275480
O O12 0.061124 0.790394 0.471400
O O13 0.000000 0.000000 0.500000
O O14 0.987202 0.961552 0.596573
O O15 0.425898 0.769759 0.099835
#
# Coordination Sequence:
#
# PCOD8135572 Si02
#       7
#     8   8   8   8   8   8   8
#     4  10  21  38  64  94 125 172 215 261 332 407
#     4  12  20  41  67  95 127 168 219 279 330 388
#     4  11  23  37  62  94 129 164 215 274 331 391
#     4  10  19  38  69  92 121 168 220 267 329 393
#     4   9  17  34  59  90 120 161 204 263 324 385
#     4  10  21  39  61  87 128 172 214 258 326 393
#     4  12  24  38  65  98 130 169 221 274 334 395
#
# _framework density 22.102709999999998
#
# number of rings (size 3 to 8) (size 9 to 14) (size 15 to 20)
#    0.000    1.429    4.286    1.286    2.000    0.571 
#    0.000    0.000    3.143    3.429    0.000    0.000 
#    0.000    0.000    0.000    0.000    0.000    0.000 
#
# Total GULP energy -347035.306367 kJ/mol
# GULP energy per Si atom -12394.118085 kJ/mol
# Density = 2.205240 g / cm^3
# Si number density = 22.102710 Si / 1000 Ang^3
#
#
#
# Elastic Constant Matrix: (Units=GPa)
#
#
# Indices 1 2 3 4 5 6 
#
# 1 97.8959 45.7428 16.7696 0.0000 24.8838 0.0000
# 2 45.7428 115.6637 35.8344 0.0000 19.5256 0.0000
# 3 16.7696 35.8344 75.4933 0.0000 20.3381 0.0000
# 4 0.0000 0.0000 0.0000 21.9872 0.0000 6.9398
# 5 24.8838 19.5256 20.3381 0.0000 24.1212 0.0000
# 6 0.0000 0.0000 0.0000 6.9398 0.0000 42.8583
#
#
#
# Elastic Compliance Matrix: (Units=1/GPa)
#
#
# Indices 1 2 3 4 5 6 
#
# 1 0.015596 -0.004507 0.002622 0.000000 -0.014652 0.000000
# 2 -0.004507 0.012006 -0.004311 0.000000 -0.001434 0.000000
# 3 0.002622 -0.004311 0.018760 0.000000 -0.015033 0.000000
# 4 0.000000 0.000000 0.000000 0.047931 0.000000 -0.007761
# 5 -0.014652 -0.001434 -0.015033 0.000000 0.070408 0.000000
# 6 0.000000 0.000000 0.000000 -0.007761 0.000000 0.024589
#
#
# Mechanical properties :
#
#
# Convention : Reuss Voigt Hill
#
# Bulk Modulus (GPa) = 29.43812 53.97185 41.70499
# Shear Modulus (GPa) = 23.47357 30.50708 26.99032
#
# Velocity S-wave (km/s) = 3.26240 3.71919 3.49826
# Velocity P-wave (km/s) = 5.24774 6.55094 5.93522
#
# Compressibility (1/GPa) = 0.03396956
#
# Stress axis : x y z
#
# Youngs Moduli (GPa) = 64.11963 83.29202 53.30446
#
# Poissons Ratio (x) = 0.37538 -0.13977
# Poissons Ratio (y) = 0.28898 0.22982
# Poissons Ratio (z) = -0.16813 0.35911
#
# Static dielectric constant tensor:
#      x y z
#    x 4.119800 0.000000 0.305480 
#    y 0.000000 4.355790 0.000000 
#    z 0.305480 0.000000 3.502070 
# 
# 
# High freq. dielectric constant tensor:
#      x y z
#    x 1.877790 0.000000 0.027180 
#    y 0.000000 1.890740 0.000000 
#    z 0.027180 0.000000 1.820860 
# 
# From -- ./inp_files/317576.got.cif
#   From: 2010.06.25/outbox.cif.g09.slc.cpg/sg15_159_cif.got.tgz:317576.got - 2010.06.28 07:06:18.
