data_PCOD8135890
_publ_section_title
;
Structure prediction by ZEFSAII (Michael W. Deem and Ramdas Pophale) SiO2 
 PCOD8135890
Probable space group: C 2/C
;
_chemical_formula_sum "Si O2"
_cell_formula_units_Z 52
_cell_length_a 29.763444
_cell_length_b 15.786002
_cell_length_c 17.228567
_cell_angle_alpha 90.000000
_cell_angle_beta 163.297180
_cell_angle_gamma 90.000000
_cell_volume 2326.498808
_symmetry_space_group_name_H-M "C 2/C"
_symmetry_group_IT_number 15
_symmetry_cell_setting 'monoclinic'
loop_
_space_group_symop_operation_xyz
x,y,z
-x,y,1/2-z
-x,-y,-z
x,-y,1/2+z
1/2+x,1/2+y,z
1/2-x,1/2+y,1/2-z
1/2-x,1/2-y,-z
1/2+x,1/2-y,1/2+z
loop_
_atom_site_type_symbol
_atom_site_label
_atom_site_fract_x
_atom_site_fract_y
_atom_site_fract_z
Si Si1 0.756360 0.998518 0.418694
Si Si2 0.500000 0.610053 0.750000
Si Si3 0.482948 0.120700 0.419092
Si Si4 0.924703 0.923300 0.829310
Si Si5 0.084179 0.751657 0.055527
Si Si6 0.121719 0.247363 0.054231
Si Si7 0.302938 0.204322 0.507805
O O1 0.841084 0.055551 0.493846
O O2 0.659057 0.054299 0.320516
O O3 0.897836 0.952517 0.696949
O O4 0.645452 0.929770 0.195939
O O5 0.479610 0.665001 0.636847
O O6 0.444419 0.180036 0.428236
O O7 0.499449 0.175630 0.367121
O O8 0.755803 0.893798 0.585610
O O9 0.035455 0.841230 0.012027
O O10 0.000000 0.000000 0.000000
O O11 0.990276 0.719259 0.821862
O O12 0.264728 0.762492 0.331055
O O13 0.223000 0.244369 0.300372
O O14 0.250000 0.250000 0.500000
#
# Coordination Sequence:
#
# PCOD8135890 Si02
#       7
#     8   4   8   8   8   8   8
#     4  11  25  43  67  99 139 177 225 282 341 402
#     4  12  28  42  66 108 138 182 230 266 352 420
#     4  11  23  47  70  93 141 182 225 280 345 407
#     4  11  22  39  66  97 135 176 223 282 339 402
#     4  11  22  43  69 101 127 177 239 275 345 402
#     4  12  24  43  70  99 133 180 227 281 332 420
#     4  10  19  40  69  95 123 170 228 278 336 385
#
# _framework density 22.351184
#
# number of rings (size 3 to 8) (size 9 to 14) (size 15 to 20)
#    0.000    0.923    6.154    2.308    2.154    1.846 
#    0.000    0.000    0.000    0.000    0.000    0.000 
#    0.000    0.000    0.000    0.000    0.000    0.000 
#
# Total GULP energy -322189.240728 kJ/mol
# GULP energy per Si atom -12391.893874 kJ/mol
# Density = 2.230031 g / cm^3
# Si number density = 22.351184 Si / 1000 Ang^3
#
#
#
# Elastic Constant Matrix: (Units=GPa)
#
#
# Indices 1 2 3 4 5 6 
#
# 1 68.5287 35.1492 24.4645 0.0000 17.4765 0.0000
# 2 35.1492 130.0591 24.4103 0.0000 12.6015 0.0000
# 3 24.4645 24.4103 44.7165 0.0000 9.3108 0.0000
# 4 0.0000 0.0000 0.0000 39.0203 0.0000 1.2539
# 5 17.4765 12.6015 9.3108 0.0000 31.9603 0.0000
# 6 0.0000 0.0000 0.0000 1.2539 0.0000 39.2841
#
#
#
# Elastic Compliance Matrix: (Units=1/GPa)
#
#
# Indices 1 2 3 4 5 6 
#
# 1 0.021279 -0.003463 -0.008104 0.000000 -0.007909 0.000000
# 2 -0.003463 0.009271 -0.002980 0.000000 -0.000893 0.000000
# 3 -0.008104 -0.002980 0.029016 0.000000 -0.002847 0.000000
# 4 0.000000 0.000000 0.000000 0.025654 0.000000 -0.000819
# 5 -0.007909 -0.000893 -0.002847 0.000000 0.036795 0.000000
# 6 0.000000 0.000000 0.000000 -0.000819 0.000000 0.025482
#
#
# Mechanical properties :
#
#
# Convention : Reuss Voigt Hill
#
# Bulk Modulus (GPa) = 32.81822 45.70581 39.26201
# Shear Modulus (GPa) = 26.77383 32.67163 29.72273
#
# Velocity S-wave (km/s) = 3.46478 3.82742 3.65061
# Velocity P-wave (km/s) = 5.54267 6.32657 5.94755
#
# Compressibility (1/GPa) = 0.03047088
#
# Stress axis : x y z
#
# Youngs Moduli (GPa) = 46.99449 107.86721 34.46320
#
# Poissons Ratio (x) = 0.37359 0.27930
# Poissons Ratio (y) = 0.16276 0.10270
# Poissons Ratio (z) = 0.38086 0.32144
#
# Static dielectric constant tensor:
#      x y z
#    x 3.824690 0.000000 0.249660 
#    y 0.000000 4.356980 0.000000 
#    z 0.249660 0.000000 4.517930 
# 
# 
# High freq. dielectric constant tensor:
#      x y z
#    x 1.857220 0.000000 0.008010 
#    y 0.000000 1.890590 0.000000 
#    z 0.008010 0.000000 1.881210 
# 
# From -- ./inp_files/225525.got.cif
#   From: 2010.06.25/outbox.cif.g09.slc.cpg/sg15_113_cif.got.tgz:225525.got - 2010.06.28 07:06:18.
