data_PCOD8135972
_publ_section_title
;
Structure prediction by ZEFSAII (Michael W. Deem and Ramdas Pophale) SiO2 
 PCOD8135972
Probable space group: C 2/C
;
_chemical_formula_sum "Si O2"
_cell_formula_units_Z 64
_cell_length_a 18.228939
_cell_length_b 12.326075
_cell_length_c 15.049766
_cell_angle_alpha 90.000000
_cell_angle_beta 70.398511
_cell_angle_gamma 90.000000
_cell_volume 3185.585865
_symmetry_space_group_name_H-M "C 2/C"
_symmetry_group_IT_number 15
_symmetry_cell_setting 'monoclinic'
loop_
_space_group_symop_operation_xyz
x,y,z
-x,y,1/2-z
-x,-y,-z
x,-y,1/2+z
1/2+x,1/2+y,z
1/2-x,1/2+y,1/2-z
1/2-x,1/2-y,-z
1/2+x,1/2-y,1/2+z
loop_
_atom_site_type_symbol
_atom_site_label
_atom_site_fract_x
_atom_site_fract_y
_atom_site_fract_z
Si Si1 0.273150 0.001664 0.333798
Si Si2 0.346838 0.514251 0.968076
Si Si3 0.245465 0.724172 0.606526
Si Si4 0.426912 0.069884 0.996199
Si Si5 0.031594 0.184261 0.638966
Si Si6 0.074427 0.423651 0.663778
Si Si7 0.239352 0.448859 0.854915
Si Si8 0.584462 0.314190 0.470512
O O1 0.199394 0.040617 0.422066
O O2 0.346429 0.085289 0.309476
O O3 0.244780 0.991027 0.243740
O O4 0.304809 0.882498 0.352305
O O5 0.392581 0.617512 0.915516
O O6 0.280319 0.503713 0.921335
O O7 0.405344 0.410242 0.958741
O O8 0.250000 0.750000 0.500000
O O9 0.218892 0.830374 0.670303
O O10 0.331460 0.698192 0.607377
O O11 0.353653 0.057816 0.091945
O O12 0.445224 0.198930 0.975942
O O13 0.500000 0.000000 0.000000
O O14 0.403988 0.019055 0.912143
O O15 0.053956 0.310794 0.624035
O O16 0.000000 0.155080 0.750000
O O17 0.970165 0.151346 0.588470
O O18 0.000000 0.461197 0.750000
#
# Coordination Sequence:
#
# PCOD8135972 Si02
#       8
#     8   8   8   8   8   8   8   8
#     4  11  23  40  67  98 129 166 216 278 327 386
#     4  11  24  44  66  93 129 169 225 269 313 391
#     4  10  19  41  68  90 125 170 217 261 325 402
#     4  11  20  40  67  94 129 165 214 265 323 390
#     4  11  26  42  65  89 129 178 215 261 332 397
#     4  11  23  41  61  97 132 169 213 261 334 395
#     4  11  23  39  66  98 125 171 215 266 330 385
#     4  10  21  40  66  89 123 172 210 263 323 386
#
# _framework density 20.090496000000002
#
# number of rings (size 3 to 8) (size 9 to 14) (size 15 to 20)
#    0.000    1.250    5.000    1.875    8.750    0.500 
#    2.250    0.625    0.000    0.000    0.000    0.000 
#    0.000    0.000    0.000    0.000    0.000    0.000 
#
# Total GULP energy -396481.996365 kJ/mol
# GULP energy per Si atom -12390.062386 kJ/mol
# Density = 2.004477 g / cm^3
# Si number density = 20.090496 Si / 1000 Ang^3
#
#
#
# Elastic Constant Matrix: (Units=GPa)
#
#
# Indices 1 2 3 4 5 6 
#
# 1 97.1302 26.3759 28.3359 0.0000 5.4821 0.0000
# 2 26.3759 61.4630 50.8008 0.0000 -6.9864 0.0000
# 3 28.3359 50.8008 122.9410 0.0000 3.3353 0.0000
# 4 0.0000 0.0000 0.0000 27.7133 0.0000 -1.5152
# 5 5.4821 -6.9864 3.3353 0.0000 33.6896 0.0000
# 6 0.0000 0.0000 0.0000 -1.5152 0.0000 33.9985
#
#
#
# Elastic Compliance Matrix: (Units=1/GPa)
#
#
# Indices 1 2 3 4 5 6 
#
# 1 0.011990 -0.004948 -0.000640 0.000000 -0.002914 0.000000
# 2 -0.004948 0.028091 -0.010676 0.000000 0.007687 0.000000
# 3 -0.000640 -0.010676 0.012784 0.000000 -0.003375 0.000000
# 4 0.000000 0.000000 0.000000 0.036172 0.000000 0.001612
# 5 -0.002914 0.007687 -0.003375 0.000000 0.032085 0.000000
# 6 0.000000 0.000000 0.000000 0.001612 0.000000 0.029485
#
#
# Mechanical properties :
#
#
# Convention : Reuss Voigt Hill
#
# Bulk Modulus (GPa) = 49.16748 54.72883 51.94816
# Shear Modulus (GPa) = 26.32780 30.81506 28.57143
#
# Velocity S-wave (km/s) = 3.62396 3.92064 3.77521
# Velocity P-wave (km/s) = 6.48358 6.91343 6.70195
#
# Compressibility (1/GPa) = 0.02033865
#
# Stress axis : x y z
#
# Youngs Moduli (GPa) = 83.40176 35.59904 78.22032
#
# Poissons Ratio (x) = 0.17613 0.05007
# Poissons Ratio (y) = 0.41263 0.83505
# Poissons Ratio (z) = 0.05339 0.38004
#
# Static dielectric constant tensor:
#      x y z
#    x 3.983450 0.000000 0.114020 
#    y 0.000000 3.935410 0.000000 
#    z 0.114020 0.000000 3.493130 
# 
# 
# High freq. dielectric constant tensor:
#      x y z
#    x 1.794760 0.000000 0.021350 
#    y 0.000000 1.785920 0.000000 
#    z 0.021350 0.000000 1.763900 
# 
# From -- ./inp_files/167628.got.cif
#   From: 2010.06.25/outbox.cif.g09.slc.cpg/sg15_84_cif.got.tgz:167628.got - 2010.06.28 07:06:18.
