data_PCOD8135916
_publ_section_title
;
Structure prediction by ZEFSAII (Michael W. Deem and Ramdas Pophale) SiO2 
 PCOD8135916
Probable space group: C 2/C
;
_chemical_formula_sum "Si O2"
_cell_formula_units_Z 48
_cell_length_a 12.452054
_cell_length_b 8.419416
_cell_length_c 27.668128
_cell_angle_alpha 90.000000
_cell_angle_beta 57.213629
_cell_angle_gamma 90.000000
_cell_volume 2438.604831
_symmetry_space_group_name_H-M "C 2/C"
_symmetry_group_IT_number 15
_symmetry_cell_setting 'monoclinic'
loop_
_space_group_symop_operation_xyz
x,y,z
-x,y,1/2-z
-x,-y,-z
x,-y,1/2+z
1/2+x,1/2+y,z
1/2-x,1/2+y,1/2-z
1/2-x,1/2-y,-z
1/2+x,1/2-y,1/2+z
loop_
_atom_site_type_symbol
_atom_site_label
_atom_site_fract_x
_atom_site_fract_y
_atom_site_fract_z
Si Si1 0.336213 0.155714 0.124110
Si Si2 0.649658 0.594116 0.315686
Si Si3 0.194483 0.703367 0.896719
Si Si4 0.024745 0.165696 0.519190
Si Si5 0.641789 0.164874 0.730604
Si Si6 0.456564 0.671015 0.879270
O O1 0.201843 0.234742 0.171504
O O2 0.437516 0.188190 0.143170
O O3 0.323773 0.970234 0.120261
O O4 0.389783 0.243543 0.062596
O O5 0.651309 0.666051 0.368982
O O6 0.641408 0.730683 0.278687
O O7 0.778269 0.492919 0.277133
O O8 0.523735 0.485705 0.341211
O O9 0.111283 0.721473 0.965147
O O10 0.343482 0.727827 0.872391
O O11 0.095099 0.134593 0.553603
O O12 0.000000 0.000000 0.500000
O O13 0.500000 0.114101 0.750000
#
# Coordination Sequence:
#
# PCOD8135916 Si02
#       6
#     8   8   8   8   8   8
#     4   9  22  38  60  91 120 152 207 243 292 361
#     4  11  24  39  62  88 120 154 202 254 293 358
#     4  12  20  39  65  88 120 163 193 246 309 352
#     4  10  19  41  62  86 130 156 195 252 295 356
#     4  11  23  43  62  86 121 159 201 249 302 355
#     4   9  22  39  60  89 122 155 199 243 299 356
#
# _framework density 19.683387
#
# number of rings (size 3 to 8) (size 9 to 14) (size 15 to 20)
#    1.000    0.667    1.667    3.000    0.000    4.000 
#    0.000    3.333    0.000    0.000    0.000    0.000 
#    0.000    0.000    0.000    0.000    0.000    0.000 
#
# Total GULP energy -297511.970938 kJ/mol
# GULP energy per Si atom -12396.332122 kJ/mol
# Density = 1.963859 g / cm^3
# Si number density = 19.683387 Si / 1000 Ang^3
#
#
#
# Elastic Constant Matrix: (Units=GPa)
#
#
# Indices 1 2 3 4 5 6 
#
# 1 75.6536 -3.9264 21.5272 0.0000 -3.6744 0.0000
# 2 -3.9264 19.8164 -6.9698 0.0000 13.4645 0.0000
# 3 21.5272 -6.9698 81.3694 0.0000 -7.6453 0.0000
# 4 0.0000 0.0000 0.0000 40.5052 0.0000 -5.7776
# 5 -3.6744 13.4645 -7.6453 0.0000 19.4619 0.0000
# 6 0.0000 0.0000 0.0000 -5.7776 0.0000 16.4568
#
#
#
# Elastic Compliance Matrix: (Units=1/GPa)
#
#
# Indices 1 2 3 4 5 6 
#
# 1 0.014342 0.001307 -0.003648 0.000000 0.000371 0.000000
# 2 0.001307 0.095675 0.001717 0.000000 -0.065270 0.000000
# 3 -0.003648 0.001717 0.013732 0.000000 0.003518 0.000000
# 4 0.000000 0.000000 0.000000 0.025990 0.000000 0.009124
# 5 0.000371 -0.065270 0.003518 0.000000 0.097991 0.000000
# 6 0.000000 0.000000 0.000000 0.009124 0.000000 0.063969
#
#
# Mechanical properties :
#
#
# Convention : Reuss Voigt Hill
#
# Bulk Modulus (GPa) = 8.16321 22.01127 15.08724
# Shear Modulus (GPa) = 14.13309 26.36534 20.24922
#
# Velocity S-wave (km/s) = 2.68250 3.66385 3.21089
# Velocity P-wave (km/s) = 3.70819 5.39494 4.62904
#
# Compressibility (1/GPa) = 0.12250085
#
# Stress axis : x y z
#
# Youngs Moduli (GPa) = 69.72592 10.45210 72.82136
#
# Poissons Ratio (x) = -0.01366 0.26562
# Poissons Ratio (y) = -0.09112 -0.12502
# Poissons Ratio (z) = 0.25433 -0.01794
#
# Static dielectric constant tensor:
#      x y z
#    x 3.394860 0.000000 -0.133790 
#    y 0.000000 3.447190 0.000000 
#    z -0.133790 0.000000 3.742650 
# 
# 
# High freq. dielectric constant tensor:
#      x y z
#    x 1.750460 0.000000 -0.009300 
#    y 0.000000 1.770490 0.000000 
#    z -0.009300 0.000000 1.777270 
# 
# From -- ./inp_files/268008.got.cif
#   From: 2010.06.25/outbox.cif.g09.slc.cpg/sg15_135_cif.got.tgz:268008.got - 2010.06.28 07:06:18.
