data_PCOD8135926
_publ_section_title
;
Structure prediction by ZEFSAII (Michael W. Deem and Ramdas Pophale) SiO2 
 PCOD8135926
Probable space group: C 2/C
;
_chemical_formula_sum "Si O2"
_cell_formula_units_Z 40
_cell_length_a 18.499108
_cell_length_b 7.116407
_cell_length_c 14.017331
_cell_angle_alpha 90.000000
_cell_angle_beta 96.674794
_cell_angle_gamma 90.000000
_cell_volume 1832.834170
_symmetry_space_group_name_H-M "C 2/C"
_symmetry_group_IT_number 15
_symmetry_cell_setting 'monoclinic'
loop_
_space_group_symop_operation_xyz
x,y,z
-x,y,1/2-z
-x,-y,-z
x,-y,1/2+z
1/2+x,1/2+y,z
1/2-x,1/2+y,1/2-z
1/2-x,1/2-y,-z
1/2+x,1/2-y,1/2+z
loop_
_atom_site_type_symbol
_atom_site_label
_atom_site_fract_x
_atom_site_fract_y
_atom_site_fract_z
Si Si1 0.978016 0.544077 0.345154
Si Si2 0.165608 0.260909 0.005927
Si Si3 0.099385 0.358926 0.492784
Si Si4 0.077793 0.855957 0.667402
Si Si5 0.085194 0.018161 0.373188
O O1 0.934360 0.688456 0.407160
O O2 0.932184 0.362099 0.304834
O O3 0.000000 0.652964 0.250000
O O4 0.043021 0.462234 0.416081
O O5 0.138078 0.139434 0.093078
O O6 0.250000 0.250000 0.000000
O O7 0.160041 0.484285 0.019797
O O8 0.114728 0.186047 0.910381
O O9 0.127946 0.170553 0.446423
O O10 0.107475 0.959530 0.766138
O O11 0.001409 0.952190 0.622632
#
# Coordination Sequence:
#
# PCOD8135926 Si02
#       5
#     8   8   8   8   8
#     4   9  14  31  58  87 115 138 190 250 295 332
#     4  11  24  40  55  89 125 155 199 242 295 371
#     4   9  19  34  58  82 112 156 187 241 293 348
#     4   9  18  38  63  88 117 153 200 259 289 349
#     4  10  19  41  64  85 116 155 201 251 298 341
#
# _framework density 21.824123
#
# number of rings (size 3 to 8) (size 9 to 14) (size 15 to 20)
#    0.000    2.400    4.000    1.800    0.000    0.800 
#   10.800    0.000    0.000    0.000    0.000    0.000 
#    0.000    0.000    0.000    0.000    0.000    0.000 
#
# Total GULP energy -247768.212405 kJ/mol
# GULP energy per Si atom -12388.410620 kJ/mol
# Density = 2.177445 g / cm^3
# Si number density = 21.824123 Si / 1000 Ang^3
#
#
#
# Elastic Constant Matrix: (Units=GPa)
#
#
# Indices 1 2 3 4 5 6 
#
# 1 104.6848 15.0852 56.4886 0.0000 -27.7755 0.0000
# 2 15.0852 59.8130 19.1283 0.0000 -2.2423 0.0000
# 3 56.4886 19.1283 145.3360 0.0000 -30.3127 0.0000
# 4 0.0000 0.0000 0.0000 31.6099 0.0000 5.0700
# 5 -27.7755 -2.2423 -30.3127 0.0000 20.8954 0.0000
# 6 0.0000 0.0000 0.0000 5.0700 0.0000 17.9842
#
#
#
# Elastic Compliance Matrix: (Units=1/GPa)
#
#
# Indices 1 2 3 4 5 6 
#
# 1 0.015730 -0.002636 -0.002100 0.000000 0.017580 0.000000
# 2 -0.002636 0.017959 -0.002392 0.000000 -0.005047 0.000000
# 3 -0.002100 -0.002392 0.010576 0.000000 0.012294 0.000000
# 4 0.000000 0.000000 0.000000 0.033134 0.000000 -0.009341
# 5 0.017580 -0.005047 0.012294 0.000000 0.088518 0.000000
# 6 0.000000 0.000000 0.000000 -0.009341 0.000000 0.058238
#
#
# Mechanical properties :
#
#
# Convention : Reuss Voigt Hill
#
# Bulk Modulus (GPa) = 33.32397 54.58200 43.95299
# Shear Modulus (GPa) = 20.12764 28.70667 24.41715
#
# Velocity S-wave (km/s) = 3.04018 3.63073 3.34850
# Velocity P-wave (km/s) = 5.25605 6.52997 5.92733
#
# Compressibility (1/GPa) = 0.03000843
#
# Stress axis : x y z
#
# Youngs Moduli (GPa) = 63.57263 55.68131 94.55536
#
# Poissons Ratio (x) = 0.14680 0.19860
# Poissons Ratio (y) = 0.16761 0.22614
# Poissons Ratio (z) = 0.13352 0.13317
#
# Static dielectric constant tensor:
#      x y z
#    x 3.416700 0.000000 -0.260700 
#    y 0.000000 4.437710 0.000000 
#    z -0.260700 0.000000 4.178220 
# 
# 
# High freq. dielectric constant tensor:
#      x y z
#    x 1.794020 0.000000 -0.023110 
#    y 0.000000 1.862370 0.000000 
#    z -0.023110 0.000000 1.871090 
# 
# From -- ./inp_files/158750.got.cif
#   From: 2010.06.25/outbox.cif.g09.slc.cpg/sg15_80_cif.got.tgz:158750.got - 2010.06.28 07:06:18.
