data_PCOD8135289
_publ_section_title
;
Structure prediction by ZEFSAII (Michael W. Deem and Ramdas Pophale) SiO2 
 PCOD8135289
Probable space group: C 2/C
;
_chemical_formula_sum "Si O2"
_cell_formula_units_Z 32
_cell_length_a 6.961662
_cell_length_b 19.225925
_cell_length_c 17.969601
_cell_angle_alpha 90.000000
_cell_angle_beta 140.893226
_cell_angle_gamma 90.000000
_cell_volume 1517.078163
_symmetry_space_group_name_H-M "C 2/C"
_symmetry_group_IT_number 15
_symmetry_cell_setting 'monoclinic'
loop_
_space_group_symop_operation_xyz
x,y,z
-x,y,1/2-z
-x,-y,-z
x,-y,1/2+z
1/2+x,1/2+y,z
1/2-x,1/2+y,1/2-z
1/2-x,1/2-y,-z
1/2+x,1/2-y,1/2+z
loop_
_atom_site_type_symbol
_atom_site_label
_atom_site_fract_x
_atom_site_fract_y
_atom_site_fract_z
Si Si1 0.033788 0.216929 0.043027
Si Si2 0.000000 0.378978 0.750000
Si Si3 0.364347 0.654121 0.578079
Si Si4 0.833911 0.431400 0.851445
Si Si5 0.000000 0.063717 0.750000
O O1 0.198360 0.168006 0.152118
O O2 0.274995 0.274683 0.091096
O O3 0.953083 0.171923 0.943622
O O4 0.750000 0.250000 0.000000
O O5 0.025595 0.429329 0.688090
O O6 0.571587 0.610810 0.698681
O O7 0.055920 0.609574 0.473151
O O8 0.500000 0.394571 0.750000
O O9 0.790732 0.513818 0.856958
#
# Coordination Sequence:
#
# PCOD8135289 Si02
#       5
#     8   4   8   8   4
#     4  10  21  37  63  84 116 152 198 252 296 344
#     4  10  19  38  56  88 115 152 202 244 294 356
#     4  10  20  39  56  88 117 152 199 245 292 353
#     4   9  20  35  58  80 120 155 193 239 297 344
#     4  10  21  38  58  84 121 158 192 244 292 352
#
# _framework density 21.093176
#
# number of rings (size 3 to 8) (size 9 to 14) (size 15 to 20)
#    0.750    1.500    0.000    3.000    0.000    0.000 
#    4.500   10.000    0.000    0.000    0.000    0.000 
#    0.000    0.000    0.000    0.000    0.000    0.000 
#
# Total GULP energy -198215.327236 kJ/mol
# GULP energy per Si atom -12388.457952 kJ/mol
# Density = 2.104517 g / cm^3
# Si number density = 21.093176 Si / 1000 Ang^3
#
#
#
# Elastic Constant Matrix: (Units=GPa)
#
#
# Indices 1 2 3 4 5 6 
#
# 1 95.1435 24.7730 18.2450 0.0003 -1.3774 -0.0002
# 2 24.7730 87.5171 15.2590 0.0000 -14.6026 0.0000
# 3 18.2450 15.2590 40.5130 -0.0003 -10.7760 0.0004
# 4 0.0003 0.0000 -0.0003 22.8632 -0.0001 -6.6817
# 5 -1.3774 -14.6026 -10.7760 -0.0001 28.2858 0.0001
# 6 -0.0002 0.0000 0.0004 -6.6817 0.0001 33.4102
#
#
#
# Elastic Compliance Matrix: (Units=1/GPa)
#
#
# Indices 1 2 3 4 5 6 
#
# 1 0.012252 -0.003062 -0.005148 0.000000 -0.002945 0.000000
# 2 -0.003062 0.013686 -0.002154 0.000000 0.006095 0.000000
# 3 -0.005148 -0.002154 0.030546 0.000000 0.010274 0.000000
# 4 0.000000 0.000000 0.000000 0.046453 0.000000 0.009290
# 5 -0.002945 0.006095 0.010274 0.000000 0.042271 0.000000
# 6 0.000000 0.000000 0.000000 0.009290 0.000000 0.031789
#
#
# Mechanical properties :
#
#
# Convention : Reuss Voigt Hill
#
# Bulk Modulus (GPa) = 27.96782 37.74751 32.85767
# Shear Modulus (GPa) = 23.84990 27.90495 25.87742
#
# Velocity S-wave (km/s) = 3.36623 3.64117 3.50639
# Velocity P-wave (km/s) = 5.32885 5.96757 5.65723
#
# Compressibility (1/GPa) = 0.03575538
#
# Stress axis : x y z
#
# Youngs Moduli (GPa) = 81.61751 73.06856 32.73745
#
# Poissons Ratio (x) = 0.22374 0.16853
# Poissons Ratio (y) = 0.24992 0.07053
# Poissons Ratio (z) = 0.42016 0.15742
#
# Static dielectric constant tensor:
#      x y z
#    x 3.656560 0.000000 -0.304880 
#    y 0.000000 3.843740 0.000000 
#    z -0.304880 0.000000 3.800310 
# 
# 
# High freq. dielectric constant tensor:
#      x y z
#    x 1.814290 0.000000 -0.026660 
#    y 0.000000 1.829500 0.000000 
#    z -0.026660 0.000000 1.812440 
# 
# From -- ./inp_files/71936.got.cif
#   From: 2010.06.25/outbox.cif.g09.slc.cpg/sg15_36_cif.got.tgz:71936.got - 2010.06.28 07:06:18.
