data_PCOD8135818
_publ_section_title
;
Structure prediction by ZEFSAII (Michael W. Deem and Ramdas Pophale) SiO2 
 PCOD8135818
Probable space group: C 2/C
;
_chemical_formula_sum "Si O2"
_cell_formula_units_Z 60
_cell_length_a 25.005369
_cell_length_b 11.043241
_cell_length_c 20.662244
_cell_angle_alpha 90.000000
_cell_angle_beta 148.937852
_cell_angle_gamma 90.000000
_cell_volume 2943.944890
_symmetry_space_group_name_H-M "C 2/C"
_symmetry_group_IT_number 15
_symmetry_cell_setting 'monoclinic'
loop_
_space_group_symop_operation_xyz
x,y,z
-x,y,1/2-z
-x,-y,-z
x,-y,1/2+z
1/2+x,1/2+y,z
1/2-x,1/2+y,1/2-z
1/2-x,1/2-y,-z
1/2+x,1/2-y,1/2+z
loop_
_atom_site_type_symbol
_atom_site_label
_atom_site_fract_x
_atom_site_fract_y
_atom_site_fract_z
Si Si1 0.411366 0.439223 0.474056
Si Si2 0.806694 0.456845 0.211386
Si Si3 0.451929 0.347110 0.380914
Si Si4 0.077665 0.608354 0.080842
Si Si5 0.987109 0.717212 0.872801
Si Si6 0.675856 0.076047 0.405471
Si Si7 0.500000 0.100874 0.750000
Si Si8 0.392273 0.653778 0.673252
O O1 0.309906 0.408997 0.410751
O O2 0.389031 0.409087 0.375307
O O3 0.439067 0.581013 0.510756
O O4 0.505852 0.360618 0.604091
O O5 0.816122 0.549055 0.282640
O O6 0.881170 0.339451 0.291591
O O7 0.834875 0.540104 0.180028
O O8 0.468284 0.207417 0.416359
O O9 0.394445 0.357525 0.252933
O O10 0.000000 0.500000 0.000000
O O11 0.084864 0.661494 0.015445
O O12 0.994604 0.690687 0.805104
O O13 0.631108 0.209114 0.372542
O O14 0.796584 0.068069 0.551879
O O15 0.602466 0.981085 0.367470
O O16 0.500000 0.613072 0.750000
#
# Coordination Sequence:
#
# PCOD8135818 Si02
#       8
#     8   8   8   8   8   8   4   8
#     4  10  22  42  61  88 123 163 207 260 314 361
#     4  10  19  40  63  85 122 160 207 262 309 369
#     4  10  21  41  58  88 128 154 204 262 309 372
#     4   9  18  36  61  86 116 155 199 248 305 363
#     4   9  21  40  60  88 120 160 210 255 306 369
#     4  10  21  36  59  91 119 161 205 250 319 375
#     4  10  20  42  62  84 126 162 210 264 302 376
#     4  11  21  36  59  92 128 158 199 255 318 383
#
# _framework density 20.380815999999999
#
# number of rings (size 3 to 8) (size 9 to 14) (size 15 to 20)
#    0.000    2.133    2.000    0.800    0.000    1.067 
#   25.200    1.333    0.000    0.000    0.000    0.000 
#    0.000    0.000    0.000    0.000    0.000    0.000 
#
# Total GULP energy -371698.810596 kJ/mol
# GULP energy per Si atom -12389.960353 kJ/mol
# Density = 2.033443 g / cm^3
# Si number density = 20.380816 Si / 1000 Ang^3
#
#
#
# Elastic Constant Matrix: (Units=GPa)
#
#
# Indices 1 2 3 4 5 6 
#
# 1 73.1172 22.5467 34.7784 0.0000 0.9467 0.0000
# 2 22.5467 90.9444 39.3115 0.0000 4.2332 0.0000
# 3 34.7784 39.3115 96.7933 0.0000 5.2991 0.0000
# 4 0.0000 0.0000 0.0000 26.5191 0.0000 -0.8498
# 5 0.9467 4.2332 5.2991 0.0000 41.3564 0.0000
# 6 0.0000 0.0000 0.0000 -0.8498 0.0000 15.8351
#
#
#
# Elastic Compliance Matrix: (Units=1/GPa)
#
#
# Indices 1 2 3 4 5 6 
#
# 1 0.016767 -0.001897 -0.005281 0.000000 0.000487 0.000000
# 2 -0.001897 0.013571 -0.004790 0.000000 -0.000732 0.000000
# 3 -0.005281 -0.004790 0.014241 0.000000 -0.001214 0.000000
# 4 0.000000 0.000000 0.000000 0.037774 0.000000 0.002027
# 5 0.000487 -0.000732 -0.001214 0.000000 0.024399 0.000000
# 6 0.000000 0.000000 0.000000 0.002027 0.000000 0.063260
#
#
# Mechanical properties :
#
#
# Convention : Reuss Voigt Hill
#
# Bulk Modulus (GPa) = 48.44243 50.45868 49.45055
# Shear Modulus (GPa) = 24.89708 27.69002 26.29355
#
# Velocity S-wave (km/s) = 3.49892 3.68996 3.59571
# Velocity P-wave (km/s) = 6.33589 6.55485 6.44630
#
# Compressibility (1/GPa) = 0.02064306
#
# Stress axis : x y z
#
# Youngs Moduli (GPa) = 59.64050 73.68905 70.22218
#
# Poissons Ratio (x) = 0.13978 0.37083
# Poissons Ratio (y) = 0.11313 0.33636
# Poissons Ratio (z) = 0.31495 0.35296
#
# Static dielectric constant tensor:
#      x y z
#    x 3.646600 0.000000 -0.308490 
#    y 0.000000 4.434090 0.000000 
#    z -0.308490 0.000000 3.942080 
# 
# 
# High freq. dielectric constant tensor:
#      x y z
#    x 1.784590 0.000000 -0.018740 
#    y 0.000000 1.797940 0.000000 
#    z -0.018740 0.000000 1.788270 
# 
# From -- ./inp_files/255583.got.cif
#   From: 2010.06.25/outbox.cif.g09.slc.cpg/sg15_128_cif.got.tgz:255583.got - 2010.06.28 07:06:18.
