data_PCOD8135148
_publ_section_title
;
Structure prediction by ZEFSAII (Michael W. Deem and Ramdas Pophale) SiO2 
 PCOD8135148
Probable space group: C 2/C
;
_chemical_formula_sum "Si O2"
_cell_formula_units_Z 56
_cell_length_a 24.131651
_cell_length_b 9.300393
_cell_length_c 16.857634
_cell_angle_alpha 90.000000
_cell_angle_beta 135.704559
_cell_angle_gamma 90.000000
_cell_volume 2642.185339
_symmetry_space_group_name_H-M "C 2/C"
_symmetry_group_IT_number 15
_symmetry_cell_setting 'monoclinic'
loop_
_space_group_symop_operation_xyz
x,y,z
-x,y,1/2-z
-x,-y,-z
x,-y,1/2+z
1/2+x,1/2+y,z
1/2-x,1/2+y,1/2-z
1/2-x,1/2-y,-z
1/2+x,1/2-y,1/2+z
loop_
_atom_site_type_symbol
_atom_site_label
_atom_site_fract_x
_atom_site_fract_y
_atom_site_fract_z
Si Si1 0.814062 0.125000 0.750000
Si Si2 0.362730 0.862397 0.405052
Si Si3 0.292321 0.612397 0.905052
Si Si4 0.416365 0.725567 0.147167
Si Si5 0.857296 0.567037 0.265899
Si Si6 0.841396 0.182963 0.234100
Si Si7 0.019198 0.524433 0.352833
O O1 0.722123 0.167331 0.641281
O O2 0.830842 0.082669 0.858719
O O3 0.863995 0.260957 0.770170
O O4 0.843825 0.989043 0.729830
O O5 0.383043 0.743786 0.357527
O O6 0.356821 0.018591 0.357410
O O7 0.429470 0.866992 0.540936
O O8 0.224484 0.493786 0.857528
O O9 0.250589 0.768591 0.857410
O O10 0.361466 0.616992 0.040936
O O11 0.500000 0.646264 0.250000
O O12 0.377839 0.755522 0.193153
O O13 0.434227 0.875000 0.118454
O O14 0.934685 0.494478 0.306847
O O15 0.000000 0.603736 0.250000
#
# Coordination Sequence:
#
# PCOD8135148 Si02
#       7
#     8   8   8   8   8   8   8
#     4  10  20  38  61  90 121 162 204 252 314 374
#     4  10  19  37  63  89 118 157 206 258 302 365
#     4  10  19  37  63  89 118 157 206 258 302 365
#     4  11  22  38  60  90 121 160 212 262 306 366
#     4  10  21  38  62  90 121 161 205 253 311 372
#     4  10  21  38  62  90 121 161 205 253 311 372
#     4  11  22  38  60  90 121 160 212 262 306 366
#
# _framework density 21.194578
#
# number of rings (size 3 to 8) (size 9 to 14) (size 15 to 20)
#    0.000    2.000    0.000    9.429    0.000    2.286 
#    0.000    9.286    0.000    0.000    0.000    0.000 
#    0.000    0.000    0.000    0.000    0.000    0.000 
#
# Total GULP energy -346944.150172 kJ/mol
# GULP energy per Si atom -12390.862506 kJ/mol
# Density = 2.114634 g / cm^3
# Si number density = 21.194578 Si / 1000 Ang^3
#
#
#
# Elastic Constant Matrix: (Units=GPa)
#
#
# Indices 1 2 3 4 5 6 
#
# 1 90.1424 24.3599 31.4382 0.0000 -4.5627 0.0000
# 2 24.3599 122.8287 15.2887 0.0000 -1.7095 0.0000
# 3 31.4382 15.2887 156.2855 0.0000 17.0275 0.0000
# 4 0.0000 0.0000 0.0000 24.3731 0.0000 0.5855
# 5 -4.5627 -1.7095 17.0275 0.0000 21.3148 0.0000
# 6 0.0000 0.0000 0.0000 0.5855 0.0000 21.2661
#
#
#
# Elastic Compliance Matrix: (Units=1/GPa)
#
#
# Indices 1 2 3 4 5 6 
#
# 1 0.012943 -0.002133 -0.002934 0.000000 0.004943 0.000000
# 2 -0.002133 0.008633 -0.000483 0.000000 0.000622 0.000000
# 3 -0.002934 -0.000483 0.007786 0.000000 -0.006887 0.000000
# 4 0.000000 0.000000 0.000000 0.041056 0.000000 -0.001130
# 5 0.004943 0.000622 -0.006887 0.000000 0.053525 0.000000
# 6 0.000000 0.000000 0.000000 -0.001130 0.000000 0.047054
#
#
# Mechanical properties :
#
#
# Convention : Reuss Voigt Hill
#
# Bulk Modulus (GPa) = 54.75491 56.82558 55.79024
# Shear Modulus (GPa) = 26.56951 33.26880 29.91915
#
# Velocity S-wave (km/s) = 3.54446 3.96622 3.76126
# Velocity P-wave (km/s) = 6.53004 6.91695 6.72628
#
# Compressibility (1/GPa) = 0.01826320
#
# Stress axis : x y z
#
# Youngs Moduli (GPa) = 77.26006 115.83118 128.43141
#
# Poissons Ratio (x) = 0.24707 0.37676
# Poissons Ratio (y) = 0.16480 0.06206
# Poissons Ratio (z) = 0.22665 0.05597
#
# Static dielectric constant tensor:
#      x y z
#    x 3.791910 0.000000 0.002300 
#    y 0.000000 3.514470 0.000000 
#    z 0.002300 0.000000 3.804120 
# 
# 
# High freq. dielectric constant tensor:
#      x y z
#    x 1.829460 0.000000 -0.002260 
#    y 0.000000 1.806550 0.000000 
#    z -0.002260 0.000000 1.817470 
# 
# From -- ./inp_files/172500.got.cif
#   From: 2010.06.25/outbox.cif.g09.slc.cpg/sg15_87_cif.got.tgz:172500.got - 2010.06.28 07:06:18.
