data_PCOD8135272
_publ_section_title
;
Structure prediction by ZEFSAII (Michael W. Deem and Ramdas Pophale) SiO2 
 PCOD8135272
Probable space group: C 2/C
;
_chemical_formula_sum "Si O2"
_cell_formula_units_Z 56
_cell_length_a 27.576278
_cell_length_b 12.039698
_cell_length_c 9.173642
_cell_angle_alpha 90.000000
_cell_angle_beta 73.272565
_cell_angle_gamma 90.000000
_cell_volume 2916.860228
_symmetry_space_group_name_H-M "C 2/C"
_symmetry_group_IT_number 15
_symmetry_cell_setting 'monoclinic'
loop_
_space_group_symop_operation_xyz
x,y,z
-x,y,1/2-z
-x,-y,-z
x,-y,1/2+z
1/2+x,1/2+y,z
1/2-x,1/2+y,1/2-z
1/2-x,1/2-y,-z
1/2+x,1/2-y,1/2+z
loop_
_atom_site_type_symbol
_atom_site_label
_atom_site_fract_x
_atom_site_fract_y
_atom_site_fract_z
Si Si1 0.021010 0.152836 0.584258
Si Si2 0.954433 0.092862 0.390602
Si Si3 0.807014 0.932359 0.801042
Si Si4 0.211082 0.864755 0.354032
Si Si5 0.323890 0.915764 0.313125
Si Si6 0.803252 0.383426 0.654074
Si Si7 0.104312 0.216427 0.293110
O O1 0.059057 0.225147 0.451244
O O2 0.000000 0.212867 0.750000
O O3 0.968740 0.128512 0.542250
O O4 0.051780 0.040881 0.603375
O O5 0.908954 0.162552 0.355460
O O6 0.000000 0.128483 0.250000
O O7 0.756373 0.892251 0.764202
O O8 0.852368 0.865595 0.685168
O O9 0.812651 0.062040 0.755403
O O10 0.804933 0.913374 0.975661
O O11 0.272630 0.858163 0.293181
O O12 0.183855 0.746647 0.352390
O O13 0.317661 0.935699 0.488126
O O14 0.372971 0.839647 0.242136
O O15 0.333241 0.039928 0.243124
#
# Coordination Sequence:
#
# PCOD8135272 Si02
#       7
#     8   8   8   8   8   8   8
#     4   9  18  34  52  80 116 142 171 232 300 344
#     4   8  17  33  52  75 113 149 171 222 301 348
#     4  10  20  33  54  83 112 154 193 231 279 336
#     4  10  19  38  53  77 122 154 188 238 288 315
#     4  10  20  36  57  78 107 159 201 232 273 331
#     4  10  19  39  53  72 120 157 190 239 281 309
#     4  11  19  32  54  83 112 146 194 225 270 355
#
# _framework density 19.198726000000001
#
# number of rings (size 3 to 8) (size 9 to 14) (size 15 to 20)
#    0.000    2.286    2.857    1.714    2.000    0.000 
#    2.571    4.286    0.000    0.000    0.000   13.000 
#    0.000   10.286    0.000    0.000    0.000    0.000 
#
# Total GULP energy -346880.485017 kJ/mol
# GULP energy per Si atom -12388.588751 kJ/mol
# Density = 1.915503 g / cm^3
# Si number density = 19.198726 Si / 1000 Ang^3
#
#
#
# Elastic Constant Matrix: (Units=GPa)
#
#
# Indices 1 2 3 4 5 6 
#
# 1 53.6838 24.8599 23.5518 0.0000 -3.9314 0.0000
# 2 24.8599 115.8931 36.7463 0.0000 17.9950 0.0000
# 3 23.5518 36.7463 78.0549 0.0000 -0.3494 0.0000
# 4 0.0000 0.0000 0.0000 25.9897 0.0000 1.0468
# 5 -3.9314 17.9950 -0.3494 0.0000 19.3922 0.0000
# 6 0.0000 0.0000 0.0000 1.0468 0.0000 27.8140
#
#
#
# Elastic Compliance Matrix: (Units=1/GPa)
#
#
# Indices 1 2 3 4 5 6 
#
# 1 0.023736 -0.005049 -0.004743 0.000000 0.009412 0.000000
# 2 -0.005049 0.013331 -0.004813 0.000000 -0.013481 0.000000
# 3 -0.004743 -0.004813 0.016525 0.000000 0.003802 0.000000
# 4 0.000000 0.000000 0.000000 0.038535 0.000000 -0.001450
# 5 0.009412 -0.013481 0.003802 0.000000 0.066053 0.000000
# 6 0.000000 0.000000 0.000000 -0.001450 0.000000 0.036008
#
#
# Mechanical properties :
#
#
# Convention : Reuss Voigt Hill
#
# Bulk Modulus (GPa) = 41.01263 46.43865 43.72564
# Shear Modulus (GPa) = 21.59600 25.47076 23.53338
#
# Velocity S-wave (km/s) = 3.35754 3.64633 3.50491
# Velocity P-wave (km/s) = 6.03650 6.47831 6.26130
#
# Compressibility (1/GPa) = 0.02438273
#
# Stress axis : x y z
#
# Youngs Moduli (GPa) = 42.13067 75.01401 60.51343
#
# Poissons Ratio (x) = 0.37875 0.28700
# Poissons Ratio (y) = 0.21272 0.29123
# Poissons Ratio (z) = 0.19982 0.36102
#
# Static dielectric constant tensor:
#      x y z
#    x 3.664640 0.000000 0.119900 
#    y 0.000000 3.377430 0.000000 
#    z 0.119900 0.000000 3.576050 
# 
# 
# High freq. dielectric constant tensor:
#      x y z
#    x 1.723080 0.000000 -0.002660 
#    y 0.000000 1.718620 0.000000 
#    z -0.002660 0.000000 1.747960 
# 
# From -- ./inp_files/65427.got.cif
#   From: 2010.06.25/outbox.cif.g09.slc.cpg/sg15_33_cif.got.tgz:65427.got - 2010.06.28 07:06:18.
