data_PCOD8135568
_publ_section_title
;
Structure prediction by ZEFSAII (Michael W. Deem and Ramdas Pophale) SiO2 
 PCOD8135568
Probable space group: C 2/C
;
_chemical_formula_sum "Si O2"
_cell_formula_units_Z 44
_cell_length_a 5.590391
_cell_length_b 22.969980
_cell_length_c 13.928868
_cell_angle_alpha 90.000000
_cell_angle_beta 100.111884
_cell_angle_gamma 90.000000
_cell_volume 1760.839176
_symmetry_space_group_name_H-M "C 2/C"
_symmetry_group_IT_number 15
_symmetry_cell_setting 'monoclinic'
loop_
_space_group_symop_operation_xyz
x,y,z
-x,y,1/2-z
-x,-y,-z
x,-y,1/2+z
1/2+x,1/2+y,z
1/2-x,1/2+y,1/2-z
1/2-x,1/2-y,-z
1/2+x,1/2-y,1/2+z
loop_
_atom_site_type_symbol
_atom_site_label
_atom_site_fract_x
_atom_site_fract_y
_atom_site_fract_z
Si Si1 0.191830 0.936645 0.132239
Si Si2 0.916817 0.725355 0.929208
Si Si3 0.202212 0.392801 0.146657
Si Si4 0.710217 0.671861 0.404458
Si Si5 0.408325 0.435305 0.848845
Si Si6 0.500000 0.140871 0.250000
O O1 0.433582 0.914932 0.091675
O O2 0.244787 0.921652 0.247293
O O3 0.925345 0.908602 0.088793
O O4 0.152642 0.004449 0.103147
O O5 0.792863 0.677952 0.849965
O O6 0.992904 0.781809 0.873907
O O7 0.750000 0.750000 0.000000
O O8 0.141678 0.690410 0.991840
O O9 0.612506 0.605537 0.414130
O O10 0.850976 0.679743 0.314069
O O11 0.500000 0.451786 0.750000
O O12 0.162813 0.399164 0.829305
#
# Coordination Sequence:
#
# PCOD8135568 Si02
#       6
#     8   8   8   8   8   4
#     4  10  21  42  68 103 134 174 233 290 343 412
#     4  11  25  47  65  92 147 184 230 284 348 418
#     4  10  22  41  68  98 133 184 223 284 349 407
#     4  10  24  42  67  99 132 185 226 286 346 409
#     4  10  19  38  68  99 135 171 224 286 345 404
#     4  10  20  40  68 102 130 170 240 276 344 406
#
# _framework density 24.988085999999999
#
# number of rings (size 3 to 8) (size 9 to 14) (size 15 to 20)
#    0.000    1.818    1.818    2.182    7.636    0.000 
#   16.364    1.818    0.000    0.000    0.000    0.000 
#    0.000    0.000    0.000    0.000    0.000    0.000 
#
# Total GULP energy -272563.040956 kJ/mol
# GULP energy per Si atom -12389.229134 kJ/mol
# Density = 2.493121 g / cm^3
# Si number density = 24.988086 Si / 1000 Ang^3
#
#
#
# Elastic Constant Matrix: (Units=GPa)
#
#
# Indices 1 2 3 4 5 6 
#
# 1 190.3474 51.8374 9.5954 0.0000 -14.3481 0.0000
# 2 51.8374 175.6018 19.1083 0.0000 -11.1256 0.0000
# 3 9.5954 19.1083 24.0431 0.0000 2.0569 0.0000
# 4 0.0000 0.0000 0.0000 -69.6163 0.0000 26.0650
# 5 -14.3481 -11.1256 2.0569 0.0000 32.6336 0.0000
# 6 0.0000 0.0000 0.0000 26.0650 0.0000 22.8777
#
#
#
# Elastic Compliance Matrix: (Units=1/GPa)
#
#
# Indices 1 2 3 4 5 6 
#
# 1 0.005882 -0.001448 -0.001383 0.000000 0.002180 0.000000
# 2 -0.001448 0.006791 -0.004990 0.000000 0.001993 0.000000
# 3 -0.001383 -0.004990 0.046559 0.000000 -0.005244 0.000000
# 4 0.000000 0.000000 0.000000 -0.010069 0.000000 0.011472
# 5 0.002180 0.001993 -0.005244 0.000000 0.032612 0.000000
# 6 0.000000 0.000000 0.000000 0.011472 0.000000 0.030640
#
#
# Mechanical properties :
#
#
# Convention : Reuss Voigt Hill
#
# Bulk Modulus (GPa) = 22.94137 61.23049 42.08593
# Shear Modulus (GPa) = 35.06631 17.80907 26.43769
#
# Velocity S-wave (km/s) = 3.75016 2.67255 3.25624
# Velocity P-wave (km/s) = 5.28700 5.83784 5.56924
#
# Compressibility (1/GPa) = 0.04358937
#
# Stress axis : x y z
#
# Youngs Moduli (GPa) = 170.01487 147.24578 21.47831
#
# Poissons Ratio (x) = 0.21317 0.02971
# Poissons Ratio (y) = 0.24613 0.10718
# Poissons Ratio (z) = 0.23518 0.73479
#
# Static dielectric constant tensor:
#      x y z
#    x 5.684400 0.000000 0.385460 
#    y 0.000000 4.644040 0.000000 
#    z 0.385460 0.000000 4.103250 
# 
# 
# High freq. dielectric constant tensor:
#      x y z
#    x 2.020500 0.000000 0.001790 
#    y 0.000000 2.003190 0.000000 
#    z 0.001790 0.000000 1.956400 
# 
# From -- ./inp_files/184941.got.cif
#   From: 2010.06.25/outbox.cif.g09.slc.cpg/sg15_93_cif.got.tgz:184941.got - 2010.06.28 07:06:18.
