data_PCOD8135297
_publ_section_title
;
Structure prediction by ZEFSAII (Michael W. Deem and Ramdas Pophale) SiO2 
 PCOD8135297
Probable space group: C 2/C
;
_chemical_formula_sum "Si O2"
_cell_formula_units_Z 52
_cell_length_a 6.605913
_cell_length_b 28.467204
_cell_length_c 14.562986
_cell_angle_alpha 90.000000
_cell_angle_beta 111.065242
_cell_angle_gamma 90.000000
_cell_volume 2555.581168
_symmetry_space_group_name_H-M "C 2/C"
_symmetry_group_IT_number 15
_symmetry_cell_setting 'monoclinic'
loop_
_space_group_symop_operation_xyz
x,y,z
-x,y,1/2-z
-x,-y,-z
x,-y,1/2+z
1/2+x,1/2+y,z
1/2-x,1/2+y,1/2-z
1/2-x,1/2-y,-z
1/2+x,1/2-y,1/2+z
loop_
_atom_site_type_symbol
_atom_site_label
_atom_site_fract_x
_atom_site_fract_y
_atom_site_fract_z
Si Si1 0.781341 0.439314 0.946318
Si Si2 0.716215 0.040987 0.613557
Si Si3 0.421836 0.600535 0.910696
Si Si4 0.027648 0.269027 0.856315
Si Si5 0.500000 0.081470 0.750000
Si Si6 0.805022 0.158702 0.148402
Si Si7 0.486543 0.696416 0.495039
O O1 0.709274 0.487178 0.885383
O O2 0.744552 0.396103 0.871707
O O3 0.629012 0.432394 0.010299
O O4 0.036988 0.443042 0.010073
O O5 0.616548 0.046947 0.697715
O O6 0.929336 0.072649 0.636414
O O7 0.187725 0.613762 0.826598
O O8 0.554319 0.647139 0.959850
O O9 0.276404 0.280522 0.915985
O O10 0.000000 0.246990 0.750000
O O11 0.903425 0.318255 0.839493
O O12 0.926310 0.232687 0.913857
O O13 0.000000 0.165780 0.250000
O O14 0.842117 0.185475 0.057472
#
# Coordination Sequence:
#
# PCOD8135297 Si02
#       7
#     8   8   8   8   4   8   8
#     4   9  21  36  58  86 113 157 200 239 296 362
#     4  10  19  38  57  83 120 155 197 247 296 351
#     4  10  20  38  60  82 116 157 194 250 295 350
#     4  11  22  40  62  89 118 155 199 243 298 366
#     4  10  22  34  54  86 120 150 204 240 292 358
#     4  11  21  39  59  87 122 154 193 247 299 352
#     4  10  23  41  62  87 118 156 198 246 303 354
#
# _framework density 20.347621
#
# number of rings (size 3 to 8) (size 9 to 14) (size 15 to 20)
#    0.000    1.846    1.538    2.308    0.000    2.462 
#    2.769    3.077    0.000    0.000    0.000    0.000 
#    0.000    0.000    0.000    0.000    0.000    0.000 
#
# Total GULP energy -322384.477821 kJ/mol
# GULP energy per Si atom -12399.402993 kJ/mol
# Density = 2.030131 g / cm^3
# Si number density = 20.347621 Si / 1000 Ang^3
#
#
#
# Elastic Constant Matrix: (Units=GPa)
#
#
# Indices 1 2 3 4 5 6 
#
# 1 68.1378 30.2592 23.2024 0.0000 -4.9081 0.0000
# 2 30.2592 97.7005 38.6203 0.0000 -9.1815 0.0000
# 3 23.2024 38.6203 107.1920 0.0000 -8.6678 0.0000
# 4 0.0000 0.0000 0.0000 21.8351 0.0000 3.3044
# 5 -4.9081 -9.1815 -8.6678 0.0000 25.2396 0.0000
# 6 0.0000 0.0000 0.0000 3.3044 0.0000 24.7464
#
#
#
# Elastic Compliance Matrix: (Units=1/GPa)
#
#
# Indices 1 2 3 4 5 6 
#
# 1 0.017451 -0.004485 -0.002076 0.000000 0.001049 0.000000
# 2 -0.004485 0.013305 -0.003602 0.000000 0.002731 0.000000
# 3 -0.002076 -0.003602 0.011250 0.000000 0.002149 0.000000
# 4 0.000000 0.000000 0.000000 0.046742 0.000000 -0.006242
# 5 0.001049 0.002731 0.002149 0.000000 0.041556 0.000000
# 6 0.000000 0.000000 0.000000 -0.006242 0.000000 0.041243
#
#
# Mechanical properties :
#
#
# Convention : Reuss Voigt Hill
#
# Bulk Modulus (GPa) = 46.12938 50.79935 48.46437
# Shear Modulus (GPa) = 25.11291 26.42746 25.77018
#
# Velocity S-wave (km/s) = 3.51692 3.60779 3.56265
# Velocity P-wave (km/s) = 6.26191 6.50960 6.38695
#
# Compressibility (1/GPa) = 0.02167816
#
# Stress axis : x y z
#
# Youngs Moduli (GPa) = 57.30442 75.15973 88.88823
#
# Poissons Ratio (x) = 0.33712 0.18457
# Poissons Ratio (y) = 0.25703 0.32017
# Poissons Ratio (z) = 0.11899 0.27072
#
# Static dielectric constant tensor:
#      x y z
#    x 3.584460 0.000000 -0.036850 
#    y 0.000000 3.623380 0.000000 
#    z -0.036850 0.000000 3.821560 
# 
# 
# High freq. dielectric constant tensor:
#      x y z
#    x 1.794440 0.000000 -0.002940 
#    y 0.000000 1.786530 0.000000 
#    z -0.002940 0.000000 1.801340 
# 
# From -- ./inp_files/130700.got.cif
#   From: 2010.06.25/outbox.cif.g09.slc.cpg/sg15_66_cif.got.tgz:130700.got - 2010.06.28 07:06:18.
