data_PCOD8135886
_publ_section_title
;
Structure prediction by ZEFSAII (Michael W. Deem and Ramdas Pophale) SiO2 
 PCOD8135886
Probable space group: C 2/C
;
_chemical_formula_sum "Si O2"
_cell_formula_units_Z 64
_cell_length_a 14.489938
_cell_length_b 17.971329
_cell_length_c 23.532383
_cell_angle_alpha 90.000000
_cell_angle_beta 32.048473
_cell_angle_gamma 90.000000
_cell_volume 3251.694813
_symmetry_space_group_name_H-M "C 2/C"
_symmetry_group_IT_number 15
_symmetry_cell_setting 'monoclinic'
loop_
_space_group_symop_operation_xyz
x,y,z
-x,y,1/2-z
-x,-y,-z
x,-y,1/2+z
1/2+x,1/2+y,z
1/2-x,1/2+y,1/2-z
1/2-x,1/2-y,-z
1/2+x,1/2-y,1/2+z
loop_
_atom_site_type_symbol
_atom_site_label
_atom_site_fract_x
_atom_site_fract_y
_atom_site_fract_z
Si Si1 0.722448 0.983975 0.769394
Si Si2 0.201799 0.053208 0.146819
Si Si3 0.974180 0.953668 0.456346
Si Si4 0.738141 0.318102 0.773575
Si Si5 0.171552 0.473748 0.529809
Si Si6 0.523431 0.293348 0.994308
Si Si7 0.884868 0.693405 0.454768
Si Si8 0.318097 0.723916 0.320102
O O1 0.715732 0.988907 0.841603
O O2 0.807364 0.904967 0.708504
O O3 0.526428 0.991895 0.847077
O O4 0.851944 0.044173 0.673592
O O5 0.234598 0.141271 0.132541
O O6 0.000000 0.033438 0.250000
O O7 0.289657 0.026029 0.043477
O O8 0.807197 0.987656 0.510400
O O9 0.937071 0.868078 0.491156
O O10 0.000000 0.000000 0.500000
O O11 0.641539 0.285607 0.877845
O O12 0.670398 0.273269 0.754229
O O13 0.944861 0.307751 0.674152
O O14 0.194107 0.388536 0.498427
O O15 0.564197 0.219829 0.009288
O O16 0.320036 0.284812 0.084518
O O17 0.750000 0.750000 0.500000
O O18 0.500000 0.750334 0.250000
#
# Coordination Sequence:
#
# PCOD8135886 Si02
#       8
#     8   8   8   8   8   8   8   8
#     4  10  21  40  62  91 124 163 209 254 310 379
#     4  10  19  40  69  90 124 160 206 266 321 365
#     4  12  24  41  63  90 128 169 210 257 308 375
#     4   9  20  39  62  84 122 167 196 246 314 364
#     4  11  23  42  66  94 125 163 210 262 322 366
#     4  11  22  42  61  89 129 163 206 252 308 377
#     4  10  21  41  60  90 125 158 201 251 310 379
#     4   9  21  40  63  89 121 164 208 253 309 367
#
# _framework density 19.682044000000001
#
# number of rings (size 3 to 8) (size 9 to 14) (size 15 to 20)
#    0.000    1.750    3.750    1.125    0.000    1.500 
#   13.500    0.000    0.000    0.000    0.000    0.000 
#    0.000    0.000    0.000    0.000    0.000    0.000 
#
# Total GULP energy -396838.884295 kJ/mol
# GULP energy per Si atom -12401.215134 kJ/mol
# Density = 1.963725 g / cm^3
# Si number density = 19.682044 Si / 1000 Ang^3
#
#
#
# Elastic Constant Matrix: (Units=GPa)
#
#
# Indices 1 2 3 4 5 6 
#
# 1 116.8787 22.6815 56.6613 0.0023 -9.5610 0.0011
# 2 22.6815 42.3682 24.3918 0.0050 5.8879 -0.0020
# 3 56.6613 24.3918 118.8140 0.0203 5.2244 -0.0029
# 4 0.0023 0.0050 0.0203 26.9527 -0.0114 -5.5967
# 5 -9.5610 5.8879 5.2244 -0.0114 36.2270 0.0012
# 6 0.0011 -0.0020 -0.0029 -5.5967 0.0012 28.0554
#
#
#
# Elastic Compliance Matrix: (Units=1/GPa)
#
#
# Indices 1 2 3 4 5 6 
#
# 1 0.012277 -0.004234 -0.005191 0.000006 0.004677 0.000000
# 2 -0.004234 0.028696 -0.003641 -0.000004 -0.005256 0.000001
# 3 -0.005191 -0.003641 0.011748 -0.000009 -0.002473 0.000000
# 4 0.000006 -0.000004 -0.000009 0.038705 0.000015 0.007721
# 5 0.004677 -0.005256 -0.002473 0.000015 0.030049 0.000001
# 6 0.000000 0.000001 0.000000 0.007721 0.000001 0.037184
#
#
# Mechanical properties :
#
#
# Convention : Reuss Voigt Hill
#
# Bulk Modulus (GPa) = 37.60921 53.94777 45.77849
# Shear Modulus (GPa) = 25.81936 29.86876 27.84406
#
# Velocity S-wave (km/s) = 3.62584 3.89982 3.76532
# Velocity P-wave (km/s) = 6.05630 6.90994 6.49716
#
# Compressibility (1/GPa) = 0.02658923
#
# Stress axis : x y z
#
# Youngs Moduli (GPa) = 81.45583 34.84854 85.11865
#
# Poissons Ratio (x) = 0.14753 0.44186
# Poissons Ratio (y) = 0.34485 0.30992
# Poissons Ratio (z) = 0.42285 0.12688
#
# Static dielectric constant tensor:
#      x y z
#    x 4.017780 -0.000030 -0.313870 
#    y -0.000030 3.522980 0.000030 
#    z -0.313870 0.000030 3.624450 
# 
# 
# High freq. dielectric constant tensor:
#      x y z
#    x 1.774790 0.000000 -0.010710 
#    y 0.000000 1.753140 0.000000 
#    z -0.010710 0.000000 1.766440 
# 
# From -- ./inp_files/174237.got.cif
#   From: 2010.06.25/outbox.cif.g09.slc.cpg/sg15_88_cif.got.tgz:174237.got - 2010.06.28 07:06:18.
