data_PCOD8135166
_publ_section_title
;
Structure prediction by ZEFSAII (Michael W. Deem and Ramdas Pophale) SiO2 
 PCOD8135166
Probable space group: C 2/C
;
_chemical_formula_sum "Si O2"
_cell_formula_units_Z 56
_cell_length_a 26.970082
_cell_length_b 8.701860
_cell_length_c 17.507754
_cell_angle_alpha 90.000000
_cell_angle_beta 144.080890
_cell_angle_gamma 90.000000
_cell_volume 2410.451051
_symmetry_space_group_name_H-M "C 2/C"
_symmetry_group_IT_number 15
_symmetry_cell_setting 'monoclinic'
loop_
_space_group_symop_operation_xyz
x,y,z
-x,y,1/2-z
-x,-y,-z
x,-y,1/2+z
1/2+x,1/2+y,z
1/2-x,1/2+y,1/2-z
1/2-x,1/2-y,-z
1/2+x,1/2-y,1/2+z
loop_
_atom_site_type_symbol
_atom_site_label
_atom_site_fract_x
_atom_site_fract_y
_atom_site_fract_z
Si Si1 0.650582 0.569885 0.780622
Si Si2 0.911184 0.633822 0.231000
Si Si3 0.794099 0.597005 0.529376
Si Si4 0.909334 0.271993 0.557244
Si Si5 0.268386 0.935964 0.290563
Si Si6 0.658447 0.774135 0.569947
Si Si7 0.014566 0.059012 0.357074
O O1 0.625869 0.749222 0.752548
O O2 0.685123 0.531403 0.739267
O O3 0.571791 0.459093 0.703248
O O4 0.723771 0.534782 0.933474
O O5 0.865233 0.466976 0.177155
O O6 0.890718 0.709957 0.123404
O O7 0.011889 0.617168 0.368253
O O8 0.750000 0.750000 0.500000
O O9 0.838609 0.630449 0.504496
O O10 0.828129 0.312118 0.406452
O O11 0.931493 0.095699 0.569475
O O12 0.231424 0.858437 0.167091
O O13 0.320258 0.094646 0.339115
O O14 0.566249 0.697723 0.461849
O O15 0.000000 0.100472 0.250000
#
# Coordination Sequence:
#
# PCOD8135166 Si02
#       7
#     8   8   8   8   8   8   8
#     4  10  21  38  63  93 121 159 207 263 305 372
#     4  10  19  37  63  93 120 157 203 253 312 358
#     4  11  23  37  60  95 126 156 204 263 315 357
#     4  10  19  37  65  92 118 162 202 249 308 371
#     4  11  24  42  62  88 125 171 210 245 309 375
#     4  11  25  41  60  87 125 169 204 253 305 378
#     4  11  21  38  66  95 121 155 207 263 320 364
#
# _framework density 23.232165999999999
#
# number of rings (size 3 to 8) (size 9 to 14) (size 15 to 20)
#    0.000    1.429    5.714    2.143    0.000    4.000 
#    0.000    1.429    0.000    7.714    0.000    0.000 
#    0.000    0.000    0.000    0.000    0.000    0.000 
#
# Total GULP energy -347055.265589 kJ/mol
# GULP energy per Si atom -12394.830914 kJ/mol
# Density = 2.317929 g / cm^3
# Si number density = 23.232166 Si / 1000 Ang^3
#
#
#
# Elastic Constant Matrix: (Units=GPa)
#
#
# Indices 1 2 3 4 5 6 
#
# 1 49.5271 20.5235 26.1844 0.0000 24.1704 0.0000
# 2 20.5235 95.6054 38.3374 0.0000 12.4867 0.0000
# 3 26.1844 38.3374 104.5791 0.0000 17.7970 0.0000
# 4 0.0000 0.0000 0.0000 35.1665 0.0000 7.0841
# 5 24.1704 12.4867 17.7970 0.0000 26.3583 0.0000
# 6 0.0000 0.0000 0.0000 7.0841 0.0000 28.1566
#
#
#
# Elastic Compliance Matrix: (Units=1/GPa)
#
#
# Indices 1 2 3 4 5 6 
#
# 1 0.038642 -0.002842 -0.003200 0.000000 -0.031927 0.000000
# 2 -0.002842 0.012705 -0.003802 0.000000 -0.000845 0.000000
# 3 -0.003200 -0.003802 0.012373 0.000000 -0.003619 0.000000
# 4 0.000000 0.000000 0.000000 0.029954 0.000000 -0.007536
# 5 -0.031927 -0.000845 -0.003619 0.000000 0.070060 0.000000
# 6 0.000000 0.000000 0.000000 -0.007536 0.000000 0.037412
#
#
# Mechanical properties :
#
#
# Convention : Reuss Voigt Hill
#
# Bulk Modulus (GPa) = 22.71098 46.64467 34.67783
# Shear Modulus (GPa) = 21.23049 28.91404 25.07226
#
# Velocity S-wave (km/s) = 3.02626 3.53167 3.28869
# Velocity P-wave (km/s) = 4.69126 6.06230 5.42030
#
# Compressibility (1/GPa) = 0.04403156
#
# Stress axis : x y z
#
# Youngs Moduli (GPa) = 25.87871 78.71078 80.82185
#
# Poissons Ratio (x) = 0.22371 0.25862
# Poissons Ratio (y) = 0.07355 0.30728
# Poissons Ratio (z) = 0.08281 0.29925
#
# Static dielectric constant tensor:
#      x y z
#    x 3.452210 0.000000 0.624080 
#    y 0.000000 4.369810 0.000000 
#    z 0.624080 0.000000 4.088310 
# 
# 
# High freq. dielectric constant tensor:
#      x y z
#    x 1.879480 0.000000 0.020570 
#    y 0.000000 1.922820 0.000000 
#    z 0.020570 0.000000 1.922600 
# 
# From -- ./inp_files/259026.got.cif
#   From: 2010.06.25/outbox.cif.g09.slc.cpg/sg15_130_cif.got.tgz:259026.got - 2010.06.28 07:06:18.
