data_PCOD8135032
_publ_section_title
;
Structure prediction by ZEFSAII (Michael W. Deem and Ramdas Pophale) SiO2 
 PCOD8135032
Probable space group: C 2/C
;
_chemical_formula_sum "Si O2"
_cell_formula_units_Z 56
_cell_length_a 11.281834
_cell_length_b 23.775659
_cell_length_c 10.931614
_cell_angle_alpha 90.000000
_cell_angle_beta 78.066157
_cell_angle_gamma 90.000000
_cell_volume 2868.846008
_symmetry_space_group_name_H-M "C 2/C"
_symmetry_group_IT_number 15
_symmetry_cell_setting 'monoclinic'
loop_
_space_group_symop_operation_xyz
x,y,z
-x,y,1/2-z
-x,-y,-z
x,-y,1/2+z
1/2+x,1/2+y,z
1/2-x,1/2+y,1/2-z
1/2-x,1/2-y,-z
1/2+x,1/2-y,1/2+z
loop_
_atom_site_type_symbol
_atom_site_label
_atom_site_fract_x
_atom_site_fract_y
_atom_site_fract_z
Si Si1 0.637324 0.254896 0.615244
Si Si2 0.443307 0.186968 0.519396
Si Si3 0.500000 0.644392 0.250000
Si Si4 0.251557 0.739789 0.153808
Si Si5 0.771585 0.892275 0.667921
Si Si6 0.362441 0.930527 0.030966
Si Si7 0.587927 0.033299 0.339212
Si Si8 0.000000 0.719290 0.250000
O O1 0.750000 0.250000 0.500000
O O2 0.540061 0.209366 0.594262
O O3 0.576119 0.317317 0.636245
O O4 0.672406 0.239699 0.745350
O O5 0.329833 0.231828 0.526153
O O6 0.379557 0.131104 0.585843
O O7 0.505138 0.180038 0.371532
O O8 0.590349 0.604808 0.310957
O O9 0.239420 0.672277 0.146492
O O10 0.114990 0.760987 0.210747
O O11 0.743179 0.928399 0.550707
O O12 0.681242 0.916932 0.788559
O O13 0.330961 0.979467 0.134380
O O14 0.500025 0.943002 0.960857
O O15 0.500000 0.013037 0.250000
#
# Coordination Sequence:
#
# PCOD8135032 Si02
#       8
#     8   8   4   8   8   8   8   4
#     4  11  21  36  55  84 126 158 202 242 297 365
#     4  12  22  36  58  89 125 157 200 246 301 363
#     4  10  22  38  60  89 119 166 202 244 296 382
#     4  11  22  36  56  88 119 160 197 237 300 367
#     4  10  19  37  60  83 115 154 199 243 298 367
#     4  10  21  34  61  86 115 152 198 260 296 353
#     4   9  20  38  58  87 114 150 206 250 308 354
#     4  12  22  32  54  83 121 162 192 234 292 364
#
# _framework density 19.520046000000001
#
# number of rings (size 3 to 8) (size 9 to 14) (size 15 to 20)
#    0.000    1.429    5.714    1.286    4.000    1.143 
#    0.000    0.714    0.000    0.857    0.000    0.000 
#    0.000    0.000    0.000    0.000    0.000    0.000 
#
# Total GULP energy -346881.594139 kJ/mol
# GULP energy per Si atom -12388.628362 kJ/mol
# Density = 1.947562 g / cm^3
# Si number density = 19.520046 Si / 1000 Ang^3
#
#
#
# Elastic Constant Matrix: (Units=GPa)
#
#
# Indices 1 2 3 4 5 6 
#
# 1 140.8932 46.1000 28.5657 0.0000 4.6004 0.0000
# 2 46.1000 102.8487 38.5630 0.0000 2.5517 0.0000
# 3 28.5657 38.5630 67.2945 0.0000 -11.1057 0.0000
# 4 0.0000 0.0000 0.0000 27.9100 0.0000 5.5219
# 5 4.6004 2.5517 -11.1057 0.0000 33.5366 0.0000
# 6 0.0000 0.0000 0.0000 5.5219 0.0000 33.3457
#
#
#
# Elastic Compliance Matrix: (Units=1/GPa)
#
#
# Indices 1 2 3 4 5 6 
#
# 1 0.008574 -0.002971 -0.002215 0.000000 -0.001684 0.000000
# 2 -0.002971 0.013810 -0.007150 0.000000 -0.003011 0.000000
# 3 -0.002215 -0.007150 0.021196 0.000000 0.007867 0.000000
# 4 0.000000 0.000000 0.000000 0.037043 0.000000 -0.006134
# 5 -0.001684 -0.003011 0.007867 0.000000 0.032883 0.000000
# 6 0.000000 0.000000 0.000000 -0.006134 0.000000 0.031005
#
#
# Mechanical properties :
#
#
# Convention : Reuss Voigt Hill
#
# Bulk Modulus (GPa) = 52.88559 59.72154 56.30357
# Shear Modulus (GPa) = 28.49266 32.14564 30.31915
#
# Velocity S-wave (km/s) = 3.82470 4.06248 3.94538
# Velocity P-wave (km/s) = 6.83053 7.25716 7.04708
#
# Compressibility (1/GPa) = 0.01890874
#
# Stress axis : x y z
#
# Youngs Moduli (GPa) = 116.63682 72.41095 47.17962
#
# Poissons Ratio (x) = 0.21511 0.10450
# Poissons Ratio (y) = 0.34650 0.33732
# Poissons Ratio (z) = 0.25833 0.51772
#
# Static dielectric constant tensor:
#      x y z
#    x 3.953800 0.000000 0.117680 
#    y 0.000000 3.492740 0.000000 
#    z 0.117680 0.000000 3.674910 
# 
# 
# High freq. dielectric constant tensor:
#      x y z
#    x 1.778380 0.000000 0.016450 
#    y 0.000000 1.727290 0.000000 
#    z 0.016450 0.000000 1.755260 
# 
# From -- ./inp_files/89599.got.cif
#   From: 2010.06.25/outbox.cif.g09.slc.cpg/sg15_45_cif.got.tgz:89599.got - 2010.06.28 07:06:18.
