data_PCOD8135671
_publ_section_title
;
Structure prediction by ZEFSAII (Michael W. Deem and Ramdas Pophale) SiO2 
 PCOD8135671
Probable space group: C 2/C
;
_chemical_formula_sum "Si O2"
_cell_formula_units_Z 56
_cell_length_a 22.595185
_cell_length_b 8.735436
_cell_length_c 16.325879
_cell_angle_alpha 90.000000
_cell_angle_beta 58.103510
_cell_angle_gamma 90.000000
_cell_volume 2735.815637
_symmetry_space_group_name_H-M "C 2/C"
_symmetry_group_IT_number 15
_symmetry_cell_setting 'monoclinic'
loop_
_space_group_symop_operation_xyz
x,y,z
-x,y,1/2-z
-x,-y,-z
x,-y,1/2+z
1/2+x,1/2+y,z
1/2-x,1/2+y,1/2-z
1/2-x,1/2-y,-z
1/2+x,1/2-y,1/2+z
loop_
_atom_site_type_symbol
_atom_site_label
_atom_site_fract_x
_atom_site_fract_y
_atom_site_fract_z
Si Si1 0.761832 0.528670 0.695471
Si Si2 0.689026 0.845199 0.500088
Si Si3 0.132767 0.093334 0.203936
Si Si4 0.174104 0.306907 0.038704
Si Si5 0.660489 0.261582 0.362307
Si Si6 0.562954 0.670645 0.656741
Si Si7 0.539660 0.464403 0.390049
O O1 0.796819 0.651259 0.607958
O O2 0.712769 0.422467 0.673504
O O3 0.722535 0.616021 0.797309
O O4 0.818620 0.406826 0.688782
O O5 0.750000 0.750000 0.500000
O O6 0.612952 0.775042 0.567057
O O7 0.678522 0.012081 0.546291
O O8 0.124220 0.232245 0.145697
O O9 0.110256 0.929156 0.183320
O O10 0.084707 0.108922 0.321037
O O11 0.250000 0.250000 0.000000
O O12 0.147580 0.249972 0.969221
O O13 0.590561 0.317833 0.368095
O O14 0.500000 0.762357 0.750000
O O15 0.522665 0.558222 0.626763
O O16 0.500000 0.500000 0.500000
#
# Coordination Sequence:
#
# PCOD8135671 Si02
#       7
#     8   8   8   8   8   8   8
#     4  10  21  39  58  93 124 156 211 261 315 370
#     4  11  21  37  66  94 122 165 212 261 317 369
#     4  10  19  39  63  88 117 161 215 260 302 366
#     4  11  20  38  61  93 125 155 212 269 310 367
#     4  10  22  38  60  89 126 162 205 262 316 371
#     4  10  21  40  60  88 124 164 208 252 309 381
#     4  10  22  39  62  86 127 172 210 242 316 390
#
# _framework density 20.469214999999998
#
# number of rings (size 3 to 8) (size 9 to 14) (size 15 to 20)
#    0.000    1.714    4.286    0.857    0.000    4.571 
#    0.000    7.857    0.000    1.714    0.000    0.000 
#    0.000    0.000    0.000    0.000    0.000    0.000 
#
# Total GULP energy -346899.292687 kJ/mol
# GULP energy per Si atom -12389.260453 kJ/mol
# Density = 2.042263 g / cm^3
# Si number density = 20.469215 Si / 1000 Ang^3
#
#
#
# Elastic Constant Matrix: (Units=GPa)
#
#
# Indices 1 2 3 4 5 6 
#
# 1 57.6131 12.3506 13.7621 0.0000 -7.0150 0.0001
# 2 12.3506 87.1620 43.6453 0.0002 -5.3453 0.0003
# 3 13.7621 43.6453 142.3293 0.0000 -8.9646 0.0000
# 4 0.0000 0.0002 0.0000 35.5372 0.0000 4.3554
# 5 -7.0150 -5.3453 -8.9646 0.0000 31.9255 0.0000
# 6 0.0001 0.0003 0.0000 4.3554 0.0000 22.9287
#
#
#
# Elastic Compliance Matrix: (Units=1/GPa)
#
#
# Indices 1 2 3 4 5 6 
#
# 1 0.018420 -0.001908 -0.000978 0.000000 0.003453 0.000000
# 2 -0.001908 0.013791 -0.003996 0.000000 0.000768 0.000000
# 3 -0.000978 -0.003996 0.008440 0.000000 0.001486 0.000000
# 4 0.000000 0.000000 0.000000 0.028810 0.000000 -0.005473
# 5 0.003453 0.000768 0.001486 0.000000 0.032627 0.000000
# 6 0.000000 0.000000 0.000000 -0.005473 0.000000 0.044653
#
#
# Mechanical properties :
#
#
# Convention : Reuss Voigt Hill
#
# Bulk Modulus (GPa) = 37.19498 47.40226 42.29862
# Shear Modulus (GPa) = 29.50370 32.56803 31.03586
#
# Velocity S-wave (km/s) = 3.80066 3.99315 3.89809
# Velocity P-wave (km/s) = 6.12132 6.66847 6.40075
#
# Compressibility (1/GPa) = 0.02688535
#
# Stress axis : x y z
#
# Youngs Moduli (GPa) = 54.28742 72.50865 118.48909
#
# Poissons Ratio (x) = 0.13838 0.11593
# Poissons Ratio (y) = 0.10360 0.47351
# Poissons Ratio (z) = 0.05311 0.28976
#
# Static dielectric constant tensor:
#      x y z
#    x 3.324570 0.000000 -0.468380 
#    y 0.000000 3.659720 0.000000 
#    z -0.468380 0.000000 3.705950 
# 
# 
# High freq. dielectric constant tensor:
#      x y z
#    x 1.792380 0.000000 -0.001220 
#    y 0.000000 1.772290 0.000000 
#    z -0.001220 0.000000 1.821440 
# 
# From -- ./inp_files/213792.got.cif
#   From: 2010.06.25/outbox.cif.g09.slc.cpg/sg15_107_cif.got.tgz:213792.got - 2010.06.28 07:06:18.
