data_PCOD8135061
_publ_section_title
;
Structure prediction by ZEFSAII (Michael W. Deem and Ramdas Pophale) SiO2 
 PCOD8135061
Probable space group: C 2/C
;
_chemical_formula_sum "Si O2"
_cell_formula_units_Z 56
_cell_length_a 16.525011
_cell_length_b 27.810475
_cell_length_c 8.758635
_cell_angle_alpha 90.000000
_cell_angle_beta 140.156413
_cell_angle_gamma 90.000000
_cell_volume 2578.916214
_symmetry_space_group_name_H-M "C 2/C"
_symmetry_group_IT_number 15
_symmetry_cell_setting 'monoclinic'
loop_
_space_group_symop_operation_xyz
x,y,z
-x,y,1/2-z
-x,-y,-z
x,-y,1/2+z
1/2+x,1/2+y,z
1/2-x,1/2+y,1/2-z
1/2-x,1/2-y,-z
1/2+x,1/2-y,1/2+z
loop_
_atom_site_type_symbol
_atom_site_label
_atom_site_fract_x
_atom_site_fract_y
_atom_site_fract_z
Si Si1 0.341532 0.646746 0.802844
Si Si2 0.073412 0.809175 0.516183
Si Si3 0.501712 0.891439 0.937526
Si Si4 0.218889 0.107397 0.105928
Si Si5 0.251151 0.560872 0.849235
Si Si6 0.140194 0.019755 0.182926
Si Si7 0.602724 0.795313 0.026320
O O1 0.478523 0.671611 0.010051
O O2 0.331297 0.614343 0.636974
O O3 0.322444 0.611233 0.918144
O O4 0.235042 0.688193 0.643625
O O5 0.191699 0.845495 0.670752
O O6 0.122812 0.756235 0.638877
O O7 0.000000 0.808297 0.250000
O O8 0.500000 0.892583 0.750000
O O9 0.368426 0.903072 0.821103
O O10 0.600890 0.930264 0.145421
O O11 0.548229 0.837830 0.055424
O O12 0.143308 0.062030 0.062602
O O13 0.270540 0.523631 0.739818
O O14 0.307228 0.539632 0.083454
O O15 0.000000 0.000000 0.000000
O O16 0.500000 0.784482 0.750000
#
# Coordination Sequence:
#
# PCOD8135061 Si02
#       7
#     8   8   8   8   8   8   8
#     4  10  19  37  60  91 131 172 215 273 320 381
#     4   9  20  28  55  95 129 165 222 265 321 376
#     4  10  20  40  64  91 134 171 212 270 320 382
#     4  11  21  39  61  92 131 171 214 269 326 378
#     4  11  24  43  66  93 124 168 215 267 331 392
#     4  12  27  45  68  94 125 164 215 272 331 397
#     4   9  16  30  55  92 128 167 213 270 322 362
#
# _framework density 21.714547
#
# number of rings (size 3 to 8) (size 9 to 14) (size 15 to 20)
#    0.000    1.714    4.286    2.143    2.000    5.143 
#    0.000    0.000    0.000    3.429    7.429    0.000 
#    0.000    0.000    0.000    0.000    0.000    0.000 
#
# Total GULP energy -347124.883231 kJ/mol
# GULP energy per Si atom -12397.317258 kJ/mol
# Density = 2.166512 g / cm^3
# Si number density = 21.714547 Si / 1000 Ang^3
#
#
#
# Elastic Constant Matrix: (Units=GPa)
#
#
# Indices 1 2 3 4 5 6 
#
# 1 135.3643 72.7478 56.0620 0.0000 32.0815 0.0000
# 2 72.7478 154.7054 50.5795 0.0000 22.4846 0.0000
# 3 56.0620 50.5795 78.2564 0.0000 18.8470 0.0000
# 4 0.0000 0.0000 0.0000 18.8376 0.0000 9.2227
# 5 32.0815 22.4846 18.8470 0.0000 27.1129 0.0000
# 6 0.0000 0.0000 0.0000 9.2227 0.0000 31.1511
#
#
#
# Elastic Compliance Matrix: (Units=1/GPa)
#
#
# Indices 1 2 3 4 5 6 
#
# 1 0.013659 -0.003264 -0.005327 0.000000 -0.009753 0.000000
# 2 -0.003264 0.009304 -0.003300 0.000000 -0.001560 0.000000
# 3 -0.005327 -0.003300 0.019878 0.000000 -0.004778 0.000000
# 4 0.000000 0.000000 0.000000 0.062085 0.000000 -0.018381
# 5 -0.009753 -0.001560 -0.004778 0.000000 0.053038 0.000000
# 6 0.000000 0.000000 0.000000 -0.018381 0.000000 0.037544
#
#
# Mechanical properties :
#
#
# Convention : Reuss Voigt Hill
#
# Bulk Modulus (GPa) = 52.46427 80.78940 66.62683
# Shear Modulus (GPa) = 22.15896 28.01611 25.08754
#
# Velocity S-wave (km/s) = 3.19794 3.59583 3.40271
# Velocity P-wave (km/s) = 6.15216 7.38417 6.79614
#
# Compressibility (1/GPa) = 0.01906059
#
# Stress axis : x y z
#
# Youngs Moduli (GPa) = 73.21091 107.47755 50.30674
#
# Poissons Ratio (x) = 0.35081 0.26798
# Poissons Ratio (y) = 0.23896 0.16599
# Poissons Ratio (z) = 0.38998 0.35463
#
# Static dielectric constant tensor:
#      x y z
#    x 4.349260 0.000000 0.614650 
#    y 0.000000 4.461180 0.000000 
#    z 0.614650 0.000000 3.833730 
# 
# 
# High freq. dielectric constant tensor:
#      x y z
#    x 1.851990 0.000000 0.026320 
#    y 0.000000 1.872290 0.000000 
#    z 0.026320 0.000000 1.811820 
# 
# From -- ./inp_files/52367.got.cif
#   From: 2010.06.25/outbox.cif.g09.slc.cpg/sg15_27_cif.got.tgz:52367.got - 2010.06.28 07:06:18.
