data_PCOD8135961
_publ_section_title
;
Structure prediction by ZEFSAII (Michael W. Deem and Ramdas Pophale) SiO2 
 PCOD8135961
Probable space group: C 2/C
;
_chemical_formula_sum "Si O2"
_cell_formula_units_Z 40
_cell_length_a 21.550541
_cell_length_b 9.178873
_cell_length_c 9.588264
_cell_angle_alpha 90.000000
_cell_angle_beta 86.033167
_cell_angle_gamma 90.000000
_cell_volume 1892.107546
_symmetry_space_group_name_H-M "C 2/C"
_symmetry_group_IT_number 15
_symmetry_cell_setting 'monoclinic'
loop_
_space_group_symop_operation_xyz
x,y,z
-x,y,1/2-z
-x,-y,-z
x,-y,1/2+z
1/2+x,1/2+y,z
1/2-x,1/2+y,1/2-z
1/2-x,1/2-y,-z
1/2+x,1/2-y,1/2+z
loop_
_atom_site_type_symbol
_atom_site_label
_atom_site_fract_x
_atom_site_fract_y
_atom_site_fract_z
Si Si1 0.521170 0.781274 0.595923
Si Si2 0.300049 0.513566 0.751430
Si Si3 0.316981 0.196711 0.756538
Si Si4 0.140406 0.860403 0.994041
Si Si5 0.554290 0.895601 0.131664
O O1 0.500000 0.725010 0.750000
O O2 0.566415 0.658892 0.523888
O O3 0.461304 0.807025 0.507185
O O4 0.559047 0.932558 0.602462
O O5 0.291704 0.352027 0.819855
O O6 0.233185 0.571025 0.711760
O O7 0.345740 0.499957 0.608883
O O8 0.328487 0.624194 0.859435
O O9 0.331151 0.217248 0.588196
O O10 0.379755 0.157719 0.826080
O O11 0.500000 0.861009 0.250000
#
# Coordination Sequence:
#
# PCOD8135961 Si02
#       5
#     8   8   8   8   8
#     4  10  22  39  70 102 132 176 225 275 336 396
#     4  10  24  42  67  99 134 185 217 273 342 393
#     4  10  23  41  70  97 138 172 224 278 326 407
#     4  10  23  45  64  97 139 171 226 279 327 405
#     4  10  19  41  67 102 132 175 224 279 334 393
#
# _framework density 21.140447000000002
#
# number of rings (size 3 to 8) (size 9 to 14) (size 15 to 20)
#    1.200    0.800    2.000    0.600    2.800    2.400 
#    0.000    5.000    0.000    0.000    0.000    0.000 
#    0.000    0.000    0.000    0.000    0.000    0.000 
#
# Total GULP energy -247880.426215 kJ/mol
# GULP energy per Si atom -12394.021311 kJ/mol
# Density = 2.109233 g / cm^3
# Si number density = 21.140447 Si / 1000 Ang^3
#
#
#
# Elastic Constant Matrix: (Units=GPa)
#
#
# Indices 1 2 3 4 5 6 
#
# 1 156.5772 78.2520 73.3016 0.0000 15.2083 0.0000
# 2 78.2520 71.9768 34.4270 0.0000 9.9834 0.0000
# 3 73.3016 34.4270 135.4656 0.0000 -1.0801 0.0000
# 4 0.0000 0.0000 0.0000 34.6893 0.0000 -4.0978
# 5 15.2083 9.9834 -1.0801 0.0000 39.3914 0.0000
# 6 0.0000 0.0000 0.0000 -4.0978 0.0000 31.2294
#
#
#
# Elastic Compliance Matrix: (Units=1/GPa)
#
#
# Indices 1 2 3 4 5 6 
#
# 1 0.016752 -0.015356 -0.005184 0.000000 -0.002718 0.000000
# 2 -0.015356 0.030590 0.000521 0.000000 -0.001810 0.000000
# 3 -0.005184 0.000521 0.010072 0.000000 0.002146 0.000000
# 4 0.000000 0.000000 0.000000 0.029281 0.000000 0.003842
# 5 -0.002718 -0.001810 0.002146 0.000000 0.026953 0.000000
# 6 0.000000 0.000000 0.000000 0.003842 0.000000 0.032525
#
#
# Mechanical properties :
#
#
# Convention : Reuss Voigt Hill
#
# Bulk Modulus (GPa) = 57.55174 81.77567 69.66370
# Shear Modulus (GPa) = 26.04138 32.93128 29.48633
#
# Velocity S-wave (km/s) = 3.51355 3.95110 3.73873
# Velocity P-wave (km/s) = 6.61382 7.71887 7.18762
#
# Compressibility (1/GPa) = 0.01737567
#
# Stress axis : x y z
#
# Youngs Moduli (GPa) = 59.69578 32.69053 99.28863
#
# Poissons Ratio (x) = 0.50199 0.51467
# Poissons Ratio (y) = 0.91667 -0.05169
# Poissons Ratio (z) = 0.30944 -0.01702
#
# Static dielectric constant tensor:
#      x y z
#    x 3.553190 0.000000 -0.057800 
#    y 0.000000 3.563390 0.000000 
#    z -0.057800 0.000000 3.861540 
# 
# 
# High freq. dielectric constant tensor:
#      x y z
#    x 1.819420 0.000000 0.004150 
#    y 0.000000 1.804870 0.000000 
#    z 0.004150 0.000000 1.835300 
# 
# From -- ./inp_files/54188.got.cif
#   From: 2010.06.25/outbox.cif.g09.slc.cpg/sg15_28_cif.got.tgz:54188.got - 2010.06.28 07:06:18.
