data_PCOD8135318
_publ_section_title
;
Structure prediction by ZEFSAII (Michael W. Deem and Ramdas Pophale) SiO2 
 PCOD8135318
Probable space group: C 2/C
;
_chemical_formula_sum "Si O2"
_cell_formula_units_Z 64
_cell_length_a 9.075467
_cell_length_b 23.241644
_cell_length_c 24.005883
_cell_angle_alpha 90.000000
_cell_angle_beta 137.866945
_cell_angle_gamma 90.000000
_cell_volume 3396.893198
_symmetry_space_group_name_H-M "C 2/C"
_symmetry_group_IT_number 15
_symmetry_cell_setting 'monoclinic'
loop_
_space_group_symop_operation_xyz
x,y,z
-x,y,1/2-z
-x,-y,-z
x,-y,1/2+z
1/2+x,1/2+y,z
1/2-x,1/2+y,1/2-z
1/2-x,1/2-y,-z
1/2+x,1/2-y,1/2+z
loop_
_atom_site_type_symbol
_atom_site_label
_atom_site_fract_x
_atom_site_fract_y
_atom_site_fract_z
Si Si1 0.316151 0.417492 0.655205
Si Si2 0.363712 0.687141 0.087102
Si Si3 0.517395 0.329240 0.509040
Si Si4 0.754054 0.866097 0.170740
Si Si5 0.672473 0.107197 0.473673
Si Si6 0.953064 0.697091 0.670811
Si Si7 0.791799 0.467832 0.418103
Si Si8 0.621725 0.791554 0.039879
O O1 0.500000 0.398933 0.750000
O O2 0.333418 0.372230 0.610887
O O3 0.372014 0.482523 0.649846
O O4 0.067892 0.417072 0.611607
O O5 0.482812 0.737380 0.156467
O O6 0.494587 0.669515 0.068879
O O7 0.123903 0.709514 0.001949
O O8 0.661035 0.385078 0.531457
O O9 0.290038 0.326972 0.410636
O O10 0.669614 0.273974 0.536428
O O11 0.627264 0.845928 0.190480
O O12 0.636686 0.921855 0.109701
O O13 0.775598 0.813702 0.132825
O O14 0.000000 0.887166 0.250000
O O15 0.800685 0.067386 0.554700
O O16 0.634611 0.170060 0.488965
O O17 0.000000 0.696604 0.750000
O O18 0.000000 0.500000 0.500000
#
# Coordination Sequence:
#
# PCOD8135318 Si02
#       8
#     8   8   8   8   8   8   8   8
#     4  10  20  39  60  81 109 155 199 244 280 340
#     4  10  19  38  59  80 115 161 196 222 286 364
#     4  11  19  36  58  81 119 155 189 232 290 352
#     4  11  21  36  58  89 120 148 192 243 300 344
#     4   9  20  33  57  88 107 142 203 239 280 342
#     4  11  23  36  55  90 124 152 186 240 303 355
#     4   9  20  38  64  80 107 151 210 244 283 346
#     4   9  17  35  54  79 112 158 191 219 274 360
#
# _framework density 18.840745999999999
#
# number of rings (size 3 to 8) (size 9 to 14) (size 15 to 20)
#    0.000    2.000    2.500    2.625    3.500    0.000 
#    2.250    1.250    0.000    0.000    0.000    0.000 
#    0.000    0.000    0.000    0.000    0.000    0.000 
#
# Total GULP energy -396536.968389 kJ/mol
# GULP energy per Si atom -12391.780262 kJ/mol
# Density = 1.879786 g / cm^3
# Si number density = 18.840746 Si / 1000 Ang^3
#
#
#
# Elastic Constant Matrix: (Units=GPa)
#
#
# Indices 1 2 3 4 5 6 
#
# 1 100.5133 48.3949 45.0497 -0.0002 -13.0712 -0.0003
# 2 48.3949 101.9187 29.3505 -0.0001 -6.7620 0.0000
# 3 45.0497 29.3505 100.5212 -0.0003 -8.2782 0.0001
# 4 -0.0002 -0.0001 -0.0003 25.8969 -0.0001 -1.7912
# 5 -13.0712 -6.7620 -8.2782 -0.0001 21.8956 0.0001
# 6 -0.0003 0.0000 0.0001 -1.7912 0.0001 23.3075
#
#
#
# Elastic Compliance Matrix: (Units=1/GPa)
#
#
# Indices 1 2 3 4 5 6 
#
# 1 0.015581 -0.005616 -0.004871 0.000000 0.005725 0.000000
# 2 -0.005616 0.012840 -0.001220 0.000000 0.000152 0.000000
# 3 -0.004871 -0.001220 0.012610 0.000000 0.001482 0.000000
# 4 0.000000 0.000000 0.000000 0.038821 0.000000 0.002983
# 5 0.005725 0.000152 0.001482 0.000000 0.049697 0.000000
# 6 0.000000 0.000000 0.000000 0.002983 0.000000 0.043134
#
#
# Mechanical properties :
#
#
# Convention : Reuss Voigt Hill
#
# Bulk Modulus (GPa) = 56.76606 60.94928 58.85767
# Shear Modulus (GPa) = 24.75653 26.23053 25.49353
#
# Velocity S-wave (km/s) = 3.62883 3.73530 3.68245
# Velocity P-wave (km/s) = 6.91033 7.14305 7.02766
#
# Compressibility (1/GPa) = 0.01761616
#
# Stress axis : x y z
#
# Youngs Moduli (GPa) = 64.18234 77.88434 79.30462
#
# Poissons Ratio (x) = 0.43736 0.38633
# Poissons Ratio (y) = 0.36042 0.09673
# Poissons Ratio (z) = 0.31266 0.09500
#
# Static dielectric constant tensor:
#      x y z
#    x 3.299350 0.000000 -0.009160 
#    y 0.000000 3.957770 0.000000 
#    z -0.009160 0.000000 3.475350 
# 
# 
# High freq. dielectric constant tensor:
#      x y z
#    x 1.707380 0.000000 -0.009310 
#    y 0.000000 1.736550 0.000000 
#    z -0.009310 0.000000 1.725450 
# 
# From -- ./inp_files/234415.got.cif
#   From: 2010.06.25/outbox.cif.g09.slc.cpg/sg15_118_cif.got.tgz:234415.got - 2010.06.28 07:06:18.
