data_PCOD8135407
_publ_section_title
;
Structure prediction by ZEFSAII (Michael W. Deem and Ramdas Pophale) SiO2 
 PCOD8135407
Probable space group: C 2/C
;
_chemical_formula_sum "Si O2"
_cell_formula_units_Z 40
_cell_length_a 12.365563
_cell_length_b 14.879722
_cell_length_c 10.499115
_cell_angle_alpha 90.000000
_cell_angle_beta 59.473061
_cell_angle_gamma 90.000000
_cell_volume 1664.031138
_symmetry_space_group_name_H-M "C 2/C"
_symmetry_group_IT_number 15
_symmetry_cell_setting 'monoclinic'
loop_
_space_group_symop_operation_xyz
x,y,z
-x,y,1/2-z
-x,-y,-z
x,-y,1/2+z
1/2+x,1/2+y,z
1/2-x,1/2+y,1/2-z
1/2-x,1/2-y,-z
1/2+x,1/2-y,1/2+z
loop_
_atom_site_type_symbol
_atom_site_label
_atom_site_fract_x
_atom_site_fract_y
_atom_site_fract_z
Si Si1 0.687228 0.601738 0.511113
Si Si2 0.630994 0.934632 0.824967
Si Si3 0.022116 0.815630 0.920171
Si Si4 0.111552 0.371727 0.418550
Si Si5 0.334273 0.594656 0.389502
O O1 0.790864 0.603487 0.337983
O O2 0.565493 0.659320 0.538154
O O3 0.754745 0.647889 0.592439
O O4 0.635559 0.503808 0.574627
O O5 0.690077 0.903918 0.927583
O O6 0.627096 0.043285 0.815417
O O7 0.490525 0.895373 0.910184
O O8 0.065823 0.714116 0.864686
O O9 0.085128 0.886347 0.785888
O O10 0.872551 0.832724 0.979040
#
# Coordination Sequence:
#
# PCOD8135407 Si02
#       5
#     8   8   8   8   8
#     4  10  19  38  62  80 118 157 192 237 294 353
#     4   9  20  38  58  81 119 155 194 232 300 349
#     4  10  20  37  59  86 119 146 200 242 284 348
#     4  10  20  37  57  88 114 155 194 243 287 345
#     4   9  20  38  57  84 116 153 189 238 295 344
#
# _framework density 24.038011999999998
#
# number of rings (size 3 to 8) (size 9 to 14) (size 15 to 20)
#    0.000    2.400    0.000    1.800    0.000    0.800 
#   28.800    0.000   17.600    0.000    0.000    0.000 
#    0.000    0.000    0.000    0.000    0.000    0.000 
#
# Total GULP energy -247779.707802 kJ/mol
# GULP energy per Si atom -12388.985390 kJ/mol
# Density = 2.398330 g / cm^3
# Si number density = 24.038012 Si / 1000 Ang^3
#
#
#
# Elastic Constant Matrix: (Units=GPa)
#
#
# Indices 1 2 3 4 5 6 
#
# 1 135.3315 55.9345 -15.9626 0.0000 23.1741 0.0000
# 2 55.9345 91.8935 -5.7785 0.0000 14.4696 0.0000
# 3 -15.9626 -5.7785 20.8061 0.0000 -0.1577 0.0000
# 4 0.0000 0.0000 0.0000 19.0888 0.0000 -2.9130
# 5 23.1741 14.4696 -0.1577 0.0000 20.4907 0.0000
# 6 0.0000 0.0000 0.0000 -2.9130 0.0000 42.9094
#
#
#
# Elastic Compliance Matrix: (Units=1/GPa)
#
#
# Indices 1 2 3 4 5 6 
#
# 1 0.012251 -0.005393 0.007826 0.000000 -0.009988 0.000000
# 2 -0.005393 0.014853 -0.000045 0.000000 -0.004390 0.000000
# 3 0.007826 -0.000045 0.053991 0.000000 -0.008403 0.000000
# 4 0.000000 0.000000 0.000000 0.052935 0.000000 0.003594
# 5 -0.009988 -0.004390 -0.008403 0.000000 0.063134 0.000000
# 6 0.000000 0.000000 0.000000 0.003594 0.000000 0.023549
#
#
# Mechanical properties :
#
#
# Convention : Reuss Voigt Hill
#
# Bulk Modulus (GPa) = 11.64530 35.15753 23.40142
# Shear Modulus (GPa) = 20.44484 30.75363 25.59923
#
# Velocity S-wave (km/s) = 2.91953 3.58072 3.26689
# Velocity P-wave (km/s) = 4.02740 5.63497 4.89759
#
# Compressibility (1/GPa) = 0.08587155
#
# Stress axis : x y z
#
# Youngs Moduli (GPa) = 81.62292 67.32671 18.52168
#
# Poissons Ratio (x) = 0.36306 -0.14495
# Poissons Ratio (y) = 0.44015 0.00084
# Poissons Ratio (z) = -0.63879 0.00305
#
# Static dielectric constant tensor:
#      x y z
#    x 5.531340 0.000000 0.267150 
#    y 0.000000 4.090860 0.000000 
#    z 0.267150 0.000000 3.668950 
# 
# 
# High freq. dielectric constant tensor:
#      x y z
#    x 1.984660 0.000000 0.014690 
#    y 0.000000 1.940380 0.000000 
#    z 0.014690 0.000000 1.900300 
# 
# From -- ./inp_files/85982.got.cif
#   From: 2010.06.25/outbox.cif.g09.slc.cpg/sg15_43_cif.got.tgz:85982.got - 2010.06.28 07:06:18.
