data_PCOD8135937
_publ_section_title
;
Structure prediction by ZEFSAII (Michael W. Deem and Ramdas Pophale) SiO2 
 PCOD8135937
Probable space group: C 2/C
;
_chemical_formula_sum "Si O2"
_cell_formula_units_Z 52
_cell_length_a 12.276741
_cell_length_b 28.892060
_cell_length_c 9.260025
_cell_angle_alpha 90.000000
_cell_angle_beta 128.930906
_cell_angle_gamma 90.000000
_cell_volume 2555.053133
_symmetry_space_group_name_H-M "C 2/C"
_symmetry_group_IT_number 15
_symmetry_cell_setting 'monoclinic'
loop_
_space_group_symop_operation_xyz
x,y,z
-x,y,1/2-z
-x,-y,-z
x,-y,1/2+z
1/2+x,1/2+y,z
1/2-x,1/2+y,1/2-z
1/2-x,1/2-y,-z
1/2+x,1/2-y,1/2+z
loop_
_atom_site_type_symbol
_atom_site_label
_atom_site_fract_x
_atom_site_fract_y
_atom_site_fract_z
Si Si1 0.500000 0.055892 0.250000
Si Si2 0.324923 0.863549 0.329153
Si Si3 0.375869 0.513290 0.001919
Si Si4 0.350901 0.383917 0.587147
Si Si5 0.637097 0.872653 0.658583
Si Si6 0.160702 0.295396 0.902829
Si Si7 0.767836 0.464046 0.376221
O O1 0.389665 0.088685 0.241640
O O2 0.585285 0.022161 0.427820
O O3 0.493339 0.866760 0.446151
O O4 0.300765 0.822151 0.418918
O O5 0.262035 0.909063 0.352312
O O6 0.239711 0.855527 0.108152
O O7 0.238233 0.510625 0.783973
O O8 0.500000 0.500000 0.000000
O O9 0.394138 0.565585 0.068341
O O10 0.360806 0.479961 0.127051
O O11 0.500000 0.358795 0.750000
O O12 0.258578 0.389209 0.653733
O O13 0.692295 0.826311 0.786326
O O14 0.000000 0.280924 0.750000
O O15 0.250000 0.250000 0.000000
#
# Coordination Sequence:
#
# PCOD8135937 Si02
#       7
#     4   8   8   8   8   8   8
#     4  10  20  38  64  82 112 154 208 250 300 346
#     4   9  20  42  60  86 118 163 200 246 310 361
#     4  11  24  39  53  82 122 163 199 246 313 357
#     4  11  24  37  60  90 122 161 206 255 303 363
#     4  10  19  41  65  85 121 158 202 245 306 366
#     4  10  20  38  66  95 123 155 199 247 306 371
#     4  10  21  37  57  79 112 153 201 245 293 351
#
# _framework density 20.351828000000001
#
# number of rings (size 3 to 8) (size 9 to 14) (size 15 to 20)
#    0.000    1.846    3.846    1.846    4.308    1.846 
#    5.538    2.308    0.000    0.000    0.000    0.000 
#    0.000    0.000    0.000    0.000    0.000    0.000 
#
# Total GULP energy -322099.140120 kJ/mol
# GULP energy per Si atom -12388.428466 kJ/mol
# Density = 2.030551 g / cm^3
# Si number density = 20.351828 Si / 1000 Ang^3
#
#
#
# Elastic Constant Matrix: (Units=GPa)
#
#
# Indices 1 2 3 4 5 6 
#
# 1 101.0191 31.8523 44.3873 0.0000 -12.9690 0.0000
# 2 31.8523 64.6280 21.7091 0.0000 -2.7256 0.0000
# 3 44.3873 21.7091 168.5480 0.0000 3.8272 0.0000
# 4 0.0000 0.0000 0.0000 13.7291 0.0000 1.4242
# 5 -12.9690 -2.7256 3.8272 0.0000 27.6228 0.0000
# 6 0.0000 0.0000 0.0000 1.4242 0.0000 24.0110
#
#
#
# Elastic Compliance Matrix: (Units=1/GPa)
#
#
# Indices 1 2 3 4 5 6 
#
# 1 0.013799 -0.005502 -0.003070 0.000000 0.006361 0.000000
# 2 -0.005502 0.018465 -0.000915 0.000000 -0.000634 0.000000
# 3 -0.003070 -0.000915 0.006916 0.000000 -0.002490 0.000000
# 4 0.000000 0.000000 0.000000 0.073289 0.000000 -0.004347
# 5 0.006361 -0.000634 -0.002490 0.000000 0.039471 0.000000
# 6 0.000000 0.000000 0.000000 -0.004347 0.000000 0.041905
#
#
# Mechanical properties :
#
#
# Convention : Reuss Voigt Hill
#
# Bulk Modulus (GPa) = 49.48691 58.89914 54.19303
# Shear Modulus (GPa) = 22.77335 28.82235 25.79785
#
# Velocity S-wave (km/s) = 3.34875 3.76733 3.56419
# Velocity P-wave (km/s) = 6.27062 6.92293 6.60483
#
# Compressibility (1/GPa) = 0.02020736
#
# Stress axis : x y z
#
# Youngs Moduli (GPa) = 72.46683 54.15559 144.59439
#
# Poissons Ratio (x) = 0.29794 0.44389
# Poissons Ratio (y) = 0.39869 0.13232
# Poissons Ratio (z) = 0.22247 0.04956
#
# Static dielectric constant tensor:
#      x y z
#    x 3.438970 0.000000 0.173870 
#    y 0.000000 3.336980 0.000000 
#    z 0.173870 0.000000 4.381140 
# 
# 
# High freq. dielectric constant tensor:
#      x y z
#    x 1.783840 0.000000 0.000890 
#    y 0.000000 1.753670 0.000000 
#    z 0.000890 0.000000 1.833780 
# 
# From -- ./inp_files/35374.got.cif
#   From: 2010.06.25/outbox.cif.g09.slc.cpg/sg15_18_cif.got.tgz:35374.got - 2010.06.28 07:06:18.
