data_PCOD8135562
_publ_section_title
;
Structure prediction by ZEFSAII (Michael W. Deem and Ramdas Pophale) SiO2 
 PCOD8135562
Probable space group: C 2/C
;
_chemical_formula_sum "Si O2"
_cell_formula_units_Z 52
_cell_length_a 12.809716
_cell_length_b 16.562289
_cell_length_c 11.264555
_cell_angle_alpha 90.000000
_cell_angle_beta 75.851308
_cell_angle_gamma 90.000000
_cell_volume 2317.370398
_symmetry_space_group_name_H-M "C 2/C"
_symmetry_group_IT_number 15
_symmetry_cell_setting 'monoclinic'
loop_
_space_group_symop_operation_xyz
x,y,z
-x,y,1/2-z
-x,-y,-z
x,-y,1/2+z
1/2+x,1/2+y,z
1/2-x,1/2+y,1/2-z
1/2-x,1/2-y,-z
1/2+x,1/2-y,1/2+z
loop_
_atom_site_type_symbol
_atom_site_label
_atom_site_fract_x
_atom_site_fract_y
_atom_site_fract_z
Si Si1 0.731503 0.232185 0.643883
Si Si2 0.581694 0.469927 0.823735
Si Si3 0.050584 0.877474 0.055693
Si Si4 0.049281 0.720136 0.358827
Si Si5 0.500000 0.807239 0.250000
Si Si6 0.040592 0.411281 0.462787
Si Si7 0.226162 0.907177 0.195063
O O1 0.750000 0.250000 0.500000
O O2 0.820345 0.289694 0.682485
O O3 0.607605 0.249520 0.719041
O O4 0.756822 0.141526 0.685738
O O5 0.500000 0.431546 0.750000
O O6 0.533433 0.553232 0.887966
O O7 0.693129 0.499889 0.732773
O O8 0.608082 0.404309 0.917054
O O9 0.136588 0.864345 0.137198
O O10 0.985310 0.794955 0.045480
O O11 0.000000 0.747264 0.250000
O O12 0.992712 0.637881 0.411827
O O13 0.485806 0.867071 0.365913
O O14 0.167818 0.411345 0.413206
O O15 0.000000 0.500000 0.500000
#
# Coordination Sequence:
#
# PCOD8135562 Si02
#       7
#     8   8   8   8   4   8   8
#     4  11  21  43  71 101 138 182 226 288 354 406
#     4   9  18  37  64 101 139 180 218 276 349 420
#     4  10  19  38  68 102 136 175 223 282 352 406
#     4  12  23  46  75 101 137 181 232 293 353 414
#     4  10  24  46  70 102 138 180 228 290 352 402
#     4  11  27  46  66  97 134 186 235 278 341 418
#     4  10  21  42  68  95 143 181 222 290 347 412
#
# _framework density 22.439226999999999
#
# number of rings (size 3 to 8) (size 9 to 14) (size 15 to 20)
#    0.000    1.538    4.615    0.462    1.077    3.077 
#    4.154    0.000    0.000    0.000    0.000    0.000 
#    0.000    0.000    0.000    0.000    0.000    0.000 
#
# Total GULP energy -322197.434879 kJ/mol
# GULP energy per Si atom -12392.209034 kJ/mol
# Density = 2.238815 g / cm^3
# Si number density = 22.439227 Si / 1000 Ang^3
#
#
#
# Elastic Constant Matrix: (Units=GPa)
#
#
# Indices 1 2 3 4 5 6 
#
# 1 157.8835 42.1247 58.8358 0.0000 -19.6111 0.0000
# 2 42.1247 96.1726 43.5503 0.0000 -14.0711 0.0000
# 3 58.8358 43.5503 93.0133 0.0000 -6.0734 0.0000
# 4 0.0000 0.0000 0.0000 42.3602 0.0000 -5.0111
# 5 -19.6111 -14.0711 -6.0734 0.0000 42.3947 0.0000
# 6 0.0000 0.0000 0.0000 -5.0111 0.0000 18.0950
#
#
#
# Elastic Compliance Matrix: (Units=1/GPa)
#
#
# Indices 1 2 3 4 5 6 
#
# 1 0.008828 -0.001257 -0.004801 0.000000 0.002979 0.000000
# 2 -0.001257 0.013919 -0.005510 0.000000 0.003249 0.000000
# 3 -0.004801 -0.005510 0.016256 0.000000 -0.001721 0.000000
# 4 0.000000 0.000000 0.000000 0.024407 0.000000 0.006759
# 5 0.002979 0.003249 -0.001721 0.000000 0.025798 0.000000
# 6 0.000000 0.000000 0.000000 0.006759 0.000000 0.057136
#
#
# Mechanical properties :
#
#
# Convention : Reuss Voigt Hill
#
# Bulk Modulus (GPa) = 63.02497 70.67678 66.85087
# Shear Modulus (GPa) = 28.60931 34.07387 31.34159
#
# Velocity S-wave (km/s) = 3.57454 3.90102 3.74134
# Velocity P-wave (km/s) = 6.72194 7.20111 6.96564
#
# Compressibility (1/GPa) = 0.01586673
#
# Stress axis : x y z
#
# Youngs Moduli (GPa) = 113.27058 71.84465 61.51664
#
# Poissons Ratio (x) = 0.09030 0.29537
# Poissons Ratio (y) = 0.14236 0.33895
# Poissons Ratio (z) = 0.54386 0.39586
#
# Static dielectric constant tensor:
#      x y z
#    x 4.422480 0.000000 -0.191460 
#    y 0.000000 3.759520 0.000000 
#    z -0.191460 0.000000 4.271580 
# 
# 
# High freq. dielectric constant tensor:
#      x y z
#    x 1.892850 0.000000 -0.000770 
#    y 0.000000 1.859590 0.000000 
#    z -0.000770 0.000000 1.884450 
# 
# From -- ./inp_files/96978.got.cif
#   From: 2010.06.25/outbox.cif.g09.slc.cpg/sg15_49_cif.got.tgz:96978.got - 2010.06.28 07:06:18.
