data_PCOD8135845
_publ_section_title
;
Structure prediction by ZEFSAII (Michael W. Deem and Ramdas Pophale) SiO2 
 PCOD8135845
Probable space group: C 2/C
;
_chemical_formula_sum "Si O2"
_cell_formula_units_Z 64
_cell_length_a 11.395981
_cell_length_b 14.428415
_cell_length_c 20.465437
_cell_angle_alpha 90.000000
_cell_angle_beta 110.450951
_cell_angle_gamma 90.000000
_cell_volume 3152.955299
_symmetry_space_group_name_H-M "C 2/C"
_symmetry_group_IT_number 15
_symmetry_cell_setting 'monoclinic'
loop_
_space_group_symop_operation_xyz
x,y,z
-x,y,1/2-z
-x,-y,-z
x,-y,1/2+z
1/2+x,1/2+y,z
1/2-x,1/2+y,1/2-z
1/2-x,1/2-y,-z
1/2+x,1/2-y,1/2+z
loop_
_atom_site_type_symbol
_atom_site_label
_atom_site_fract_x
_atom_site_fract_y
_atom_site_fract_z
Si Si1 0.542103 0.639888 0.007675
Si Si2 0.828661 0.830516 0.842682
Si Si3 0.436542 0.668202 0.632428
Si Si4 0.946177 0.632822 0.172040
Si Si5 0.199857 0.956227 0.056116
Si Si6 0.526074 0.018425 0.929567
Si Si7 0.155243 0.027331 0.692988
Si Si8 0.299711 0.130415 0.830572
O O1 0.577714 0.696059 0.079630
O O2 0.623585 0.546796 0.020753
O O3 0.573460 0.691451 0.946301
O O4 0.392139 0.626836 0.982490
O O5 0.703060 0.866714 0.853450
O O6 0.815299 0.733615 0.800660
O O7 0.875716 0.916318 0.806600
O O8 0.494350 0.761120 0.675587
O O9 0.524645 0.582377 0.669451
O O10 0.298378 0.642126 0.629692
O O11 0.989512 0.573510 0.117960
O O12 0.000000 0.590176 0.250000
O O13 0.224905 0.953011 0.138570
O O14 0.332156 0.943937 0.046296
O O15 0.430705 0.095188 0.884238
O O16 0.500000 0.000000 0.000000
O O17 0.248401 0.058016 0.767943
#
# Coordination Sequence:
#
# PCOD8135845 Si02
#       8
#     8   8   8   8   8   8   8   8
#     4   9  17  35  65  86 114 158 209 249 297 375
#     4  10  21  38  65  87 117 164 214 244 303 379
#     4  10  21  36  67  93 119 151 212 262 309 359
#     4  11  22  39  62  90 124 164 204 253 314 380
#     4   9  19  37  60  87 114 163 205 242 309 371
#     4  12  25  38  59  93 133 158 203 267 325 359
#     4  10  19  40  65  86 118 166 212 249 295 377
#     4  11  24  35  61  95 126 154 205 263 310 360
#
# _framework density 20.298417000000001
#
# number of rings (size 3 to 8) (size 9 to 14) (size 15 to 20)
#    0.000    1.750    2.500    4.125    1.750    1.000 
#    0.000    0.625   11.000    0.000    0.000    0.000 
#    0.000    0.000    0.000    0.000    0.000    0.000 
#
# Total GULP energy -396621.854028 kJ/mol
# GULP energy per Si atom -12394.432938 kJ/mol
# Density = 2.025222 g / cm^3
# Si number density = 20.298417 Si / 1000 Ang^3
#
#
#
# Elastic Constant Matrix: (Units=GPa)
#
#
# Indices 1 2 3 4 5 6 
#
# 1 122.0488 44.0471 36.0738 0.0000 7.8782 0.0000
# 2 44.0471 120.7447 34.5534 0.0000 3.2162 0.0000
# 3 36.0738 34.5534 121.3350 0.0000 7.8051 0.0000
# 4 0.0000 0.0000 0.0000 24.8548 0.0000 -1.7341
# 5 7.8782 3.2162 7.8051 0.0000 25.7661 0.0000
# 6 0.0000 0.0000 0.0000 -1.7341 0.0000 28.6801
#
#
#
# Elastic Compliance Matrix: (Units=1/GPa)
#
#
# Indices 1 2 3 4 5 6 
#
# 1 0.010006 -0.003028 -0.001978 0.000000 -0.002082 0.000000
# 2 -0.003028 0.009937 -0.001947 0.000000 0.000275 0.000000
# 3 -0.001978 -0.001947 0.009515 0.000000 -0.002034 0.000000
# 4 0.000000 0.000000 0.000000 0.040404 0.000000 0.002443
# 5 -0.002082 0.000275 -0.002034 0.000000 0.040029 0.000000
# 6 0.000000 0.000000 0.000000 0.002443 0.000000 0.035015
#
#
# Mechanical properties :
#
#
# Convention : Reuss Voigt Hill
#
# Bulk Modulus (GPa) = 64.31026 65.94190 65.12608
# Shear Modulus (GPa) = 30.48850 32.49049 31.48950
#
# Velocity S-wave (km/s) = 3.87979 4.00514 3.94296
# Velocity P-wave (km/s) = 7.19872 7.34472 7.27209
#
# Compressibility (1/GPa) = 0.01554962
#
# Stress axis : x y z
#
# Youngs Moduli (GPa) = 99.94498 100.63893 105.09520
#
# Poissons Ratio (x) = 0.30477 0.20792
# Poissons Ratio (y) = 0.30267 0.20463
# Poissons Ratio (z) = 0.19773 0.19595
#
# Static dielectric constant tensor:
#      x y z
#    x 3.628570 0.000000 0.085460 
#    y 0.000000 3.858860 0.000000 
#    z 0.085460 0.000000 3.859350 
# 
# 
# High freq. dielectric constant tensor:
#      x y z
#    x 1.778760 0.000000 0.017300 
#    y 0.000000 1.785990 0.000000 
#    z 0.017300 0.000000 1.798220 
# 
# From -- ./inp_files/238773.got.cif
#   From: 2010.06.25/outbox.cif.g09.slc.cpg/sg15_120_cif.got.tgz:238773.got - 2010.06.28 07:06:18.
