data_PCOD8135302
_publ_section_title
;
Structure prediction by ZEFSAII (Michael W. Deem and Ramdas Pophale) SiO2 
 PCOD8135302
Probable space group: C 2/C
;
_chemical_formula_sum "Si O2"
_cell_formula_units_Z 64
_cell_length_a 13.172027
_cell_length_b 9.002068
_cell_length_c 26.492028
_cell_angle_alpha 90.000000
_cell_angle_beta 81.949843
_cell_angle_gamma 90.000000
_cell_volume 3110.350139
_symmetry_space_group_name_H-M "C 2/C"
_symmetry_group_IT_number 15
_symmetry_cell_setting 'monoclinic'
loop_
_space_group_symop_operation_xyz
x,y,z
-x,y,1/2-z
-x,-y,-z
x,-y,1/2+z
1/2+x,1/2+y,z
1/2-x,1/2+y,1/2-z
1/2-x,1/2-y,-z
1/2+x,1/2-y,1/2+z
loop_
_atom_site_type_symbol
_atom_site_label
_atom_site_fract_x
_atom_site_fract_y
_atom_site_fract_z
Si Si1 0.834794 0.891490 0.245510
Si Si2 0.327454 0.381039 0.892317
Si Si3 0.977781 0.753007 0.011516
Si Si4 0.997933 0.354558 0.883023
Si Si5 0.814583 0.407846 0.691169
Si Si6 0.856971 0.575310 0.938376
Si Si7 0.522155 0.560021 0.671857
Si Si8 0.157776 0.971548 0.004605
O O1 0.797319 0.740884 0.223482
O O2 0.905050 0.873456 0.289691
O O3 0.906923 0.975652 0.199206
O O4 0.728098 0.969848 0.267314
O O5 0.239979 0.414126 0.858701
O O6 0.309130 0.215073 0.912849
O O7 0.435857 0.406858 0.855463
O O8 0.324148 0.500226 0.937529
O O9 0.955906 0.659299 0.063682
O O10 0.905428 0.895750 0.016396
O O11 0.946641 0.639717 0.968817
O O12 0.096504 0.814886 0.999554
O O13 0.067753 0.426647 0.833794
O O14 0.902052 0.465273 0.893060
O O15 0.971974 0.186140 0.870933
O O16 0.770496 0.476678 0.972015
#
# Coordination Sequence:
#
# PCOD8135302 Si02
#       8
#     8   8   8   8   8   8   8   8
#     4   9  20  37  57  83 103 140 185 235 297 349
#     4  10  19  38  58  81 108 154 193 231 275 347
#     4  10  20  37  58  82 118 162 190 236 284 339
#     4  11  21  37  55  84 116 149 185 240 286 334
#     4  10  21  37  61  79 111 143 186 237 290 350
#     4  11  23  35  54  89 120 149 199 241 279 333
#     4   9  19  38  58  74 110 148 184 227 294 357
#     4  10  20  37  59  82 118 160 199 228 282 344
#
# _framework density 20.576463
#
# number of rings (size 3 to 8) (size 9 to 14) (size 15 to 20)
#    0.000    2.000    1.250    3.375    0.000    2.500 
#    4.500    0.000    0.000    0.000    0.000    0.000 
#    0.000    0.000    0.000    0.000    0.000    0.000 
#
# Total GULP energy -396453.174653 kJ/mol
# GULP energy per Si atom -12389.161708 kJ/mol
# Density = 2.052963 g / cm^3
# Si number density = 20.576463 Si / 1000 Ang^3
#
#
#
# Elastic Constant Matrix: (Units=GPa)
#
#
# Indices 1 2 3 4 5 6 
#
# 1 79.5162 43.4382 40.2181 0.0000 -27.6292 0.0000
# 2 43.4382 40.7623 37.7922 0.0000 -23.8417 0.0000
# 3 40.2181 37.7922 79.3776 0.0000 -31.6383 0.0000
# 4 0.0000 0.0000 0.0000 28.6377 0.0000 -5.1112
# 5 -27.6292 -23.8417 -31.6383 0.0000 34.5124 0.0000
# 6 0.0000 0.0000 0.0000 -5.1112 0.0000 27.7105
#
#
#
# Elastic Compliance Matrix: (Units=1/GPa)
#
#
# Indices 1 2 3 4 5 6 
#
# 1 0.030343 -0.030958 0.000825 0.000000 0.003661 0.000000
# 2 -0.030958 0.083532 -0.017275 0.000000 0.017085 0.000000
# 3 0.000825 -0.017275 0.025073 0.000000 0.011711 0.000000
# 4 0.000000 0.000000 0.000000 0.036108 0.000000 0.006660
# 5 0.003661 0.017085 0.011711 0.000000 0.054444 0.000000
# 6 0.000000 0.000000 0.000000 0.006660 0.000000 0.037316
#
#
# Mechanical properties :
#
#
# Convention : Reuss Voigt Hill
#
# Bulk Modulus (GPa) = 22.65975 49.17256 35.91615
# Shear Modulus (GPa) = 13.28577 23.38598 18.33587
#
# Velocity S-wave (km/s) = 2.54378 3.37492 2.98838
# Velocity P-wave (km/s) = 4.43442 6.25589 5.42219
#
# Compressibility (1/GPa) = 0.04413112
#
# Stress axis : x y z
#
# Youngs Moduli (GPa) = 32.95678 11.97142 39.88409
#
# Poissons Ratio (x) = 0.37061 -0.03290
# Poissons Ratio (y) = 1.02028 0.68900
# Poissons Ratio (z) = -0.02718 0.20681
#
# Static dielectric constant tensor:
#      x y z
#    x 3.791280 0.000000 -0.172120 
#    y 0.000000 3.658260 0.000000 
#    z -0.172120 0.000000 3.961500 
# 
# 
# High freq. dielectric constant tensor:
#      x y z
#    x 1.797570 0.000000 -0.008440 
#    y 0.000000 1.786710 0.000000 
#    z -0.008440 0.000000 1.816870 
# 
# From -- ./inp_files/295152.got.cif
#   From: 2010.06.25/outbox.cif.g09.slc.cpg/sg15_148_cif.got.tgz:295152.got - 2010.06.28 07:06:18.
