data_PCOD8135940
_publ_section_title
;
Structure prediction by ZEFSAII (Michael W. Deem and Ramdas Pophale) SiO2 
 PCOD8135940
Probable space group: C 2/C
;
_chemical_formula_sum "Si O2"
_cell_formula_units_Z 56
_cell_length_a 14.701269
_cell_length_b 13.216267
_cell_length_c 21.544426
_cell_angle_alpha 90.000000
_cell_angle_beta 40.886478
_cell_angle_gamma 90.000000
_cell_volume 2739.994040
_symmetry_space_group_name_H-M "C 2/C"
_symmetry_group_IT_number 15
_symmetry_cell_setting 'monoclinic'
loop_
_space_group_symop_operation_xyz
x,y,z
-x,y,1/2-z
-x,-y,-z
x,-y,1/2+z
1/2+x,1/2+y,z
1/2-x,1/2+y,1/2-z
1/2-x,1/2-y,-z
1/2+x,1/2-y,1/2+z
loop_
_atom_site_type_symbol
_atom_site_label
_atom_site_fract_x
_atom_site_fract_y
_atom_site_fract_z
Si Si1 0.789662 0.730973 0.196097
Si Si2 0.043327 0.948799 0.543513
Si Si3 0.432527 0.069705 0.196850
Si Si4 0.164610 0.595914 0.840132
Si Si5 0.952927 0.230846 0.022548
Si Si6 0.217222 0.422191 0.603819
Si Si7 0.392375 0.553790 0.249433
O O1 0.835642 0.664467 0.230736
O O2 0.720072 0.832045 0.257124
O O3 0.680706 0.664394 0.212023
O O4 0.929027 0.760855 0.089170
O O5 0.020848 0.829281 0.545709
O O6 0.957543 0.976522 0.649052
O O7 0.201196 0.985654 0.472099
O O8 0.000000 0.000000 0.500000
O O9 0.354321 0.028967 0.298359
O O10 0.589577 0.109948 0.125409
O O11 0.435674 0.985038 0.141666
O O12 0.083145 0.657780 0.934657
O O13 0.282826 0.535873 0.816856
O O14 0.817376 0.173991 0.064435
O O15 0.500000 0.552278 0.250000
#
# Coordination Sequence:
#
# PCOD8135940 Si02
#       7
#     8   8   8   8   8   8   8
#     4  11  22  42  62  89 130 168 216 261 326 386
#     4  10  19  41  65  88 122 174 220 249 314 390
#     4  10  22  38  61  91 130 161 206 278 314 370
#     4  11  21  41  62  88 125 172 211 256 332 383
#     4  11  21  36  66  89 118 172 214 255 320 391
#     4  10  20  39  62  91 121 164 224 261 304 375
#     4  11  25  42  64  95 136 164 209 282 324 371
#
# _framework density 20.437999999999999
#
# number of rings (size 3 to 8) (size 9 to 14) (size 15 to 20)
#    0.000    1.429    2.857    5.143    0.000    6.286 
#    5.143    1.429    0.000    0.000    0.000    0.000 
#    0.000    0.000    0.000    0.000    0.000    0.000 
#
# Total GULP energy -347015.350282 kJ/mol
# GULP energy per Si atom -12393.405367 kJ/mol
# Density = 2.039148 g / cm^3
# Si number density = 20.438000 Si / 1000 Ang^3
#
#
#
# Elastic Constant Matrix: (Units=GPa)
#
#
# Indices 1 2 3 4 5 6 
#
# 1 100.1041 24.9144 21.9294 0.0000 4.4331 0.0000
# 2 24.9144 65.4782 0.5591 0.0000 1.0186 0.0000
# 3 21.9294 0.5591 75.0152 -0.0001 -8.9416 0.0000
# 4 0.0000 0.0000 -0.0001 36.9167 0.0000 -5.4176
# 5 4.4331 1.0186 -8.9416 0.0000 16.2150 0.0000
# 6 0.0000 0.0000 0.0000 -5.4176 0.0000 15.0785
#
#
#
# Elastic Compliance Matrix: (Units=1/GPa)
#
#
# Indices 1 2 3 4 5 6 
#
# 1 0.012281 -0.004553 -0.004198 0.000000 -0.005387 0.000000
# 2 -0.004553 0.016980 0.001312 0.000000 0.000902 0.000000
# 3 -0.004198 0.001312 0.015708 0.000000 0.009727 0.000000
# 4 0.000000 0.000000 0.000000 0.028596 0.000000 0.010274
# 5 -0.005387 0.000902 0.009727 0.000000 0.068451 0.000000
# 6 0.000000 0.000000 0.000000 0.010274 0.000000 0.070011
#
#
# Mechanical properties :
#
#
# Convention : Reuss Voigt Hill
#
# Bulk Modulus (GPa) = 33.23468 37.26705 35.25086
# Shear Modulus (GPa) = 21.10281 26.52168 23.81224
#
# Velocity S-wave (km/s) = 3.21678 3.60622 3.41705
# Velocity P-wave (km/s) = 5.48575 5.96771 5.73180
#
# Compressibility (1/GPa) = 0.03008905
#
# Stress axis : x y z
#
# Youngs Moduli (GPa) = 81.42587 58.89431 63.66342
#
# Poissons Ratio (x) = 0.26816 0.26728
# Poissons Ratio (y) = 0.37076 -0.08353
# Poissons Ratio (z) = 0.34185 -0.07727
#
# Static dielectric constant tensor:
#      x y z
#    x 3.704530 0.000000 -0.186820 
#    y 0.000000 3.881490 0.000000 
#    z -0.186820 0.000000 3.820090 
# 
# 
# High freq. dielectric constant tensor:
#      x y z
#    x 1.783890 0.000000 -0.007930 
#    y 0.000000 1.796500 0.000000 
#    z -0.007930 0.000000 1.810990 
# 
# From -- ./inp_files/244507.got.cif
#   From: 2010.06.25/outbox.cif.g09.slc.cpg/sg15_123_cif.got.tgz:244507.got - 2010.06.28 07:06:18.
