data_PCOD8135567
_publ_section_title
;
Structure prediction by ZEFSAII (Michael W. Deem and Ramdas Pophale) SiO2 
 PCOD8135567
Probable space group: C 2/C
;
_chemical_formula_sum "Si O2"
_cell_formula_units_Z 36
_cell_length_a 15.575510
_cell_length_b 9.815442
_cell_length_c 11.409379
_cell_angle_alpha 90.000000
_cell_angle_beta 57.438797
_cell_angle_gamma 90.000000
_cell_volume 1470.101916
_symmetry_space_group_name_H-M "C 2/C"
_symmetry_group_IT_number 15
_symmetry_cell_setting 'monoclinic'
loop_
_space_group_symop_operation_xyz
x,y,z
-x,y,1/2-z
-x,-y,-z
x,-y,1/2+z
1/2+x,1/2+y,z
1/2-x,1/2+y,1/2-z
1/2-x,1/2-y,-z
1/2+x,1/2-y,1/2+z
loop_
_atom_site_type_symbol
_atom_site_label
_atom_site_fract_x
_atom_site_fract_y
_atom_site_fract_z
Si Si1 0.804359 0.463104 0.280428
Si Si2 0.011739 0.861790 0.112700
Si Si3 0.500000 0.143542 0.750000
Si Si4 0.282226 0.742459 0.110542
Si Si5 0.108317 0.858821 0.514599
O O1 0.782257 0.623491 0.277287
O O2 0.776663 0.387121 0.179368
O O3 0.727803 0.401108 0.437239
O O4 0.923197 0.447900 0.228690
O O5 0.000000 0.794233 0.250000
O O6 0.034863 0.021193 0.113489
O O7 0.099555 0.794942 0.970599
O O8 0.909839 0.836606 0.112338
O O9 0.578064 0.228460 0.612408
O O10 0.250000 0.750000 0.000000
#
# Coordination Sequence:
#
# PCOD8135567 Si02
#       5
#     8   8   4   8   8
#     4  11  26  46  73 106 149 194 244 303 369 443
#     4  10  19  38  68  99 132 182 248 299 342 429
#     4  12  22  44  66 110 150 186 244 312 380 426
#     4  11  25  48  74 107 146 195 247 305 369 440
#     4  10  21  37  67  98 136 191 242 292 351 435
#
# _framework density 24.488098999999998
#
# number of rings (size 3 to 8) (size 9 to 14) (size 15 to 20)
#    0.000    1.333    3.333    2.000    0.000    5.333 
#    6.000    2.222    0.000    0.000    0.000    0.000 
#    0.000    0.000    0.000    0.000    0.000    0.000 
#
# Total GULP energy -223129.422095 kJ/mol
# GULP energy per Si atom -12396.079005 kJ/mol
# Density = 2.443236 g / cm^3
# Si number density = 24.488099 Si / 1000 Ang^3
#
#
#
# Elastic Constant Matrix: (Units=GPa)
#
#
# Indices 1 2 3 4 5 6 
#
# 1 118.8801 23.9656 21.0192 0.0000 -4.5396 0.0000
# 2 23.9656 103.9352 29.8403 0.0000 12.3989 0.0000
# 3 21.0192 29.8403 77.1122 0.0000 21.2352 0.0000
# 4 0.0000 0.0000 0.0000 33.6927 0.0000 1.9442
# 5 -4.5396 12.3989 21.2352 0.0000 38.2161 0.0000
# 6 0.0000 0.0000 0.0000 1.9442 0.0000 19.9685
#
#
#
# Elastic Compliance Matrix: (Units=1/GPa)
#
#
# Indices 1 2 3 4 5 6 
#
# 1 0.009377 -0.001752 -0.002764 0.000000 0.003218 0.000000
# 2 -0.001752 0.011215 -0.003309 0.000000 -0.002008 0.000000
# 3 -0.002764 -0.003309 0.017470 0.000000 -0.008962 0.000000
# 4 0.000000 0.000000 0.000000 0.029848 0.000000 -0.002906
# 5 0.003218 -0.002008 -0.008962 0.000000 0.032181 0.000000
# 6 0.000000 0.000000 0.000000 -0.002906 0.000000 0.050362
#
#
# Mechanical properties :
#
#
# Convention : Reuss Voigt Hill
#
# Bulk Modulus (GPa) = 44.62205 49.95309 47.28757
# Shear Modulus (GPa) = 28.80617 33.38228 31.09423
#
# Velocity S-wave (km/s) = 3.43349 3.69617 3.56725
# Velocity P-wave (km/s) = 5.82924 6.21761 6.02655
#
# Compressibility (1/GPa) = 0.02241045
#
# Stress axis : x y z
#
# Youngs Moduli (GPa) = 106.64708 89.16534 57.24055
#
# Poissons Ratio (x) = 0.15626 0.15821
# Poissons Ratio (y) = 0.18690 0.18943
# Poissons Ratio (z) = 0.29477 0.29508
#
# Static dielectric constant tensor:
#      x y z
#    x 4.586190 0.000000 -0.234220 
#    y 0.000000 4.188800 0.000000 
#    z -0.234220 0.000000 4.201410 
# 
# 
# High freq. dielectric constant tensor:
#      x y z
#    x 1.982680 0.000000 -0.013520 
#    y 0.000000 1.955760 0.000000 
#    z -0.013520 0.000000 1.968350 
# 
# From -- ./inp_files/94455.got.cif
#   From: 2010.06.25/outbox.cif.g09.slc.cpg/sg15_48_cif.got.tgz:94455.got - 2010.06.28 07:06:18.
