data_PCOD8135250
_publ_section_title
;
Structure prediction by ZEFSAII (Michael W. Deem and Ramdas Pophale) SiO2 
 PCOD8135250
Probable space group: C 2/C
;
_chemical_formula_sum "Si O2"
_cell_formula_units_Z 64
_cell_length_a 14.563111
_cell_length_b 14.159283
_cell_length_c 19.280144
_cell_angle_alpha 90.000000
_cell_angle_beta 134.045551
_cell_angle_gamma 90.000000
_cell_volume 2857.630653
_symmetry_space_group_name_H-M "C 2/C"
_symmetry_group_IT_number 15
_symmetry_cell_setting 'monoclinic'
loop_
_space_group_symop_operation_xyz
x,y,z
-x,y,1/2-z
-x,-y,-z
x,-y,1/2+z
1/2+x,1/2+y,z
1/2-x,1/2+y,1/2-z
1/2-x,1/2-y,-z
1/2+x,1/2-y,1/2+z
loop_
_atom_site_type_symbol
_atom_site_label
_atom_site_fract_x
_atom_site_fract_y
_atom_site_fract_z
Si Si1 0.993325 0.321821 0.089974
Si Si2 0.133722 0.687205 0.108479
Si Si3 0.642271 0.691534 0.849357
Si Si4 0.986507 0.466128 0.869048
Si Si5 0.286395 0.032114 0.664735
Si Si6 0.220688 0.154737 0.744782
Si Si7 0.744361 0.119969 0.457904
Si Si8 0.362425 0.234123 0.649074
O O1 0.885291 0.265109 0.077523
O O2 0.967214 0.434420 0.076186
O O3 0.135723 0.305136 0.194123
O O4 0.982275 0.287333 0.004774
O O5 0.112416 0.584052 0.129943
O O6 0.128246 0.763046 0.167999
O O7 0.261674 0.690675 0.127566
O O8 0.500000 0.717106 0.750000
O O9 0.701372 0.632844 0.815621
O O10 0.728576 0.784239 0.905734
O O11 0.649957 0.630385 0.924769
O O12 0.915580 0.480755 0.758136
O O13 0.108713 0.400445 0.922422
O O14 0.202072 0.059311 0.689000
O O15 0.319900 0.127861 0.643248
O O16 0.212506 0.962786 0.572600
O O17 0.500000 0.260393 0.750000
#
# Coordination Sequence:
#
# PCOD8135250 Si02
#       8
#     8   8   8   8   8   8   8   8
#     4  11  21  38  64  87 123 164 213 266 311 376
#     4  11  22  32  58  96 128 159 206 262 324 379
#     4  11  24  40  59  91 128 160 203 273 324 382
#     4  11  20  36  64  96 120 151 220 275 307 360
#     4  10  19  37  67  90 117 161 214 263 313 375
#     4  10  22  39  61  91 128 158 205 269 327 368
#     4  11  21  38  68  90 115 164 218 257 321 386
#     4  11  18  39  60  89 125 171 201 263 326 381
#
# _framework density 22.396177000000002
#
# number of rings (size 3 to 8) (size 9 to 14) (size 15 to 20)
#    0.000    1.250    5.000    4.125    0.000    2.000 
#    0.000    0.625    0.000   14.250    0.000    0.000 
#    0.000    0.000    0.000    0.000    0.000    0.000 
#
# Total GULP energy -396554.761025 kJ/mol
# GULP energy per Si atom -12392.336282 kJ/mol
# Density = 2.234520 g / cm^3
# Si number density = 22.396177 Si / 1000 Ang^3
#
#
#
# Elastic Constant Matrix: (Units=GPa)
#
#
# Indices 1 2 3 4 5 6 
#
# 1 87.1382 43.1309 23.8587 0.0000 -29.9367 0.0000
# 2 43.1309 57.7664 32.9549 0.0000 -7.3870 0.0000
# 3 23.8587 32.9549 110.9072 0.0000 -32.1086 0.0000
# 4 0.0000 0.0000 0.0000 28.9264 0.0000 -5.8393
# 5 -29.9367 -7.3870 -32.1086 0.0000 31.8077 0.0000
# 6 0.0000 0.0000 0.0000 -5.8393 0.0000 39.0476
#
#
#
# Elastic Compliance Matrix: (Units=1/GPa)
#
#
# Indices 1 2 3 4 5 6 
#
# 1 0.035936 -0.028772 0.012258 0.000000 0.039515 0.000000
# 2 -0.028772 0.043970 -0.016615 0.000000 -0.033640 0.000000
# 3 0.012258 -0.016615 0.019130 0.000000 0.026990 0.000000
# 4 0.000000 0.000000 0.000000 0.035647 0.000000 0.005331
# 5 0.039515 -0.033640 0.026990 0.000000 0.088062 0.000000
# 6 0.000000 0.000000 0.000000 0.005331 0.000000 0.026407
#
#
# Mechanical properties :
#
#
# Convention : Reuss Voigt Hill
#
# Bulk Modulus (GPa) = 30.50615 50.63342 40.56979
# Shear Modulus (GPa) = 15.32165 30.34751 22.83458
#
# Velocity S-wave (km/s) = 2.61840 3.68507 3.19654
# Velocity P-wave (km/s) = 4.77411 6.38463 5.63718
#
# Compressibility (1/GPa) = 0.03278027
#
# Stress axis : x y z
#
# Youngs Moduli (GPa) = 27.82697 22.74270 52.27339
#
# Poissons Ratio (x) = 0.65435 -0.64079
# Poissons Ratio (y) = 0.80063 0.86851
# Poissons Ratio (z) = -0.34111 0.37786
#
# Static dielectric constant tensor:
#      x y z
#    x 4.107040 0.000000 -0.306550 
#    y 0.000000 3.799020 0.000000 
#    z -0.306550 0.000000 4.221120 
# 
# 
# High freq. dielectric constant tensor:
#      x y z
#    x 1.873660 0.000000 -0.026920 
#    y 0.000000 1.849780 0.000000 
#    z -0.026920 0.000000 1.895360 
# 
# From -- ./inp_files/205744.got.cif
#   From: 2010.06.25/outbox.cif.g09.slc.cpg/sg15_103_cif.got.tgz:205744.got - 2010.06.28 07:06:18.
