data_PCOD8135266
_publ_section_title
;
Structure prediction by ZEFSAII (Michael W. Deem and Ramdas Pophale) SiO2 
 PCOD8135266
Probable space group: C 2/C
;
_chemical_formula_sum "Si O2"
_cell_formula_units_Z 64
_cell_length_a 11.983387
_cell_length_b 15.495462
_cell_length_c 28.895098
_cell_angle_alpha 90.000000
_cell_angle_beta 145.336984
_cell_angle_gamma 90.000000
_cell_volume 3051.607798
_symmetry_space_group_name_H-M "C 2/C"
_symmetry_group_IT_number 15
_symmetry_cell_setting 'monoclinic'
loop_
_space_group_symop_operation_xyz
x,y,z
-x,y,1/2-z
-x,-y,-z
x,-y,1/2+z
1/2+x,1/2+y,z
1/2-x,1/2+y,1/2-z
1/2-x,1/2-y,-z
1/2+x,1/2-y,1/2+z
loop_
_atom_site_type_symbol
_atom_site_label
_atom_site_fract_x
_atom_site_fract_y
_atom_site_fract_z
Si Si1 0.889917 0.198559 0.082416
Si Si2 0.286265 0.084658 0.306480
Si Si3 0.857618 0.684348 0.097654
Si Si4 0.559416 0.518364 0.375141
Si Si5 0.971380 0.846913 0.084879
Si Si6 0.732338 0.755375 0.839623
Si Si7 0.811650 0.756354 0.661301
Si Si8 0.780804 0.062316 0.655584
O O1 0.849402 0.230530 0.120224
O O2 0.842011 0.095864 0.061709
O O3 0.122956 0.210186 0.150781
O O4 0.750000 0.250000 0.000000
O O5 0.464574 0.117360 0.335810
O O6 0.106710 0.066435 0.211311
O O7 0.231734 0.153559 0.327671
O O8 0.349545 0.997575 0.355128
O O9 0.945596 0.780565 0.118857
O O10 0.732099 0.688293 0.101910
O O11 0.731644 0.649579 0.012066
O O12 0.472857 0.442338 0.378028
O O13 0.722008 0.474799 0.397513
O O14 0.137424 0.812289 0.107031
O O15 0.500000 0.761337 0.750000
O O16 0.804364 0.658043 0.873507
O O17 0.000000 0.713613 0.750000
O O18 0.000000 0.061189 0.750000
#
# Coordination Sequence:
#
# PCOD8135266 Si02
#       8
#     8   8   8   8   8   8   8   8
#     4  12  26  42  64  96 138 175 218 271 342 397
#     4  10  19  37  70  97 126 166 229 277 329 387
#     4  10  21  41  61  95 132 175 207 266 342 396
#     4  11  20  42  64  98 128 169 222 280 322 385
#     4  10  23  39  66  94 132 167 218 270 330 399
#     4  11  23  40  65  96 131 171 220 272 329 398
#     4  11  21  41  69  95 125 178 221 269 327 403
#     4   9  18  34  62  96 123 154 216 285 318 366
#
# _framework density 20.972552
#
# number of rings (size 3 to 8) (size 9 to 14) (size 15 to 20)
#    0.000    1.500    3.750    1.875    1.750    1.000 
#    0.000    6.875    0.000    0.000    0.000    0.000 
#    0.000    0.000    0.000    0.000    0.000    0.000 
#
# Total GULP energy -396737.879142 kJ/mol
# GULP energy per Si atom -12398.058723 kJ/mol
# Density = 2.092482 g / cm^3
# Si number density = 20.972552 Si / 1000 Ang^3
#
#
#
# Elastic Constant Matrix: (Units=GPa)
#
#
# Indices 1 2 3 4 5 6 
#
# 1 127.2927 54.1413 22.9255 0.0000 -15.2435 0.0000
# 2 54.1413 116.7941 24.5306 0.0000 -17.6673 0.0000
# 3 22.9255 24.5306 58.6309 0.0000 -10.2686 0.0000
# 4 0.0000 0.0000 0.0000 23.4625 0.0000 -4.3627
# 5 -15.2435 -17.6673 -10.2686 0.0000 27.9723 0.0000
# 6 0.0000 0.0000 0.0000 -4.3627 0.0000 32.4477
#
#
#
# Elastic Compliance Matrix: (Units=1/GPa)
#
#
# Indices 1 2 3 4 5 6 
#
# 1 0.010162 -0.003956 -0.001909 0.000000 0.002339 0.000000
# 2 -0.003956 0.011570 -0.002556 0.000000 0.004213 0.000000
# 3 -0.001909 -0.002556 0.019671 0.000000 0.004567 0.000000
# 4 0.000000 0.000000 0.000000 0.043714 0.000000 0.005878
# 5 0.002339 0.004213 0.004567 0.000000 0.041362 0.000000
# 6 0.000000 0.000000 0.000000 0.005878 0.000000 0.031609
#
#
# Mechanical properties :
#
#
# Convention : Reuss Voigt Hill
#
# Bulk Modulus (GPa) = 40.71327 56.21250 48.46289
# Shear Modulus (GPa) = 27.30472 30.18453 28.74462
#
# Velocity S-wave (km/s) = 3.61214 3.79785 3.70615
# Velocity P-wave (km/s) = 6.07054 6.78915 6.43988
#
# Compressibility (1/GPa) = 0.02456201
#
# Stress axis : x y z
#
# Youngs Moduli (GPa) = 98.40152 86.42856 50.83512
#
# Poissons Ratio (x) = 0.34193 0.09704
# Poissons Ratio (y) = 0.38930 0.12993
# Poissons Ratio (z) = 0.18783 0.22091
#
# Static dielectric constant tensor:
#      x y z
#    x 3.796590 0.000000 -0.049640 
#    y 0.000000 3.998910 0.000000 
#    z -0.049640 0.000000 3.610540 
# 
# 
# High freq. dielectric constant tensor:
#      x y z
#    x 1.817670 0.000000 -0.007970 
#    y 0.000000 1.819040 0.000000 
#    z -0.007970 0.000000 1.809650 
# 
# From -- ./inp_files/293069.got.cif
#   From: 2010.06.25/outbox.cif.g09.slc.cpg/sg15_147_cif.got.tgz:293069.got - 2010.06.28 07:06:18.
