data_PCOD8135146
_publ_section_title
;
Structure prediction by ZEFSAII (Michael W. Deem and Ramdas Pophale) SiO2 
 PCOD8135146
Probable space group: C 2/C
;
_chemical_formula_sum "Si O2"
_cell_formula_units_Z 56
_cell_length_a 17.345513
_cell_length_b 7.866214
_cell_length_c 20.748189
_cell_angle_alpha 90.000000
_cell_angle_beta 72.051689
_cell_angle_gamma 90.000000
_cell_volume 2693.187151
_symmetry_space_group_name_H-M "C 2/C"
_symmetry_group_IT_number 15
_symmetry_cell_setting 'monoclinic'
loop_
_space_group_symop_operation_xyz
x,y,z
-x,y,1/2-z
-x,-y,-z
x,-y,1/2+z
1/2+x,1/2+y,z
1/2-x,1/2+y,1/2-z
1/2-x,1/2-y,-z
1/2+x,1/2-y,1/2+z
loop_
_atom_site_type_symbol
_atom_site_label
_atom_site_fract_x
_atom_site_fract_y
_atom_site_fract_z
Si Si1 0.007529 0.083537 0.321070
Si Si2 0.737955 0.091474 0.924348
Si Si3 0.669325 0.950016 0.808818
Si Si4 0.839233 0.411795 0.924641
Si Si5 0.651310 0.707674 0.107425
Si Si6 0.501750 0.192182 0.323575
Si Si7 0.832121 0.793409 0.749557
O O1 0.102722 0.110638 0.314233
O O2 0.000000 0.153685 0.250000
O O3 0.945418 0.188579 0.383900
O O4 0.981493 0.889559 0.332776
O O5 0.786821 0.268827 0.899620
O O6 0.693251 0.033530 0.870862
O O7 0.795138 0.941120 0.939369
O O8 0.670252 0.123331 0.996658
O O9 0.588009 0.839823 0.835699
O O10 0.739324 0.838238 0.756813
O O11 0.651792 0.094879 0.761486
O O12 0.812061 0.606244 0.915820
O O13 0.933140 0.404210 0.881379
O O14 0.656240 0.651345 0.180323
O O15 0.500000 0.129108 0.250000
#
# Coordination Sequence:
#
# PCOD8135146 Si02
#       7
#     8   8   8   8   8   8   8
#     4   9  18  35  57  87 124 153 198 257 309 365
#     4  10  24  41  58  92 123 164 205 258 304 370
#     4  11  23  37  57  90 128 161 205 261 317 364
#     4  11  22  40  67  84 121 166 212 245 312 379
#     4  10  19  37  63  89 116 159 210 253 302 369
#     4  11  22  37  64  91 119 162 206 258 317 376
#     4  10  21  33  56  88 125 155 194 259 315 362
#
# _framework density 20.793206999999999
#
# number of rings (size 3 to 8) (size 9 to 14) (size 15 to 20)
#    0.000    1.714    1.429    3.000    6.000    1.714 
#    0.000    0.000    0.000    1.714    0.000    0.000 
#    0.000    0.000    0.000    0.000    0.000    0.000 
#
# Total GULP energy -347005.304064 kJ/mol
# GULP energy per Si atom -12393.046574 kJ/mol
# Density = 2.074588 g / cm^3
# Si number density = 20.793207 Si / 1000 Ang^3
#
#
#
# Elastic Constant Matrix: (Units=GPa)
#
#
# Indices 1 2 3 4 5 6 
#
# 1 99.6338 25.2008 40.9360 0.0000 -23.6046 0.0000
# 2 25.2008 112.5840 23.4710 0.0000 -11.3070 0.0000
# 3 40.9360 23.4710 74.9923 0.0000 -25.2121 0.0000
# 4 0.0000 0.0000 0.0000 24.9424 0.0000 -3.5486
# 5 -23.6046 -11.3070 -25.2121 0.0000 29.6052 0.0000
# 6 0.0000 0.0000 0.0000 -3.5486 0.0000 33.4019
#
#
#
# Elastic Compliance Matrix: (Units=1/GPa)
#
#
# Indices 1 2 3 4 5 6 
#
# 1 0.013968 -0.001441 -0.005065 0.000000 0.006274 0.000000
# 2 -0.001441 0.009701 -0.001948 0.000000 0.000897 0.000000
# 3 -0.005065 -0.001948 0.021159 0.000000 0.013237 0.000000
# 4 0.000000 0.000000 0.000000 0.040708 0.000000 0.004325
# 5 0.006274 0.000897 0.013237 0.000000 0.050396 0.000000
# 6 0.000000 0.000000 0.000000 0.004325 0.000000 0.030398
#
#
# Mechanical properties :
#
#
# Convention : Reuss Voigt Hill
#
# Bulk Modulus (GPa) = 35.81450 51.82509 43.81979
# Shear Modulus (GPa) = 25.96800 30.76339 28.36569
#
# Velocity S-wave (km/s) = 3.53777 3.85059 3.69749
# Velocity P-wave (km/s) = 5.82660 6.68936 6.27283
#
# Compressibility (1/GPa) = 0.02792165
#
# Stress axis : x y z
#
# Youngs Moduli (GPa) = 71.58985 103.08218 47.26011
#
# Poissons Ratio (x) = 0.14851 0.23937
# Poissons Ratio (y) = 0.10314 0.09207
# Poissons Ratio (z) = 0.36259 0.20081
#
# Static dielectric constant tensor:
#      x y z
#    x 3.864910 0.000000 -0.499260 
#    y 0.000000 3.751430 0.000000 
#    z -0.499260 0.000000 3.658300 
# 
# 
# High freq. dielectric constant tensor:
#      x y z
#    x 1.796740 0.000000 -0.038350 
#    y 0.000000 1.826780 0.000000 
#    z -0.038350 0.000000 1.796800 
# 
# From -- ./inp_files/276243.got.cif
#   From: 2010.06.25/outbox.cif.g09.slc.cpg/sg15_139_cif.got.tgz:276243.got - 2010.06.28 07:06:18.
