data_PCOD8135741
_publ_section_title
;
Structure prediction by ZEFSAII (Michael W. Deem and Ramdas Pophale) SiO2 
 PCOD8135741
Probable space group: C 2/C
;
_chemical_formula_sum "Si O2"
_cell_formula_units_Z 64
_cell_length_a 9.318827
_cell_length_b 15.598518
_cell_length_c 22.559054
_cell_angle_alpha 90.000000
_cell_angle_beta 95.400882
_cell_angle_gamma 90.000000
_cell_volume 3264.623749
_symmetry_space_group_name_H-M "C 2/C"
_symmetry_group_IT_number 15
_symmetry_cell_setting 'monoclinic'
loop_
_space_group_symop_operation_xyz
x,y,z
-x,y,1/2-z
-x,-y,-z
x,-y,1/2+z
1/2+x,1/2+y,z
1/2-x,1/2+y,1/2-z
1/2-x,1/2-y,-z
1/2+x,1/2-y,1/2+z
loop_
_atom_site_type_symbol
_atom_site_label
_atom_site_fract_x
_atom_site_fract_y
_atom_site_fract_z
Si Si1 0.654310 0.898905 0.035220
Si Si2 0.975582 0.096759 0.518147
Si Si3 0.371433 0.713712 0.290938
Si Si4 0.754398 0.647691 0.591507
Si Si5 0.357022 0.936746 0.711741
Si Si6 0.000577 0.763495 0.575843
Si Si7 0.168603 0.376109 0.270217
Si Si8 0.433340 0.012145 0.082256
O O1 0.825532 0.898586 0.046548
O O2 0.603412 0.804880 0.049303
O O3 0.593217 0.972008 0.078017
O O4 0.599269 0.913681 0.965956
O O5 0.981912 0.147448 0.456876
O O6 0.086930 0.141341 0.568328
O O7 0.000000 0.000000 0.500000
O O8 0.500000 0.694943 0.250000
O O9 0.264303 0.634020 0.288268
O O10 0.447431 0.724242 0.355961
O O11 0.275634 0.799884 0.271109
O O12 0.781903 0.649125 0.662469
O O13 0.823768 0.564597 0.563720
O O14 0.833260 0.732184 0.568306
O O15 0.500000 0.904555 0.750000
O O16 0.409790 0.952967 0.646878
O O17 0.289202 0.024144 0.738553
O O18 0.000000 0.371526 0.250000
#
# Coordination Sequence:
#
# PCOD8135741 Si02
#       8
#     8   8   8   8   8   8   8   8
#     4  10  21  40  62  94 122 173 217 256 320 387
#     4  12  24  39  60 101 134 161 211 279 327 373
#     4  11  22  44  66  93 126 170 223 269 328 395
#     4  10  19  39  66  91 126 169 208 261 326 385
#     4  10  22  40  65  95 123 165 220 270 324 383
#     4  11  23  41  66  89 128 179 216 254 329 404
#     4   9  18  40  68  86 118 172 217 252 319 396
#     4   9  19  40  67  88 126 174 216 255 314 401
#
# _framework density 19.604095999999998
#
# number of rings (size 3 to 8) (size 9 to 14) (size 15 to 20)
#    0.000    1.750    3.750    1.500    3.500    0.000 
#    6.750    0.625    0.000    0.000    0.000    0.000 
#    0.000    0.000    0.000    0.000    0.000    0.000 
#
# Total GULP energy -396532.396578 kJ/mol
# GULP energy per Si atom -12391.637393 kJ/mol
# Density = 1.955948 g / cm^3
# Si number density = 19.604096 Si / 1000 Ang^3
#
#
#
# Elastic Constant Matrix: (Units=GPa)
#
#
# Indices 1 2 3 4 5 6 
#
# 1 128.1317 63.2447 56.2672 0.0000 6.7317 0.0000
# 2 63.2447 139.9231 67.7494 0.0000 -1.8187 0.0000
# 3 56.2672 67.7494 125.3653 0.0000 8.8964 0.0000
# 4 0.0000 0.0000 0.0000 28.8542 0.0000 1.4971
# 5 6.7317 -1.8187 8.8964 0.0000 10.9082 0.0000
# 6 0.0000 0.0000 0.0000 1.4971 0.0000 31.0400
#
#
#
# Elastic Compliance Matrix: (Units=1/GPa)
#
#
# Indices 1 2 3 4 5 6 
#
# 1 0.011104 -0.003880 -0.002500 0.000000 -0.005461 0.000000
# 2 -0.003880 0.011453 -0.005045 0.000000 0.008419 0.000000
# 3 -0.002500 -0.005045 0.012499 0.000000 -0.009492 0.000000
# 4 0.000000 0.000000 0.000000 0.034744 0.000000 -0.001676
# 5 -0.005461 0.008419 -0.009492 0.000000 0.104190 0.000000
# 6 0.000000 0.000000 0.000000 -0.001676 0.000000 0.032297
#
#
# Mechanical properties :
#
#
# Convention : Reuss Voigt Hill
#
# Bulk Modulus (GPa) = 81.92529 85.32697 83.62613
# Shear Modulus (GPa) = 21.44042 27.90439 24.67240
#
# Velocity S-wave (km/s) = 3.31066 3.77688 3.55143
# Velocity P-wave (km/s) = 7.51628 7.91450 7.71796
#
# Compressibility (1/GPa) = 0.01220624
#
# Stress axis : x y z
#
# Youngs Moduli (GPa) = 90.05765 87.31573 80.00792
#
# Poissons Ratio (x) = 0.33875 0.19999
# Poissons Ratio (y) = 0.34939 0.40367
# Poissons Ratio (z) = 0.22511 0.44054
#
# Static dielectric constant tensor:
#      x y z
#    x 3.587590 0.000000 0.089580 
#    y 0.000000 4.090710 0.000000 
#    z 0.089580 0.000000 3.701390 
# 
# 
# High freq. dielectric constant tensor:
#      x y z
#    x 1.747060 0.000000 0.009060 
#    y 0.000000 1.774560 0.000000 
#    z 0.009060 0.000000 1.766960 
# 
# From -- ./inp_files/264689.got.cif
#   From: 2010.06.25/outbox.cif.g09.slc.cpg/sg15_133_cif.got.tgz:264689.got - 2010.06.28 07:06:18.
