data_PCOD8135682
_publ_section_title
;
Structure prediction by ZEFSAII (Michael W. Deem and Ramdas Pophale) SiO2 
 PCOD8135682
Probable space group: C 2/C
;
_chemical_formula_sum "Si O2"
_cell_formula_units_Z 52
_cell_length_a 8.071738
_cell_length_b 16.943182
_cell_length_c 18.419727
_cell_angle_alpha 90.000000
_cell_angle_beta 81.298230
_cell_angle_gamma 90.000000
_cell_volume 2490.102111
_symmetry_space_group_name_H-M "C 2/C"
_symmetry_group_IT_number 15
_symmetry_cell_setting 'monoclinic'
loop_
_space_group_symop_operation_xyz
x,y,z
-x,y,1/2-z
-x,-y,-z
x,-y,1/2+z
1/2+x,1/2+y,z
1/2-x,1/2+y,1/2-z
1/2-x,1/2-y,-z
1/2+x,1/2-y,1/2+z
loop_
_atom_site_type_symbol
_atom_site_label
_atom_site_fract_x
_atom_site_fract_y
_atom_site_fract_z
Si Si1 0.941069 0.691406 0.142453
Si Si2 0.270753 0.658069 0.204430
Si Si3 0.500000 0.780489 0.250000
Si Si4 0.917711 0.016617 0.111871
Si Si5 0.257631 0.653451 0.630484
Si Si6 0.558192 0.883703 0.011783
Si Si7 0.236794 0.034719 0.524614
O O1 0.814391 0.654726 0.210301
O O2 0.908385 0.783998 0.129657
O O3 0.132431 0.680011 0.153698
O O4 0.907570 0.646150 0.070834
O O5 0.413539 0.724954 0.194756
O O6 0.362182 0.575138 0.180125
O O7 0.364881 0.837945 0.293620
O O8 0.825860 0.934225 0.129417
O O9 0.117441 0.996702 0.097765
O O10 0.876772 0.059536 0.037441
O O11 0.149865 0.671863 0.564663
O O12 0.357517 0.892793 0.041751
O O13 0.641660 0.968508 0.014764
#
# Coordination Sequence:
#
# PCOD8135682 Si02
#       7
#     8   8   4   8   8   8   8
#     4  10  21  40  63  91 123 168 206 253 315 384
#     4  10  22  40  65  84 125 166 211 250 304 377
#     4  10  24  44  58  92 122 164 206 258 308 380
#     4  10  20  40  60  92 118 166 200 257 304 368
#     4  10  23  40  63  91 130 155 206 263 315 365
#     4  10  19  39  63  94 122 164 199 262 314 366
#     4   9  20  35  62  91 128 148 211 256 299 372
#
# _framework density 20.882677999999999
#
# number of rings (size 3 to 8) (size 9 to 14) (size 15 to 20)
#    0.000    2.154    1.538    0.462    4.308    2.462 
#    2.769    4.615    0.000    0.000    0.000    0.000 
#    0.000    0.000    0.000    0.000    0.000    0.000 
#
# Total GULP energy -322271.193087 kJ/mol
# GULP energy per Si atom -12395.045888 kJ/mol
# Density = 2.083515 g / cm^3
# Si number density = 20.882678 Si / 1000 Ang^3
#
#
#
# Elastic Constant Matrix: (Units=GPa)
#
#
# Indices 1 2 3 4 5 6 
#
# 1 95.7334 35.1758 35.0142 0.0000 -20.9795 0.0000
# 2 35.1758 74.0171 45.2321 0.0000 -11.8589 0.0000
# 3 35.0142 45.2321 82.1634 0.0000 3.4552 0.0000
# 4 0.0000 0.0000 0.0000 31.8908 0.0000 0.7663
# 5 -20.9795 -11.8589 3.4552 0.0000 24.6544 0.0000
# 6 0.0000 0.0000 0.0000 0.7663 0.0000 16.7249
#
#
#
# Elastic Compliance Matrix: (Units=1/GPa)
#
#
# Indices 1 2 3 4 5 6 
#
# 1 0.016672 -0.001327 -0.006985 0.000000 0.014527 0.000000
# 2 -0.001327 0.024266 -0.013315 0.000000 0.012409 0.000000
# 3 -0.006985 -0.013315 0.023133 0.000000 -0.015591 0.000000
# 4 0.000000 0.000000 0.000000 0.031392 0.000000 -0.001438
# 5 0.014527 0.012409 -0.015591 0.000000 0.061077 0.000000
# 6 0.000000 0.000000 0.000000 -0.001438 0.000000 0.059857
#
#
# Mechanical properties :
#
#
# Convention : Reuss Voigt Hill
#
# Bulk Modulus (GPa) = 48.03810 53.63977 50.83894
# Shear Modulus (GPa) = 18.75543 23.75348 21.25446
#
# Velocity S-wave (km/s) = 3.00014 3.37630 3.19376
# Velocity P-wave (km/s) = 5.92071 6.39853 6.16426
#
# Compressibility (1/GPa) = 0.02081681
#
# Stress axis : x y z
#
# Youngs Moduli (GPa) = 59.98231 41.20976 43.22745
#
# Poissons Ratio (x) = 0.05468 0.30195
# Poissons Ratio (y) = 0.07958 0.57558
# Poissons Ratio (z) = 0.41899 0.54872
#
# Static dielectric constant tensor:
#      x y z
#    x 4.196080 0.000000 0.151320 
#    y 0.000000 3.588370 0.000000 
#    z 0.151320 0.000000 3.669220 
# 
# 
# High freq. dielectric constant tensor:
#      x y z
#    x 1.835150 0.000000 -0.000650 
#    y 0.000000 1.798820 0.000000 
#    z -0.000650 0.000000 1.806010 
# 
# From -- ./inp_files/190386.got.cif
#   From: 2010.06.25/outbox.cif.g09.slc.cpg/sg15_96_cif.got.tgz:190386.got - 2010.06.28 07:06:18.
