data_PCOD8135389
_publ_section_title
;
Structure prediction by ZEFSAII (Michael W. Deem and Ramdas Pophale) SiO2 
 PCOD8135389
Probable space group: C 2/C
;
_chemical_formula_sum "Si O2"
_cell_formula_units_Z 56
_cell_length_a 21.250974
_cell_length_b 8.963763
_cell_length_c 29.046785
_cell_angle_alpha 90.000000
_cell_angle_beta 29.995309
_cell_angle_gamma 90.000000
_cell_volume 2766.149747
_symmetry_space_group_name_H-M "C 2/C"
_symmetry_group_IT_number 15
_symmetry_cell_setting 'monoclinic'
loop_
_space_group_symop_operation_xyz
x,y,z
-x,y,1/2-z
-x,-y,-z
x,-y,1/2+z
1/2+x,1/2+y,z
1/2-x,1/2+y,1/2-z
1/2-x,1/2-y,-z
1/2+x,1/2-y,1/2+z
loop_
_atom_site_type_symbol
_atom_site_label
_atom_site_fract_x
_atom_site_fract_y
_atom_site_fract_z
Si Si1 0.836835 0.581374 0.706657
Si Si2 0.577188 0.722228 0.033005
Si Si3 0.625164 0.293213 0.401387
Si Si4 0.735817 0.988192 0.438139
Si Si5 0.546019 0.505623 0.628368
Si Si6 0.502925 0.203395 0.103864
Si Si7 0.225293 0.997260 0.686165
O O1 0.746113 0.612985 0.807508
O O2 0.750700 0.598171 0.715228
O O3 0.946150 0.702945 0.631295
O O4 0.889082 0.414743 0.681882
O O5 0.570871 0.652375 0.985191
O O6 0.689666 0.840758 0.965207
O O7 0.609846 0.584585 0.046005
O O8 0.513389 0.290419 0.434481
O O9 0.665104 0.123528 0.383286
O O10 0.863763 0.988869 0.385383
O O11 0.633913 0.882730 0.526144
O O12 0.760926 0.918945 0.371490
O O13 0.506075 0.675035 0.642008
O O14 0.414263 0.424933 0.724314
#
# Coordination Sequence:
#
# PCOD8135389 Si02
#       7
#     8   8   8   8   8   8   8
#     4  10  19  39  61  84 121 143 189 249 288 341
#     4  10  22  37  63  87 112 152 195 238 290 330
#     4  10  19  38  61  88 112 146 194 243 289 338
#     4  10  22  40  58  81 116 158 195 227 277 351
#     4  12  21  37  57  87 118 152 191 234 278 345
#     4  10  22  37  58  85 116 152 184 236 298 333
#     4  10  20  36  62  85 109 153 195 235 284 339
#
# _framework density 20.244745999999999
#
# number of rings (size 3 to 8) (size 9 to 14) (size 15 to 20)
#    0.000    1.714    2.857    2.143    0.000    4.000 
#    2.571    0.000    0.000    0.000    0.000    0.000 
#    0.000    0.000    0.000    0.000    0.000    0.000 
#
# Total GULP energy -347086.743984 kJ/mol
# GULP energy per Si atom -12395.955142 kJ/mol
# Density = 2.019867 g / cm^3
# Si number density = 20.244746 Si / 1000 Ang^3
#
#
#
# Elastic Constant Matrix: (Units=GPa)
#
#
# Indices 1 2 3 4 5 6 
#
# 1 102.7554 24.8001 21.6600 0.0006 -11.6123 -0.0161
# 2 24.8001 58.6488 14.3510 0.0020 7.0724 -0.0271
# 3 21.6600 14.3510 65.1155 -0.0020 1.0171 0.0017
# 4 0.0006 0.0020 -0.0020 18.1225 0.0002 2.1192
# 5 -11.6123 7.0724 1.0171 0.0002 36.9827 0.0010
# 6 -0.0161 -0.0271 0.0017 2.1192 0.0010 23.5738
#
#
#
# Elastic Compliance Matrix: (Units=1/GPa)
#
#
# Indices 1 2 3 4 5 6 
#
# 1 0.012112 -0.004968 -0.003009 -0.000001 0.004836 0.000003
# 2 -0.004968 0.020482 -0.002777 -0.000005 -0.005401 0.000021
# 3 -0.003009 -0.002777 0.016984 0.000003 -0.000881 -0.000007
# 4 -0.000001 -0.000005 0.000003 0.055766 0.000001 -0.005013
# 5 0.004836 -0.005401 -0.000881 0.000001 0.029615 -0.000004
# 6 0.000003 0.000021 -0.000007 -0.005013 -0.000004 0.042871
#
#
# Mechanical properties :
#
#
# Convention : Reuss Voigt Hill
#
# Bulk Modulus (GPa) = 35.62703 38.68242 37.15472
# Shear Modulus (GPa) = 23.95823 26.78303 25.37063
#
# Velocity S-wave (km/s) = 3.44383 3.64120 3.54389
# Velocity P-wave (km/s) = 5.78357 6.06850 5.92775
#
# Compressibility (1/GPa) = 0.02806858
#
# Stress axis : x y z
#
# Youngs Moduli (GPa) = 82.56389 48.82252 58.87829
#
# Poissons Ratio (x) = 0.24257 0.17719
# Poissons Ratio (y) = 0.41021 0.16351
# Poissons Ratio (z) = 0.24847 0.13559
#
# Static dielectric constant tensor:
#      x y z
#    x 3.783580 -0.000010 0.075240 
#    y -0.000010 3.471650 0.000000 
#    z 0.075240 0.000000 3.680010 
# 
# 
# High freq. dielectric constant tensor:
#      x y z
#    x 1.790850 0.000000 -0.002090 
#    y 0.000000 1.772310 0.000000 
#    z -0.002090 0.000000 1.792500 
# 
# From -- ./inp_files/259017.got.cif
#   From: 2010.06.25/outbox.cif.g09.slc.cpg/sg15_130_cif.got.tgz:259017.got - 2010.06.28 07:06:18.
