data_PCOD8135095
_publ_section_title
;
Structure prediction by ZEFSAII (Michael W. Deem and Ramdas Pophale) SiO2 
 PCOD8135095
Probable space group: C 2/C
;
_chemical_formula_sum "Si O2"
_cell_formula_units_Z 56
_cell_length_a 8.813906
_cell_length_b 23.132211
_cell_length_c 20.821487
_cell_angle_alpha 90.000000
_cell_angle_beta 139.464066
_cell_angle_gamma 90.000000
_cell_volume 2759.055429
_symmetry_space_group_name_H-M "C 2/C"
_symmetry_group_IT_number 15
_symmetry_cell_setting 'monoclinic'
loop_
_space_group_symop_operation_xyz
x,y,z
-x,y,1/2-z
-x,-y,-z
x,-y,1/2+z
1/2+x,1/2+y,z
1/2-x,1/2+y,1/2-z
1/2-x,1/2-y,-z
1/2+x,1/2-y,1/2+z
loop_
_atom_site_type_symbol
_atom_site_label
_atom_site_fract_x
_atom_site_fract_y
_atom_site_fract_z
Si Si1 0.460220 0.355453 0.050417
Si Si2 0.517325 0.154309 0.180954
Si Si3 0.605847 0.286014 0.214760
Si Si4 0.143972 0.527055 0.926346
Si Si5 0.097655 0.013509 0.618100
Si Si6 0.762775 0.954543 0.712017
Si Si7 0.944426 0.642982 0.660813
O O1 0.442820 0.316869 0.109186
O O2 0.508821 0.420734 0.088037
O O3 0.679122 0.332490 0.077693
O O4 0.231309 0.350922 0.933829
O O5 0.500000 0.138047 0.250000
O O6 0.615557 0.218330 0.203281
O O7 0.705437 0.111517 0.210050
O O8 0.500000 0.299782 0.250000
O O9 0.873558 0.307466 0.299378
O O10 0.232235 0.500296 0.886738
O O11 0.038825 0.591255 0.885143
O O12 0.952268 0.483764 0.896079
O O13 0.371746 0.528919 0.044830
O O14 0.231635 0.997910 0.725680
O O15 0.000000 0.956754 0.750000
O O16 0.000000 0.617730 0.750000
#
# Coordination Sequence:
#
# PCOD8135095 Si02
#       7
#     8   8   8   8   8   8   8
#     4  10  20  41  67  93 116 164 212 255 300 364
#     4  11  24  43  64  86 124 169 215 252 301 370
#     4  10  22  41  63  93 122 160 203 263 318 363
#     4  10  19  37  61  89 117 157 209 239 294 366
#     4  10  21  37  65  89 117 161 210 244 298 368
#     4  12  25  38  56  91 132 162 191 260 320 359
#     4   9  19  35  62  92 115 155 210 249 298 358
#
# _framework density 20.296800999999999
#
# number of rings (size 3 to 8) (size 9 to 14) (size 15 to 20)
#    0.000    1.714    1.429    4.286    4.000    4.571 
#    2.571    2.857    0.000    0.000    0.000    0.000 
#    0.000    0.000    0.000    0.000    0.000    0.000 
#
# Total GULP energy -347152.565379 kJ/mol
# GULP energy per Si atom -12398.305906 kJ/mol
# Density = 2.025060 g / cm^3
# Si number density = 20.296801 Si / 1000 Ang^3
#
#
#
# Elastic Constant Matrix: (Units=GPa)
#
#
# Indices 1 2 3 4 5 6 
#
# 1 84.3739 39.9128 40.7412 0.0001 22.1299 0.0001
# 2 39.9128 107.1712 37.7155 0.0000 15.2188 0.0000
# 3 40.7412 37.7155 104.3168 -0.0002 19.4744 0.0000
# 4 0.0001 0.0000 -0.0002 31.2519 0.0000 3.6471
# 5 22.1299 15.2188 19.4744 0.0000 33.4541 0.0000
# 6 0.0001 0.0000 0.0000 3.6471 0.0000 29.1073
#
#
#
# Elastic Compliance Matrix: (Units=1/GPa)
#
#
# Indices 1 2 3 4 5 6 
#
# 1 0.017710 -0.004113 -0.004030 0.000000 -0.007498 0.000000
# 2 -0.004113 0.011909 -0.002464 0.000000 -0.001263 0.000000
# 3 -0.004030 -0.002464 0.012727 0.000000 -0.003622 0.000000
# 4 0.000000 0.000000 0.000000 0.032473 0.000000 -0.004069
# 5 -0.007498 -0.001263 -0.003622 0.000000 0.037535 0.000000
# 6 0.000000 0.000000 0.000000 -0.004069 0.000000 0.034865
#
#
# Mechanical properties :
#
#
# Convention : Reuss Voigt Hill
#
# Bulk Modulus (GPa) = 47.31832 59.17787 53.24810
# Shear Modulus (GPa) = 28.49389 30.59547 29.54468
#
# Velocity S-wave (km/s) = 3.75088 3.88674 3.81941
# Velocity P-wave (km/s) = 6.49019 7.02580 6.76330
#
# Compressibility (1/GPa) = 0.02113346
#
# Stress axis : x y z
#
# Youngs Moduli (GPa) = 56.46496 83.97132 78.57291
#
# Poissons Ratio (x) = 0.34534 0.31665
# Poissons Ratio (y) = 0.23222 0.19358
# Poissons Ratio (z) = 0.22755 0.20688
#
# Static dielectric constant tensor:
#      x y z
#    x 3.517740 0.000000 0.202010 
#    y 0.000000 3.618530 0.000000 
#    z 0.202010 0.000000 4.033650 
# 
# 
# High freq. dielectric constant tensor:
#      x y z
#    x 1.769930 0.000000 0.016930 
#    y 0.000000 1.790240 0.000000 
#    z 0.016930 0.000000 1.808320 
# 
# From -- ./inp_files/266438.got.cif
#   From: 2010.06.25/outbox.cif.g09.slc.cpg/sg15_134_cif.got.tgz:266438.got - 2010.06.28 07:06:18.
