data_PCOD8135812
_publ_section_title
;
Structure prediction by ZEFSAII (Michael W. Deem and Ramdas Pophale) SiO2 
 PCOD8135812
Probable space group: C 2/C
;
_chemical_formula_sum "Si O2"
_cell_formula_units_Z 40
_cell_length_a 17.727649
_cell_length_b 12.028297
_cell_length_c 17.874450
_cell_angle_alpha 90.000000
_cell_angle_beta 32.780213
_cell_angle_gamma 90.000000
_cell_volume 2063.576514
_symmetry_space_group_name_H-M "C 2/C"
_symmetry_group_IT_number 15
_symmetry_cell_setting 'monoclinic'
loop_
_space_group_symop_operation_xyz
x,y,z
-x,y,1/2-z
-x,-y,-z
x,-y,1/2+z
1/2+x,1/2+y,z
1/2-x,1/2+y,1/2-z
1/2-x,1/2-y,-z
1/2+x,1/2-y,1/2+z
loop_
_atom_site_type_symbol
_atom_site_label
_atom_site_fract_x
_atom_site_fract_y
_atom_site_fract_z
Si Si1 0.092978 0.362948 0.859932
Si Si2 0.802916 0.997056 0.099553
Si Si3 0.157612 0.644986 0.597254
Si Si4 0.327631 0.988744 0.565423
Si Si5 0.085422 0.896464 0.341856
O O1 0.188898 0.411566 0.714926
O O2 0.161104 0.386275 0.884863
O O3 0.077942 0.235318 0.851896
O O4 0.942685 0.418777 0.985509
O O5 0.731295 0.908328 0.106527
O O6 0.854304 0.933433 0.129439
O O7 0.932268 0.057053 0.952038
O O8 0.250000 0.750000 0.500000
O O9 0.156105 0.557750 0.531009
O O10 0.000000 0.680784 0.750000
O O11 0.181698 0.053933 0.695765
#
# Coordination Sequence:
#
# PCOD8135812 Si02
#       5
#     8   8   8   8   8
#     4  10  19  40  62  90 122 163 205 250 306 354
#     4  10  22  40  61  91 126 155 208 255 293 370
#     4  12  26  44  64  90 124 162 200 256 315 362
#     4  10  22  38  63  90 125 160 205 255 298 367
#     4  10  21  38  64  92 120 163 206 250 305 357
#
# _framework density 19.383821000000001
#
# number of rings (size 3 to 8) (size 9 to 14) (size 15 to 20)
#    0.000    1.600    2.000    2.400    2.800    0.000 
#    7.200    6.000    0.000    0.000    0.000    0.000 
#    0.000    0.000    0.000    0.000    0.000    0.000 
#
# Total GULP energy -248030.049100 kJ/mol
# GULP energy per Si atom -12401.502455 kJ/mol
# Density = 1.933970 g / cm^3
# Si number density = 19.383821 Si / 1000 Ang^3
#
#
#
# Elastic Constant Matrix: (Units=GPa)
#
#
# Indices 1 2 3 4 5 6 
#
# 1 41.5149 21.1538 23.4074 0.0001 -4.0961 -0.0001
# 2 21.1538 111.3502 52.6305 0.0000 -15.0070 0.0000
# 3 23.4074 52.6305 163.3000 0.0002 -18.0482 -0.0001
# 4 0.0001 0.0000 0.0002 30.6613 -0.0002 -1.3689
# 5 -4.0961 -15.0070 -18.0482 -0.0002 25.9240 0.0001
# 6 -0.0001 0.0000 -0.0001 -1.3689 0.0001 8.6938
#
#
#
# Elastic Compliance Matrix: (Units=1/GPa)
#
#
# Indices 1 2 3 4 5 6 
#
# 1 0.027628 -0.003962 -0.002659 0.000000 0.000221 0.000000
# 2 -0.003962 0.011574 -0.002699 0.000000 0.004195 0.000000
# 3 -0.002659 -0.002699 0.007752 0.000000 0.003415 0.000000
# 4 0.000000 0.000000 0.000000 0.032845 0.000000 0.005172
# 5 0.000221 0.004195 0.003415 0.000000 0.043415 -0.000001
# 6 0.000000 0.000000 0.000000 0.005172 -0.000001 0.115839
#
#
# Mechanical properties :
#
#
# Convention : Reuss Voigt Hill
#
# Bulk Modulus (GPa) = 35.31751 56.72761 46.02256
# Shear Modulus (GPa) = 18.71741 27.65403 23.18572
#
# Velocity S-wave (km/s) = 3.11081 3.78121 3.46227
# Velocity P-wave (km/s) = 5.58234 6.95646 6.30694
#
# Compressibility (1/GPa) = 0.02831457
#
# Stress axis : x y z
#
# Youngs Moduli (GPa) = 36.19580 86.39769 128.99940
#
# Poissons Ratio (x) = 0.34232 0.34298
# Poissons Ratio (y) = 0.14341 0.34814
# Poissons Ratio (z) = 0.09624 0.23316
#
# Static dielectric constant tensor:
#      x y z
#    x 3.444940 0.000000 -0.140180 
#    y 0.000000 3.390640 0.000000 
#    z -0.140180 0.000000 3.862470 
# 
# 
# High freq. dielectric constant tensor:
#      x y z
#    x 1.742660 0.000000 -0.007900 
#    y 0.000000 1.757170 0.000000 
#    z -0.007900 0.000000 1.778190 
# 
# From -- ./inp_files/46078.got.cif
#   From: 2010.06.25/outbox.cif.g09.slc.cpg/sg15_24_cif.got.tgz:46078.got - 2010.06.28 07:06:18.
