data_PCOD8135785
_publ_section_title
;
Structure prediction by ZEFSAII (Michael W. Deem and Ramdas Pophale) SiO2 
 PCOD8135785
Probable space group: C 2/C
;
_chemical_formula_sum "Si O2"
_cell_formula_units_Z 48
_cell_length_a 12.563019
_cell_length_b 8.232032
_cell_length_c 26.739135
_cell_angle_alpha 90.000000
_cell_angle_beta 134.399084
_cell_angle_gamma 90.000000
_cell_volume 1975.790288
_symmetry_space_group_name_H-M "C 2/C"
_symmetry_group_IT_number 15
_symmetry_cell_setting 'monoclinic'
loop_
_space_group_symop_operation_xyz
x,y,z
-x,y,1/2-z
-x,-y,-z
x,-y,1/2+z
1/2+x,1/2+y,z
1/2-x,1/2+y,1/2-z
1/2-x,1/2-y,-z
1/2+x,1/2-y,1/2+z
loop_
_atom_site_type_symbol
_atom_site_label
_atom_site_fract_x
_atom_site_fract_y
_atom_site_fract_z
Si Si1 0.653009 0.174638 0.924350
Si Si2 0.067525 0.174249 0.717036
Si Si3 0.393128 0.403413 0.428102
Si Si4 0.831554 0.490706 0.718301
Si Si5 0.920463 0.182088 0.278167
Si Si6 0.905384 0.303296 0.573234
O O1 0.761381 0.179750 0.913610
O O2 0.521489 0.287551 0.860712
O O3 0.589534 0.997164 0.917708
O O4 0.750000 0.250000 0.000000
O O5 0.179981 0.330178 0.750025
O O6 0.000000 0.172042 0.750000
O O7 0.932256 0.208616 0.634113
O O8 0.147038 0.999001 0.732869
O O9 0.500000 0.500000 0.500000
O O10 0.307758 0.532550 0.364715
O O11 0.471299 0.254971 0.425556
O O12 0.804802 0.665593 0.737061
O O13 0.000000 0.495537 0.750000
O O14 0.000000 0.173027 0.250000
O O15 0.750000 0.250000 0.500000
#
# Coordination Sequence:
#
# PCOD8135785 Si02
#       6
#     8   8   8   8   8   8
#     4  12  24  46  73 105 156 199 251 334 388 459
#     4  10  21  40  73 106 138 199 249 305 383 465
#     4  12  26  46  75 113 151 205 263 315 399 483
#     4  10  19  44  74  98 147 194 240 319 384 447
#     4  10  19  39  73  97 141 196 244 304 391 447
#     4  12  25  45  74 108 152 205 257 317 400 467
#
# _framework density 24.294076
#
# number of rings (size 3 to 8) (size 9 to 14) (size 15 to 20)
#    0.000    1.000    6.667    2.000    0.000    0.667 
#    3.000    1.667    0.000    0.000    0.000    0.000 
#    0.000    0.000    0.000    0.000    0.000    0.000 
#
# Total GULP energy -297395.052866 kJ/mol
# GULP energy per Si atom -12391.460536 kJ/mol
# Density = 2.423878 g / cm^3
# Si number density = 24.294076 Si / 1000 Ang^3
#
#
#
# Elastic Constant Matrix: (Units=GPa)
#
#
# Indices 1 2 3 4 5 6 
#
# 1 80.9012 67.5731 22.9954 0.0000 -5.3373 0.0000
# 2 67.5731 256.1677 82.6178 0.0000 -6.6601 0.0000
# 3 22.9954 82.6178 205.1825 0.0000 -11.4753 0.0000
# 4 0.0000 0.0000 0.0000 47.6236 0.0000 5.6588
# 5 -5.3373 -6.6601 -11.4753 0.0000 34.3861 0.0000
# 6 0.0000 0.0000 0.0000 5.6588 0.0000 40.1783
#
#
#
# Elastic Compliance Matrix: (Units=1/GPa)
#
#
# Indices 1 2 3 4 5 6 
#
# 1 0.015949 -0.004157 -0.000020 0.000000 0.001663 0.000000
# 2 -0.004157 0.005572 -0.001787 0.000000 -0.000162 0.000000
# 3 -0.000020 -0.001787 0.005682 0.000000 0.001547 0.000000
# 4 0.000000 0.000000 0.000000 0.021355 0.000000 -0.003008
# 5 0.001663 -0.000162 0.001547 0.000000 0.029825 0.000000
# 6 0.000000 0.000000 0.000000 -0.003008 0.000000 0.025313
#
#
# Mechanical properties :
#
#
# Convention : Reuss Voigt Hill
#
# Bulk Modulus (GPa) = 65.47111 98.73600 82.10355
# Shear Modulus (GPa) = 41.41953 49.04192 45.23073
#
# Velocity S-wave (km/s) = 4.13355 4.49784 4.31954
# Velocity P-wave (km/s) = 7.05617 8.22827 7.66466
#
# Compressibility (1/GPa) = 0.01527391
#
# Stress axis : x y z
#
# Youngs Moduli (GPa) = 62.70151 179.45694 175.99342
#
# Poissons Ratio (x) = 0.74603 0.00360
# Poissons Ratio (y) = 0.26066 0.31449
# Poissons Ratio (z) = 0.00128 0.32067
#
# Static dielectric constant tensor:
#      x y z
#    x 4.096270 0.000000 -0.310850 
#    y 0.000000 5.669460 0.000000 
#    z -0.310850 0.000000 4.386750 
# 
# 
# High freq. dielectric constant tensor:
#      x y z
#    x 1.986130 0.000000 -0.008540 
#    y 0.000000 1.988740 0.000000 
#    z -0.008540 0.000000 1.978390 
# 
# From -- ./inp_files/312997.got.cif
#   From: 2010.06.25/outbox.cif.g09.slc.cpg/sg15_157_cif.got.tgz:312997.got - 2010.06.28 07:06:18.
