data_PCOD8135513
_publ_section_title
;
Structure prediction by ZEFSAII (Michael W. Deem and Ramdas Pophale) SiO2 
 PCOD8135513
Probable space group: C 2/C
;
_chemical_formula_sum "Si O2"
_cell_formula_units_Z 48
_cell_length_a 10.074757
_cell_length_b 12.809640
_cell_length_c 18.591037
_cell_angle_alpha 90.000000
_cell_angle_beta 71.279599
_cell_angle_gamma 90.000000
_cell_volume 2272.318211
_symmetry_space_group_name_H-M "C 2/C"
_symmetry_group_IT_number 15
_symmetry_cell_setting 'monoclinic'
loop_
_space_group_symop_operation_xyz
x,y,z
-x,y,1/2-z
-x,-y,-z
x,-y,1/2+z
1/2+x,1/2+y,z
1/2-x,1/2+y,1/2-z
1/2-x,1/2-y,-z
1/2+x,1/2-y,1/2+z
loop_
_atom_site_type_symbol
_atom_site_label
_atom_site_fract_x
_atom_site_fract_y
_atom_site_fract_z
Si Si1 0.754662 0.415126 0.041695
Si Si2 0.155268 0.392439 0.704406
Si Si3 0.142633 0.768068 0.581178
Si Si4 0.075321 0.536453 0.598670
Si Si5 0.867773 0.205068 0.063399
Si Si6 0.727228 0.062240 0.347242
O O1 0.871084 0.328899 0.044618
O O2 0.685336 0.471012 0.124961
O O3 0.825522 0.510563 0.986048
O O4 0.642668 0.358267 0.009905
O O5 0.140878 0.497108 0.661618
O O6 0.237529 0.309604 0.640700
O O7 0.246201 0.426393 0.758475
O O8 0.000000 0.346108 0.750000
O O9 0.250000 0.750000 0.500000
O O10 0.069597 0.659254 0.616154
O O11 0.224653 0.824879 0.631406
O O12 0.011135 0.835508 0.574579
O O13 0.931465 0.474334 0.608412
#
# Coordination Sequence:
#
# PCOD8135513 Si02
#       6
#     8   8   8   8   8   8
#     4  10  19  38  65  87 125 166 206 269 324 370
#     4   9  22  42  64  88 125 170 211 260 321 393
#     4  12  23  37  67  99 122 164 219 270 323 389
#     4  10  20  42  64  92 123 165 217 261 320 387
#     4  10  22  38  63  94 127 163 214 269 322 385
#     4  11  21  37  64  91 124 166 215 260 316 387
#
# _framework density 21.123802999999999
#
# number of rings (size 3 to 8) (size 9 to 14) (size 15 to 20)
#    0.000    1.667    3.333    1.500    0.000    4.000 
#    3.000    0.000    3.667    0.000    0.000    0.000 
#    0.000    0.000    0.000    0.000    0.000    0.000 
#
# Total GULP energy -297316.164662 kJ/mol
# GULP energy per Si atom -12388.173528 kJ/mol
# Density = 2.107572 g / cm^3
# Si number density = 21.123803 Si / 1000 Ang^3
#
#
#
# Elastic Constant Matrix: (Units=GPa)
#
#
# Indices 1 2 3 4 5 6 
#
# 1 97.6543 42.4197 48.3088 0.0000 17.7706 0.0000
# 2 42.4197 111.0468 36.8507 0.0000 25.7284 0.0000
# 3 48.3088 36.8507 120.4004 0.0000 33.6577 0.0000
# 4 0.0000 0.0000 0.0000 20.7009 0.0000 5.4651
# 5 17.7706 25.7284 33.6577 0.0000 37.9699 0.0000
# 6 0.0000 0.0000 0.0000 5.4651 0.0000 24.5043
#
#
#
# Elastic Compliance Matrix: (Units=1/GPa)
#
#
# Indices 1 2 3 4 5 6 
#
# 1 0.014161 -0.003923 -0.004482 0.000000 0.000004 0.000000
# 2 -0.003923 0.012023 -0.000454 0.000000 -0.005908 0.000000
# 3 -0.004482 -0.000454 0.012723 0.000000 -0.008873 0.000000
# 4 0.000000 0.000000 0.000000 0.051329 0.000000 -0.011448
# 5 0.000004 -0.005908 -0.008873 0.000000 0.038204 0.000000
# 6 0.000000 0.000000 0.000000 -0.011448 0.000000 0.043362
#
#
# Mechanical properties :
#
#
# Convention : Reuss Voigt Hill
#
# Bulk Modulus (GPa) = 47.19445 64.91777 56.05611
# Shear Modulus (GPa) = 25.43430 30.06984 27.75207
#
# Velocity S-wave (km/s) = 3.47372 3.77703 3.62855
# Velocity P-wave (km/s) = 6.20317 7.05833 6.64452
#
# Compressibility (1/GPa) = 0.02118893
#
# Stress axis : x y z
#
# Youngs Moduli (GPa) = 70.61705 83.17102 78.59474
#
# Poissons Ratio (x) = 0.32627 0.35228
# Poissons Ratio (y) = 0.27702 0.03571
# Poissons Ratio (z) = 0.31652 0.03779
#
# Static dielectric constant tensor:
#      x y z
#    x 4.086200 0.000000 0.482600 
#    y 0.000000 4.202170 0.000000 
#    z 0.482600 0.000000 4.007750 
# 
# 
# High freq. dielectric constant tensor:
#      x y z
#    x 1.815130 0.000000 0.034510 
#    y 0.000000 1.822970 0.000000 
#    z 0.034510 0.000000 1.827600 
# 
# From -- ./inp_files/196037.got.cif
#   From: 2010.06.25/outbox.cif.g09.slc.cpg/sg15_99_cif.got.tgz:196037.got - 2010.06.28 07:06:18.
