data_PCOD8135113
_publ_section_title
;
Structure prediction by ZEFSAII (Michael W. Deem and Ramdas Pophale) SiO2 
 PCOD8135113
Probable space group: C 2/C
;
_chemical_formula_sum "Si O2"
_cell_formula_units_Z 60
_cell_length_a 12.021315
_cell_length_b 17.049273
_cell_length_c 23.997438
_cell_angle_alpha 90.000000
_cell_angle_beta 40.821556
_cell_angle_gamma 90.000000
_cell_volume 3215.176096
_symmetry_space_group_name_H-M "C 2/C"
_symmetry_group_IT_number 15
_symmetry_cell_setting 'monoclinic'
loop_
_space_group_symop_operation_xyz
x,y,z
-x,y,1/2-z
-x,-y,-z
x,-y,1/2+z
1/2+x,1/2+y,z
1/2-x,1/2+y,1/2-z
1/2-x,1/2-y,-z
1/2+x,1/2-y,1/2+z
loop_
_atom_site_type_symbol
_atom_site_label
_atom_site_fract_x
_atom_site_fract_y
_atom_site_fract_z
Si Si1 0.500000 0.351681 0.250000
Si Si2 0.691382 0.775679 0.430396
Si Si3 0.953874 0.245764 0.424335
Si Si4 0.265573 0.006221 0.913661
Si Si5 0.957722 0.637233 0.706901
Si Si6 0.589512 0.422257 0.327994
Si Si7 0.733654 0.363759 0.993694
Si Si8 0.048377 0.071231 0.407478
O O1 0.352175 0.298103 0.331486
O O2 0.579470 0.408574 0.266061
O O3 0.520324 0.778936 0.458257
O O4 0.733752 0.690396 0.438925
O O5 0.654608 0.832431 0.496950
O O6 0.750000 0.250000 0.500000
O O7 0.026492 0.298606 0.347170
O O8 0.036962 0.159097 0.387313
O O9 0.425158 0.061247 0.844618
O O10 0.218411 0.952504 0.877717
O O11 0.107586 0.061305 0.990451
O O12 0.309931 0.947754 0.947832
O O13 0.770662 0.602586 0.782298
O O14 0.000000 0.678390 0.750000
O O15 0.459930 0.368232 0.411695
O O16 0.543856 0.513258 0.356239
#
# Coordination Sequence:
#
# PCOD8135113 Si02
#       8
#     4   8   8   8   8   8   8   8
#     4  10  20  40  60  84 126 162 198 260 316 364
#     4  10  20  38  61  92 119 160 204 252 309 371
#     4  12  24  40  63  91 130 163 204 258 324 379
#     4  10  19  37  62  86 114 156 213 245 294 366
#     4  12  24  39  61  95 124 160 210 267 312 368
#     4  10  21  39  62  85 120 162 206 255 313 367
#     4   9  20  38  64  86 117 161 209 250 301 374
#     4  10  20  38  60  83 115 166 204 243 298 378
#
# _framework density 18.661498000000002
#
# number of rings (size 3 to 8) (size 9 to 14) (size 15 to 20)
#    0.000    1.600    5.333    0.000    1.867    0.000 
#    4.800    2.000    0.000    0.000    0.000    0.000 
#    0.000    0.000    0.000    0.000    0.000    0.000 
#
# Total GULP energy -371889.928590 kJ/mol
# GULP energy per Si atom -12396.330953 kJ/mol
# Density = 1.861902 g / cm^3
# Si number density = 18.661498 Si / 1000 Ang^3
#
#
#
# Elastic Constant Matrix: (Units=GPa)
#
#
# Indices 1 2 3 4 5 6 
#
# 1 141.8566 55.7033 44.1325 0.0006 9.6783 -0.0002
# 2 55.7033 116.9813 36.4143 0.0005 8.4152 -0.0003
# 3 44.1325 36.4143 67.0714 0.0013 8.6302 -0.0008
# 4 0.0006 0.0005 0.0013 23.5950 -0.0011 2.9281
# 5 9.6783 8.4152 8.6302 -0.0011 31.1402 0.0005
# 6 -0.0002 -0.0003 -0.0008 2.9281 0.0005 29.3222
#
#
#
# Elastic Compliance Matrix: (Units=1/GPa)
#
#
# Indices 1 2 3 4 5 6 
#
# 1 0.009785 -0.003160 -0.004606 0.000000 -0.000911 0.000000
# 2 -0.003160 0.011357 -0.003959 0.000000 -0.000990 0.000000
# 3 -0.004606 -0.003959 0.020499 -0.000001 -0.003180 0.000001
# 4 0.000000 0.000000 -0.000001 0.042914 0.000002 -0.004285
# 5 -0.000911 -0.000990 -0.003180 0.000002 0.033545 -0.000001
# 6 0.000000 0.000000 0.000001 -0.004285 -0.000001 0.034532
#
#
# Mechanical properties :
#
#
# Convention : Reuss Voigt Hill
#
# Bulk Modulus (GPa) = 54.97332 66.48993 60.73162
# Shear Modulus (GPa) = 27.45077 29.45543 28.45310
#
# Velocity S-wave (km/s) = 3.83950 3.97723 3.90897
# Velocity P-wave (km/s) = 7.01269 7.53644 7.27928
#
# Compressibility (1/GPa) = 0.01819064
#
# Stress axis : x y z
#
# Youngs Moduli (GPa) = 102.19362 88.05298 48.78393
#
# Poissons Ratio (x) = 0.27828 0.22468
# Poissons Ratio (y) = 0.32296 0.19314
# Poissons Ratio (z) = 0.47067 0.34860
#
# Static dielectric constant tensor:
#      x y z
#    x 3.656000 0.000000 0.134790 
#    y 0.000000 3.493050 0.000000 
#    z 0.134790 0.000000 3.368770 
# 
# 
# High freq. dielectric constant tensor:
#      x y z
#    x 1.730060 0.000000 0.009070 
#    y 0.000000 1.722070 0.000000 
#    z 0.009070 0.000000 1.718250 
# 
# From -- ./inp_files/199105.got.cif
#   From: 2010.06.25/outbox.cif.g09.slc.cpg/sg15_100_cif.got.tgz:199105.got - 2010.06.28 07:06:18.
