data_PCOD8135186
_publ_section_title
;
Structure prediction by ZEFSAII (Michael W. Deem and Ramdas Pophale) SiO2 
 PCOD8135186
Probable space group: C 2/C
;
_chemical_formula_sum "Si O2"
_cell_formula_units_Z 44
_cell_length_a 11.956053
_cell_length_b 14.388094
_cell_length_c 21.714236
_cell_angle_alpha 90.000000
_cell_angle_beta 37.978640
_cell_angle_gamma 90.000000
_cell_volume 2298.636616
_symmetry_space_group_name_H-M "C 2/C"
_symmetry_group_IT_number 15
_symmetry_cell_setting 'monoclinic'
loop_
_space_group_symop_operation_xyz
x,y,z
-x,y,1/2-z
-x,-y,-z
x,-y,1/2+z
1/2+x,1/2+y,z
1/2-x,1/2+y,1/2-z
1/2-x,1/2-y,-z
1/2+x,1/2-y,1/2+z
loop_
_atom_site_type_symbol
_atom_site_label
_atom_site_fract_x
_atom_site_fract_y
_atom_site_fract_z
Si Si1 0.356087 0.810750 0.403951
Si Si2 0.732582 0.240189 0.694574
Si Si3 0.000000 0.096901 0.750000
Si Si4 0.220911 0.551466 0.353904
Si Si5 0.612715 0.671153 0.579497
Si Si6 0.173783 0.491921 0.012535
O O1 0.250000 0.750000 0.500000
O O2 0.279534 0.796091 0.369420
O O3 0.571783 0.791125 0.309976
O O4 0.328732 0.918209 0.431899
O O5 0.716895 0.351397 0.701480
O O6 0.916815 0.196553 0.639198
O O7 0.104504 0.164186 0.657335
O O8 0.143091 0.031542 0.725378
O O9 0.232869 0.556660 0.422996
O O10 0.022555 0.535755 0.413265
O O11 0.750000 0.750000 0.500000
O O12 0.686785 0.571243 0.524695
#
# Coordination Sequence:
#
# PCOD8135186 Si02
#       6
#     8   8   4   8   8   8
#     4  11  23  40  62  93 124 157 201 255 307 355
#     4  11  23  39  64  92 124 159 205 251 306 366
#     4  10  22  36  64  90 120 160 212 254 296 352
#     4  10  19  37  64  91 113 161 214 250 289 355
#     4  11  23  41  63  93 124 161 206 251 304 364
#     4  10  21  38  63  87 124 160 200 253 303 356
#
# _framework density 19.141781000000002
#
# number of rings (size 3 to 8) (size 9 to 14) (size 15 to 20)
#    0.000    1.455    3.636    2.182    2.545    2.182 
#    0.000    1.818    0.000    0.000    0.000    0.000 
#    0.000    0.000    0.000    0.000    0.000    0.000 
#
# Total GULP energy -272765.126531 kJ/mol
# GULP energy per Si atom -12398.414842 kJ/mol
# Density = 1.909821 g / cm^3
# Si number density = 19.141781 Si / 1000 Ang^3
#
#
#
# Elastic Constant Matrix: (Units=GPa)
#
#
# Indices 1 2 3 4 5 6 
#
# 1 90.5279 51.8476 49.8780 -0.0002 -20.9914 0.0001
# 2 51.8476 142.5834 79.0821 -0.0004 1.6519 0.0002
# 3 49.8780 79.0821 144.5352 -0.0017 -10.6968 0.0006
# 4 -0.0002 -0.0004 -0.0017 39.1264 0.0004 -0.1275
# 5 -20.9914 1.6519 -10.6968 0.0004 33.9325 -0.0002
# 6 0.0001 0.0002 0.0006 -0.1275 -0.0002 24.3664
#
#
#
# Elastic Compliance Matrix: (Units=1/GPa)
#
#
# Indices 1 2 3 4 5 6 
#
# 1 0.017864 -0.005211 -0.002536 0.000000 0.010505 0.000000
# 2 -0.005211 0.011764 -0.005037 0.000000 -0.005384 0.000000
# 3 -0.002536 -0.005037 0.010702 0.000000 0.002050 0.000000
# 4 0.000000 0.000000 0.000000 0.025559 0.000000 0.000134
# 5 0.010505 -0.005384 0.002050 0.000000 0.036878 0.000000
# 6 0.000000 0.000000 0.000000 0.000134 0.000000 0.041041
#
#
# Mechanical properties :
#
#
# Convention : Reuss Voigt Hill
#
# Bulk Modulus (GPa) = 67.74241 82.14021 74.94131
# Shear Modulus (GPa) = 28.68680 32.60763 30.64722
#
# Velocity S-wave (km/s) = 3.87544 4.13180 4.00567
# Velocity P-wave (km/s) = 7.44930 8.10969 7.78649
#
# Compressibility (1/GPa) = 0.01476180
#
# Stress axis : x y z
#
# Youngs Moduli (GPa) = 55.97831 85.00169 93.44351
#
# Poissons Ratio (x) = 0.44295 0.23698
# Poissons Ratio (y) = 0.29170 0.47068
# Poissons Ratio (z) = 0.14196 0.42816
#
# Static dielectric constant tensor:
#      x y z
#    x 3.451880 0.000000 -0.201860 
#    y 0.000000 3.634670 0.000000 
#    z -0.201860 0.000000 3.791110 
# 
# 
# High freq. dielectric constant tensor:
#      x y z
#    x 1.728670 0.000000 -0.018830 
#    y 0.000000 1.752560 0.000000 
#    z -0.018830 0.000000 1.760100 
# 
# From -- ./inp_files/143335.got.cif
#   From: 2010.06.25/outbox.cif.g09.slc.cpg/sg15_72_cif.got.tgz:143335.got - 2010.06.28 07:06:18.
