data_PCOD8135462
_publ_section_title
;
Structure prediction by ZEFSAII (Michael W. Deem and Ramdas Pophale) SiO2 
 PCOD8135462
Probable space group: C 2/C
;
_chemical_formula_sum "Si O2"
_cell_formula_units_Z 44
_cell_length_a 13.867266
_cell_length_b 13.835491
_cell_length_c 18.544733
_cell_angle_alpha 90.000000
_cell_angle_beta 142.400961
_cell_angle_gamma 90.000000
_cell_volume 2170.849529
_symmetry_space_group_name_H-M "C 2/C"
_symmetry_group_IT_number 15
_symmetry_cell_setting 'monoclinic'
loop_
_space_group_symop_operation_xyz
x,y,z
-x,y,1/2-z
-x,-y,-z
x,-y,1/2+z
1/2+x,1/2+y,z
1/2-x,1/2+y,1/2-z
1/2-x,1/2-y,-z
1/2+x,1/2-y,1/2+z
loop_
_atom_site_type_symbol
_atom_site_label
_atom_site_fract_x
_atom_site_fract_y
_atom_site_fract_z
Si Si1 0.309463 0.394743 0.758517
Si Si2 0.520668 0.768770 0.339953
Si Si3 0.773210 0.394229 0.948984
Si Si4 0.833021 0.378689 0.676215
Si Si5 0.000000 0.194255 0.750000
Si Si6 0.589988 0.454992 0.421604
O O1 0.370715 0.284461 0.786149
O O2 0.215633 0.416876 0.629191
O O3 0.185803 0.400128 0.750165
O O4 0.450424 0.470377 0.857455
O O5 0.500000 0.821478 0.250000
O O6 0.643924 0.684288 0.394942
O O7 0.564328 0.851419 0.423418
O O8 0.728611 0.495529 0.957896
O O9 0.674438 0.417091 0.543784
O O10 0.000000 0.428075 0.750000
O O11 0.845997 0.263183 0.669174
O O12 0.018243 0.131847 0.832823
#
# Coordination Sequence:
#
# PCOD8135462 Si02
#       6
#     8   8   8   8   4   8
#     4  10  19  38  63  92 117 162 212 243 306 372
#     4   8  16  31  56  92 123 153 187 256 311 357
#     4   9  17  32  61  88 121 147 205 253 304 354
#     4  10  25  39  58  87 129 159 206 253 305 358
#     4  10  22  42  62  84 122 170 202 240 308 366
#     4  11  19  41  66  87 116 167 207 251 301 373
#
# _framework density 20.268561999999999
#
# number of rings (size 3 to 8) (size 9 to 14) (size 15 to 20)
#    0.545    1.818    1.818    2.182    0.000    2.182 
#    0.000    6.364    0.000    0.000    0.000    0.000 
#    0.000    0.000    0.000    0.000    0.000    0.000 
#
# Total GULP energy -272596.855752 kJ/mol
# GULP energy per Si atom -12390.766171 kJ/mol
# Density = 2.022243 g / cm^3
# Si number density = 20.268562 Si / 1000 Ang^3
#
#
#
# Elastic Constant Matrix: (Units=GPa)
#
#
# Indices 1 2 3 4 5 6 
#
# 1 128.4669 31.1311 39.1783 0.0003 -22.6700 0.0002
# 2 31.1311 73.5050 37.3205 0.0002 -6.1622 0.0001
# 3 39.1783 37.3205 110.0021 0.0008 -19.9821 0.0006
# 4 0.0003 0.0002 0.0008 38.6320 0.0004 -1.7712
# 5 -22.6700 -6.1622 -19.9821 0.0004 28.1723 0.0003
# 6 0.0002 0.0001 0.0006 -1.7712 0.0003 10.3134
#
#
#
# Elastic Compliance Matrix: (Units=1/GPa)
#
#
# Indices 1 2 3 4 5 6 
#
# 1 0.010081 -0.003021 -0.001391 0.000000 0.006465 0.000000
# 2 -0.003021 0.017345 -0.005236 0.000000 -0.002351 0.000000
# 3 -0.001391 -0.005236 0.012571 0.000000 0.006652 -0.000001
# 4 0.000000 0.000000 0.000000 0.026091 -0.000001 0.004481
# 5 0.006465 -0.002351 0.006652 -0.000001 0.044902 -0.000002
# 6 0.000000 0.000000 -0.000001 0.004481 -0.000002 0.097731
#
#
# Mechanical properties :
#
#
# Convention : Reuss Voigt Hill
#
# Bulk Modulus (GPa) = 48.30687 58.58152 53.44419
# Shear Modulus (GPa) = 21.28404 29.04646 25.16525
#
# Velocity S-wave (km/s) = 3.24404 3.78971 3.52744
# Velocity P-wave (km/s) = 6.15767 6.93647 6.55864
#
# Compressibility (1/GPa) = 0.02070099
#
# Stress axis : x y z
#
# Youngs Moduli (GPa) = 99.19311 57.65222 79.54934
#
# Poissons Ratio (x) = 0.17419 0.11067
# Poissons Ratio (y) = 0.29970 0.41650
# Poissons Ratio (z) = 0.13799 0.30185
#
# Static dielectric constant tensor:
#      x y z
#    x 3.342490 0.000000 -0.101150 
#    y 0.000000 3.591490 0.000000 
#    z -0.101150 0.000000 3.865870 
# 
# 
# High freq. dielectric constant tensor:
#      x y z
#    x 1.767300 0.000000 -0.019100 
#    y 0.000000 1.783870 0.000000 
#    z -0.019100 0.000000 1.792420 
# 
# From -- ./inp_files/205218.got.cif
#   From: 2010.06.25/outbox.cif.g09.slc.cpg/sg15_103_cif.got.tgz:205218.got - 2010.06.28 07:06:18.
