data_PCOD8135975
_publ_section_title
;
Structure prediction by ZEFSAII (Michael W. Deem and Ramdas Pophale) SiO2 
 PCOD8135975
Probable space group: C 2/C
;
_chemical_formula_sum "Si O2"
_cell_formula_units_Z 56
_cell_length_a 11.186991
_cell_length_b 27.682166
_cell_length_c 8.722421
_cell_angle_alpha 90.000000
_cell_angle_beta 73.399750
_cell_angle_gamma 90.000000
_cell_volume 2588.579787
_symmetry_space_group_name_H-M "C 2/C"
_symmetry_group_IT_number 15
_symmetry_cell_setting 'monoclinic'
loop_
_space_group_symop_operation_xyz
x,y,z
-x,y,1/2-z
-x,-y,-z
x,-y,1/2+z
1/2+x,1/2+y,z
1/2-x,1/2+y,1/2-z
1/2-x,1/2-y,-z
1/2+x,1/2-y,1/2+z
loop_
_atom_site_type_symbol
_atom_site_label
_atom_site_fract_x
_atom_site_fract_y
_atom_site_fract_z
Si Si1 0.424418 0.346336 0.495047
Si Si2 0.500000 0.902791 0.750000
Si Si3 0.870639 0.521841 0.495760
Si Si4 0.686226 0.170887 0.298271
Si Si5 0.769036 0.948278 0.160653
Si Si6 0.500000 0.573468 0.750000
Si Si7 0.166461 0.231296 0.669013
Si Si8 0.202872 0.839689 0.425561
O O1 0.307040 0.344315 0.652391
O O2 0.409929 0.393171 0.389450
O O3 0.438988 0.299226 0.380223
O O4 0.557812 0.346103 0.529209
O O5 0.604457 0.935099 0.630905
O O6 0.420012 0.869966 0.663186
O O7 0.769791 0.483999 0.463473
O O8 0.821975 0.543827 0.667671
O O9 0.000000 0.500000 0.500000
O O10 0.619679 0.220387 0.269425
O O11 0.725932 0.182105 0.456298
O O12 0.911333 0.958029 0.169750
O O13 0.746882 0.893435 0.119612
O O14 0.250000 0.250000 0.500000
O O15 0.231324 0.194756 0.768756
#
# Coordination Sequence:
#
# PCOD8135975 Si02
#       8
#     8   4   8   8   8   4   8   8
#     4  10  19  41  68  93 134 174 213 265 339 392
#     4  12  26  41  68  94 136 180 223 276 332 392
#     4  12  24  46  67  94 132 179 224 276 334 404
#     4  11  25  39  65 101 133 178 228 267 325 402
#     4  11  24  42  72  93 131 171 223 278 345 400
#     4  10  20  41  70 100 122 172 213 282 340 402
#     4  10  21  39  65  96 135 175 212 266 331 400
#     4  11  22  42  69  99 132 172 224 281 334 392
#
# _framework density 21.633483999999999
#
# number of rings (size 3 to 8) (size 9 to 14) (size 15 to 20)
#    0.000    1.143    4.286    2.571    4.000    0.571 
#    0.000    0.000    0.000    0.000    0.000    0.000 
#    0.000    0.000    0.000    0.000    0.000    0.000 
#
# Total GULP energy -346946.842966 kJ/mol
# GULP energy per Si atom -12390.958677 kJ/mol
# Density = 2.158425 g / cm^3
# Si number density = 21.633484 Si / 1000 Ang^3
#
#
#
# Elastic Constant Matrix: (Units=GPa)
#
#
# Indices 1 2 3 4 5 6 
#
# 1 112.3712 49.0991 26.3412 0.0000 19.3199 0.0000
# 2 49.0991 118.8611 29.0393 0.0000 8.0735 0.0000
# 3 26.3412 29.0393 87.7760 0.0000 6.9461 0.0000
# 4 0.0000 0.0000 0.0000 29.9093 0.0000 -2.1482
# 5 19.3199 8.0735 6.9461 0.0000 37.6676 0.0000
# 6 0.0000 0.0000 0.0000 -2.1482 0.0000 33.8624
#
#
#
# Elastic Compliance Matrix: (Units=1/GPa)
#
#
# Indices 1 2 3 4 5 6 
#
# 1 0.011998 -0.004175 -0.001830 0.000000 -0.004922 0.000000
# 2 -0.004175 0.010682 -0.002303 0.000000 0.000277 0.000000
# 3 -0.001830 -0.002303 0.012777 0.000000 -0.000924 0.000000
# 4 0.000000 0.000000 0.000000 0.033588 0.000000 0.002131
# 5 -0.004922 0.000277 -0.000924 0.000000 0.029183 0.000000
# 6 0.000000 0.000000 0.000000 0.002131 0.000000 0.029666
#
#
# Mechanical properties :
#
#
# Convention : Reuss Voigt Hill
#
# Bulk Modulus (GPa) = 53.07492 58.66305 55.86899
# Shear Modulus (GPa) = 33.15866 34.58977 33.87421
#
# Velocity S-wave (km/s) = 3.91928 4.00296 3.96134
# Velocity P-wave (km/s) = 6.71327 6.96711 6.84136
#
# Compressibility (1/GPa) = 0.01884129
#
# Stress axis : x y z
#
# Youngs Moduli (GPa) = 83.34439 93.61917 78.26695
#
# Poissons Ratio (x) = 0.39085 0.14323
# Poissons Ratio (y) = 0.34795 0.18024
# Poissons Ratio (z) = 0.15252 0.21559
#
# Static dielectric constant tensor:
#      x y z
#    x 3.897700 0.000000 0.148750 
#    y 0.000000 4.127140 0.000000 
#    z 0.148750 0.000000 3.970130 
# 
# 
# High freq. dielectric constant tensor:
#      x y z
#    x 1.849390 0.000000 0.009130 
#    y 0.000000 1.857430 0.000000 
#    z 0.009130 0.000000 1.850610 
# 
# From -- ./inp_files/34256.got.cif
#   From: 2010.06.25/outbox.cif.g09.slc.cpg/sg15_18_cif.got.tgz:34256.got - 2010.06.28 07:06:18.
