data_PCOD8135663
_publ_section_title
;
Structure prediction by ZEFSAII (Michael W. Deem and Ramdas Pophale) SiO2 
 PCOD8135663
Probable space group: C 2/C
;
_chemical_formula_sum "Si O2"
_cell_formula_units_Z 64
_cell_length_a 11.585142
_cell_length_b 10.911453
_cell_length_c 22.701498
_cell_angle_alpha 90.000000
_cell_angle_beta 94.615013
_cell_angle_gamma 90.000000
_cell_volume 2860.408892
_symmetry_space_group_name_H-M "C 2/C"
_symmetry_group_IT_number 15
_symmetry_cell_setting 'monoclinic'
loop_
_space_group_symop_operation_xyz
x,y,z
-x,y,1/2-z
-x,-y,-z
x,-y,1/2+z
1/2+x,1/2+y,z
1/2-x,1/2+y,1/2-z
1/2-x,1/2-y,-z
1/2+x,1/2-y,1/2+z
loop_
_atom_site_type_symbol
_atom_site_label
_atom_site_fract_x
_atom_site_fract_y
_atom_site_fract_z
Si Si1 0.744504 0.571195 0.347445
Si Si2 0.621159 0.566722 0.573192
Si Si3 0.703879 0.137275 0.573487
Si Si4 0.169911 0.336901 0.367130
Si Si5 0.079424 0.744831 0.667443
Si Si6 0.584186 0.328260 0.498912
Si Si7 0.876138 0.470877 0.247849
Si Si8 0.493475 0.509640 0.815664
O O1 0.820642 0.500354 0.401467
O O2 0.743383 0.715282 0.355944
O O3 0.791259 0.551400 0.283510
O O4 0.620185 0.507819 0.347558
O O5 0.757822 0.603838 0.575160
O O6 0.605319 0.425440 0.552913
O O7 0.548152 0.657378 0.527636
O O8 0.577905 0.587856 0.639097
O O9 0.689771 0.229310 0.628771
O O10 0.610580 0.188898 0.521663
O O11 0.831921 0.141390 0.552142
O O12 0.179375 0.442518 0.317662
O O13 0.036475 0.300246 0.373874
O O14 0.098281 0.663023 0.725015
O O15 0.070507 0.879483 0.693155
O O16 0.000000 0.541344 0.250000
O O17 0.500000 0.569567 0.750000
#
# Coordination Sequence:
#
# PCOD8135663 Si02
#       8
#     8   8   8   8   8   8   8   8
#     4  10  20  36  58  87 116 152 200 242 291 356
#     4  11  22  39  59  87 119 153 200 258 295 346
#     4  10  19  39  63  81 113 156 201 241 293 357
#     4  10  21  36  58  89 124 152 193 249 299 346
#     4   9  18  35  61  87 112 154 197 233 286 364
#     4  10  22  40  62  85 113 160 206 253 298 347
#     4   9  18  36  56  82 121 162 187 228 296 364
#     4  11  19  33  60  89 114 151 198 241 288 355
#
# _framework density 22.374421999999999
#
# number of rings (size 3 to 8) (size 9 to 14) (size 15 to 20)
#    0.000    2.000    2.500    2.625    0.000    0.000 
#    0.000   13.125    0.000    0.000    0.000    0.000 
#    0.000    0.000    0.000    0.000    0.000    0.000 
#
# Total GULP energy -396461.506942 kJ/mol
# GULP energy per Si atom -12389.422092 kJ/mol
# Density = 2.232350 g / cm^3
# Si number density = 22.374422 Si / 1000 Ang^3
#
#
#
# Elastic Constant Matrix: (Units=GPa)
#
#
# Indices 1 2 3 4 5 6 
#
# 1 70.2039 17.6778 18.7575 0.0000 14.8907 0.0000
# 2 17.6778 47.4297 9.9026 0.0000 10.6645 0.0000
# 3 18.7575 9.9026 77.6229 0.0000 -1.8370 0.0000
# 4 0.0000 0.0000 0.0000 20.9132 0.0000 3.2588
# 5 14.8907 10.6645 -1.8370 0.0000 48.4727 0.0000
# 6 0.0000 0.0000 0.0000 3.2588 0.0000 26.4348
#
#
#
# Elastic Compliance Matrix: (Units=1/GPa)
#
#
# Indices 1 2 3 4 5 6 
#
# 1 0.017357 -0.004699 -0.003700 0.000000 -0.004439 0.000000
# 2 -0.004699 0.024148 -0.002039 0.000000 -0.003947 0.000000
# 3 -0.003700 -0.002039 0.014087 0.000000 0.002119 0.000000
# 4 0.000000 0.000000 0.000000 0.048753 0.000000 -0.006010
# 5 -0.004439 -0.003947 0.002119 0.000000 0.022942 0.000000
# 6 0.000000 0.000000 0.000000 -0.006010 0.000000 0.038570
#
#
# Mechanical properties :
#
#
# Convention : Reuss Voigt Hill
#
# Bulk Modulus (GPa) = 28.80362 31.99246 30.39804
# Shear Modulus (GPa) = 25.21359 29.09205 27.15282
#
# Velocity S-wave (km/s) = 3.36056 3.60979 3.48741
# Velocity P-wave (km/s) = 5.28765 5.63062 5.46183
#
# Compressibility (1/GPa) = 0.03471786
#
# Stress axis : x y z
#
# Youngs Moduli (GPa) = 57.61204 41.41096 70.98686
#
# Poissons Ratio (x) = 0.19459 0.26265
# Poissons Ratio (y) = 0.27071 0.14471
# Poissons Ratio (z) = 0.21317 0.08442
#
# Static dielectric constant tensor:
#      x y z
#    x 4.145700 0.000000 -0.081840 
#    y 0.000000 3.647570 0.000000 
#    z -0.081840 0.000000 4.033300 
# 
# 
# High freq. dielectric constant tensor:
#      x y z
#    x 1.877820 0.000000 -0.007040 
#    y 0.000000 1.848370 0.000000 
#    z -0.007040 0.000000 1.880210 
# 
# From -- ./inp_files/268876.got.cif
#   From: 2010.06.25/outbox.cif.g09.slc.cpg/sg15_135_cif.got.tgz:268876.got - 2010.06.28 07:06:18.
