data_PCOD8135290
_publ_section_title
;
Structure prediction by ZEFSAII (Michael W. Deem and Ramdas Pophale) SiO2 
 PCOD8135290
Probable space group: C 2/C
;
_chemical_formula_sum "Si O2"
_cell_formula_units_Z 40
_cell_length_a 19.863734
_cell_length_b 9.188051
_cell_length_c 21.551864
_cell_angle_alpha 90.000000
_cell_angle_beta 21.504563
_cell_angle_gamma 90.000000
_cell_volume 1441.890738
_symmetry_space_group_name_H-M "C 2/C"
_symmetry_group_IT_number 15
_symmetry_cell_setting 'monoclinic'
loop_
_space_group_symop_operation_xyz
x,y,z
-x,y,1/2-z
-x,-y,-z
x,-y,1/2+z
1/2+x,1/2+y,z
1/2-x,1/2+y,1/2-z
1/2-x,1/2-y,-z
1/2+x,1/2-y,1/2+z
loop_
_atom_site_type_symbol
_atom_site_label
_atom_site_fract_x
_atom_site_fract_y
_atom_site_fract_z
Si Si1 0.589800 0.748660 0.529226
Si Si2 0.269401 0.134568 0.704395
Si Si3 0.764454 0.946139 0.068732
Si Si4 0.130433 0.558186 0.548570
Si Si5 0.168539 0.842042 0.745063
O O1 0.564467 0.798804 0.478355
O O2 0.389112 0.680149 0.710110
O O3 0.733659 0.619032 0.419988
O O4 0.634068 0.885416 0.534545
O O5 0.739409 0.040099 0.286687
O O6 0.281731 0.188359 0.764406
O O7 0.581890 0.884145 0.261825
O O8 0.742828 0.914189 0.014580
O O9 0.949279 0.864329 0.930986
O O10 0.232058 0.648072 0.407212
#
# Coordination Sequence:
#
# PCOD8135290 Si02
#       5
#     8   8   8   8   8
#     4  10  19  38  56  96 127 158 202 266 320 374
#     4  10  22  38  62  90 136 168 208 258 320 386
#     4  10  20  36  61  94 128 163 209 271 329 371
#     4  10  20  36  61  94 128 163 209 271 329 371
#     4  10  23  42  60  98 133 166 212 264 314 386
#
# _framework density 27.741354999999999
#
# number of rings (size 3 to 8) (size 9 to 14) (size 15 to 20)
#    0.000    2.000    2.000    1.200    0.000    6.400 
#    3.600    0.000    0.000    0.000    0.000   47.600 
#    0.000    0.000    0.000    0.000    0.000    0.000 
#
# Total GULP energy -247927.307176 kJ/mol
# GULP energy per Si atom -12396.365359 kJ/mol
# Density = 2.767821 g / cm^3
# Si number density = 27.741355 Si / 1000 Ang^3
#
#
#
# Elastic Constant Matrix: (Units=GPa)
#
#
# Indices 1 2 3 4 5 6 
#
# 1 162.7174 54.3571 41.9652 -0.0107 5.3603 0.0025
# 2 54.3571 91.3352 48.8854 -0.0015 4.7408 0.0035
# 3 41.9652 48.8854 122.5358 0.0284 9.2047 -0.0022
# 4 -0.0107 -0.0015 0.0284 49.3161 -0.0021 8.2794
# 5 5.3603 4.7408 9.2047 -0.0021 30.8186 0.0020
# 6 0.0025 0.0035 -0.0022 8.2794 0.0020 25.6888
#
#
#
# Elastic Compliance Matrix: (Units=1/GPa)
#
#
# Indices 1 2 3 4 5 6 
#
# 1 0.007779 -0.004067 -0.001009 0.000002 -0.000426 -0.000001
# 2 -0.004067 0.016055 -0.004992 0.000003 -0.000271 -0.000003
# 3 -0.001009 -0.004992 0.010667 -0.000007 -0.002242 0.000004
# 4 0.000002 0.000003 -0.000007 0.021437 0.000003 -0.006909
# 5 -0.000426 -0.000271 -0.002242 0.000003 0.033234 -0.000004
# 6 -0.000001 -0.000003 0.000004 -0.006909 -0.000004 0.041154
#
#
# Mechanical properties :
#
#
# Convention : Reuss Voigt Hill
#
# Bulk Modulus (GPa) = 69.62088 74.11151 71.86620
# Shear Modulus (GPa) = 32.20619 36.59009 34.39814
#
# Velocity S-wave (km/s) = 3.41096 3.63571 3.52513
# Velocity P-wave (km/s) = 6.37682 6.66316 6.52156
#
# Compressibility (1/GPa) = 0.01436351
#
# Stress axis : x y z
#
# Youngs Moduli (GPa) = 128.55802 62.28599 93.75104
#
# Poissons Ratio (x) = 0.25331 0.09464
# Poissons Ratio (y) = 0.52284 0.46800
# Poissons Ratio (z) = 0.12978 0.31093
#
# Static dielectric constant tensor:
#      x y z
#    x 4.575450 -0.000010 0.031870 
#    y -0.000010 5.413180 0.000050 
#    z 0.031870 0.000050 5.230260 
# 
# 
# High freq. dielectric constant tensor:
#      x y z
#    x 2.119490 0.000000 -0.003800 
#    y 0.000000 2.150700 0.000000 
#    z -0.003800 0.000000 2.138190 
# 
# From -- ./inp_files/279946.got.cif
#   From: 2010.06.25/outbox.cif.g09.slc.cpg/sg15_140_cif.got.tgz:279946.got - 2010.06.28 07:06:18.
