data_PCOD8135083
_publ_section_title
;
Structure prediction by ZEFSAII (Michael W. Deem and Ramdas Pophale) SiO2 
 PCOD8135083
Probable space group: C 2/C
;
_chemical_formula_sum "Si O2"
_cell_formula_units_Z 48
_cell_length_a 27.421595
_cell_length_b 10.126899
_cell_length_c 16.987096
_cell_angle_alpha 90.000000
_cell_angle_beta 31.045902
_cell_angle_gamma 90.000000
_cell_volume 2432.798827
_symmetry_space_group_name_H-M "C 2/C"
_symmetry_group_IT_number 15
_symmetry_cell_setting 'monoclinic'
loop_
_space_group_symop_operation_xyz
x,y,z
-x,y,1/2-z
-x,-y,-z
x,-y,1/2+z
1/2+x,1/2+y,z
1/2-x,1/2+y,1/2-z
1/2-x,1/2-y,-z
1/2+x,1/2-y,1/2+z
loop_
_atom_site_type_symbol
_atom_site_label
_atom_site_fract_x
_atom_site_fract_y
_atom_site_fract_z
Si Si1 0.904574 0.264229 0.576758
Si Si2 0.648443 0.485049 0.899607
Si Si3 0.743374 0.364310 0.906850
Si Si4 0.455908 0.216268 0.477448
Si Si5 0.125355 0.633043 0.137542
Si Si6 0.845184 0.497717 0.560720
O O1 0.809427 0.273563 0.760038
O O2 0.903704 0.370005 0.507804
O O3 0.995854 0.294973 0.504088
O O4 0.910351 0.119009 0.530937
O O5 0.694925 0.480078 0.922744
O O6 0.732483 0.472330 0.719139
O O7 0.574604 0.366610 0.992218
O O8 0.805595 0.426574 0.890732
O O9 0.662776 0.271534 0.053046
O O10 0.523112 0.165591 0.313918
O O11 0.366140 0.118789 0.593018
O O12 0.121095 0.525272 0.074625
#
# Coordination Sequence:
#
# PCOD8135083 Si02
#       6
#     8   8   8   8   8   8
#     4  10  21  36  57  91 122 151 198 251 300 346
#     4  11  20  37  58  92 118 156 199 250 298 352
#     4   9  19  35  60  86 116 154 196 241 289 356
#     4  11  22  36  63  87 116 159 207 243 287 364
#     4  10  19  37  61  87 112 156 204 238 284 352
#     4  11  20  37  60  87 119 160 197 244 298 357
#
# _framework density 19.730362
#
# number of rings (size 3 to 8) (size 9 to 14) (size 15 to 20)
#    0.000    1.667    3.333    2.500    0.000    0.000 
#    0.000    0.833    7.333    0.000    0.000    0.000 
#    0.000    0.000    0.000    0.000    0.000    0.000 
#
# Total GULP energy -297608.406253 kJ/mol
# GULP energy per Si atom -12400.350261 kJ/mol
# Density = 1.968545 g / cm^3
# Si number density = 19.730362 Si / 1000 Ang^3
#
#
#
# Elastic Constant Matrix: (Units=GPa)
#
#
# Indices 1 2 3 4 5 6 
#
# 1 124.0127 53.0376 41.6445 0.0001 11.7950 0.0000
# 2 53.0376 106.4593 18.7606 0.0003 13.8885 -0.0001
# 3 41.6445 18.7606 62.9826 0.0001 7.2991 0.0000
# 4 0.0001 0.0003 0.0001 26.2733 0.0000 4.7558
# 5 11.7950 13.8885 7.2991 0.0000 22.4002 0.0000
# 6 0.0000 -0.0001 0.0000 4.7558 0.0000 29.3982
#
#
#
# Elastic Compliance Matrix: (Units=1/GPa)
#
#
# Indices 1 2 3 4 5 6 
#
# 1 0.012522 -0.004882 -0.006664 0.000000 -0.001395 0.000000
# 2 -0.004882 0.012485 0.000113 0.000000 -0.005207 0.000000
# 3 -0.006664 0.000113 0.020630 0.000000 -0.003283 0.000000
# 4 0.000000 0.000000 0.000000 0.039210 0.000000 -0.006343
# 5 -0.001395 -0.005207 -0.003283 0.000000 0.049675 0.000000
# 6 0.000000 0.000000 0.000000 -0.006343 0.000000 0.035042
#
#
# Mechanical properties :
#
#
# Convention : Reuss Voigt Hill
#
# Bulk Modulus (GPa) = 43.91546 57.81557 50.86552
# Shear Modulus (GPa) = 24.99733 27.61514 26.30624
#
# Velocity S-wave (km/s) = 3.56328 3.74522 3.65538
# Velocity P-wave (km/s) = 6.26382 6.93316 6.60697
#
# Compressibility (1/GPa) = 0.02277102
#
# Stress axis : x y z
#
# Youngs Moduli (GPa) = 79.85859 80.09641 48.47193
#
# Poissons Ratio (x) = 0.39104 0.32301
# Poissons Ratio (y) = 0.38988 -0.00546
# Poissons Ratio (z) = 0.53216 -0.00902
#
# Static dielectric constant tensor:
#      x y z
#    x 3.970520 0.000000 -0.043550 
#    y 0.000000 3.408600 0.000000 
#    z -0.043550 0.000000 3.445800 
# 
# 
# High freq. dielectric constant tensor:
#      x y z
#    x 1.788600 0.000000 -0.012230 
#    y 0.000000 1.748250 0.000000 
#    z -0.012230 0.000000 1.751950 
# 
# From -- ./inp_files/177007.got.cif
#   From: 2010.06.25/outbox.cif.g09.slc.cpg/sg15_89_cif.got.tgz:177007.got - 2010.06.28 07:06:18.
