data_PCOD8135933
_publ_section_title
;
Structure prediction by ZEFSAII (Michael W. Deem and Ramdas Pophale) SiO2 
 PCOD8135933
Probable space group: C 2/C
;
_chemical_formula_sum "Si O2"
_cell_formula_units_Z 48
_cell_length_a 7.777950
_cell_length_b 16.733382
_cell_length_c 15.383282
_cell_angle_alpha 90.000000
_cell_angle_beta 92.623174
_cell_angle_gamma 90.000000
_cell_volume 2000.057842
_symmetry_space_group_name_H-M "C 2/C"
_symmetry_group_IT_number 15
_symmetry_cell_setting 'monoclinic'
loop_
_space_group_symop_operation_xyz
x,y,z
-x,y,1/2-z
-x,-y,-z
x,-y,1/2+z
1/2+x,1/2+y,z
1/2-x,1/2+y,1/2-z
1/2-x,1/2-y,-z
1/2+x,1/2-y,1/2+z
loop_
_atom_site_type_symbol
_atom_site_label
_atom_site_fract_x
_atom_site_fract_y
_atom_site_fract_z
Si Si1 0.452707 0.168030 0.497945
Si Si2 0.938012 0.181077 0.579589
Si Si3 0.000000 0.563231 0.750000
Si Si4 0.281939 0.198481 0.673881
Si Si5 0.000000 0.170661 0.250000
Si Si6 0.678999 0.051348 0.588993
Si Si7 0.382007 0.602650 0.074415
O O1 0.591968 0.229530 0.460029
O O2 0.381877 0.209441 0.584169
O O3 0.537651 0.079826 0.513841
O O4 0.291678 0.157183 0.428160
O O5 0.077734 0.191382 0.658940
O O6 0.004444 0.121706 0.506103
O O7 0.768670 0.138175 0.614400
O O8 0.840645 0.614661 0.713347
O O9 0.919851 0.513602 0.828993
O O10 0.332523 0.271245 0.740338
O O11 0.004256 0.114272 0.335530
O O12 0.820566 0.989009 0.560482
#
# Coordination Sequence:
#
# PCOD8135933 Si02
#       7
#     8   8   4   8   4   8   8
#     4  10  19  41  64  93 125 170 215 249 313 384
#     4  11  20  39  67  98 118 167 223 260 307 379
#     4   9  22  40  60  84 129 180 204 250 331 376
#     4   9  18  36  66  86 121 167 210 256 305 379
#     4  11  18  36  62  92 131 170 200 254 329 374
#     4  11  24  39  65  93 134 164 213 268 315 381
#     4  11  22  38  65  96 129 170 205 266 326 376
#
# _framework density 23.999305
#
# number of rings (size 3 to 8) (size 9 to 14) (size 15 to 20)
#    0.000    1.667    3.333    2.500    0.000    2.000 
#    0.000    3.333    0.000    0.000    0.000    0.000 
#    0.000    0.000    0.000    0.000    0.000    0.000 
#
# Total GULP energy -297413.826685 kJ/mol
# GULP energy per Si atom -12392.242779 kJ/mol
# Density = 2.394468 g / cm^3
# Si number density = 23.999305 Si / 1000 Ang^3
#
#
#
# Elastic Constant Matrix: (Units=GPa)
#
#
# Indices 1 2 3 4 5 6 
#
# 1 39.5104 0.1285 33.2386 0.0000 5.3142 0.0000
# 2 0.1285 86.7990 22.0457 0.0000 -3.6465 0.0000
# 3 33.2386 22.0457 107.0986 0.0000 22.8847 0.0000
# 4 0.0000 0.0000 0.0000 18.5217 0.0000 -2.8917
# 5 5.3142 -3.6465 22.8847 0.0000 37.7857 0.0000
# 6 0.0000 0.0000 0.0000 -2.8917 0.0000 34.5800
#
#
#
# Elastic Compliance Matrix: (Units=1/GPa)
#
#
# Indices 1 2 3 4 5 6 
#
# 1 0.035142 0.003143 -0.012132 0.000000 0.002709 0.000000
# 2 0.003143 0.012760 -0.004331 0.000000 0.003412 0.000000
# 3 -0.012132 -0.004331 0.015758 0.000000 -0.008255 0.000000
# 4 0.000000 0.000000 0.000000 0.054705 0.000000 0.004575
# 5 0.002709 0.003412 -0.008255 0.000000 0.031413 0.000000
# 6 0.000000 0.000000 0.000000 0.004575 0.000000 0.029301
#
#
# Mechanical properties :
#
#
# Convention : Reuss Voigt Hill
#
# Bulk Modulus (GPa) = 27.01324 38.24820 32.63072
# Shear Modulus (GPa) = 22.92961 30.04381 26.48671
#
# Velocity S-wave (km/s) = 3.09435 3.54200 3.32572
# Velocity P-wave (km/s) = 4.90377 5.71835 5.32666
#
# Compressibility (1/GPa) = 0.03701888
#
# Stress axis : x y z
#
# Youngs Moduli (GPa) = 28.45629 78.37216 63.45965
#
# Poissons Ratio (x) = -0.24634 0.76990
# Poissons Ratio (y) = -0.08944 0.27486
# Poissons Ratio (z) = 0.34524 0.33944
#
# Static dielectric constant tensor:
#      x y z
#    x 4.132850 0.000000 0.342430 
#    y 0.000000 4.080940 0.000000 
#    z 0.342430 0.000000 4.336450 
# 
# 
# High freq. dielectric constant tensor:
#      x y z
#    x 1.936700 0.000000 0.026110 
#    y 0.000000 1.943650 0.000000 
#    z 0.026110 0.000000 1.945490 
# 
# From -- ./inp_files/189990.got.cif
#   From: 2010.06.25/outbox.cif.g09.slc.cpg/sg15_95_cif.got.tgz:189990.got - 2010.06.28 07:06:18.
