data_PCOD8135216
_publ_section_title
;
Structure prediction by ZEFSAII (Michael W. Deem and Ramdas Pophale) SiO2 
 PCOD8135216
Probable space group: C 2/C
;
_chemical_formula_sum "Si O2"
_cell_formula_units_Z 44
_cell_length_a 9.247267
_cell_length_b 10.937845
_cell_length_c 21.145503
_cell_angle_alpha 90.000000
_cell_angle_beta 81.552281
_cell_angle_gamma 90.000000
_cell_volume 2115.560648
_symmetry_space_group_name_H-M "C 2/C"
_symmetry_group_IT_number 15
_symmetry_cell_setting 'monoclinic'
loop_
_space_group_symop_operation_xyz
x,y,z
-x,y,1/2-z
-x,-y,-z
x,-y,1/2+z
1/2+x,1/2+y,z
1/2-x,1/2+y,1/2-z
1/2-x,1/2-y,-z
1/2+x,1/2-y,1/2+z
loop_
_atom_site_type_symbol
_atom_site_label
_atom_site_fract_x
_atom_site_fract_y
_atom_site_fract_z
Si Si1 0.000000 0.801518 0.250000
Si Si2 0.186111 0.432196 0.529172
Si Si3 0.910756 0.746386 0.564482
Si Si4 0.798508 0.110537 0.429738
Si Si5 0.950586 0.382041 0.641917
Si Si6 0.253718 0.584401 0.835271
O O1 0.989776 0.723655 0.187403
O O2 0.858243 0.885914 0.269447
O O3 0.082729 0.374628 0.480348
O O4 0.330452 0.352054 0.530920
O O5 0.243965 0.564920 0.502535
O O6 0.094030 0.438675 0.599480
O O7 0.819363 0.708697 0.632937
O O8 0.071339 0.792722 0.573025
O O9 0.661235 0.175177 0.403046
O O10 0.842138 0.988697 0.385578
O O11 0.873376 0.495092 0.683396
#
# Coordination Sequence:
#
# PCOD8135216 Si02
#       6
#     4   8   8   8   8   8
#     4  12  22  48  62  78 126 174 200 254 312 342
#     4  10  19  38  63  92 131 155 193 253 311 368
#     4  10  19  37  65  92 126 160 189 246 318 359
#     4   9  21  39  59 100 122 148 206 254 299 369
#     4  10  23  43  61  90 122 161 207 254 298 363
#     4   9  23  41  60  87 122 154 210 253 287 369
#
# _framework density 20.798269000000001
#
# number of rings (size 3 to 8) (size 9 to 14) (size 15 to 20)
#    1.091    1.091    1.818    1.091    0.000    2.182 
#    3.273    0.000    0.000    0.000    0.000    0.000 
#    0.000    0.000    0.000    0.000    0.000    0.000 
#
# Total GULP energy -272643.833893 kJ/mol
# GULP energy per Si atom -12392.901541 kJ/mol
# Density = 2.075093 g / cm^3
# Si number density = 20.798269 Si / 1000 Ang^3
#
#
#
# Elastic Constant Matrix: (Units=GPa)
#
#
# Indices 1 2 3 4 5 6 
#
# 1 73.0132 20.8291 21.9649 0.0000 -14.2401 0.0000
# 2 20.8291 47.9471 20.2722 0.0000 -14.2688 0.0000
# 3 21.9649 20.2722 92.0190 0.0000 -37.1222 0.0000
# 4 0.0000 0.0000 0.0000 19.9153 0.0000 -6.7599
# 5 -14.2401 -14.2688 -37.1222 0.0000 34.7714 0.0000
# 6 0.0000 0.0000 0.0000 -6.7599 0.0000 35.0615
#
#
#
# Elastic Compliance Matrix: (Units=1/GPa)
#
#
# Indices 1 2 3 4 5 6 
#
# 1 0.016295 -0.005614 -0.001563 0.000000 0.002700 0.000000
# 2 -0.005614 0.025969 -0.001773 0.000000 0.006464 0.000000
# 3 -0.001563 -0.001773 0.019461 0.000000 0.019409 0.000000
# 4 0.000000 0.000000 0.000000 0.053729 0.000000 0.010359
# 5 0.002700 0.006464 0.019409 0.000000 0.053239 0.000000
# 6 0.000000 0.000000 0.000000 0.010359 0.000000 0.030518
#
#
# Mechanical properties :
#
#
# Convention : Reuss Voigt Hill
#
# Bulk Modulus (GPa) = 22.81885 37.67907 30.24896
# Shear Modulus (GPa) = 21.57782 27.94386 24.76084
#
# Velocity S-wave (km/s) = 3.22449 3.66945 3.45414
# Velocity P-wave (km/s) = 4.98582 6.00907 5.52120
#
# Compressibility (1/GPa) = 0.04382343
#
# Stress axis : x y z
#
# Youngs Moduli (GPa) = 61.36959 38.50804 51.38474
#
# Poissons Ratio (x) = 0.21619 0.08033
# Poissons Ratio (y) = 0.34454 0.09111
# Poissons Ratio (z) = 0.09594 0.06828
#
# Static dielectric constant tensor:
#      x y z
#    x 3.579750 0.000000 -0.156900 
#    y 0.000000 3.529650 0.000000 
#    z -0.156900 0.000000 3.532640 
# 
# 
# High freq. dielectric constant tensor:
#      x y z
#    x 1.804400 0.000000 -0.020710 
#    y 0.000000 1.803550 0.000000 
#    z -0.020710 0.000000 1.795480 
# 
# From -- ./inp_files/287312.got.cif
#   From: 2010.06.25/outbox.cif.g09.slc.cpg/sg15_144_cif.got.tgz:287312.got - 2010.06.28 07:06:18.
