data_PCOD8135497
_publ_section_title
;
Structure prediction by ZEFSAII (Michael W. Deem and Ramdas Pophale) SiO2 
 PCOD8135497
Probable space group: C 2/C
;
_chemical_formula_sum "Si O2"
_cell_formula_units_Z 48
_cell_length_a 16.336944
_cell_length_b 8.382117
_cell_length_c 20.248854
_cell_angle_alpha 90.000000
_cell_angle_beta 65.545598
_cell_angle_gamma 90.000000
_cell_volume 2524.092356
_symmetry_space_group_name_H-M "C 2/C"
_symmetry_group_IT_number 15
_symmetry_cell_setting 'monoclinic'
loop_
_space_group_symop_operation_xyz
x,y,z
-x,y,1/2-z
-x,-y,-z
x,-y,1/2+z
1/2+x,1/2+y,z
1/2-x,1/2+y,1/2-z
1/2-x,1/2-y,-z
1/2+x,1/2-y,1/2+z
loop_
_atom_site_type_symbol
_atom_site_label
_atom_site_fract_x
_atom_site_fract_y
_atom_site_fract_z
Si Si1 0.317276 0.649431 0.696191
Si Si2 0.563080 0.062728 0.921975
Si Si3 0.043485 0.068332 0.419695
Si Si4 0.062026 0.961833 0.165013
Si Si5 0.519921 0.858287 0.815233
Si Si6 0.254586 0.552408 0.335711
O O1 0.369914 0.537754 0.627099
O O2 0.385470 0.762422 0.714524
O O3 0.260724 0.543371 0.765264
O O4 0.246469 0.758517 0.679877
O O5 0.573292 0.251385 0.920695
O O6 0.661472 0.991054 0.902264
O O7 0.519979 0.000773 0.867674
O O8 0.500000 0.000000 0.000000
O O9 0.000000 0.000000 0.500000
O O10 0.972567 0.068889 0.383623
O O11 0.163902 0.013417 0.143140
O O12 0.000000 0.991929 0.250000
O O13 0.057168 0.775225 0.145146
O O14 0.500000 0.934256 0.750000
#
# Coordination Sequence:
#
# PCOD8135497 Si02
#       6
#     8   8   8   8   8   8
#     4  10  20  36  60  93 119 163 199 252 302 362
#     4  11  24  40  60  88 121 163 207 251 313 372
#     4  11  22  42  62  85 126 165 202 256 314 364
#     4  10  19  38  64  91 124 157 202 250 308 363
#     4   9  17  37  61  86 123 153 195 250 309 357
#     4  11  20  37  64  89 126 157 209 247 306 367
#
# _framework density 19.016738
#
# number of rings (size 3 to 8) (size 9 to 14) (size 15 to 20)
#    0.000    1.667    5.000    4.000    0.000    0.667 
#    3.000    6.667    0.000    0.000    0.000    0.000 
#    0.000    0.000    0.000    0.000    0.000    0.000 
#
# Total GULP energy -297591.705740 kJ/mol
# GULP energy per Si atom -12399.654406 kJ/mol
# Density = 1.897345 g / cm^3
# Si number density = 19.016738 Si / 1000 Ang^3
#
#
#
# Elastic Constant Matrix: (Units=GPa)
#
#
# Indices 1 2 3 4 5 6 
#
# 1 105.5502 33.4453 31.2896 0.0000 -3.7818 0.0001
# 2 33.4453 106.4690 29.0323 0.0000 -3.3729 0.0001
# 3 31.2896 29.0323 105.5087 0.0000 -9.6584 0.0000
# 4 0.0000 0.0000 0.0000 35.2485 0.0000 1.8890
# 5 -3.7818 -3.3729 -9.6584 0.0000 30.9004 0.0000
# 6 0.0001 0.0001 0.0000 1.8890 0.0000 33.6573
#
#
#
# Elastic Compliance Matrix: (Units=1/GPa)
#
#
# Indices 1 2 3 4 5 6 
#
# 1 0.011112 -0.002800 -0.002500 0.000000 0.000273 0.000000
# 2 -0.002800 0.010862 -0.002142 0.000000 0.000173 0.000000
# 3 -0.002500 -0.002142 0.011076 0.000000 0.002922 0.000000
# 4 0.000000 0.000000 0.000000 0.028456 0.000000 -0.001597
# 5 0.000273 0.000173 0.002922 0.000000 0.033328 0.000000
# 6 0.000000 0.000000 0.000000 -0.001597 0.000000 0.029801
#
#
# Mechanical properties :
#
#
# Convention : Reuss Voigt Hill
#
# Bulk Modulus (GPa) = 55.05117 56.11805 55.58461
# Shear Modulus (GPa) = 34.34649 34.87861 34.61255
#
# Velocity S-wave (km/s) = 4.25446 4.28729 4.27090
# Velocity P-wave (km/s) = 7.29010 7.35402 7.32213
#
# Compressibility (1/GPa) = 0.01816492
#
# Stress axis : x y z
#
# Youngs Moduli (GPa) = 89.98964 92.06572 90.28286
#
# Poissons Ratio (x) = 0.25782 0.22570
# Poissons Ratio (y) = 0.25201 0.19343
# Poissons Ratio (z) = 0.22497 0.19725
#
# Static dielectric constant tensor:
#      x y z
#    x 3.524800 0.000000 0.109640 
#    y 0.000000 3.628240 0.000000 
#    z 0.109640 0.000000 3.435180 
# 
# 
# High freq. dielectric constant tensor:
#      x y z
#    x 1.732300 0.000000 0.001830 
#    y 0.000000 1.745690 0.000000 
#    z 0.001830 0.000000 1.729740 
# 
# From -- ./inp_files/242341.got.cif
#   From: 2010.06.25/outbox.cif.g09.slc.cpg/sg15_122_cif.got.tgz:242341.got - 2010.06.28 07:06:18.
