data_PCOD8135574
_publ_section_title
;
Structure prediction by ZEFSAII (Michael W. Deem and Ramdas Pophale) SiO2 
 PCOD8135574
Probable space group: C 2/C
;
_chemical_formula_sum "Si O2"
_cell_formula_units_Z 44
_cell_length_a 15.314509
_cell_length_b 9.799002
_cell_length_c 20.201403
_cell_angle_alpha 90.000000
_cell_angle_beta 43.272709
_cell_angle_gamma 90.000000
_cell_volume 2078.049735
_symmetry_space_group_name_H-M "C 2/C"
_symmetry_group_IT_number 15
_symmetry_cell_setting 'monoclinic'
loop_
_space_group_symop_operation_xyz
x,y,z
-x,y,1/2-z
-x,-y,-z
x,-y,1/2+z
1/2+x,1/2+y,z
1/2-x,1/2+y,1/2-z
1/2-x,1/2-y,-z
1/2+x,1/2-y,1/2+z
loop_
_atom_site_type_symbol
_atom_site_label
_atom_site_fract_x
_atom_site_fract_y
_atom_site_fract_z
Si Si1 0.000000 0.790721 0.750000
Si Si2 0.178558 0.738782 0.888322
Si Si3 0.941117 0.640491 0.212920
Si Si4 0.228099 0.034723 0.092261
Si Si5 0.872143 0.839477 0.449310
Si Si6 0.983502 0.371020 0.393272
O O1 0.127236 0.880476 0.691576
O O2 0.971843 0.698520 0.828882
O O3 0.291617 0.833368 0.799199
O O4 0.229537 0.596352 0.889105
O O5 0.081698 0.713694 0.882781
O O6 0.107147 0.831230 0.983251
O O7 0.968097 0.526134 0.142702
O O8 0.000000 0.591469 0.250000
O O9 0.005195 0.782090 0.156053
O O10 0.156314 0.990429 0.063314
O O11 0.348870 0.126880 0.005826
O O12 0.750000 0.750000 0.500000
#
# Coordination Sequence:
#
# PCOD8135574 Si02
#       6
#     4   8   8   8   8   8
#     4  12  28  42  64  94 136 172 208 256 334 386
#     4  11  24  39  68  97 121 167 219 267 305 374
#     4  12  20  41  67  94 126 167 221 258 317 382
#     4  11  22  46  65  93 129 172 212 263 317 382
#     4  10  19  38  69  94 113 163 220 262 309 367
#     4  12  26  41  64  94 136 171 205 265 329 378
#
# _framework density 21.173697000000001
#
# number of rings (size 3 to 8) (size 9 to 14) (size 15 to 20)
#    0.000    0.727    8.182    2.182    2.545    0.000 
#    0.000    0.909    0.000    0.000    0.000    0.000 
#    0.000    0.000    0.000    0.000    0.000    0.000 
#
# Total GULP energy -272836.720167 kJ/mol
# GULP energy per Si atom -12401.669098 kJ/mol
# Density = 2.112551 g / cm^3
# Si number density = 21.173697 Si / 1000 Ang^3
#
#
#
# Elastic Constant Matrix: (Units=GPa)
#
#
# Indices 1 2 3 4 5 6 
#
# 1 84.8019 9.0010 11.1513 0.0000 -1.5203 0.0000
# 2 9.0010 44.0610 15.7238 0.0000 -11.3371 0.0000
# 3 11.1513 15.7238 107.6899 0.0000 -9.8827 0.0000
# 4 0.0000 0.0000 0.0000 34.3311 0.0000 6.4995
# 5 -1.5203 -11.3371 -9.8827 0.0000 20.4779 0.0000
# 6 0.0000 0.0000 0.0000 6.4995 0.0000 11.5951
#
#
#
# Elastic Compliance Matrix: (Units=1/GPa)
#
#
# Indices 1 2 3 4 5 6 
#
# 1 0.012157 -0.002355 -0.000996 0.000000 -0.000882 0.000000
# 2 -0.002355 0.027657 -0.002517 0.000000 0.013922 0.000000
# 3 -0.000996 -0.002517 0.010068 0.000000 0.003391 0.000000
# 4 0.000000 0.000000 0.000000 0.032586 0.000000 -0.018266
# 5 -0.000882 0.013922 0.003391 0.000000 0.058112 0.000000
# 6 0.000000 0.000000 0.000000 -0.018266 0.000000 0.096482
#
#
# Mechanical properties :
#
#
# Convention : Reuss Voigt Hill
#
# Bulk Modulus (GPa) = 26.21444 34.25610 30.23527
# Shear Modulus (GPa) = 19.11948 26.65929 22.88939
#
# Velocity S-wave (km/s) = 3.00823 3.55220 3.29147
# Velocity P-wave (km/s) = 4.94706 5.74786 5.36243
#
# Compressibility (1/GPa) = 0.03814691
#
# Stress axis : x y z
#
# Youngs Moduli (GPa) = 82.25502 36.15687 99.32705
#
# Poissons Ratio (x) = 0.08515 0.09893
# Poissons Ratio (y) = 0.19371 0.24998
# Poissons Ratio (z) = 0.08192 0.09100
#
# Static dielectric constant tensor:
#      x y z
#    x 3.800530 0.000000 0.217150 
#    y 0.000000 3.831360 0.000000 
#    z 0.217150 0.000000 4.202340 
# 
# 
# High freq. dielectric constant tensor:
#      x y z
#    x 1.811190 0.000000 0.003100 
#    y 0.000000 1.815860 0.000000 
#    z 0.003100 0.000000 1.849540 
# 
# From -- ./inp_files/142318.got.cif
#   From: 2010.06.25/outbox.cif.g09.slc.cpg/sg15_72_cif.got.tgz:142318.got - 2010.06.28 07:06:18.
