data_PCOD8135366
_publ_section_title
;
Structure prediction by ZEFSAII (Michael W. Deem and Ramdas Pophale) SiO2 
 PCOD8135366
Probable space group: C 2/C
;
_chemical_formula_sum "Si O2"
_cell_formula_units_Z 64
_cell_length_a 24.712618
_cell_length_b 14.043518
_cell_length_c 13.154867
_cell_angle_alpha 90.000000
_cell_angle_beta 135.434936
_cell_angle_gamma 90.000000
_cell_volume 3203.643808
_symmetry_space_group_name_H-M "C 2/C"
_symmetry_group_IT_number 15
_symmetry_cell_setting 'monoclinic'
loop_
_space_group_symop_operation_xyz
x,y,z
-x,y,1/2-z
-x,-y,-z
x,-y,1/2+z
1/2+x,1/2+y,z
1/2-x,1/2+y,1/2-z
1/2-x,1/2-y,-z
1/2+x,1/2-y,1/2+z
loop_
_atom_site_type_symbol
_atom_site_label
_atom_site_fract_x
_atom_site_fract_y
_atom_site_fract_z
Si Si1 0.418673 0.956459 0.004583
Si Si2 0.061977 0.839672 0.567509
Si Si3 0.664034 0.527571 0.334329
Si Si4 0.891448 0.834967 0.288344
Si Si5 0.065858 0.625318 0.616295
Si Si6 0.865590 0.109808 0.541792
Si Si7 0.808684 0.360430 0.708714
Si Si8 0.165401 0.475978 0.404244
O O1 0.341308 0.920620 0.846295
O O2 0.446285 0.058004 0.997708
O O3 0.487723 0.880295 0.079646
O O4 0.400232 0.971596 0.097895
O O5 0.084830 0.729494 0.600057
O O6 0.082704 0.890012 0.488927
O O7 0.970239 0.846239 0.456691
O O8 0.105092 0.891748 0.718046
O O9 0.656849 0.431902 0.255007
O O10 0.643600 0.498048 0.424400
O O11 0.752322 0.562558 0.445110
O O12 0.845190 0.743642 0.262854
O O13 0.904539 0.825821 0.183111
O O14 0.139578 0.593677 0.779742
O O15 0.782389 0.151926 0.400290
O O16 0.827522 0.415664 0.628306
#
# Coordination Sequence:
#
# PCOD8135366 Si02
#       8
#     8   8   8   8   8   8   8   8
#     4  10  20  38  57  88 122 157 194 249 306 360
#     4  12  21  41  61  86 124 160 200 251 298 359
#     4   9  23  38  60  87 117 160 197 253 289 358
#     4  10  21  38  60  85 121 151 203 250 292 347
#     4  10  23  36  58  91 119 157 202 246 301 367
#     4   9  22  36  61  90 117 155 205 242 302 351
#     4  10  19  38  60  90 124 151 203 255 291 363
#     4  10  21  39  61  85 123 157 198 248 309 354
#
# _framework density 19.977250999999999
#
# number of rings (size 3 to 8) (size 9 to 14) (size 15 to 20)
#    0.750    1.250    1.250    2.250    1.750    0.500 
#    0.000    1.250    2.750    0.000    0.000    0.000 
#    0.000    0.000    0.000    0.000    0.000    0.000 
#
# Total GULP energy -396648.436884 kJ/mol
# GULP energy per Si atom -12395.263653 kJ/mol
# Density = 1.993178 g / cm^3
# Si number density = 19.977251 Si / 1000 Ang^3
#
#
#
# Elastic Constant Matrix: (Units=GPa)
#
#
# Indices 1 2 3 4 5 6 
#
# 1 33.3587 12.2264 7.5297 0.0000 -3.9211 0.0000
# 2 12.2264 77.5996 24.6053 0.0000 1.3594 0.0000
# 3 7.5297 24.6053 102.7873 0.0000 24.3526 0.0000
# 4 0.0000 0.0000 0.0000 32.2954 0.0000 3.4786
# 5 -3.9211 1.3594 24.3526 0.0000 27.6055 0.0000
# 6 0.0000 0.0000 0.0000 3.4786 0.0000 18.9077
#
#
#
# Elastic Compliance Matrix: (Units=1/GPa)
#
#
# Indices 1 2 3 4 5 6 
#
# 1 0.033216 -0.004343 -0.003239 0.000000 0.007789 0.000000
# 2 -0.004343 0.014693 -0.003643 0.000000 0.001873 0.000000
# 3 -0.003239 -0.003643 0.013786 0.000000 -0.012442 0.000000
# 4 0.000000 0.000000 0.000000 0.031590 0.000000 -0.005812
# 5 0.007789 0.001873 -0.012442 0.000000 0.048215 0.000000
# 6 0.000000 0.000000 0.000000 -0.005812 0.000000 0.053958
#
#
# Mechanical properties :
#
#
# Convention : Reuss Voigt Hill
#
# Bulk Modulus (GPa) = 25.48083 33.60759 29.54421
# Shear Modulus (GPa) = 21.64607 27.05401 24.35004
#
# Velocity S-wave (km/s) = 3.29528 3.68399 3.49505
# Velocity P-wave (km/s) = 5.22122 5.91229 5.57747
#
# Compressibility (1/GPa) = 0.03924519
#
# Stress axis : x y z
#
# Youngs Moduli (GPa) = 30.10638 68.05874 72.53737
#
# Poissons Ratio (x) = 0.29556 0.23495
# Poissons Ratio (y) = 0.13074 0.26425
# Poissons Ratio (z) = 0.09752 0.24794
#
# Static dielectric constant tensor:
#      x y z
#    x 3.315510 0.000000 0.098570 
#    y 0.000000 3.419650 0.000000 
#    z 0.098570 0.000000 3.789290 
# 
# 
# High freq. dielectric constant tensor:
#      x y z
#    x 1.751090 0.000000 0.010960 
#    y 0.000000 1.760210 0.000000 
#    z 0.010960 0.000000 1.798540 
# 
# From -- ./inp_files/177843.got.cif
#   From: 2010.06.25/outbox.cif.g09.slc.cpg/sg15_89_cif.got.tgz:177843.got - 2010.06.28 07:06:18.
