data_PCOD8135651
_publ_section_title
;
Structure prediction by ZEFSAII (Michael W. Deem and Ramdas Pophale) SiO2 
 PCOD8135651
Probable space group: C 2/C
;
_chemical_formula_sum "Si O2"
_cell_formula_units_Z 64
_cell_length_a 26.322247
_cell_length_b 19.482984
_cell_length_c 20.047002
_cell_angle_alpha 90.000000
_cell_angle_beta 18.515593
_cell_angle_gamma 90.000000
_cell_volume 3264.806111
_symmetry_space_group_name_H-M "C 2/C"
_symmetry_group_IT_number 15
_symmetry_cell_setting 'monoclinic'
loop_
_space_group_symop_operation_xyz
x,y,z
-x,y,1/2-z
-x,-y,-z
x,-y,1/2+z
1/2+x,1/2+y,z
1/2-x,1/2+y,1/2-z
1/2-x,1/2-y,-z
1/2+x,1/2-y,1/2+z
loop_
_atom_site_type_symbol
_atom_site_label
_atom_site_fract_x
_atom_site_fract_y
_atom_site_fract_z
Si Si1 0.457378 0.058581 0.227291
Si Si2 0.325257 0.775794 0.337242
Si Si3 0.099063 0.592259 0.688956
Si Si4 0.121814 0.184230 0.967397
Si Si5 0.957379 0.058589 0.227287
Si Si6 0.621835 0.184217 0.967381
Si Si7 0.099043 0.907752 0.188983
Si Si8 0.674686 0.275804 0.162817
O O1 0.500000 0.075304 0.250000
O O2 0.275000 0.078648 0.440720
O O3 0.480385 0.977675 0.183106
O O4 0.575024 0.104352 0.035786
O O5 0.250000 0.750000 0.500000
O O6 0.400080 0.851675 0.253684
O O7 0.189174 0.780205 0.450448
O O8 0.464360 0.725003 0.140338
O O9 0.275001 0.578648 0.440703
O O10 0.000000 0.621433 0.750000
O O11 0.250006 0.188220 0.749994
O O12 0.075014 0.104366 0.035798
O O13 0.000000 0.075305 0.250000
O O14 0.980392 0.977685 0.183089
O O15 0.689237 0.219768 0.950378
O O16 0.464369 0.224990 0.140343
O O17 0.099821 0.851675 0.246430
O O18 0.000000 0.878585 0.250000
O O19 0.750000 0.250000 0.000000
#
# Coordination Sequence:
#
# PCOD8135651 Si02
#       8
#     8   8   8   8   8   8   8   8
#     4  10  19  39  62  87 118 158 203 253 296 359
#     4  12  22  41  65  91 115 164 210 250 294 366
#     4  10  20  34  65  93 113 148 215 255 284 344
#     4  12  25  41  59  90 129 160 194 256 320 360
#     4  10  19  39  62  87 118 158 203 253 296 359
#     4  12  25  41  59  90 129 160 194 256 320 360
#     4  10  20  34  65  93 113 148 215 255 284 344
#     4  12  22  41  65  91 115 164 210 250 294 366
#
# _framework density 19.603002
#
# number of rings (size 3 to 8) (size 9 to 14) (size 15 to 20)
#    0.000    1.000    5.000    3.000    0.000    0.000 
#    0.000    2.500    0.000    0.000    0.000    0.000 
#    0.000    0.000    0.000    0.000    0.000    0.000 
#
# Total GULP energy -396873.666576 kJ/mol
# GULP energy per Si atom -12402.302080 kJ/mol
# Density = 1.955839 g / cm^3
# Si number density = 19.603002 Si / 1000 Ang^3
#
#
#
# Elastic Constant Matrix: (Units=GPa)
#
#
# Indices 1 2 3 4 5 6 
#
# 1 68.5661 13.8191 19.5327 0.0180 -13.2449 -0.0238
# 2 13.8191 113.9968 34.9235 0.0326 10.0826 -0.0435
# 3 19.5327 34.9235 96.8852 -0.0033 8.7924 -0.0323
# 4 0.0180 0.0326 -0.0033 36.2007 -0.0109 -6.8371
# 5 -13.2449 10.0826 8.7924 -0.0109 38.3456 0.0227
# 6 -0.0238 -0.0435 -0.0323 -6.8371 0.0227 20.5123
#
#
#
# Elastic Compliance Matrix: (Units=1/GPa)
#
#
# Indices 1 2 3 4 5 6 
#
# 1 0.017327 -0.001651 -0.003555 -0.000005 0.007234 0.000001
# 2 -0.001651 0.010144 -0.003094 -0.000006 -0.002528 0.000015
# 3 -0.003555 -0.003094 0.012450 0.000008 -0.003269 0.000015
# 4 -0.000005 -0.000006 0.000008 0.029480 0.000001 0.009826
# 5 0.007234 -0.002528 -0.003269 0.000001 0.029992 -0.000035
# 6 0.000001 0.000015 0.000015 0.009826 -0.000035 0.052026
#
#
# Mechanical properties :
#
#
# Convention : Reuss Voigt Hill
#
# Bulk Modulus (GPa) = 42.87945 46.22209 44.55077
# Shear Modulus (GPa) = 28.44257 33.08991 30.76624
#
# Velocity S-wave (km/s) = 3.81324 4.11299 3.96595
# Velocity P-wave (km/s) = 6.42722 6.79602 6.61419
#
# Compressibility (1/GPa) = 0.02332120
#
# Stress axis : x y z
#
# Youngs Moduli (GPa) = 57.71228 98.58156 80.32060
#
# Poissons Ratio (x) = 0.16279 0.28550
# Poissons Ratio (y) = 0.09530 0.24852
# Poissons Ratio (z) = 0.20514 0.30502
#
# Static dielectric constant tensor:
#      x y z
#    x 3.531750 -0.000030 -0.394260 
#    y -0.000030 4.025600 0.000030 
#    z -0.394260 0.000030 3.531300 
# 
# 
# High freq. dielectric constant tensor:
#      x y z
#    x 1.753110 0.000000 -0.039420 
#    y 0.000000 1.783610 0.000000 
#    z -0.039420 0.000000 1.744400 
# 
# From -- ./inp_files/50264.got.cif
#   From: 2010.06.25/outbox.cif.g09.slc.cpg/sg15_26_cif.got.tgz:50264.got - 2010.06.28 07:06:18.
