data_PCOD8135905
_publ_section_title
;
Structure prediction by ZEFSAII (Michael W. Deem and Ramdas Pophale) SiO2 
 PCOD8135905
Probable space group: C 2/C
;
_chemical_formula_sum "Si O2"
_cell_formula_units_Z 60
_cell_length_a 28.162778
_cell_length_b 13.497217
_cell_length_c 8.026630
_cell_angle_alpha 90.000000
_cell_angle_beta 79.333898
_cell_angle_gamma 90.000000
_cell_volume 2998.360533
_symmetry_space_group_name_H-M "C 2/C"
_symmetry_group_IT_number 15
_symmetry_cell_setting 'monoclinic'
loop_
_space_group_symop_operation_xyz
x,y,z
-x,y,1/2-z
-x,-y,-z
x,-y,1/2+z
1/2+x,1/2+y,z
1/2-x,1/2+y,1/2-z
1/2-x,1/2-y,-z
1/2+x,1/2-y,1/2+z
loop_
_atom_site_type_symbol
_atom_site_label
_atom_site_fract_x
_atom_site_fract_y
_atom_site_fract_z
Si Si1 0.500000 0.763868 0.750000
Si Si2 0.548544 0.903994 0.315895
Si Si3 0.672297 0.215750 0.025033
Si Si4 0.080076 0.406970 0.655691
Si Si5 0.690864 0.458450 0.514749
Si Si6 0.866513 0.104340 0.148498
Si Si7 0.233899 0.139407 0.682640
Si Si8 0.035602 0.186048 0.372513
O O1 0.546418 0.829636 0.780706
O O2 0.512626 0.699312 0.574132
O O3 0.500000 0.931758 0.250000
O O4 0.547096 0.920540 0.513416
O O5 0.560392 0.787691 0.285373
O O6 0.588079 0.983384 0.226842
O O7 0.641396 0.299544 0.956799
O O8 0.709980 0.165886 0.873512
O O9 0.634365 0.133185 0.106558
O O10 0.701235 0.264155 0.161195
O O11 0.646448 0.502725 0.437057
O O12 0.667777 0.387846 0.668160
O O13 0.722233 0.548509 0.567070
O O14 0.725212 0.390639 0.379025
O O15 0.923367 0.101555 0.150521
O O16 0.000000 0.149078 0.250000
#
# Coordination Sequence:
#
# PCOD8135905 Si02
#       8
#     4   8   8   8   8   8   8   8
#     4  10  20  36  56  82 118 168 192 248 292 344
#     4  10  20  33  51  77 113 155 194 230 286 348
#     4  10  20  37  58  83 123 144 199 239 297 345
#     4  11  21  33  53  83 113 164 191 242 285 351
#     4   9  20  38  67  79 113 150 193 239 306 360
#     4  10  19  41  59  88 111 153 196 242 298 356
#     4   9  20  38  59  87 110 157 185 247 296 354
#     4  10  22  37  59  86 119 160 205 249 289 362
#
# _framework density 20.010933999999999
#
# number of rings (size 3 to 8) (size 9 to 14) (size 15 to 20)
#    0.000    2.133    3.333    0.400    3.733    2.667 
#    2.400    0.667    0.000    0.000    0.000    0.000 
#    0.000    0.000    0.000    0.000    0.000    0.000 
#
# Total GULP energy -371738.174828 kJ/mol
# GULP energy per Si atom -12391.272494 kJ/mol
# Density = 1.996539 g / cm^3
# Si number density = 20.010934 Si / 1000 Ang^3
#
#
#
# Elastic Constant Matrix: (Units=GPa)
#
#
# Indices 1 2 3 4 5 6 
#
# 1 71.6401 5.3664 2.8698 0.0000 -12.8253 0.0000
# 2 5.3664 33.6682 3.2484 0.0000 -11.0737 0.0000
# 3 2.8698 3.2484 52.8335 0.0000 -4.4870 0.0000
# 4 0.0000 0.0000 0.0000 18.2116 0.0000 -15.8870
# 5 -12.8253 -11.0737 -4.4870 0.0000 22.7401 0.0000
# 6 0.0000 0.0000 0.0000 -15.8870 0.0000 23.0475
#
#
#
# Elastic Compliance Matrix: (Units=1/GPa)
#
#
# Indices 1 2 3 4 5 6 
#
# 1 0.015534 0.000487 -0.000111 0.000000 0.008976 0.000000
# 2 0.000487 0.035409 -0.000728 0.000000 0.017374 0.000000
# 3 -0.000111 -0.000728 0.019266 0.000000 0.003384 0.000000
# 4 0.000000 0.000000 0.000000 0.137733 0.000000 0.094942
# 5 0.008976 0.017374 0.003384 0.000000 0.058166 0.000000
# 6 0.000000 0.000000 0.000000 0.094942 0.000000 0.108834
#
#
# Mechanical properties :
#
#
# Convention : Reuss Voigt Hill
#
# Bulk Modulus (GPa) = 14.38781 20.12346 17.25563
# Shear Modulus (GPa) = 12.53718 22.57699 17.55709
#
# Velocity S-wave (km/s) = 2.50575 3.36256 2.96526
# Velocity P-wave (km/s) = 3.94681 5.01536 4.51282
#
# Compressibility (1/GPa) = 0.06950328
#
# Stress axis : x y z
#
# Youngs Moduli (GPa) = 64.37665 28.24168 51.90604
#
# Poissons Ratio (x) = -0.01376 0.00578
# Poissons Ratio (y) = -0.03136 0.03779
# Poissons Ratio (z) = 0.00717 0.02056
#
# Static dielectric constant tensor:
#      x y z
#    x 3.523230 0.000000 0.071160 
#    y 0.000000 3.579570 0.000000 
#    z 0.071160 0.000000 3.669170 
# 
# 
# High freq. dielectric constant tensor:
#      x y z
#    x 1.769480 0.000000 0.003400 
#    y 0.000000 1.770940 0.000000 
#    z 0.003400 0.000000 1.776250 
# 
# From -- ./inp_files/65963.got.cif
#   From: 2010.06.25/outbox.cif.g09.slc.cpg/sg15_33_cif.got.tgz:65963.got - 2010.06.28 07:06:18.
