data_PCOD8135554
_publ_section_title
;
Structure prediction by ZEFSAII (Michael W. Deem and Ramdas Pophale) SiO2 
 PCOD8135554
Probable space group: C 2/C
;
_chemical_formula_sum "Si O2"
_cell_formula_units_Z 48
_cell_length_a 9.373257
_cell_length_b 24.985486
_cell_length_c 11.614285
_cell_angle_alpha 90.000000
_cell_angle_beta 56.492795
_cell_angle_gamma 90.000000
_cell_volume 2267.990560
_symmetry_space_group_name_H-M "C 2/C"
_symmetry_group_IT_number 15
_symmetry_cell_setting 'monoclinic'
loop_
_space_group_symop_operation_xyz
x,y,z
-x,y,1/2-z
-x,-y,-z
x,-y,1/2+z
1/2+x,1/2+y,z
1/2-x,1/2+y,1/2-z
1/2-x,1/2-y,-z
1/2+x,1/2-y,1/2+z
loop_
_atom_site_type_symbol
_atom_site_label
_atom_site_fract_x
_atom_site_fract_y
_atom_site_fract_z
Si Si1 0.145899 0.428005 0.106377
Si Si2 0.036573 0.699018 0.054437
Si Si3 0.008918 0.111135 0.113018
Si Si4 0.499793 0.078302 0.062106
Si Si5 0.280598 0.287974 0.656361
Si Si6 0.755224 0.458426 0.872389
O O1 0.224369 0.477837 0.142968
O O2 0.000000 0.400502 0.250000
O O3 0.292508 0.384550 0.013188
O O4 0.059492 0.452025 0.027699
O O5 0.998568 0.640295 0.023784
O O6 0.181575 0.692745 0.087155
O O7 0.860008 0.724480 0.182518
O O8 0.108039 0.735107 0.918611
O O9 0.000000 0.094469 0.250000
O O10 0.912663 0.166490 0.135646
O O11 0.935524 0.062018 0.068473
O O12 0.685949 0.060888 0.026120
O O13 0.367093 0.070164 0.224273
#
# Coordination Sequence:
#
# PCOD8135554 Si02
#       6
#     8   8   8   8   8   8
#     4  12  26  39  62  97 132 167 210 271 316 367
#     4  10  19  38  67  90 126 160 213 256 314 378
#     4  12  23  43  65  94 130 169 214 258 317 386
#     4  11  20  41  69  91 127 175 212 254 321 380
#     4  10  20  37  64  97 118 167 208 259 311 381
#     4  11  21  41  70  89 123 175 225 249 307 390
#
# _framework density 21.164110999999998
#
# number of rings (size 3 to 8) (size 9 to 14) (size 15 to 20)
#    0.000    1.000    6.667    2.000    0.000    1.333 
#    0.000    5.000    0.000    0.000    0.000    0.000 
#    0.000    0.000    0.000    0.000    0.000    0.000 
#
# Total GULP energy -297558.611982 kJ/mol
# GULP energy per Si atom -12398.275499 kJ/mol
# Density = 2.111594 g / cm^3
# Si number density = 21.164111 Si / 1000 Ang^3
#
#
#
# Elastic Constant Matrix: (Units=GPa)
#
#
# Indices 1 2 3 4 5 6 
#
# 1 116.4117 20.3179 53.7850 0.0000 -4.8375 0.0000
# 2 20.3179 71.6221 27.8353 0.0000 -7.1968 0.0000
# 3 53.7850 27.8353 102.7645 0.0000 -22.4266 0.0000
# 4 0.0000 0.0000 0.0000 22.5568 0.0000 -2.9036
# 5 -4.8375 -7.1968 -22.4266 0.0000 34.1414 0.0000
# 6 0.0000 0.0000 0.0000 -2.9036 0.0000 32.4222
#
#
#
# Elastic Compliance Matrix: (Units=1/GPa)
#
#
# Indices 1 2 3 4 5 6 
#
# 1 0.011619 -0.001091 -0.006393 0.000000 -0.002783 0.000000
# 2 -0.001091 0.015718 -0.003499 0.000000 0.000861 0.000000
# 3 -0.006393 -0.003499 0.015953 0.000000 0.008836 0.000000
# 4 0.000000 0.000000 0.000000 0.044850 0.000000 0.004017
# 5 -0.002783 0.000861 0.008836 0.000000 0.034881 0.000000
# 6 0.000000 0.000000 0.000000 0.004017 0.000000 0.031203
#
#
# Mechanical properties :
#
#
# Convention : Reuss Voigt Hill
#
# Bulk Modulus (GPa) = 46.89488 54.96385 50.92936
# Shear Modulus (GPa) = 27.27837 30.41474 28.84656
#
# Velocity S-wave (km/s) = 3.59402 3.79501 3.69588
# Velocity P-wave (km/s) = 6.27921 6.72529 6.50607
#
# Compressibility (1/GPa) = 0.02132429
#
# Stress axis : x y z
#
# Youngs Moduli (GPa) = 86.06897 63.62192 62.68542
#
# Poissons Ratio (x) = 0.06942 0.40073
# Poissons Ratio (y) = 0.09391 0.21931
# Poissons Ratio (z) = 0.55022 0.22258
#
# Static dielectric constant tensor:
#      x y z
#    x 4.204470 0.000000 -0.073190 
#    y 0.000000 3.591060 0.000000 
#    z -0.073190 0.000000 3.722530 
# 
# 
# High freq. dielectric constant tensor:
#      x y z
#    x 1.840120 0.000000 -0.003920 
#    y 0.000000 1.814650 0.000000 
#    z -0.003920 0.000000 1.812390 
# 
# From -- ./inp_files/80514.got.cif
#   From: 2010.06.25/outbox.cif.g09.slc.cpg/sg15_41_cif.got.tgz:80514.got - 2010.06.28 07:06:18.
