data_PCOD8135320
_publ_section_title
;
Structure prediction by ZEFSAII (Michael W. Deem and Ramdas Pophale) SiO2 
 PCOD8135320
Probable space group: C 2/C
;
_chemical_formula_sum "Si O2"
_cell_formula_units_Z 60
_cell_length_a 8.137034
_cell_length_b 24.971945
_cell_length_c 17.872710
_cell_angle_alpha 90.000000
_cell_angle_beta 120.202970
_cell_angle_gamma 90.000000
_cell_volume 3138.684460
_symmetry_space_group_name_H-M "C 2/C"
_symmetry_group_IT_number 15
_symmetry_cell_setting 'monoclinic'
loop_
_space_group_symop_operation_xyz
x,y,z
-x,y,1/2-z
-x,-y,-z
x,-y,1/2+z
1/2+x,1/2+y,z
1/2-x,1/2+y,1/2-z
1/2-x,1/2-y,-z
1/2+x,1/2-y,1/2+z
loop_
_atom_site_type_symbol
_atom_site_label
_atom_site_fract_x
_atom_site_fract_y
_atom_site_fract_z
Si Si1 0.156393 0.617451 0.224638
Si Si2 0.000000 0.933739 0.250000
Si Si3 0.505405 0.649237 0.100159
Si Si4 0.934623 0.781917 0.020538
Si Si5 0.907353 0.673345 0.440388
Si Si6 0.625404 0.449300 0.543447
Si Si7 0.302373 0.003909 0.227646
Si Si8 0.208930 0.877415 0.429242
O O1 0.360590 0.641518 0.296807
O O2 0.069803 0.648529 0.135549
O O3 0.173751 0.553852 0.209512
O O4 0.000000 0.629187 0.250000
O O5 0.859239 0.898023 0.167496
O O6 0.865045 0.967163 0.276740
O O7 0.288685 0.654940 0.071382
O O8 0.495394 0.597626 0.045344
O O9 0.577681 0.699801 0.068660
O O10 0.947931 0.834010 0.077579
O O11 0.102694 0.738388 0.067722
O O12 0.750000 0.750000 0.000000
O O13 0.084582 0.651129 0.530673
O O14 0.500000 0.500000 0.500000
O O15 0.769054 0.466192 0.641019
O O16 0.726108 0.427824 0.490584
O O17 0.500000 0.972805 0.250000
#
# Coordination Sequence:
#
# PCOD8135320 Si02
#       8
#     8   4   8   8   8   8   8   8
#     4  10  20  37  59  89 118 154 195 246 300 357
#     4  12  24  40  62  88 126 164 206 250 300 376
#     4  10  21  34  61  91 118 147 199 255 296 356
#     4   9  19  40  60  80 115 157 191 242 302 362
#     4  11  21  37  61  89 119 149 202 254 300 357
#     4  10  19  38  59  81 117 162 196 241 307 361
#     4  10  22  38  60  88 123 157 202 254 300 355
#     4  10  22  40  59  86 118 162 205 240 307 367
#
# _framework density 19.116289999999999
#
# number of rings (size 3 to 8) (size 9 to 14) (size 15 to 20)
#    0.000    1.867    1.333    4.800    3.733    1.067 
#    6.000    2.000    0.000    0.000    0.000    0.000 
#    0.000    0.000    0.000    0.000    0.000    0.000 
#
# Total GULP energy -371645.375720 kJ/mol
# GULP energy per Si atom -12388.179191 kJ/mol
# Density = 1.907278 g / cm^3
# Si number density = 19.116290 Si / 1000 Ang^3
#
#
#
# Elastic Constant Matrix: (Units=GPa)
#
#
# Indices 1 2 3 4 5 6 
#
# 1 115.6356 27.3597 31.6082 0.0000 13.3519 0.0000
# 2 27.3597 85.0723 39.8794 0.0000 7.4362 0.0000
# 3 31.6082 39.8794 90.5820 0.0000 0.8837 0.0000
# 4 0.0000 0.0000 0.0000 30.4430 0.0000 2.1858
# 5 13.3519 7.4362 0.8837 0.0000 26.5451 0.0000
# 6 0.0000 0.0000 0.0000 2.1858 0.0000 20.3603
#
#
#
# Elastic Compliance Matrix: (Units=1/GPa)
#
#
# Indices 1 2 3 4 5 6 
#
# 1 0.010344 -0.001573 -0.002872 0.000000 -0.004667 0.000000
# 2 -0.001573 0.015473 -0.006231 0.000000 -0.003336 0.000000
# 3 -0.002872 -0.006231 0.014759 0.000000 0.002698 0.000000
# 4 0.000000 0.000000 0.000000 0.033103 0.000000 -0.003554
# 5 -0.004667 -0.003336 0.002698 0.000000 0.040864 0.000000
# 6 0.000000 0.000000 0.000000 -0.003554 0.000000 0.049497
#
#
# Mechanical properties :
#
#
# Convention : Reuss Voigt Hill
#
# Bulk Modulus (GPa) = 52.01460 54.33162 53.17311
# Shear Modulus (GPa) = 26.06923 28.29919 27.18421
#
# Velocity S-wave (km/s) = 3.69686 3.85173 3.77509
# Velocity P-wave (km/s) = 6.74470 6.94726 6.84673
#
# Compressibility (1/GPa) = 0.01922537
#
# Stress axis : x y z
#
# Youngs Moduli (GPa) = 96.67741 64.62928 67.75748
#
# Poissons Ratio (x) = 0.10164 0.19457
# Poissons Ratio (y) = 0.15203 0.42218
# Poissons Ratio (z) = 0.27761 0.40269
#
# Static dielectric constant tensor:
#      x y z
#    x 3.470730 0.000000 -0.051000 
#    y 0.000000 1.137820 0.000000 
#    z -0.051000 0.000000 3.196920 
# 
# 
# High freq. dielectric constant tensor:
#      x y z
#    x 1.744140 0.000000 0.000500 
#    y 0.000000 1.746720 0.000000 
#    z 0.000500 0.000000 1.730530 
# 
# From -- ./inp_files/193289.got.cif
#   From: 2010.06.25/outbox.cif.g09.slc.cpg/sg15_97_cif.got.tgz:193289.got - 2010.06.28 07:06:18.
