data_PCOD8135706
_publ_section_title
;
Structure prediction by ZEFSAII (Michael W. Deem and Ramdas Pophale) SiO2 
 PCOD8135706
Probable space group: C 2/C
;
_chemical_formula_sum "Si O2"
_cell_formula_units_Z 40
_cell_length_a 9.319132
_cell_length_b 16.125065
_cell_length_c 13.613727
_cell_angle_alpha 90.000000
_cell_angle_beta 71.897343
_cell_angle_gamma 90.000000
_cell_volume 1944.494417
_symmetry_space_group_name_H-M "C 2/C"
_symmetry_group_IT_number 15
_symmetry_cell_setting 'monoclinic'
loop_
_space_group_symop_operation_xyz
x,y,z
-x,y,1/2-z
-x,-y,-z
x,-y,1/2+z
1/2+x,1/2+y,z
1/2-x,1/2+y,1/2-z
1/2-x,1/2-y,-z
1/2+x,1/2-y,1/2+z
loop_
_atom_site_type_symbol
_atom_site_label
_atom_site_fract_x
_atom_site_fract_y
_atom_site_fract_z
Si Si1 0.333658 0.541310 0.029992
Si Si2 0.716118 0.634958 0.953976
Si Si3 0.938100 0.836826 0.369288
Si Si4 0.161870 0.330051 0.691194
Si Si5 0.844705 0.784050 0.834282
O O1 0.226928 0.460532 0.063025
O O2 0.285074 0.603847 0.127765
O O3 0.500000 0.500000 0.000000
O O4 0.316962 0.593146 0.931483
O O5 0.564948 0.659169 0.926747
O O6 0.849186 0.692669 0.883053
O O7 0.685680 0.649125 0.075256
O O8 0.862024 0.745780 0.381007
O O9 0.000000 0.864040 0.250000
O O10 0.213951 0.287905 0.781193
O O11 0.000000 0.372541 0.750000
O O12 0.000000 0.804998 0.750000
#
# Coordination Sequence:
#
# PCOD8135706 Si02
#       5
#     8   8   8   8   8
#     4  10  22  37  63  95 126 161 208 265 313 370
#     4  10  22  40  58  92 125 155 212 252 309 381
#     4  10  19  39  64  91 122 163 210 256 309 372
#     4  11  22  42  66  92 124 168 213 260 310 379
#     4  11  22  40  64  85 123 168 204 253 319 378
#
# _framework density 20.570900999999999
#
# number of rings (size 3 to 8) (size 9 to 14) (size 15 to 20)
#    0.000    1.600    4.000    3.000    0.000    4.800 
#    0.000    1.000    0.000    0.000    0.000    0.000 
#    0.000    0.000    0.000    0.000    0.000    0.000 
#
# Total GULP energy -247777.060116 kJ/mol
# GULP energy per Si atom -12388.853006 kJ/mol
# Density = 2.052408 g / cm^3
# Si number density = 20.570901 Si / 1000 Ang^3
#
#
#
# Elastic Constant Matrix: (Units=GPa)
#
#
# Indices 1 2 3 4 5 6 
#
# 1 54.7572 16.5606 21.5931 0.0000 -1.6783 0.0000
# 2 16.5606 162.1269 65.3074 0.0000 -5.2788 0.0000
# 3 21.5931 65.3074 118.0946 0.0000 -9.4003 0.0000
# 4 0.0000 0.0000 0.0000 23.6535 0.0000 -6.1488
# 5 -1.6783 -5.2788 -9.4003 0.0000 31.0853 0.0000
# 6 0.0000 0.0000 0.0000 -6.1488 0.0000 15.2472
#
#
#
# Elastic Compliance Matrix: (Units=1/GPa)
#
#
# Indices 1 2 3 4 5 6 
#
# 1 0.019747 -0.000724 -0.003213 0.000000 -0.000028 0.000000
# 2 -0.000724 0.007962 -0.004269 0.000000 0.000022 0.000000
# 3 -0.003213 -0.004269 0.011624 0.000000 0.002617 0.000000
# 4 0.000000 0.000000 0.000000 0.047228 0.000000 0.019046
# 5 -0.000028 0.000022 0.002617 0.000000 0.032963 0.000000
# 6 0.000000 0.000000 0.000000 0.019046 0.000000 0.073267
#
#
# Mechanical properties :
#
#
# Convention : Reuss Voigt Hill
#
# Bulk Modulus (GPa) = 43.62484 60.21121 51.91803
# Shear Modulus (GPa) = 23.05805 29.43172 26.24488
#
# Velocity S-wave (km/s) = 3.35163 3.78662 3.57575
# Velocity P-wave (km/s) = 6.01922 6.96072 6.50702
#
# Compressibility (1/GPa) = 0.02292272
#
# Stress axis : x y z
#
# Youngs Moduli (GPa) = 50.63955 125.59117 86.02621
#
# Poissons Ratio (x) = 0.09092 0.27637
# Poissons Ratio (y) = 0.03666 0.36726
# Poissons Ratio (z) = 0.16269 0.53616
#
# Static dielectric constant tensor:
#      x y z
#    x 2.855800 0.000000 -0.339170 
#    y 0.000000 4.485090 0.000000 
#    z -0.339170 0.000000 3.824280 
# 
# 
# High freq. dielectric constant tensor:
#      x y z
#    x 1.771740 0.000000 -0.004360 
#    y 0.000000 1.812570 0.000000 
#    z -0.004360 0.000000 1.816370 
# 
# From -- ./inp_files/76677.got.cif
#   From: 2010.06.25/outbox.cif.g09.slc.cpg/sg15_39_cif.got.tgz:76677.got - 2010.06.28 07:06:18.
