data_PCOD8135590
_publ_section_title
;
Structure prediction by ZEFSAII (Michael W. Deem and Ramdas Pophale) SiO2 
 PCOD8135590
Probable space group: C 2/C
;
_chemical_formula_sum "Si O2"
_cell_formula_units_Z 60
_cell_length_a 8.207815
_cell_length_b 25.111552
_cell_length_c 23.656981
_cell_angle_alpha 90.000000
_cell_angle_beta 41.588511
_cell_angle_gamma 90.000000
_cell_volume 3236.548686
_symmetry_space_group_name_H-M "C 2/C"
_symmetry_group_IT_number 15
_symmetry_cell_setting 'monoclinic'
loop_
_space_group_symop_operation_xyz
x,y,z
-x,y,1/2-z
-x,-y,-z
x,-y,1/2+z
1/2+x,1/2+y,z
1/2-x,1/2+y,1/2-z
1/2-x,1/2-y,-z
1/2+x,1/2-y,1/2+z
loop_
_atom_site_type_symbol
_atom_site_label
_atom_site_fract_x
_atom_site_fract_y
_atom_site_fract_z
Si Si1 0.233245 0.082532 0.317426
Si Si2 0.242249 0.010868 0.903460
Si Si3 0.720708 0.497007 0.234007
Si Si4 0.566323 0.246842 0.466887
Si Si5 0.768375 0.903135 0.178368
Si Si6 0.544518 0.298496 0.119954
Si Si7 0.500000 0.753550 0.750000
Si Si8 0.992901 0.187759 0.093883
O O1 0.500000 0.111567 0.250000
O O2 0.023648 0.123953 0.392320
O O3 0.255725 0.032008 0.351154
O O4 0.173277 0.056386 0.271959
O O5 0.507802 0.005821 0.866580
O O6 0.205373 0.070478 0.889926
O O7 0.000000 0.000000 0.000000
O O8 0.500000 0.484330 0.250000
O O9 0.713539 0.450006 0.281193
O O10 0.587000 0.265943 0.396705
O O11 0.335025 0.208485 0.537306
O O12 0.550930 0.297744 0.513377
O O13 0.801976 0.211305 0.418266
O O14 0.500000 0.874941 0.250000
O O15 0.983140 0.860586 0.130801
O O16 0.454032 0.281108 0.205476
O O17 0.263829 0.789076 0.820059
#
# Coordination Sequence:
#
# PCOD8135590 Si02
#       8
#     8   8   8   8   8   8   4   8
#     4   9  18  36  59  77 113 146 181 220 280 337
#     4   9  19  37  57  84 107 144 183 222 278 347
#     4   9  19  39  54  82 112 140 183 238 269 325
#     4   9  22  38  55  77 126 141 182 234 284 325
#     4   9  20  36  58  78 110 148 182 217 286 336
#     4  10  21  40  54  85 110 151 182 235 277 332
#     4  10  22  34  60  82 108 142 202 224 266 338
#     4  10  19  39  56  83 108 155 180 233 279 328
#
# _framework density 18.538267000000001
#
# number of rings (size 3 to 8) (size 9 to 14) (size 15 to 20)
#    0.000    2.667    0.667    1.600    4.667    0.000 
#    7.200    1.333    0.000    0.000    0.000    0.000 
#    0.000    0.000    0.000    0.000    0.000    0.000 
#
# Total GULP energy -371727.075390 kJ/mol
# GULP energy per Si atom -12390.902513 kJ/mol
# Density = 1.849607 g / cm^3
# Si number density = 18.538267 Si / 1000 Ang^3
#
#
#
# Elastic Constant Matrix: (Units=GPa)
#
#
# Indices 1 2 3 4 5 6 
#
# 1 110.9620 28.7378 37.2891 0.0000 -4.9030 0.0000
# 2 28.7378 89.1290 21.0030 0.0000 -4.5707 0.0000
# 3 37.2891 21.0030 78.9465 0.0003 1.0501 -0.0001
# 4 0.0000 0.0000 0.0003 20.1761 -0.0001 -9.4562
# 5 -4.9030 -4.5707 1.0501 -0.0001 29.1098 0.0000
# 6 0.0000 0.0000 -0.0001 -9.4562 0.0000 20.4171
#
#
#
# Elastic Compliance Matrix: (Units=1/GPa)
#
#
# Indices 1 2 3 4 5 6 
#
# 1 0.011304 -0.002448 -0.004710 0.000000 0.001689 0.000000
# 2 -0.002448 0.012617 -0.002222 0.000000 0.001649 0.000000
# 3 -0.004710 -0.002222 0.015506 0.000000 -0.001702 0.000000
# 4 0.000000 0.000000 0.000000 0.063305 0.000000 0.029320
# 5 0.001689 0.001649 -0.001702 0.000000 0.034958 0.000000
# 6 0.000000 0.000000 0.000000 0.029320 0.000000 0.062558
#
#
# Mechanical properties :
#
#
# Convention : Reuss Voigt Hill
#
# Bulk Modulus (GPa) = 48.39080 50.34412 49.36746
# Shear Modulus (GPa) = 22.13398 26.74111 24.43755
#
# Velocity S-wave (km/s) = 3.45912 3.80212 3.63467
# Velocity P-wave (km/s) = 6.48952 6.81841 6.65600
#
# Compressibility (1/GPa) = 0.02066509
#
# Stress axis : x y z
#
# Youngs Moduli (GPa) = 88.46694 79.25647 64.49320
#
# Poissons Ratio (x) = 0.19402 0.30378
# Poissons Ratio (y) = 0.21657 0.14333
# Poissons Ratio (z) = 0.41671 0.17614
#
# Static dielectric constant tensor:
#      x y z
#    x 3.512310 0.000000 -0.126730 
#    y 0.000000 3.383390 0.000000 
#    z -0.126730 0.000000 3.321290 
# 
# 
# High freq. dielectric constant tensor:
#      x y z
#    x 1.716090 0.000000 -0.010180 
#    y 0.000000 1.715820 0.000000 
#    z -0.010180 0.000000 1.715840 
# 
# From -- ./inp_files/266519.got.cif
#   From: 2010.06.25/outbox.cif.g09.slc.cpg/sg15_134_cif.got.tgz:266519.got - 2010.06.28 07:06:18.
