data_PCOD8135325
_publ_section_title
;
Structure prediction by ZEFSAII (Michael W. Deem and Ramdas Pophale) SiO2 
 PCOD8135325
Probable space group: C 2/C
;
_chemical_formula_sum "Si O2"
_cell_formula_units_Z 52
_cell_length_a 11.183958
_cell_length_b 15.411420
_cell_length_c 14.616011
_cell_angle_alpha 90.000000
_cell_angle_beta 97.320900
_cell_angle_gamma 90.000000
_cell_volume 2498.688848
_symmetry_space_group_name_H-M "C 2/C"
_symmetry_group_IT_number 15
_symmetry_cell_setting 'monoclinic'
loop_
_space_group_symop_operation_xyz
x,y,z
-x,y,1/2-z
-x,-y,-z
x,-y,1/2+z
1/2+x,1/2+y,z
1/2-x,1/2+y,1/2-z
1/2-x,1/2-y,-z
1/2+x,1/2-y,1/2+z
loop_
_atom_site_type_symbol
_atom_site_label
_atom_site_fract_x
_atom_site_fract_y
_atom_site_fract_z
Si Si1 0.500000 0.962455 0.750000
Si Si2 0.148239 0.755648 0.564105
Si Si3 0.757514 0.293864 0.144095
Si Si4 0.096602 0.836134 0.962871
Si Si5 0.381861 0.521744 0.178500
Si Si6 0.168597 0.405555 0.181455
Si Si7 0.786194 0.349737 0.730953
O O1 0.400856 0.897395 0.696045
O O2 0.432999 0.019099 0.821410
O O3 0.250000 0.750000 0.500000
O O4 0.116810 0.661599 0.602592
O O5 0.195201 0.816392 0.647818
O O6 0.030615 0.801770 0.511443
O O7 0.859174 0.235071 0.106023
O O8 0.819469 0.365048 0.215378
O O9 0.674199 0.229408 0.197558
O O10 0.681905 0.344496 0.059587
O O11 0.084071 0.930994 0.914055
O O12 0.500000 0.500004 0.250000
O O13 0.300963 0.435135 0.156705
O O14 0.290054 0.581500 0.222055
#
# Coordination Sequence:
#
# PCOD8135325 Si02
#       7
#     4   8   8   8   8   8   8
#     4  10  20  38  64  86 114 154 196 240 298 350
#     4  11  23  39  59  88 119 156 202 242 288 350
#     4   9  20  38  62  90 116 152 204 243 289 350
#     4  10  20  38  64  88 115 157 200 244 288 353
#     4  10  19  38  59  84 116 154 193 237 295 352
#     4  10  22  40  60  89 118 156 194 242 296 349
#     4   9  20  37  61  84 117 157 196 239 295 349
#
# _framework density 20.810915999999999
#
# number of rings (size 3 to 8) (size 9 to 14) (size 15 to 20)
#    0.000    2.154    1.538    0.923    2.154    1.231 
#    8.308    2.308    0.000    0.000    0.000    0.000 
#    0.000    0.000    0.000    0.000    0.000    0.000 
#
# Total GULP energy -322247.655636 kJ/mol
# GULP energy per Si atom -12394.140601 kJ/mol
# Density = 2.076355 g / cm^3
# Si number density = 20.810916 Si / 1000 Ang^3
#
#
#
# Elastic Constant Matrix: (Units=GPa)
#
#
# Indices 1 2 3 4 5 6 
#
# 1 90.1494 15.2142 4.6469 0.0000 -1.0373 0.0000
# 2 15.2142 52.4227 -0.5666 0.0000 -2.0693 0.0000
# 3 4.6469 -0.5666 50.7303 0.0000 -8.3564 0.0000
# 4 0.0000 0.0000 0.0000 5.6203 0.0000 -7.4114
# 5 -1.0373 -2.0693 -8.3564 0.0000 19.5997 0.0000
# 6 0.0000 0.0000 0.0000 -7.4114 0.0000 40.0559
#
#
#
# Elastic Compliance Matrix: (Units=1/GPa)
#
#
# Indices 1 2 3 4 5 6 
#
# 1 0.011727 -0.003425 -0.001151 0.000000 -0.000231 0.000000
# 2 -0.003425 0.020172 0.000925 0.000000 0.002343 0.000000
# 3 -0.001151 0.000925 0.021332 0.000000 0.009132 0.000000
# 4 0.000000 0.000000 0.000000 0.235348 0.000000 0.043546
# 5 -0.000231 0.002343 0.009132 0.000000 0.055150 0.000000
# 6 0.000000 0.000000 0.000000 0.043546 0.000000 0.033022
#
#
# Mechanical properties :
#
#
# Convention : Reuss Voigt Hill
#
# Bulk Modulus (GPa) = 21.77223 25.76571 23.76897
# Shear Modulus (GPa) = 12.51993 24.65573 18.58783
#
# Velocity S-wave (km/s) = 2.45542 3.44575 2.99185
# Velocity P-wave (km/s) = 4.30389 5.31401 4.83540
#
# Compressibility (1/GPa) = 0.04593007
#
# Stress axis : x y z
#
# Youngs Moduli (GPa) = 85.27045 49.57312 46.87791
#
# Poissons Ratio (x) = 0.16979 0.05394
# Poissons Ratio (y) = 0.29206 -0.04336
# Poissons Ratio (z) = 0.09811 -0.04585
#
# Static dielectric constant tensor:
#      x y z
#    x 3.857230 0.000000 -0.121290 
#    y 0.000000 3.990180 0.000000 
#    z -0.121290 0.000000 3.446390 
# 
# 
# High freq. dielectric constant tensor:
#      x y z
#    x 1.818340 0.000000 0.000350 
#    y 0.000000 1.820240 0.000000 
#    z 0.000350 0.000000 1.790740 
# 
# From -- ./inp_files/144333.got.cif
#   From: 2010.06.25/outbox.cif.g09.slc.cpg/sg15_73_cif.got.tgz:144333.got - 2010.06.28 07:06:18.
