data_PCOD8135234
_publ_section_title
;
Structure prediction by ZEFSAII (Michael W. Deem and Ramdas Pophale) SiO2 
 PCOD8135234
Probable space group: C 2/C
;
_chemical_formula_sum "Si O2"
_cell_formula_units_Z 56
_cell_length_a 14.970765
_cell_length_b 10.927923
_cell_length_c 17.121148
_cell_angle_alpha 90.000000
_cell_angle_beta 74.715334
_cell_angle_gamma 90.000000
_cell_volume 2701.931700
_symmetry_space_group_name_H-M "C 2/C"
_symmetry_group_IT_number 15
_symmetry_cell_setting 'monoclinic'
loop_
_space_group_symop_operation_xyz
x,y,z
-x,y,1/2-z
-x,-y,-z
x,-y,1/2+z
1/2+x,1/2+y,z
1/2-x,1/2+y,1/2-z
1/2-x,1/2-y,-z
1/2+x,1/2-y,1/2+z
loop_
_atom_site_type_symbol
_atom_site_label
_atom_site_fract_x
_atom_site_fract_y
_atom_site_fract_z
Si Si1 0.030458 0.665739 0.432801
Si Si2 0.401301 0.118956 0.235311
Si Si3 0.602730 0.152589 0.728660
Si Si4 0.077969 0.102707 0.492726
Si Si5 0.244176 0.879840 0.043855
Si Si6 0.789891 0.780191 0.665393
Si Si7 0.605633 0.050275 0.560819
O O1 0.105665 0.688865 0.346869
O O2 0.078933 0.652560 0.504636
O O3 0.961385 0.774931 0.461298
O O4 0.978369 0.545303 0.410690
O O5 0.500000 0.160475 0.250000
O O6 0.310355 0.154018 0.306565
O O7 0.400078 0.973255 0.222429
O O8 0.500000 0.211117 0.750000
O O9 0.669053 0.249180 0.758235
O O10 0.634370 0.120683 0.633175
O O11 0.144366 0.059709 0.548530
O O12 0.137052 0.134065 0.399875
O O13 0.000000 0.000000 0.500000
O O14 0.270216 0.851096 0.127631
O O15 0.250000 0.750000 0.000000
O O16 0.309513 0.978584 0.992273
#
# Coordination Sequence:
#
# PCOD8135234 Si02
#       7
#     8   8   8   8   8   8   8
#     4  11  21  38  64  95 127 159 224 275 314 386
#     4  11  22  37  63  98 125 163 218 279 327 386
#     4  11  21  37  62  94 125 169 213 268 336 389
#     4  11  24  42  67  95 130 183 219 261 330 411
#     4  10  19  37  66  91 124 176 221 259 320 394
#     4  11  23  41  63  93 136 173 217 273 339 386
#     4  11  20  37  65  95 122 163 221 270 320 384
#
# _framework density 20.725912000000001
#
# number of rings (size 3 to 8) (size 9 to 14) (size 15 to 20)
#    0.000    1.143    5.714    4.286    0.000    2.286 
#    0.000    7.143    0.000    4.286    0.000    0.000 
#    0.000    0.000    0.000    0.000    0.000    0.000 
#
# Total GULP energy -346870.157053 kJ/mol
# GULP energy per Si atom -12388.219895 kJ/mol
# Density = 2.067874 g / cm^3
# Si number density = 20.725912 Si / 1000 Ang^3
#
#
#
# Elastic Constant Matrix: (Units=GPa)
#
#
# Indices 1 2 3 4 5 6 
#
# 1 123.8822 33.9373 29.5299 0.0000 -2.5215 0.0000
# 2 33.9373 32.0485 22.5782 0.0000 -2.4321 0.0000
# 3 29.5299 22.5782 82.0085 0.0000 -5.6775 0.0000
# 4 0.0000 0.0000 0.0000 15.2688 0.0000 -16.4355
# 5 -2.5215 -2.4321 -5.6775 0.0000 40.9255 0.0000
# 6 0.0000 0.0000 0.0000 -16.4355 0.0000 4.2920
#
#
#
# Elastic Compliance Matrix: (Units=1/GPa)
#
#
# Indices 1 2 3 4 5 6 
#
# 1 0.011433 -0.011426 -0.000979 0.000000 -0.000110 0.000000
# 2 -0.011426 0.050158 -0.009630 0.000000 0.000941 0.000000
# 3 -0.000979 -0.009630 0.015301 0.000000 0.001490 0.000000
# 4 0.000000 0.000000 0.000000 -0.020978 0.000000 -0.080333
# 5 -0.000110 0.000941 0.001490 0.000000 0.024690 0.000000
# 6 0.000000 0.000000 0.000000 -0.080333 0.000000 -0.074630
#
#
# Mechanical properties :
#
#
# Convention : Reuss Voigt Hill
#
# Bulk Modulus (GPa) = 30.46686 45.55889 38.01288
# Shear Modulus (GPa) = 81.98892 22.22351 52.10622
#
# Velocity S-wave (km/s) = 6.29639 3.27809 5.01948
# Velocity P-wave (km/s) = 8.22139 6.02969 7.20931
#
# Compressibility (1/GPa) = 0.03282255
#
# Stress axis : x y z
#
# Youngs Moduli (GPa) = 87.46308 19.93716 65.35648
#
# Poissons Ratio (x) = 0.22780 0.06398
# Poissons Ratio (y) = 0.99935 0.62936
# Poissons Ratio (z) = 0.08561 0.19199
#
# Static dielectric constant tensor:
#      x y z
#    x 4.198530 0.000000 0.087950 
#    y 0.000000 3.219850 0.000000 
#    z 0.087950 0.000000 4.019980 
# 
# 
# High freq. dielectric constant tensor:
#      x y z
#    x 1.821250 0.000000 0.004740 
#    y 0.000000 1.770210 0.000000 
#    z 0.004740 0.000000 1.819240 
# 
# From -- ./inp_files/203941.got.cif
#   From: 2010.06.25/outbox.cif.g09.slc.cpg/sg15_102_cif.got.tgz:203941.got - 2010.06.28 07:06:18.
