data_PCOD8135833
_publ_section_title
;
Structure prediction by ZEFSAII (Michael W. Deem and Ramdas Pophale) SiO2 
 PCOD8135833
Probable space group: C 2/C
;
_chemical_formula_sum "Si O2"
_cell_formula_units_Z 44
_cell_length_a 14.408477
_cell_length_b 10.792103
_cell_length_c 26.194778
_cell_angle_alpha 90.000000
_cell_angle_beta 31.718494
_cell_angle_gamma 90.000000
_cell_volume 2141.485138
_symmetry_space_group_name_H-M "C 2/C"
_symmetry_group_IT_number 15
_symmetry_cell_setting 'monoclinic'
loop_
_space_group_symop_operation_xyz
x,y,z
-x,y,1/2-z
-x,-y,-z
x,-y,1/2+z
1/2+x,1/2+y,z
1/2-x,1/2+y,1/2-z
1/2-x,1/2-y,-z
1/2+x,1/2-y,1/2+z
loop_
_atom_site_type_symbol
_atom_site_label
_atom_site_fract_x
_atom_site_fract_y
_atom_site_fract_z
Si Si1 0.971988 0.216618 0.609949
Si Si2 0.500000 0.160511 0.250000
Si Si3 0.164898 0.578648 0.402679
Si Si4 0.255018 0.347046 0.304000
Si Si5 0.691069 0.088756 0.067170
Si Si6 0.150361 0.646488 0.516198
O O1 0.887700 0.303447 0.606465
O O2 0.820822 0.150605 0.714465
O O3 0.098126 0.111759 0.525659
O O4 0.096134 0.289400 0.590753
O O5 0.354906 0.246472 0.291018
O O6 0.604037 0.067740 0.163367
O O7 0.286968 0.484825 0.312978
O O8 0.254055 0.627111 0.413589
O O9 0.000000 0.500000 0.500000
O O10 0.049425 0.310462 0.400647
O O11 0.647379 0.978317 0.049854
O O12 0.250000 0.750000 0.500000
#
# Coordination Sequence:
#
# PCOD8135833 Si02
#       6
#     8   4   8   8   8   8
#     4  10  20  37  67  93 122 169 218 264 307 380
#     4  10  22  40  68  88 122 170 224 264 314 384
#     4  10  19  40  64  87 129 169 211 259 315 374
#     4  10  22  39  63  97 126 163 219 261 318 379
#     4  10  20  39  63  91 124 164 216 263 313 380
#     4  11  24  43  62  94 136 166 208 267 328 384
#
# _framework density 20.546488
#
# number of rings (size 3 to 8) (size 9 to 14) (size 15 to 20)
#    0.000    1.818    3.636    2.182    5.091    1.455 
#    3.273    1.818    0.000    0.000    0.000    0.000 
#    0.000    0.000    0.000    0.000    0.000    0.000 
#
# Total GULP energy -272696.968730 kJ/mol
# GULP energy per Si atom -12395.316760 kJ/mol
# Density = 2.049972 g / cm^3
# Si number density = 20.546488 Si / 1000 Ang^3
#
#
#
# Elastic Constant Matrix: (Units=GPa)
#
#
# Indices 1 2 3 4 5 6 
#
# 1 116.5880 48.2620 60.2664 0.0000 25.6114 0.0000
# 2 48.2620 58.6321 47.9156 -0.0001 10.7043 0.0000
# 3 60.2664 47.9156 120.9235 -0.0003 31.6455 0.0001
# 4 0.0000 -0.0001 -0.0003 30.6240 0.0000 13.3701
# 5 25.6114 10.7043 31.6455 0.0000 41.7270 0.0000
# 6 0.0000 0.0000 0.0001 13.3701 0.0000 47.5097
#
#
#
# Elastic Compliance Matrix: (Units=1/GPa)
#
#
# Indices 1 2 3 4 5 6 
#
# 1 0.014716 -0.009274 -0.002393 0.000000 -0.004839 0.000000
# 2 -0.009274 0.031132 -0.008875 0.000000 0.004437 0.000000
# 3 -0.002393 -0.008875 0.014970 0.000000 -0.007608 0.000000
# 4 0.000000 0.000000 0.000000 0.037228 0.000000 -0.010477
# 5 -0.004839 0.004437 -0.007608 0.000000 0.031566 0.000000
# 6 0.000000 0.000000 0.000000 -0.010477 0.000000 0.023997
#
#
# Mechanical properties :
#
#
# Convention : Reuss Voigt Hill
#
# Bulk Modulus (GPa) = 50.67513 67.67016 59.17265
# Shear Modulus (GPa) = 24.84185 33.28545 29.06365
#
# Velocity S-wave (km/s) = 3.48092 4.02930 3.76511
# Velocity P-wave (km/s) = 6.39319 7.39281 6.91110
#
# Compressibility (1/GPa) = 0.01973354
#
# Stress axis : x y z
#
# Youngs Moduli (GPa) = 67.95154 32.12085 66.80012
#
# Poissons Ratio (x) = 0.29790 0.15987
# Poissons Ratio (y) = 0.63021 0.59285
# Poissons Ratio (z) = 0.16262 0.28507
#
# Static dielectric constant tensor:
#      x y z
#    x 3.890180 0.000000 0.370910 
#    y 0.000000 3.340630 0.000000 
#    z 0.370910 0.000000 4.026290 
# 
# 
# High freq. dielectric constant tensor:
#      x y z
#    x 1.803350 0.000000 0.019840 
#    y 0.000000 1.781260 0.000000 
#    z 0.019840 0.000000 1.808600 
# 
# From -- ./inp_files/152261.got.cif
#   From: 2010.06.25/outbox.cif.g09.slc.cpg/sg15_77_cif.got.tgz:152261.got - 2010.06.28 07:06:18.
