data_PCOD8135851
_publ_section_title
;
Structure prediction by ZEFSAII (Michael W. Deem and Ramdas Pophale) SiO2 
 PCOD8135851
Probable space group: C 2/C
;
_chemical_formula_sum "Si O2"
_cell_formula_units_Z 52
_cell_length_a 9.053537
_cell_length_b 31.758116
_cell_length_c 10.432611
_cell_angle_alpha 90.000000
_cell_angle_beta 57.117771
_cell_angle_gamma 90.000000
_cell_volume 2519.044523
_symmetry_space_group_name_H-M "C 2/C"
_symmetry_group_IT_number 15
_symmetry_cell_setting 'monoclinic'
loop_
_space_group_symop_operation_xyz
x,y,z
-x,y,1/2-z
-x,-y,-z
x,-y,1/2+z
1/2+x,1/2+y,z
1/2-x,1/2+y,1/2-z
1/2-x,1/2-y,-z
1/2+x,1/2-y,1/2+z
loop_
_atom_site_type_symbol
_atom_site_label
_atom_site_fract_x
_atom_site_fract_y
_atom_site_fract_z
Si Si1 0.808269 0.624056 0.891457
Si Si2 0.709815 0.731054 0.381518
Si Si3 0.500000 0.836562 0.750000
Si Si4 0.392668 0.008629 0.178561
Si Si5 0.306648 0.281056 0.085272
Si Si6 0.320840 0.433179 0.256188
Si Si7 0.032798 0.404882 0.937630
O O1 0.773464 0.673404 0.900048
O O2 0.667932 0.596832 0.874796
O O3 0.000000 0.613843 0.750000
O O4 0.814002 0.608667 0.035403
O O5 0.750000 0.750000 0.500000
O O6 0.513934 0.714189 0.478503
O O7 0.740392 0.765161 0.255031
O O8 0.831366 0.691337 0.298617
O O9 0.470586 0.864662 0.887947
O O10 0.500000 0.991626 0.250000
O O11 0.371261 0.059396 0.195583
O O12 0.207981 0.982735 0.266715
O O13 0.500000 0.000000 0.000000
O O14 0.250000 0.250000 0.000000
O O15 0.500000 0.427456 0.250000
O O16 0.149584 0.421087 0.418056
#
# Coordination Sequence:
#
# PCOD8135851 Si02
#       7
#     8   8   4   8   8   8   8
#     4  10  22  40  65  93 132 172 226 270 329 400
#     4  12  26  44  66  97 132 174 222 278 335 399
#     4  12  24  42  68  94 134 170 226 268 342 394
#     4  10  19  40  65  91 126 172 215 259 328 394
#     4  12  25  44  68  96 133 179 226 277 336 396
#     4  10  22  38  65  98 127 168 219 271 322 395
#     4  10  22  41  66  91 128 177 213 270 332 396
#
# _framework density 20.642747
#
# number of rings (size 3 to 8) (size 9 to 14) (size 15 to 20)
#    0.000    1.231    2.308    4.615    6.462    0.000 
#    0.000    8.462    0.000    0.000    0.000    0.000 
#    0.000    0.000    0.000    0.000    0.000    0.000 
#
# Total GULP energy -322309.029476 kJ/mol
# GULP energy per Si atom -12396.501134 kJ/mol
# Density = 2.059576 g / cm^3
# Si number density = 20.642747 Si / 1000 Ang^3
#
#
#
# Elastic Constant Matrix: (Units=GPa)
#
#
# Indices 1 2 3 4 5 6 
#
# 1 146.6748 46.8826 29.8051 0.0000 24.2164 0.0000
# 2 46.8826 126.8071 18.4977 0.0000 16.1509 0.0000
# 3 29.8051 18.4977 65.0334 0.0000 18.7536 0.0000
# 4 0.0000 0.0000 0.0000 30.5429 0.0000 7.3707
# 5 24.2164 16.1509 18.7536 0.0000 30.4504 0.0000
# 6 0.0000 0.0000 0.0000 7.3707 0.0000 41.6369
#
#
#
# Elastic Compliance Matrix: (Units=1/GPa)
#
#
# Indices 1 2 3 4 5 6 
#
# 1 0.008719 -0.002362 -0.002050 0.000000 -0.004419 0.000000
# 2 -0.002362 0.009196 -0.000813 0.000000 -0.002499 0.000000
# 3 -0.002050 -0.000813 0.019398 0.000000 -0.009885 0.000000
# 4 0.000000 0.000000 0.000000 0.034202 0.000000 -0.006055
# 5 -0.004419 -0.002499 -0.009885 0.000000 0.043768 0.000000
# 6 0.000000 0.000000 0.000000 -0.006055 0.000000 0.025089
#
#
# Mechanical properties :
#
#
# Convention : Reuss Voigt Hill
#
# Bulk Modulus (GPa) = 37.22423 58.76512 47.99468
# Shear Modulus (GPa) = 31.29405 36.74802 34.02104
#
# Velocity S-wave (km/s) = 3.89779 4.22381 4.06407
# Velocity P-wave (km/s) = 6.19102 7.23304 6.73222
#
# Compressibility (1/GPa) = 0.02686422
#
# Stress axis : x y z
#
# Youngs Moduli (GPa) = 114.69522 108.74341 51.55175
#
# Poissons Ratio (x) = 0.25681 0.10568
# Poissons Ratio (y) = 0.27087 0.04190
# Poissons Ratio (z) = 0.23511 0.08837
#
# Static dielectric constant tensor:
#      x y z
#    x 3.687780 0.000000 0.388950 
#    y 0.000000 4.316860 0.000000 
#    z 0.388950 0.000000 3.680010 
# 
# 
# High freq. dielectric constant tensor:
#      x y z
#    x 1.814830 0.000000 0.024410 
#    y 0.000000 1.827580 0.000000 
#    z 0.024410 0.000000 1.792490 
# 
# From -- ./inp_files/81205.got.cif
#   From: 2010.06.25/outbox.cif.g09.slc.cpg/sg15_41_cif.got.tgz:81205.got - 2010.06.28 07:06:18.
