data_PCOD8135110
_publ_section_title
;
Structure prediction by ZEFSAII (Michael W. Deem and Ramdas Pophale) SiO2 
 PCOD8135110
Probable space group: C 2/C
;
_chemical_formula_sum "Si O2"
_cell_formula_units_Z 56
_cell_length_a 11.147152
_cell_length_b 26.702365
_cell_length_c 9.536753
_cell_angle_alpha 90.000000
_cell_angle_beta 80.224137
_cell_angle_gamma 90.000000
_cell_volume 2797.446483
_symmetry_space_group_name_H-M "C 2/C"
_symmetry_group_IT_number 15
_symmetry_cell_setting 'monoclinic'
loop_
_space_group_symop_operation_xyz
x,y,z
-x,y,1/2-z
-x,-y,-z
x,-y,1/2+z
1/2+x,1/2+y,z
1/2-x,1/2+y,1/2-z
1/2-x,1/2-y,-z
1/2+x,1/2-y,1/2+z
loop_
_atom_site_type_symbol
_atom_site_label
_atom_site_fract_x
_atom_site_fract_y
_atom_site_fract_z
Si Si1 0.570682 0.285272 0.591699
Si Si2 0.235055 0.918530 0.018957
Si Si3 0.635083 0.979274 0.000203
Si Si4 0.128063 0.400450 0.776385
Si Si5 0.016379 0.126984 0.903025
Si Si6 0.843697 0.316292 0.517902
Si Si7 0.785176 0.602190 0.818015
O O1 0.500000 0.282995 0.750000
O O2 0.504514 0.325607 0.507008
O O3 0.709881 0.299627 0.592104
O O4 0.567218 0.230885 0.518478
O O5 0.089577 0.913089 0.044602
O O6 0.295054 0.894870 0.147524
O O7 0.285963 0.889635 0.873106
O O8 0.267777 0.976729 0.003586
O O9 0.640646 0.946382 0.141996
O O10 0.682874 0.943566 0.865429
O O11 0.500000 0.000000 0.000000
O O12 0.000000 0.421959 0.750000
O O13 0.104084 0.349783 0.866867
O O14 0.000000 0.148631 0.750000
O O15 0.144141 0.098033 0.894782
O O16 0.841080 0.347063 0.371919
#
# Coordination Sequence:
#
# PCOD8135110 Si02
#       7
#     8   8   8   8   8   8   8
#     4  10  19  37  62  83 111 150 196 234 292 347
#     4  11  21  35  61  85 115 154 194 236 292 344
#     4  11  22  39  56  83 118 158 191 235 284 345
#     4  11  22  37  54  85 117 148 194 236 286 335
#     4   9  20  39  59  86 115 151 188 245 294 341
#     4   9  21  38  56  83 116 150 189 242 284 346
#     4   9  21  39  58  82 119 152 194 236 287 344
#
# _framework density 20.018255
#
# number of rings (size 3 to 8) (size 9 to 14) (size 15 to 20)
#    0.000    2.000    1.429    1.714    0.000    2.286 
#    0.000    1.429    0.000    8.571    0.000    0.000 
#    0.000    0.000    0.000    0.000    0.000    0.000 
#
# Total GULP energy -347218.749097 kJ/mol
# GULP energy per Si atom -12400.669611 kJ/mol
# Density = 1.997269 g / cm^3
# Si number density = 20.018255 Si / 1000 Ang^3
#
#
#
# Elastic Constant Matrix: (Units=GPa)
#
#
# Indices 1 2 3 4 5 6 
#
# 1 72.6784 38.2256 26.2860 0.0000 5.5108 0.0000
# 2 38.2256 124.2009 45.2677 0.0000 2.0081 0.0000
# 3 26.2860 45.2677 132.6849 0.0000 -0.3101 0.0000
# 4 0.0000 0.0000 0.0000 18.1449 0.0000 2.6589
# 5 5.5108 2.0081 -0.3101 0.0000 25.5408 0.0000
# 6 0.0000 0.0000 0.0000 2.6589 0.0000 24.0686
#
#
#
# Elastic Compliance Matrix: (Units=1/GPa)
#
#
# Indices 1 2 3 4 5 6 
#
# 1 0.017060 -0.004524 -0.001844 0.000000 -0.003347 0.000000
# 2 -0.004524 0.010409 -0.002655 0.000000 0.000126 0.000000
# 3 -0.001844 -0.002655 0.008809 0.000000 0.000714 0.000000
# 4 0.000000 0.000000 0.000000 0.056019 0.000000 -0.006188
# 5 -0.003347 0.000126 0.000714 0.000000 0.039874 0.000000
# 6 0.000000 0.000000 0.000000 -0.006188 0.000000 0.042232
#
#
# Mechanical properties :
#
#
# Convention : Reuss Voigt Hill
#
# Bulk Modulus (GPa) = 54.84742 61.01364 57.93053
# Shear Modulus (GPa) = 25.18560 28.20318 26.69439
#
# Velocity S-wave (km/s) = 3.55086 3.75757 3.65568
# Velocity P-wave (km/s) = 6.65355 7.02644 6.84254
#
# Compressibility (1/GPa) = 0.01823240
#
# Stress axis : x y z
#
# Youngs Moduli (GPa) = 58.61829 96.06635 113.51583
#
# Poissons Ratio (x) = 0.43463 0.20932
# Poissons Ratio (y) = 0.26520 0.30136
# Poissons Ratio (z) = 0.10809 0.25504
#
# Static dielectric constant tensor:
#      x y z
#    x 3.635910 0.000000 0.097200 
#    y 0.000000 3.658130 0.000000 
#    z 0.097200 0.000000 3.767790 
# 
# 
# High freq. dielectric constant tensor:
#      x y z
#    x 1.772730 0.000000 0.005810 
#    y 0.000000 1.776510 0.000000 
#    z 0.005810 0.000000 1.791030 
# 
# From -- ./inp_files/34191.got.cif
#   From: 2010.06.25/outbox.cif.g09.slc.cpg/sg15_18_cif.got.tgz:34191.got - 2010.06.28 07:06:18.
