data_PCOD8135203
_publ_section_title
;
Structure prediction by ZEFSAII (Michael W. Deem and Ramdas Pophale) SiO2 
 PCOD8135203
Probable space group: C 2/C
;
_chemical_formula_sum "Si O2"
_cell_formula_units_Z 40
_cell_length_a 14.690317
_cell_length_b 14.717029
_cell_length_c 9.331773
_cell_angle_alpha 90.000000
_cell_angle_beta 112.776789
_cell_angle_gamma 90.000000
_cell_volume 1860.183765
_symmetry_space_group_name_H-M "C 2/C"
_symmetry_group_IT_number 15
_symmetry_cell_setting 'monoclinic'
loop_
_space_group_symop_operation_xyz
x,y,z
-x,y,1/2-z
-x,-y,-z
x,-y,1/2+z
1/2+x,1/2+y,z
1/2-x,1/2+y,1/2-z
1/2-x,1/2-y,-z
1/2+x,1/2-y,1/2+z
loop_
_atom_site_type_symbol
_atom_site_label
_atom_site_fract_x
_atom_site_fract_y
_atom_site_fract_z
Si Si1 0.045910 0.293797 0.932521
Si Si2 0.488864 0.632936 0.399403
Si Si3 0.716357 0.055879 0.537246
Si Si4 0.949115 0.574364 0.566341
Si Si5 0.154443 0.017837 0.622693
O O1 0.000000 0.277146 0.750000
O O2 0.068166 0.197618 0.021322
O O3 0.142668 0.357741 0.978054
O O4 0.959985 0.333141 0.984204
O O5 0.500000 0.680193 0.250000
O O6 0.597605 0.603508 0.519499
O O7 0.423031 0.542780 0.335529
O O8 0.764382 0.061185 0.722811
O O9 0.662935 0.957903 0.484451
O O10 0.797780 0.052141 0.462841
O O11 0.000000 0.582600 0.750000
O O12 0.000000 0.500000 0.500000
#
# Coordination Sequence:
#
# PCOD8135203 Si02
#       5
#     8   8   8   8   8
#     4  11  24  41  68  97 135 170 211 270 333 384
#     4  11  25  46  62  91 134 179 210 265 342 387
#     4  11  21  41  67 100 123 168 225 265 312 389
#     4  10  19  37  64  95 135 172 208 264 333 390
#     4  11  24  42  69  91 129 174 224 264 318 398
#
# _framework density 21.503253000000001
#
# number of rings (size 3 to 8) (size 9 to 14) (size 15 to 20)
#    0.000    1.200    2.000    6.600    2.800    0.800 
#    3.600    2.000    0.000    0.000    0.000    0.000 
#    0.000    0.000    0.000    0.000    0.000    0.000 
#
# Total GULP energy -247928.914503 kJ/mol
# GULP energy per Si atom -12396.445725 kJ/mol
# Density = 2.145431 g / cm^3
# Si number density = 21.503253 Si / 1000 Ang^3
#
#
#
# Elastic Constant Matrix: (Units=GPa)
#
#
# Indices 1 2 3 4 5 6 
#
# 1 81.4849 25.8850 35.4218 0.0000 1.2677 0.0000
# 2 25.8850 71.1184 43.5853 0.0000 2.1423 0.0000
# 3 35.4218 43.5853 174.4023 0.0000 -7.0482 0.0000
# 4 0.0000 0.0000 0.0000 24.3836 0.0000 -7.2714
# 5 1.2677 2.1423 -7.0482 0.0000 38.7913 0.0000
# 6 0.0000 0.0000 0.0000 -7.2714 0.0000 36.3901
#
#
#
# Elastic Compliance Matrix: (Units=1/GPa)
#
#
# Indices 1 2 3 4 5 6 
#
# 1 0.014408 -0.004036 -0.001942 0.000000 -0.000601 0.000000
# 2 -0.004036 0.017844 -0.003702 0.000000 -0.001526 0.000000
# 3 -0.001942 -0.003702 0.007116 0.000000 0.001561 0.000000
# 4 0.000000 0.000000 0.000000 0.043610 0.000000 0.008714
# 5 -0.000601 -0.001526 0.001561 0.000000 0.026167 0.000000
# 6 0.000000 0.000000 0.000000 0.008714 0.000000 0.029221
#
#
# Mechanical properties :
#
#
# Convention : Reuss Voigt Hill
#
# Bulk Modulus (GPa) = 49.97479 59.64331 54.80905
# Shear Modulus (GPa) = 30.41462 34.72058 32.56760
#
# Velocity S-wave (km/s) = 3.76496 4.02265 3.89593
# Velocity P-wave (km/s) = 6.49545 7.02657 6.76623
#
# Compressibility (1/GPa) = 0.02001009
#
# Stress axis : x y z
#
# Youngs Moduli (GPa) = 69.40701 56.03990 140.51979
#
# Poissons Ratio (x) = 0.22616 0.27289
# Poissons Ratio (y) = 0.28011 0.52014
# Poissons Ratio (z) = 0.13479 0.20743
#
# Static dielectric constant tensor:
#      x y z
#    x 4.758210 0.000000 -0.059380 
#    y 0.000000 4.060460 0.000000 
#    z -0.059380 0.000000 3.867470 
# 
# 
# High freq. dielectric constant tensor:
#      x y z
#    x 1.843510 0.000000 -0.009740 
#    y 0.000000 1.827960 0.000000 
#    z -0.009740 0.000000 1.860820 
# 
# From -- ./inp_files/37812.got.cif
#   From: 2010.06.25/outbox.cif.g09.slc.cpg/sg15_19_cif.got.tgz:37812.got - 2010.06.28 07:06:18.
