data_PCOD8135731
_publ_section_title
;
Structure prediction by ZEFSAII (Michael W. Deem and Ramdas Pophale) SiO2 
 PCOD8135731
Probable space group: C 2/C
;
_chemical_formula_sum "Si O2"
_cell_formula_units_Z 64
_cell_length_a 30.412365
_cell_length_b 9.150087
_cell_length_c 24.645063
_cell_angle_alpha 90.000000
_cell_angle_beta 152.936462
_cell_angle_gamma 90.000000
_cell_volume 3120.297718
_symmetry_space_group_name_H-M "C 2/C"
_symmetry_group_IT_number 15
_symmetry_cell_setting 'monoclinic'
loop_
_space_group_symop_operation_xyz
x,y,z
-x,y,1/2-z
-x,-y,-z
x,-y,1/2+z
1/2+x,1/2+y,z
1/2-x,1/2+y,1/2-z
1/2-x,1/2-y,-z
1/2+x,1/2-y,1/2+z
loop_
_atom_site_type_symbol
_atom_site_label
_atom_site_fract_x
_atom_site_fract_y
_atom_site_fract_z
Si Si1 0.785773 0.380892 0.467122
Si Si2 0.239976 0.080985 0.640922
Si Si3 0.990025 0.491365 0.679138
Si Si4 0.413022 0.171921 0.504604
Si Si5 0.057300 0.355846 0.077143
Si Si6 0.255259 0.040852 0.817811
Si Si7 0.824287 0.165434 0.356101
Si Si8 0.296598 0.930922 0.598885
O O1 0.900082 0.378359 0.578079
O O2 0.730201 0.456302 0.355065
O O3 0.753526 0.215693 0.436698
O O4 0.766969 0.466288 0.503539
O O5 0.172753 0.219918 0.574268
O O6 0.338171 0.100585 0.782973
O O7 0.179754 0.940707 0.596850
O O8 0.261872 0.059558 0.601041
O O9 0.973579 0.634097 0.624697
O O10 0.000000 0.556526 0.750000
O O11 0.087896 0.408293 0.768962
O O12 0.489541 0.233113 0.545042
O O13 0.364565 0.020688 0.429409
O O14 0.073745 0.248983 0.043139
O O15 0.000000 0.500000 0.000000
O O16 0.246279 0.203343 0.781504
O O17 0.188020 0.926498 0.712828
#
# Coordination Sequence:
#
# PCOD8135731 Si02
#       8
#     8   8   8   8   8   8   8   8
#     4   9  20  36  65  96 129 166 225 273 320 393
#     4  12  24  41  66 100 131 167 226 273 329 399
#     4   9  19  37  64  95 124 168 218 262 332 400
#     4  11  22  41  63  91 129 171 218 271 320 397
#     4  12  24  41  66  91 130 179 214 260 342 392
#     4  11  20  38  60  94 128 165 212 268 325 379
#     4  12  22  38  64  93 132 166 212 272 321 389
#     4  10  19  39  65  94 126 177 217 269 334 392
#
# _framework density 20.510864000000002
#
# number of rings (size 3 to 8) (size 9 to 14) (size 15 to 20)
#    0.000    1.250    6.250    0.000    0.000    0.500 
#    0.000    8.125    0.000    2.250    0.000    0.000 
#    0.000    0.000    0.000    0.000    0.000    0.000 
#
# Total GULP energy -396435.724994 kJ/mol
# GULP energy per Si atom -12388.616406 kJ/mol
# Density = 2.046418 g / cm^3
# Si number density = 20.510864 Si / 1000 Ang^3
#
#
#
# Elastic Constant Matrix: (Units=GPa)
#
#
# Indices 1 2 3 4 5 6 
#
# 1 136.5824 39.3381 41.7542 0.0000 4.2054 0.0000
# 2 39.3381 84.5219 30.9877 0.0000 -0.3522 0.0000
# 3 41.7542 30.9877 67.4749 0.0000 -1.8465 0.0000
# 4 0.0000 0.0000 0.0000 26.8123 0.0000 1.8360
# 5 4.2054 -0.3522 -1.8465 0.0000 32.1628 0.0000
# 6 0.0000 0.0000 0.0000 1.8360 0.0000 41.1995
#
#
#
# Elastic Compliance Matrix: (Units=1/GPa)
#
#
# Indices 1 2 3 4 5 6 
#
# 1 0.009605 -0.002744 -0.004726 0.000000 -0.001557 0.000000
# 2 -0.002744 0.015012 -0.005190 0.000000 0.000225 0.000000
# 3 -0.004726 -0.005190 0.020175 0.000000 0.001719 0.000000
# 4 0.000000 0.000000 0.000000 0.037411 0.000000 -0.001667
# 5 -0.001557 0.000225 0.001719 0.000000 0.031397 0.000000
# 6 0.000000 0.000000 0.000000 -0.001667 0.000000 0.024346
#
#
# Mechanical properties :
#
#
# Convention : Reuss Voigt Hill
#
# Bulk Modulus (GPa) = 51.35556 56.97105 54.16330
# Shear Modulus (GPa) = 29.45399 31.80152 30.62775
#
# Velocity S-wave (km/s) = 3.79360 3.94187 3.86845
# Velocity P-wave (km/s) = 6.65440 6.96808 6.81305
#
# Compressibility (1/GPa) = 0.01947209
#
# Stress axis : x y z
#
# Youngs Moduli (GPa) = 104.11688 66.61283 49.56549
#
# Poissons Ratio (x) = 0.18279 0.23424
# Poissons Ratio (y) = 0.28570 0.25725
# Poissons Ratio (z) = 0.49204 0.34573
#
# Static dielectric constant tensor:
#      x y z
#    x 4.293200 0.000000 -0.125340 
#    y 0.000000 3.588360 0.000000 
#    z -0.125340 0.000000 3.728800 
# 
# 
# High freq. dielectric constant tensor:
#      x y z
#    x 1.829080 0.000000 -0.009340 
#    y 0.000000 1.781970 0.000000 
#    z -0.009340 0.000000 1.777490 
# 
# From -- ./inp_files/284454.got.cif
#   From: 2010.06.25/outbox.cif.g09.slc.cpg/sg15_143_cif.got.tgz:284454.got - 2010.06.28 07:06:18.
