data_PCOD8135046
_publ_section_title
;
Structure prediction by ZEFSAII (Michael W. Deem and Ramdas Pophale) SiO2 
 PCOD8135046
Probable space group: C 2/C
;
_chemical_formula_sum "Si O2"
_cell_formula_units_Z 64
_cell_length_a 17.622775
_cell_length_b 19.059797
_cell_length_c 20.672827
_cell_angle_alpha 90.000000
_cell_angle_beta 152.327825
_cell_angle_gamma 90.000000
_cell_volume 3224.748727
_symmetry_space_group_name_H-M "C 2/C"
_symmetry_group_IT_number 15
_symmetry_cell_setting 'monoclinic'
loop_
_space_group_symop_operation_xyz
x,y,z
-x,y,1/2-z
-x,-y,-z
x,-y,1/2+z
1/2+x,1/2+y,z
1/2-x,1/2+y,1/2-z
1/2-x,1/2-y,-z
1/2+x,1/2-y,1/2+z
loop_
_atom_site_type_symbol
_atom_site_label
_atom_site_fract_x
_atom_site_fract_y
_atom_site_fract_z
Si Si1 0.190776 0.518610 0.524796
Si Si2 0.907984 0.399304 0.880923
Si Si3 0.794469 0.787252 0.965353
Si Si4 0.843342 0.743982 0.269046
Si Si5 0.145705 0.635549 0.668707
Si Si6 0.938626 0.569401 0.769099
Si Si7 0.653424 0.487500 0.228410
Si Si8 0.792779 0.048134 0.463673
O O1 0.323393 0.496683 0.678246
O O2 0.289271 0.547458 0.538456
O O3 0.062410 0.574801 0.456201
O O4 0.094370 0.450153 0.429539
O O5 0.828858 0.333900 0.785600
O O6 0.763284 0.457074 0.771340
O O7 0.971905 0.381731 0.002091
O O8 0.682134 0.749963 0.827213
O O9 0.750000 0.750000 0.000000
O O10 0.761643 0.869741 0.929181
O O11 0.980046 0.775722 0.084610
O O12 0.699187 0.784720 0.197754
O O13 0.154703 0.622045 0.753271
O O14 0.285310 0.589811 0.740800
O O15 0.844432 0.498078 0.676240
O O16 0.000000 0.608727 0.750000
O O17 0.461983 0.486697 0.066389
#
# Coordination Sequence:
#
# PCOD8135046 Si02
#       8
#     8   8   8   8   8   8   8   8
#     4  10  19  37  60  86 123 167 202 244 315 384
#     4  11  21  40  66  91 122 173 212 259 317 385
#     4  12  26  41  58  89 138 179 205 247 305 384
#     4  12  25  41  62  90 125 174 216 250 316 378
#     4  11  21  41  63  88 122 164 216 259 319 387
#     4  10  21  39  62  89 119 161 205 267 327 374
#     4  11  21  36  65  90 118 164 214 263 311 363
#     4  11  24  36  59  97 129 156 214 270 304 365
#
# _framework density 19.846506999999999
#
# number of rings (size 3 to 8) (size 9 to 14) (size 15 to 20)
#    0.000    1.000    5.000    3.000    1.750    4.500 
#    0.000    0.000    0.000    2.250    0.000    0.000 
#    0.000    0.000    0.000    0.000    0.000    0.000 
#
# Total GULP energy -396576.589501 kJ/mol
# GULP energy per Si atom -12393.018422 kJ/mol
# Density = 1.980134 g / cm^3
# Si number density = 19.846507 Si / 1000 Ang^3
#
#
#
# Elastic Constant Matrix: (Units=GPa)
#
#
# Indices 1 2 3 4 5 6 
#
# 1 89.4165 28.9986 25.1168 -0.0094 -13.1998 -0.0044
# 2 28.9986 67.9513 5.8105 -0.0094 -1.9180 -0.0064
# 3 25.1168 5.8105 60.3897 -0.0235 -5.3105 0.0002
# 4 -0.0094 -0.0094 -0.0235 26.3256 0.0081 -0.2266
# 5 -13.1998 -1.9180 -5.3105 0.0081 37.1625 0.0068
# 6 -0.0044 -0.0064 0.0002 -0.2266 0.0068 26.2866
#
#
#
# Elastic Compliance Matrix: (Units=1/GPa)
#
#
# Indices 1 2 3 4 5 6 
#
# 1 0.015264 -0.005930 -0.005396 -0.000003 0.004344 0.000000
# 2 -0.005930 0.017154 0.000717 0.000005 -0.001118 0.000004
# 3 -0.005396 0.000717 0.018805 0.000015 0.000808 -0.000001
# 4 -0.000003 0.000005 0.000015 0.037989 -0.000007 0.000327
# 5 0.004344 -0.001118 0.000808 -0.000007 0.028510 -0.000007
# 6 0.000000 0.000004 -0.000001 0.000327 -0.000007 0.038045
#
#
# Mechanical properties :
#
#
# Convention : Reuss Voigt Hill
#
# Bulk Modulus (GPa) = 33.32582 37.51212 35.41897
# Shear Modulus (GPa) = 26.74009 28.47704 27.60857
#
# Velocity S-wave (km/s) = 3.67460 3.79207 3.73380
# Velocity P-wave (km/s) = 5.90185 6.17375 6.03933
#
# Compressibility (1/GPa) = 0.03000677
#
# Stress axis : x y z
#
# Youngs Moduli (GPa) = 65.51487 58.29504 53.17654
#
# Poissons Ratio (x) = 0.34568 0.28693
# Poissons Ratio (y) = 0.38849 -0.03815
# Poissons Ratio (z) = 0.35350 -0.04182
#
# Static dielectric constant tensor:
#      x y z
#    x 3.866570 -0.000040 -0.265050 
#    y -0.000040 3.395810 -0.000130 
#    z -0.265050 -0.000130 3.766950 
# 
# 
# High freq. dielectric constant tensor:
#      x y z
#    x 1.774720 0.000000 -0.011960 
#    y 0.000000 1.748730 -0.000010 
#    z -0.011960 -0.000010 1.780780 
# 
# From -- ./inp_files/249662.got.cif
#   From: 2010.06.25/outbox.cif.g09.slc.cpg/sg15_125_cif.got.tgz:249662.got - 2010.06.28 07:06:18.
