data_PCOD8135155
_publ_section_title
;
Structure prediction by ZEFSAII (Michael W. Deem and Ramdas Pophale) SiO2 
 PCOD8135155
Probable space group: C 2/C
;
_chemical_formula_sum "Si O2"
_cell_formula_units_Z 56
_cell_length_a 11.322731
_cell_length_b 14.220691
_cell_length_c 18.105537
_cell_angle_alpha 90.000000
_cell_angle_beta 76.734945
_cell_angle_gamma 90.000000
_cell_volume 2837.517189
_symmetry_space_group_name_H-M "C 2/C"
_symmetry_group_IT_number 15
_symmetry_cell_setting 'monoclinic'
loop_
_space_group_symop_operation_xyz
x,y,z
-x,y,1/2-z
-x,-y,-z
x,-y,1/2+z
1/2+x,1/2+y,z
1/2-x,1/2+y,1/2-z
1/2-x,1/2-y,-z
1/2+x,1/2-y,1/2+z
loop_
_atom_site_type_symbol
_atom_site_label
_atom_site_fract_x
_atom_site_fract_y
_atom_site_fract_z
Si Si1 0.987589 0.353073 0.535412
Si Si2 0.676512 0.023922 0.927635
Si Si3 0.662720 0.402335 0.350341
Si Si4 0.632745 0.007581 0.265603
Si Si5 0.362274 0.316058 0.995119
Si Si6 0.583090 0.791337 0.802660
Si Si7 0.056840 0.991784 0.573590
O O1 0.868899 0.420091 0.540386
O O2 0.973288 0.251462 0.500184
O O3 0.003047 0.333517 0.620377
O O4 0.106664 0.398647 0.485107
O O5 0.647818 0.038237 0.844720
O O6 0.816065 0.044124 0.928372
O O7 0.774537 0.459396 0.303126
O O8 0.677429 0.389631 0.435715
O O9 0.662884 0.297111 0.316399
O O10 0.539246 0.463741 0.354511
O O11 0.500000 0.990466 0.250000
O O12 0.663697 0.119497 0.264068
O O13 0.250000 0.250000 0.000000
O O14 0.410191 0.380216 0.919564
O O15 0.500000 0.751695 0.750000
O O16 0.000000 0.000000 0.500000
#
# Coordination Sequence:
#
# PCOD8135155 Si02
#       7
#     8   8   8   8   8   8   8
#     4   9  19  36  61  90 119 156 200 254 294 358
#     4  10  20  36  62  89 119 158 208 248 299 357
#     4  10  23  40  60  85 127 158 198 257 307 368
#     4  10  23  41  61  87 117 163 211 249 310 367
#     4  10  19  37  63  90 123 157 203 251 315 361
#     4   9  20  39  60  86 119 163 197 242 316 361
#     4  10  22  37  58  90 118 158 197 245 315 360
#
# _framework density 19.735562999999999
#
# number of rings (size 3 to 8) (size 9 to 14) (size 15 to 20)
#    0.000    2.286    1.429    0.000    4.000    5.714 
#    2.571    6.429    0.000    0.000    0.000    0.000 
#    0.000    0.000    0.000    0.000    0.000    0.000 
#
# Total GULP energy -346874.658879 kJ/mol
# GULP energy per Si atom -12388.380674 kJ/mol
# Density = 1.969064 g / cm^3
# Si number density = 19.735563 Si / 1000 Ang^3
#
#
#
# Elastic Constant Matrix: (Units=GPa)
#
#
# Indices 1 2 3 4 5 6 
#
# 1 135.4116 51.1173 51.5463 0.0000 -13.5174 0.0000
# 2 51.1173 128.6985 60.1793 0.0000 -24.8246 0.0000
# 3 51.5463 60.1793 67.9846 0.0000 -10.6759 0.0000
# 4 0.0000 0.0000 0.0000 33.2594 0.0000 -8.6353
# 5 -13.5174 -24.8246 -10.6759 0.0000 35.5966 0.0000
# 6 0.0000 0.0000 0.0000 -8.6353 0.0000 25.3273
#
#
#
# Elastic Compliance Matrix: (Units=1/GPa)
#
#
# Indices 1 2 3 4 5 6 
#
# 1 0.010490 -0.000464 -0.007312 0.000000 0.001467 0.000000
# 2 -0.000464 0.014628 -0.011567 0.000000 0.006556 0.000000
# 3 -0.007312 -0.011567 0.030212 0.000000 -0.001782 0.000000
# 4 0.000000 0.000000 0.000000 0.032987 0.000000 0.011247
# 5 0.001467 0.006556 -0.001782 0.000000 0.032687 0.000000
# 6 0.000000 0.000000 0.000000 0.011247 0.000000 0.043318
#
#
# Mechanical properties :
#
#
# Convention : Reuss Voigt Hill
#
# Bulk Modulus (GPa) = 60.08408 73.08673 66.58540
# Shear Modulus (GPa) = 23.97442 30.12012 27.04727
#
# Velocity S-wave (km/s) = 3.48915 3.91088 3.70602
# Velocity P-wave (km/s) = 6.83688 7.58332 7.21975
#
# Compressibility (1/GPa) = 0.01664334
#
# Stress axis : x y z
#
# Youngs Moduli (GPa) = 95.32774 68.36365 33.09921
#
# Poissons Ratio (x) = 0.03175 0.24203
# Poissons Ratio (y) = 0.04428 0.38285
# Poissons Ratio (z) = 0.69706 0.79074
#
# Static dielectric constant tensor:
#      x y z
#    x 3.536460 0.000000 0.034150 
#    y 0.000000 4.702240 0.000000 
#    z 0.034150 0.000000 3.748710 
# 
# 
# High freq. dielectric constant tensor:
#      x y z
#    x 1.758450 0.000000 0.012490 
#    y 0.000000 1.780300 0.000000 
#    z 0.012490 0.000000 1.752590 
# 
# From -- ./inp_files/197779.got.cif
#   From: 2010.06.25/outbox.cif.g09.slc.cpg/sg15_99_cif.got.tgz:197779.got - 2010.06.28 07:06:18.
