data_PCOD8135788
_publ_section_title
;
Structure prediction by ZEFSAII (Michael W. Deem and Ramdas Pophale) SiO2 
 PCOD8135788
Probable space group: C 2/C
;
_chemical_formula_sum "Si O2"
_cell_formula_units_Z 64
_cell_length_a 14.760584
_cell_length_b 8.972661
_cell_length_c 25.291649
_cell_angle_alpha 90.000000
_cell_angle_beta 68.854445
_cell_angle_gamma 90.000000
_cell_volume 3124.126154
_symmetry_space_group_name_H-M "C 2/C"
_symmetry_group_IT_number 15
_symmetry_cell_setting 'monoclinic'
loop_
_space_group_symop_operation_xyz
x,y,z
-x,y,1/2-z
-x,-y,-z
x,-y,1/2+z
1/2+x,1/2+y,z
1/2-x,1/2+y,1/2-z
1/2-x,1/2-y,-z
1/2+x,1/2-y,1/2+z
loop_
_atom_site_type_symbol
_atom_site_label
_atom_site_fract_x
_atom_site_fract_y
_atom_site_fract_z
Si Si1 0.673111 0.112356 0.252611
Si Si2 0.693196 0.508561 0.454149
Si Si3 0.125202 0.316359 0.107436
Si Si4 0.879330 0.020941 0.918268
Si Si5 0.000287 0.581426 0.364826
Si Si6 0.307871 0.230414 0.366826
Si Si7 0.423506 0.657211 0.597926
Si Si8 0.224655 0.313512 0.194334
O O1 0.566149 0.123845 0.300474
O O2 0.683102 0.214453 0.198185
O O3 0.756101 0.163818 0.276523
O O4 0.686127 0.938593 0.241546
O O5 0.787069 0.402936 0.439227
O O6 0.666971 0.575880 0.516705
O O7 0.711571 0.647713 0.409880
O O8 0.599437 0.408402 0.455375
O O9 0.120493 0.156224 0.082058
O O10 0.145108 0.290238 0.165557
O O11 0.021555 0.404725 0.121547
O O12 0.815755 0.096413 0.884031
O O13 0.990762 0.071081 0.890257
O O14 0.048870 0.664662 0.405916
O O15 0.894352 0.644217 0.376804
O O16 0.324637 0.623927 0.649895
#
# Coordination Sequence:
#
# PCOD8135788 Si02
#       8
#     8   8   8   8   8   8   8   8
#     4  11  20  37  60  81 112 152 186 227 290 339
#     4  10  19  40  59  79 115 153 187 232 287 336
#     4  10  21  39  55  86 117 141 189 241 278 341
#     4  11  22  34  60  87 112 147 189 242 281 326
#     4   9  19  36  60  78 110 155 184 225 286 345
#     4  10  20  36  60  82 116 145 197 226 282 345
#     4   9  19  38  55  82 109 147 190 230 273 340
#     4  10  22  36  58  80 115 146 184 227 284 343
#
# _framework density 20.485728000000002
#
# number of rings (size 3 to 8) (size 9 to 14) (size 15 to 20)
#    0.000    2.000    3.750    1.500    1.750    1.000 
#    0.000    0.625    2.750    0.000    0.000    0.000 
#    0.000    0.000    0.000    0.000    0.000    0.000 
#
# Total GULP energy -396523.300878 kJ/mol
# GULP energy per Si atom -12391.353152 kJ/mol
# Density = 2.043910 g / cm^3
# Si number density = 20.485728 Si / 1000 Ang^3
#
#
#
# Elastic Constant Matrix: (Units=GPa)
#
#
# Indices 1 2 3 4 5 6 
#
# 1 70.0972 28.9239 17.0023 0.0000 -0.8204 0.0000
# 2 28.9239 74.0564 17.9154 0.0000 -2.6735 0.0000
# 3 17.0023 17.9154 65.5782 0.0000 1.8466 0.0000
# 4 0.0000 0.0000 0.0000 26.1001 0.0000 3.3332
# 5 -0.8204 -2.6735 1.8466 0.0000 11.8336 0.0000
# 6 0.0000 0.0000 0.0000 3.3332 0.0000 34.3075
#
#
#
# Elastic Compliance Matrix: (Units=1/GPa)
#
#
# Indices 1 2 3 4 5 6 
#
# 1 0.017494 -0.006128 -0.002869 0.000000 0.000276 0.000000
# 2 -0.006128 0.016787 -0.003106 0.000000 0.003852 0.000000
# 3 -0.002869 -0.003106 0.016941 0.000000 -0.003544 0.000000
# 4 0.000000 0.000000 0.000000 0.038795 0.000000 -0.003769
# 5 0.000276 0.003852 -0.003544 0.000000 0.085947 0.000000
# 6 0.000000 0.000000 0.000000 -0.003769 0.000000 0.029514
#
#
# Mechanical properties :
#
#
# Convention : Reuss Voigt Hill
#
# Bulk Modulus (GPa) = 37.01567 37.49057 37.25312
# Shear Modulus (GPa) = 20.94760 24.17426 22.56093
#
# Velocity S-wave (km/s) = 3.20120 3.43892 3.32218
# Velocity P-wave (km/s) = 5.63665 5.84027 5.73936
#
# Compressibility (1/GPa) = 0.02701558
#
# Stress axis : x y z
#
# Youngs Moduli (GPa) = 57.16314 59.56933 59.02811
#
# Poissons Ratio (x) = 0.36507 0.16936
# Poissons Ratio (y) = 0.35032 0.18332
# Poissons Ratio (z) = 0.16401 0.18500
#
# Static dielectric constant tensor:
#      x y z
#    x 3.845120 0.000000 0.035920 
#    y 0.000000 3.942600 0.000000 
#    z 0.035920 0.000000 3.634970 
# 
# 
# High freq. dielectric constant tensor:
#      x y z
#    x 1.787230 0.000000 -0.005980 
#    y 0.000000 1.796860 0.000000 
#    z -0.005980 0.000000 1.793340 
# 
# From -- ./inp_files/295125.got.cif
#   From: 2010.06.25/outbox.cif.g09.slc.cpg/sg15_148_cif.got.tgz:295125.got - 2010.06.28 07:06:18.
