data_PCOD8135904
_publ_section_title
;
Structure prediction by ZEFSAII (Michael W. Deem and Ramdas Pophale) SiO2 
 PCOD8135904
Probable space group: C 2/C
;
_chemical_formula_sum "Si O2"
_cell_formula_units_Z 56
_cell_length_a 20.379193
_cell_length_b 9.518287
_cell_length_c 14.419130
_cell_angle_alpha 90.000000
_cell_angle_beta 97.231417
_cell_angle_gamma 90.000000
_cell_volume 2774.703427
_symmetry_space_group_name_H-M "C 2/C"
_symmetry_group_IT_number 15
_symmetry_cell_setting 'monoclinic'
loop_
_space_group_symop_operation_xyz
x,y,z
-x,y,1/2-z
-x,-y,-z
x,-y,1/2+z
1/2+x,1/2+y,z
1/2-x,1/2+y,1/2-z
1/2-x,1/2-y,-z
1/2+x,1/2-y,1/2+z
loop_
_atom_site_type_symbol
_atom_site_label
_atom_site_fract_x
_atom_site_fract_y
_atom_site_fract_z
Si Si1 0.209509 0.912796 0.667891
Si Si2 0.180411 0.636041 0.565279
Si Si3 0.312850 0.335751 0.473524
Si Si4 0.843632 0.319240 0.645712
Si Si5 0.472688 0.009085 0.149081
Si Si6 0.919566 0.605967 0.459489
Si Si7 0.818814 0.014611 0.645150
O O1 0.169966 0.788052 0.609752
O O2 0.285799 0.870506 0.705090
O O3 0.208871 0.058469 0.611020
O O4 0.172337 0.929528 0.758591
O O5 0.193258 0.657943 0.458971
O O6 0.114396 0.544600 0.566109
O O7 0.241995 0.553973 0.618762
O O8 0.250000 0.250000 0.500000
O O9 0.368115 0.232605 0.441350
O O10 0.344790 0.420334 0.564963
O O11 0.909307 0.405587 0.672161
O O12 0.862132 0.155904 0.660509
O O13 0.500000 0.940999 0.250000
O O14 0.524025 0.118057 0.109341
O O15 0.451746 0.892658 0.068951
#
# Coordination Sequence:
#
# PCOD8135904 Si02
#       7
#     8   8   8   8   8   8   8
#     4  11  23  35  62  94 122 160 190 246 321 359
#     4  10  19  41  59  82 128 159 190 244 308 363
#     4  12  22  38  59  97 127 149 196 261 302 363
#     4  10  20  42  59  84 123 168 195 242 304 365
#     4  10  23  40  63  84 116 168 210 242 284 363
#     4  10  23  40  64  91 118 157 208 250 298 346
#     4  11  22  34  60  94 125 153 196 245 308 363
#
# _framework density 20.182337
#
# number of rings (size 3 to 8) (size 9 to 14) (size 15 to 20)
#    0.000    1.429    4.286    1.714    8.000    1.143 
#    0.000    0.714    0.000    0.857    0.000    0.000 
#    0.000    0.000    0.000    0.000    0.000    0.000 
#
# Total GULP energy -347176.908901 kJ/mol
# GULP energy per Si atom -12399.175318 kJ/mol
# Density = 2.013640 g / cm^3
# Si number density = 20.182337 Si / 1000 Ang^3
#
#
#
# Elastic Constant Matrix: (Units=GPa)
#
#
# Indices 1 2 3 4 5 6 
#
# 1 61.1043 20.7804 3.3922 0.0000 0.5276 0.0000
# 2 20.7804 90.6003 10.3189 0.0000 0.4807 0.0000
# 3 3.3922 10.3189 70.0671 0.0000 4.8151 0.0000
# 4 0.0000 0.0000 0.0000 24.4830 0.0000 -7.1214
# 5 0.5276 0.4807 4.8151 0.0000 23.1765 0.0000
# 6 0.0000 0.0000 0.0000 -7.1214 0.0000 17.4051
#
#
#
# Elastic Compliance Matrix: (Units=1/GPa)
#
#
# Indices 1 2 3 4 5 6 
#
# 1 0.017756 -0.004043 -0.000246 0.000000 -0.000269 0.000000
# 2 -0.004043 0.012147 -0.001605 0.000000 0.000174 0.000000
# 3 -0.000246 -0.001605 0.014728 0.000000 -0.003021 0.000000
# 4 0.000000 0.000000 0.000000 0.046362 0.000000 0.018970
# 5 -0.000269 0.000174 -0.003021 0.000000 0.043777 0.000000
# 6 0.000000 0.000000 0.000000 0.018970 0.000000 0.065216
#
#
# Mechanical properties :
#
#
# Convention : Reuss Voigt Hill
#
# Bulk Modulus (GPa) = 30.44779 32.30607 31.37693
# Shear Modulus (GPa) = 22.44944 25.49825 23.97385
#
# Velocity S-wave (km/s) = 3.33878 3.55828 3.45028
# Velocity P-wave (km/s) = 5.47562 5.73792 5.60830
#
# Compressibility (1/GPa) = 0.03284310
#
# Stress axis : x y z
#
# Youngs Moduli (GPa) = 56.31755 82.32647 67.89825
#
# Poissons Ratio (x) = 0.33287 0.01668
# Poissons Ratio (y) = 0.22771 0.10898
# Poissons Ratio (z) = 0.01384 0.13214
#
# Static dielectric constant tensor:
#      x y z
#    x 3.478330 0.000000 -0.024610 
#    y 0.000000 3.750640 0.000000 
#    z -0.024610 0.000000 3.759270 
# 
# 
# High freq. dielectric constant tensor:
#      x y z
#    x 1.763470 0.000000 -0.002930 
#    y 0.000000 1.779760 0.000000 
#    z -0.002930 0.000000 1.798260 
# 
# From -- ./inp_files/166661.got.cif
#   From: 2010.06.25/outbox.cif.g09.slc.cpg/sg15_84_cif.got.tgz:166661.got - 2010.06.28 07:06:18.
