data_PCOD8135496
_publ_section_title
;
Structure prediction by ZEFSAII (Michael W. Deem and Ramdas Pophale) SiO2 
 PCOD8135496
Probable space group: C 2/C
;
_chemical_formula_sum "Si O2"
_cell_formula_units_Z 48
_cell_length_a 8.706413
_cell_length_b 29.832068
_cell_length_c 15.339213
_cell_angle_alpha 90.000000
_cell_angle_beta 143.578911
_cell_angle_gamma 90.000000
_cell_volume 2365.395693
_symmetry_space_group_name_H-M "C 2/C"
_symmetry_group_IT_number 15
_symmetry_cell_setting 'monoclinic'
loop_
_space_group_symop_operation_xyz
x,y,z
-x,y,1/2-z
-x,-y,-z
x,-y,1/2+z
1/2+x,1/2+y,z
1/2-x,1/2+y,1/2-z
1/2-x,1/2-y,-z
1/2+x,1/2-y,1/2+z
loop_
_atom_site_type_symbol
_atom_site_label
_atom_site_fract_x
_atom_site_fract_y
_atom_site_fract_z
Si Si1 0.722818 0.701299 0.581711
Si Si2 0.087601 0.619431 0.146296
Si Si3 0.593603 0.620243 0.032701
Si Si4 0.778525 0.036663 0.915640
Si Si5 0.727129 0.964868 0.592905
Si Si6 0.784130 0.699166 0.414547
O O1 0.530735 0.668355 0.545448
O O2 0.766158 0.681438 0.504717
O O3 0.590542 0.750766 0.525198
O O4 0.000000 0.701944 0.750000
O O5 0.296591 0.621654 0.318895
O O6 0.168734 0.579875 0.119552
O O7 0.064135 0.665306 0.079763
O O8 0.810140 0.609468 0.060455
O O9 0.374094 0.582874 0.916827
O O10 0.500000 0.021110 0.750000
O O11 0.746945 0.047326 0.001836
O O12 0.000000 0.000000 0.000000
O O13 0.000000 0.985744 0.750000
O O14 0.500000 0.000000 0.500000
O O15 0.500000 0.704332 0.250000
#
# Coordination Sequence:
#
# PCOD8135496 Si02
#       6
#     8   8   8   8   8   8
#     4  10  21  37  63  93 125 161 208 265 317 370
#     4  11  23  40  66  92 126 170 213 258 312 386
#     4  11  23  41  63  94 128 167 212 259 319 373
#     4  12  26  43  67  96 132 166 209 267 321 377
#     4  12  24  43  67  95 125 166 213 260 314 378
#     4  10  19  38  64  91 122 166 214 256 312 380
#
# _framework density 20.292587999999999
#
# number of rings (size 3 to 8) (size 9 to 14) (size 15 to 20)
#    0.000    1.000    3.333    4.000    2.333    0.667 
#    0.000    2.500    0.000    0.000    0.000    0.000 
#    0.000    0.000    0.000    0.000    0.000    0.000 
#
# Total GULP energy -297572.813001 kJ/mol
# GULP energy per Si atom -12398.867208 kJ/mol
# Density = 2.024640 g / cm^3
# Si number density = 20.292588 Si / 1000 Ang^3
#
#
#
# Elastic Constant Matrix: (Units=GPa)
#
#
# Indices 1 2 3 4 5 6 
#
# 1 117.8207 57.7443 47.9208 0.0000 2.0144 0.0000
# 2 57.7443 118.8676 29.4285 0.0000 14.7770 0.0000
# 3 47.9208 29.4285 105.3100 0.0000 9.1713 0.0000
# 4 0.0000 0.0000 0.0000 32.1721 0.0000 10.0014
# 5 2.0144 14.7770 9.1713 0.0000 39.0079 0.0000
# 6 0.0000 0.0000 0.0000 10.0014 0.0000 -17.6740
#
#
#
# Elastic Compliance Matrix: (Units=1/GPa)
#
#
# Indices 1 2 3 4 5 6 
#
# 1 0.013006 -0.005489 -0.004602 0.000000 0.002489 0.000000
# 2 -0.005489 0.011685 -0.000415 0.000000 -0.004045 0.000000
# 3 -0.004602 -0.000415 0.011915 0.000000 -0.002406 0.000000
# 4 0.000000 0.000000 0.000000 0.026433 0.000000 0.014958
# 5 0.002489 -0.004045 -0.002406 0.000000 0.027606 0.000000
# 6 0.000000 0.000000 0.000000 0.014958 0.000000 -0.048116
#
#
# Mechanical properties :
#
#
# Convention : Reuss Voigt Hill
#
# Bulk Modulus (GPa) = 64.12134 68.02064 66.07099
# Shear Modulus (GPa) = 72.73941 24.49487 48.61714
#
# Velocity S-wave (km/s) = 5.99359 3.47808 4.90001
# Velocity P-wave (km/s) = 8.91989 7.05139 8.04011
#
# Compressibility (1/GPa) = 0.01559543
#
# Stress axis : x y z
#
# Youngs Moduli (GPa) = 76.88471 85.58157 83.92539
#
# Poissons Ratio (x) = 0.46973 0.38619
# Poissons Ratio (y) = 0.42199 0.03486
# Poissons Ratio (z) = 0.35379 0.03555
#
# Static dielectric constant tensor:
#      x y z
#    x 3.659140 0.000000 0.020900 
#    y 0.000000 4.036040 0.000000 
#    z 0.020900 0.000000 3.860740 
# 
# 
# High freq. dielectric constant tensor:
#      x y z
#    x 1.793520 0.000000 -0.005930 
#    y 0.000000 1.803690 0.000000 
#    z -0.005930 0.000000 1.792760 
# 
# From -- ./inp_files/139025.got.cif
#   From: 2010.06.25/outbox.cif.g09.slc.cpg/sg15_70_cif.got.tgz:139025.got - 2010.06.28 07:06:18.
