data_PCOD8135479
_publ_section_title
;
Structure prediction by ZEFSAII (Michael W. Deem and Ramdas Pophale) SiO2 
 PCOD8135479
Probable space group: C 2/C
;
_chemical_formula_sum "Si O2"
_cell_formula_units_Z 64
_cell_length_a 14.675243
_cell_length_b 11.705700
_cell_length_c 17.471298
_cell_angle_alpha 90.000000
_cell_angle_beta 79.438098
_cell_angle_gamma 90.000000
_cell_volume 2950.439814
_symmetry_space_group_name_H-M "C 2/C"
_symmetry_group_IT_number 15
_symmetry_cell_setting 'monoclinic'
loop_
_space_group_symop_operation_xyz
x,y,z
-x,y,1/2-z
-x,-y,-z
x,-y,1/2+z
1/2+x,1/2+y,z
1/2-x,1/2+y,1/2-z
1/2-x,1/2-y,-z
1/2+x,1/2-y,1/2+z
loop_
_atom_site_type_symbol
_atom_site_label
_atom_site_fract_x
_atom_site_fract_y
_atom_site_fract_z
Si Si1 0.296104 0.412949 0.839678
Si Si2 0.794603 0.977679 0.667901
Si Si3 0.322273 0.773151 0.138641
Si Si4 0.376450 0.639714 0.835563
Si Si5 0.572757 0.326925 0.343308
Si Si6 0.892809 0.608156 0.069873
Si Si7 0.500936 0.897907 0.096490
Si Si8 0.853991 0.334644 0.311329
O O1 0.267205 0.433649 0.756320
O O2 0.380442 0.501517 0.840567
O O3 0.208615 0.448077 0.906093
O O4 0.327322 0.285067 0.855205
O O5 0.812129 0.860601 0.619708
O O6 0.889753 0.047524 0.641692
O O7 0.711537 0.060024 0.652153
O O8 0.225764 0.823783 0.121918
O O9 0.413189 0.821279 0.081895
O O10 0.344488 0.813346 0.222324
O O11 0.394174 0.692051 0.748874
O O12 0.461957 0.681885 0.873937
O O13 0.618420 0.230258 0.387604
O O14 0.969474 0.530390 0.101202
O O15 0.917356 0.622516 0.977306
O O16 0.542570 0.865591 0.173739
#
# Coordination Sequence:
#
# PCOD8135479 Si02
#       8
#     8   8   8   8   8   8   8   8
#     4  10  19  38  64  85 124 156 191 254 305 354
#     4  10  20  36  63  91 124 144 200 255 302 354
#     4  11  21  39  58  93 125 150 198 260 296 357
#     4  10  20  36  63  92 116 154 199 249 316 351
#     4  10  20  38  61  90 117 157 197 250 309 362
#     4  11  22  45  60  83 128 164 207 251 291 368
#     4  11  26  39  61  88 123 170 205 243 304 358
#     4  11  21  39  62  93 118 159 200 254 305 358
#
# _framework density 21.691680999999999
#
# number of rings (size 3 to 8) (size 9 to 14) (size 15 to 20)
#    0.000    1.500    5.000    1.125    3.500    0.500 
#    2.250    2.500    0.000    0.000    0.000    0.000 
#    0.000    0.000    0.000    0.000    0.000    0.000 
#
# Total GULP energy -396483.292539 kJ/mol
# GULP energy per Si atom -12390.102892 kJ/mol
# Density = 2.164231 g / cm^3
# Si number density = 21.691681 Si / 1000 Ang^3
#
#
#
# Elastic Constant Matrix: (Units=GPa)
#
#
# Indices 1 2 3 4 5 6 
#
# 1 95.3550 22.4584 5.2217 0.0000 -10.4665 0.0000
# 2 22.4584 127.3135 16.0816 0.0000 3.1313 0.0000
# 3 5.2217 16.0816 47.4380 0.0000 -17.7265 0.0000
# 4 0.0000 0.0000 0.0000 15.0085 0.0000 -5.9158
# 5 -10.4665 3.1313 -17.7265 0.0000 22.8559 0.0000
# 6 0.0000 0.0000 0.0000 -5.9158 0.0000 25.6686
#
#
#
# Elastic Compliance Matrix: (Units=1/GPa)
#
#
# Indices 1 2 3 4 5 6 
#
# 1 0.011800 -0.002576 0.002430 0.000000 0.007641 0.000000
# 2 -0.002576 0.009130 -0.005238 0.000000 -0.006493 0.000000
# 3 0.002430 -0.005238 0.032769 0.000000 0.027245 0.000000
# 4 0.000000 0.000000 0.000000 0.073287 0.000000 0.016890
# 5 0.007641 -0.006493 0.027245 0.000000 0.069272 0.000000
# 6 0.000000 0.000000 0.000000 0.016890 0.000000 0.042851
#
#
# Mechanical properties :
#
#
# Convention : Reuss Voigt Hill
#
# Bulk Modulus (GPa) = 23.29355 39.73664 31.51509
# Shear Modulus (GPa) = 18.92592 27.79625 23.36109
#
# Velocity S-wave (km/s) = 2.95701 3.58358 3.28527
# Velocity P-wave (km/s) = 4.73501 5.95662 5.38060
#
# Compressibility (1/GPa) = 0.04293034
#
# Stress axis : x y z
#
# Youngs Moduli (GPa) = 84.74904 109.52380 30.51624
#
# Poissons Ratio (x) = 0.28217 -0.07415
# Poissons Ratio (y) = 0.21834 0.15984
# Poissons Ratio (z) = -0.20592 0.57369
#
# Static dielectric constant tensor:
#      x y z
#    x 3.978120 0.000000 -0.259010 
#    y 0.000000 4.158910 0.000000 
#    z -0.259010 0.000000 3.411830 
# 
# 
# High freq. dielectric constant tensor:
#      x y z
#    x 1.853140 0.000000 -0.026040 
#    y 0.000000 1.866400 0.000000 
#    z -0.026040 0.000000 1.801290 
# 
# From -- ./inp_files/243716.got.cif
#   From: 2010.06.25/outbox.cif.g09.slc.cpg/sg15_122_cif.got.tgz:243716.got - 2010.06.28 07:06:18.
