data_PCOD8135404
_publ_section_title
;
Structure prediction by ZEFSAII (Michael W. Deem and Ramdas Pophale) SiO2 
 PCOD8135404
Probable space group: C 2/C
;
_chemical_formula_sum "Si O2"
_cell_formula_units_Z 64
_cell_length_a 26.146933
_cell_length_b 5.194053
_cell_length_c 22.986857
_cell_angle_alpha 90.000000
_cell_angle_beta 93.935882
_cell_angle_gamma 90.000000
_cell_volume 3114.449021
_symmetry_space_group_name_H-M "C 2/C"
_symmetry_group_IT_number 15
_symmetry_cell_setting 'monoclinic'
loop_
_space_group_symop_operation_xyz
x,y,z
-x,y,1/2-z
-x,-y,-z
x,-y,1/2+z
1/2+x,1/2+y,z
1/2-x,1/2+y,1/2-z
1/2-x,1/2-y,-z
1/2+x,1/2-y,1/2+z
loop_
_atom_site_type_symbol
_atom_site_label
_atom_site_fract_x
_atom_site_fract_y
_atom_site_fract_z
Si Si1 0.569934 0.260325 0.170507
Si Si2 0.592766 0.258741 0.737724
Si Si3 0.800876 0.798074 0.078851
Si Si4 0.814669 0.360844 0.453013
Si Si5 0.130023 0.459606 0.834636
Si Si6 0.392896 0.664396 0.072569
Si Si7 0.954717 0.931656 0.173930
Si Si8 0.378063 0.652027 0.942364
O O1 0.605699 0.478559 0.204108
O O2 0.511372 0.323295 0.180094
O O3 0.579050 0.299045 0.102844
O O4 0.579783 0.967385 0.190950
O O5 0.548050 0.321822 0.782563
O O6 0.640087 0.169187 0.783951
O O7 0.741053 0.849827 0.080257
O O8 0.816922 0.671062 0.141852
O O9 0.834978 0.053784 0.073683
O O10 0.810809 0.620565 0.022764
O O11 0.835886 0.627915 0.430885
O O12 0.850384 0.124399 0.435286
O O13 0.106643 0.566049 0.893605
O O14 0.086658 0.272224 0.803550
O O15 0.436323 0.489074 0.106600
O O16 0.407401 0.689509 0.006118
#
# Coordination Sequence:
#
# PCOD8135404 Si02
#       8
#     8   8   8   8   8   8   8   8
#     4  12  26  40  62  88 124 168 202 243 311 358
#     4  11  24  40  62  88 117 154 216 262 292 343
#     4   9  19  34  64  97 120 152 199 257 310 343
#     4  10  21  37  63  93 125 156 200 248 299 366
#     4  10  19  38  61  95 118 151 201 267 304 345
#     4   9  20  36  62  93 129 153 198 248 313 360
#     4  10  23  38  63  93 119 155 208 265 296 349
#     4  11  23  42  58  90 133 165 195 239 300 393
#
# _framework density 20.549379999999999
#
# number of rings (size 3 to 8) (size 9 to 14) (size 15 to 20)
#    0.000    1.750    2.500    1.125    7.000    2.000 
#    0.000    0.625    0.000    3.000    0.000    0.000 
#    0.000    0.000    0.000    0.000    0.000    0.000 
#
# Total GULP energy -396474.260897 kJ/mol
# GULP energy per Si atom -12389.820653 kJ/mol
# Density = 2.050261 g / cm^3
# Si number density = 20.549380 Si / 1000 Ang^3
#
#
#
# Elastic Constant Matrix: (Units=GPa)
#
#
# Indices 1 2 3 4 5 6 
#
# 1 14.0390 1.7343 0.3145 0.0000 4.0230 0.0000
# 2 1.7343 91.3949 26.0532 0.0000 4.6397 0.0000
# 3 0.3145 26.0532 95.0461 0.0000 -6.5606 0.0000
# 4 0.0000 0.0000 0.0000 34.0507 0.0000 1.4666
# 5 4.0230 4.6397 -6.5606 0.0000 25.9890 0.0000
# 6 0.0000 0.0000 0.0000 1.4666 0.0000 18.3337
#
#
#
# Elastic Compliance Matrix: (Units=1/GPa)
#
#
# Indices 1 2 3 4 5 6 
#
# 1 0.074668 -0.000568 -0.000898 0.000000 -0.011684 0.000000
# 2 -0.000568 0.012106 -0.003521 0.000000 -0.002962 0.000000
# 3 -0.000898 -0.003521 0.011747 0.000000 0.003733 0.000000
# 4 0.000000 0.000000 0.000000 0.029470 0.000000 -0.002357
# 5 -0.011684 -0.002962 0.003733 0.000000 0.041758 0.000000
# 6 0.000000 0.000000 0.000000 -0.002357 0.000000 0.054733
#
#
# Mechanical properties :
#
#
# Convention : Reuss Voigt Hill
#
# Bulk Modulus (GPa) = 11.29329 28.52045 19.90687
# Shear Modulus (GPa) = 18.94144 27.16655 23.05400
#
# Velocity S-wave (km/s) = 3.03933 3.63989 3.35309
# Velocity P-wave (km/s) = 4.22189 5.61909 4.96984
#
# Compressibility (1/GPa) = 0.08854817
#
# Stress axis : x y z
#
# Youngs Moduli (GPa) = 13.39255 82.60091 85.12802
#
# Poissons Ratio (x) = 0.04690 0.07644
# Poissons Ratio (y) = 0.00760 0.29974
# Poissons Ratio (z) = 0.01203 0.29084
#
# Static dielectric constant tensor:
#      x y z
#    x 3.271460 0.000000 0.251630 
#    y 0.000000 3.996810 0.000000 
#    z 0.251630 0.000000 4.066020 
# 
# 
# High freq. dielectric constant tensor:
#      x y z
#    x 1.749620 0.000000 0.025770 
#    y 0.000000 1.819750 0.000000 
#    z 0.025770 0.000000 1.815930 
# 
# From -- ./inp_files/281010.got.cif
#   From: 2010.06.25/outbox.cif.g09.slc.cpg/sg15_141_cif.got.tgz:281010.got - 2010.06.28 07:06:18.
