data_PCOD8135321
_publ_section_title
;
Structure prediction by ZEFSAII (Michael W. Deem and Ramdas Pophale) SiO2 
 PCOD8135321
Probable space group: C 2/C
;
_chemical_formula_sum "Si O2"
_cell_formula_units_Z 48
_cell_length_a 18.283001
_cell_length_b 10.506860
_cell_length_c 13.074909
_cell_angle_alpha 90.000000
_cell_angle_beta 108.922916
_cell_angle_gamma 90.000000
_cell_volume 2375.909616
_symmetry_space_group_name_H-M "C 2/C"
_symmetry_group_IT_number 15
_symmetry_cell_setting 'monoclinic'
loop_
_space_group_symop_operation_xyz
x,y,z
-x,y,1/2-z
-x,-y,-z
x,-y,1/2+z
1/2+x,1/2+y,z
1/2-x,1/2+y,1/2-z
1/2-x,1/2-y,-z
1/2+x,1/2-y,1/2+z
loop_
_atom_site_type_symbol
_atom_site_label
_atom_site_fract_x
_atom_site_fract_y
_atom_site_fract_z
Si Si1 0.085535 0.493640 0.310742
Si Si2 0.923320 0.785461 0.604062
Si Si3 0.824690 0.074144 0.902031
Si Si4 0.811273 0.375088 0.303524
Si Si5 0.220665 0.392755 0.987611
Si Si6 0.594128 0.364048 0.680102
O O1 0.080308 0.363874 0.373550
O O2 0.125039 0.465407 0.219754
O O3 0.136632 0.596807 0.394807
O O4 0.000000 0.549252 0.250000
O O5 0.866392 0.815738 0.485174
O O6 0.899699 0.866449 0.693788
O O7 0.008906 0.822541 0.607196
O O8 0.762695 0.143065 0.802527
O O9 0.783178 0.980252 0.961647
O O10 0.886468 0.000983 0.858756
O O11 0.787449 0.439635 0.399249
O O12 0.844692 0.234949 0.339446
O O13 0.250000 0.250000 0.000000
#
# Coordination Sequence:
#
# PCOD8135321 Si02
#       6
#     8   8   8   8   8   8
#     4  10  21  42  65  88 116 160 206 248 296 363
#     4  10  20  38  62  90 115 158 207 250 296 355
#     4  11  22  35  63  89 118 160 200 247 307 355
#     4  10  21  38  58  85 118 158 198 246 295 360
#     4  11  23  40  61  88 125 157 196 251 307 357
#     4  10  19  38  59  81 127 150 199 252 297 351
#
# _framework density 20.202788999999999
#
# number of rings (size 3 to 8) (size 9 to 14) (size 15 to 20)
#    0.000    1.667    5.000    1.500    0.000    8.000 
#    0.000    0.000    3.667    0.000    0.000    0.000 
#    0.000    0.000    0.000    0.000    0.000    0.000 
#
# Total GULP energy -297652.975217 kJ/mol
# GULP energy per Si atom -12402.207301 kJ/mol
# Density = 2.015681 g / cm^3
# Si number density = 20.202789 Si / 1000 Ang^3
#
#
#
# Elastic Constant Matrix: (Units=GPa)
#
#
# Indices 1 2 3 4 5 6 
#
# 1 118.6396 37.5457 53.4968 0.0000 13.5464 0.0000
# 2 37.5457 53.5337 29.8313 0.0000 8.4561 0.0000
# 3 53.4968 29.8313 113.4104 0.0000 12.5719 0.0000
# 4 0.0000 0.0000 0.0000 30.9021 0.0000 11.9899
# 5 13.5464 8.4561 12.5719 0.0000 36.2263 0.0000
# 6 0.0000 0.0000 0.0000 11.9899 0.0000 21.0409
#
#
#
# Elastic Compliance Matrix: (Units=1/GPa)
#
#
# Indices 1 2 3 4 5 6 
#
# 1 0.012404 -0.006170 -0.004028 0.000000 -0.001800 0.000000
# 2 -0.006170 0.025328 -0.003486 0.000000 -0.002395 0.000000
# 3 -0.004028 -0.003486 0.011833 0.000000 -0.001786 0.000000
# 4 0.000000 0.000000 0.000000 0.041546 0.000000 -0.023674
# 5 -0.001800 -0.002395 -0.001786 0.000000 0.029456 0.000000
# 6 0.000000 0.000000 0.000000 -0.023674 0.000000 0.061017
#
#
# Mechanical properties :
#
#
# Convention : Reuss Voigt Hill
#
# Bulk Modulus (GPa) = 45.05511 58.59237 51.82374
# Shear Modulus (GPa) = 23.11053 28.61452 25.86253
#
# Velocity S-wave (km/s) = 3.38587 3.76755 3.58179
# Velocity P-wave (km/s) = 6.13476 6.92755 6.54317
#
# Compressibility (1/GPa) = 0.02219504
#
# Stress axis : x y z
#
# Youngs Moduli (GPa) = 80.62232 39.48162 84.51086
#
# Poissons Ratio (x) = 0.24360 0.34044
# Poissons Ratio (y) = 0.49745 0.29463
# Poissons Ratio (z) = 0.32478 0.13765
#
# Static dielectric constant tensor:
#      x y z
#    x 3.927330 0.000000 -0.068660 
#    y 0.000000 3.348930 0.000000 
#    z -0.068660 0.000000 3.760500 
# 
# 
# High freq. dielectric constant tensor:
#      x y z
#    x 1.805160 0.000000 -0.001560 
#    y 0.000000 1.759970 0.000000 
#    z -0.001560 0.000000 1.791850 
# 
# From -- ./inp_files/104166.got.cif
#   From: 2010.06.25/outbox.cif.g09.slc.cpg/sg15_53_cif.got.tgz:104166.got - 2010.06.28 07:06:18.
