data_PCOD8135684
_publ_section_title
;
Structure prediction by ZEFSAII (Michael W. Deem and Ramdas Pophale) SiO2 
 PCOD8135684
Probable space group: C 2/C
;
_chemical_formula_sum "Si O2"
_cell_formula_units_Z 48
_cell_length_a 14.866282
_cell_length_b 20.154517
_cell_length_c 11.973637
_cell_angle_alpha 90.000000
_cell_angle_beta 142.864851
_cell_angle_gamma 90.000000
_cell_volume 2165.808158
_symmetry_space_group_name_H-M "C 2/C"
_symmetry_group_IT_number 15
_symmetry_cell_setting 'monoclinic'
loop_
_space_group_symop_operation_xyz
x,y,z
-x,y,1/2-z
-x,-y,-z
x,-y,1/2+z
1/2+x,1/2+y,z
1/2-x,1/2+y,1/2-z
1/2-x,1/2-y,-z
1/2+x,1/2-y,1/2+z
loop_
_atom_site_type_symbol
_atom_site_label
_atom_site_fract_x
_atom_site_fract_y
_atom_site_fract_z
Si Si1 0.845251 0.297426 0.014449
Si Si2 0.952023 0.098803 0.013775
Si Si3 0.914726 0.764880 0.879732
Si Si4 0.848514 0.305616 0.537815
Si Si5 0.145886 0.933872 0.317655
Si Si6 0.722295 0.428223 0.946518
O O1 0.751524 0.291285 0.806393
O O2 0.853617 0.376086 0.050586
O O3 0.750000 0.250000 0.000000
O O4 0.015896 0.274797 0.160500
O O5 0.816555 0.092426 0.965655
O O6 0.971929 0.173920 0.987584
O O7 0.093894 0.078913 0.226658
O O8 0.914994 0.054014 0.868797
O O9 0.908540 0.717096 0.977878
O O10 0.750000 0.250000 0.500000
O O11 0.744250 0.368899 0.423312
O O12 0.000000 0.324475 0.750000
O O13 0.000000 0.929729 0.250000
O O14 0.256347 0.993403 0.469045
#
# Coordination Sequence:
#
# PCOD8135684 Si02
#       6
#     8   8   8   8   8   8
#     4  11  21  38  64  96 126 162 215 273 333 388
#     4  10  19  39  63  97 127 165 226 268 328 389
#     4  11  22  39  66  93 126 168 214 277 326 388
#     4  12  26  46  66  98 134 178 229 270 332 399
#     4  12  24  41  69  97 131 177 224 282 328 395
#     4  10  22  37  64  99 132 170 221 277 327 406
#
# _framework density 22.162628000000002
#
# number of rings (size 3 to 8) (size 9 to 14) (size 15 to 20)
#    0.000    1.000    3.333    5.500    0.000    1.333 
#    0.000    2.500    0.000    0.000    0.000    0.000 
#    0.000    0.000    0.000    0.000    0.000    0.000 
#
# Total GULP energy -297386.428541 kJ/mol
# GULP energy per Si atom -12391.101189 kJ/mol
# Density = 2.211218 g / cm^3
# Si number density = 22.162628 Si / 1000 Ang^3
#
#
#
# Elastic Constant Matrix: (Units=GPa)
#
#
# Indices 1 2 3 4 5 6 
#
# 1 113.6047 59.1298 37.2150 0.0000 -2.3266 0.0000
# 2 59.1298 145.0751 18.7312 0.0000 -9.0437 0.0000
# 3 37.2150 18.7312 82.8011 0.0000 -3.5261 0.0000
# 4 0.0000 0.0000 0.0000 28.5226 0.0000 5.6065
# 5 -2.3266 -9.0437 -3.5261 0.0000 21.8978 0.0000
# 6 0.0000 0.0000 0.0000 5.6065 0.0000 27.8927
#
#
#
# Elastic Compliance Matrix: (Units=1/GPa)
#
#
# Indices 1 2 3 4 5 6 
#
# 1 0.012757 -0.004672 -0.004734 0.000000 -0.001336 0.000000
# 2 -0.004672 0.008972 0.000208 0.000000 0.003243 0.000000
# 3 -0.004734 0.000208 0.014238 0.000000 0.001876 0.000000
# 4 0.000000 0.000000 0.000000 0.036502 0.000000 -0.007337
# 5 -0.001336 0.003243 0.001876 0.000000 0.047166 0.000000
# 6 0.000000 0.000000 0.000000 -0.007337 0.000000 0.037326
#
#
# Mechanical properties :
#
#
# Convention : Reuss Voigt Hill
#
# Bulk Modulus (GPa) = 56.90788 63.51476 60.21132
# Shear Modulus (GPa) = 27.59165 30.75630 29.17398
#
# Velocity S-wave (km/s) = 3.53223 3.72930 3.63210
# Velocity P-wave (km/s) = 6.50912 6.87490 6.69451
#
# Compressibility (1/GPa) = 0.01757226
#
# Stress axis : x y z
#
# Youngs Moduli (GPa) = 78.38573 111.45314 70.23667
#
# Poissons Ratio (x) = 0.52068 0.33249
# Poissons Ratio (y) = 0.36620 -0.01462
# Poissons Ratio (z) = 0.37107 -0.02319
#
# Static dielectric constant tensor:
#      x y z
#    x 3.971430 0.000000 -0.264970 
#    y 0.000000 4.487930 0.000000 
#    z -0.264970 0.000000 5.102300 
# 
# 
# High freq. dielectric constant tensor:
#      x y z
#    x 1.866040 0.000000 -0.018310 
#    y 0.000000 1.879690 0.000000 
#    z -0.018310 0.000000 1.873140 
# 
# From -- ./inp_files/100081.got.cif
#   From: 2010.06.25/outbox.cif.g09.slc.cpg/sg15_51_cif.got.tgz:100081.got - 2010.06.28 07:06:18.
