data_PCOD8135383
_publ_section_title
;
Structure prediction by ZEFSAII (Michael W. Deem and Ramdas Pophale) SiO2 
 PCOD8135383
Probable space group: C 2/C
;
_chemical_formula_sum "Si O2"
_cell_formula_units_Z 56
_cell_length_a 16.239326
_cell_length_b 14.629094
_cell_length_c 12.298084
_cell_angle_alpha 90.000000
_cell_angle_beta 69.170897
_cell_angle_gamma 90.000000
_cell_volume 2730.672755
_symmetry_space_group_name_H-M "C 2/C"
_symmetry_group_IT_number 15
_symmetry_cell_setting 'monoclinic'
loop_
_space_group_symop_operation_xyz
x,y,z
-x,y,1/2-z
-x,-y,-z
x,-y,1/2+z
1/2+x,1/2+y,z
1/2-x,1/2+y,1/2-z
1/2-x,1/2-y,-z
1/2+x,1/2-y,1/2+z
loop_
_atom_site_type_symbol
_atom_site_label
_atom_site_fract_x
_atom_site_fract_y
_atom_site_fract_z
Si Si1 0.000000 0.937774 0.250000
Si Si2 0.140522 0.729012 0.847095
Si Si3 0.297612 0.707100 0.621242
Si Si4 0.846612 0.629770 0.964221
Si Si5 0.792066 0.450745 0.103020
Si Si6 0.000000 0.309750 0.250000
Si Si7 0.355509 0.476653 0.168022
Si Si8 0.641837 0.381861 0.022465
O O1 0.936388 0.003402 0.209066
O O2 0.941238 0.875797 0.357915
O O3 0.229432 0.751239 0.738687
O O4 0.138259 0.621589 0.880515
O O5 0.055031 0.751113 0.811620
O O6 0.141674 0.789507 0.954004
O O7 0.244939 0.650102 0.553949
O O8 0.358084 0.788310 0.546057
O O9 0.362209 0.633007 0.645412
O O10 0.929354 0.626939 0.844716
O O11 0.844919 0.530696 0.019248
O O12 0.736265 0.497415 0.227043
O O13 0.730502 0.392941 0.050310
O O14 0.365094 0.530963 0.052664
#
# Coordination Sequence:
#
# PCOD8135383 Si02
#       8
#     4   8   8   8   8   4   8   8
#     4  10  24  35  53  90 124 152 192 241 303 354
#     4  10  22  39  60  89 118 156 196 246 288 358
#     4   9  19  36  61  85 112 153 202 235 283 350
#     4  10  19  38  61  86 116 152 194 244 290 346
#     4  10  21  38  64  86 113 157 206 239 292 348
#     4  10  24  39  59  92 124 150 198 247 301 350
#     4  10  20  37  58  87 119 153 195 244 292 356
#     4  11  21  39  60  85 121 159 193 244 295 350
#
# _framework density 20.507766
#
# number of rings (size 3 to 8) (size 9 to 14) (size 15 to 20)
#    0.000    2.000    1.429    1.714    2.000    1.143 
#    0.000    0.714    0.000    0.000    0.000    0.000 
#    0.000    0.000    0.000    0.000    0.000    0.000 
#
# Total GULP energy -347170.896590 kJ/mol
# GULP energy per Si atom -12398.960593 kJ/mol
# Density = 2.046109 g / cm^3
# Si number density = 20.507766 Si / 1000 Ang^3
#
#
#
# Elastic Constant Matrix: (Units=GPa)
#
#
# Indices 1 2 3 4 5 6 
#
# 1 72.8241 26.6178 27.3297 0.0000 1.9650 0.0000
# 2 26.6178 84.2625 49.5245 0.0000 -11.2873 0.0000
# 3 27.3297 49.5245 125.6335 0.0000 -5.3581 0.0000
# 4 0.0000 0.0000 0.0000 33.0052 0.0000 4.3944
# 5 1.9650 -11.2873 -5.3581 0.0000 28.9478 0.0000
# 6 0.0000 0.0000 0.0000 4.3944 0.0000 6.3364
#
#
#
# Elastic Compliance Matrix: (Units=1/GPa)
#
#
# Indices 1 2 3 4 5 6 
#
# 1 0.016143 -0.004399 -0.001912 0.000000 -0.003165 0.000000
# 2 -0.004399 0.017378 -0.005636 0.000000 0.006031 0.000000
# 3 -0.001912 -0.005636 0.010593 0.000000 -0.000107 0.000000
# 4 0.000000 0.000000 0.000000 0.033381 0.000000 -0.023150
# 5 -0.003165 0.006031 -0.000107 0.000000 0.037092 0.000000
# 6 0.000000 0.000000 0.000000 -0.023150 0.000000 0.173874
#
#
# Mechanical properties :
#
#
# Convention : Reuss Voigt Hill
#
# Bulk Modulus (GPa) = 49.46128 54.40714 51.93421
# Shear Modulus (GPa) = 15.66930 25.60774 20.63852
#
# Velocity S-wave (km/s) = 2.76717 3.53751 3.17578
# Velocity P-wave (km/s) = 5.86348 6.57821 6.23110
#
# Compressibility (1/GPa) = 0.02021784
#
# Stress axis : x y z
#
# Youngs Moduli (GPa) = 61.94701 57.54434 94.40340
#
# Poissons Ratio (x) = 0.25316 0.18054
# Poissons Ratio (y) = 0.27253 0.53207
# Poissons Ratio (z) = 0.11847 0.32432
#
# Static dielectric constant tensor:
#      x y z
#    x 3.667430 0.000000 0.187570 
#    y 0.000000 3.374510 0.000000 
#    z 0.187570 0.000000 3.961870 
# 
# 
# High freq. dielectric constant tensor:
#      x y z
#    x 1.789640 0.000000 0.009070 
#    y 0.000000 1.775900 0.000000 
#    z 0.009070 0.000000 1.821140 
# 
# From -- ./inp_files/105317.got.cif
#   From: 2010.06.25/outbox.cif.g09.slc.cpg/sg15_53_cif.got.tgz:105317.got - 2010.06.28 07:06:18.
