data_PCOD8135252
_publ_section_title
;
Structure prediction by ZEFSAII (Michael W. Deem and Ramdas Pophale) SiO2 
 PCOD8135252
Probable space group: C 2/C
;
_chemical_formula_sum "Si O2"
_cell_formula_units_Z 36
_cell_length_a 16.227899
_cell_length_b 7.635927
_cell_length_c 18.684031
_cell_angle_alpha 90.000000
_cell_angle_beta 51.825259
_cell_angle_gamma 90.000000
_cell_volume 1820.072575
_symmetry_space_group_name_H-M "C 2/C"
_symmetry_group_IT_number 15
_symmetry_cell_setting 'monoclinic'
loop_
_space_group_symop_operation_xyz
x,y,z
-x,y,1/2-z
-x,-y,-z
x,-y,1/2+z
1/2+x,1/2+y,z
1/2-x,1/2+y,1/2-z
1/2-x,1/2-y,-z
1/2+x,1/2-y,1/2+z
loop_
_atom_site_type_symbol
_atom_site_label
_atom_site_fract_x
_atom_site_fract_y
_atom_site_fract_z
Si Si1 0.659239 0.069051 0.434308
Si Si2 0.666800 0.634498 0.586218
Si Si3 0.000000 0.628776 0.250000
Si Si4 0.963366 0.553946 0.625300
Si Si5 0.053439 0.896783 0.534781
O O1 0.568979 0.973153 0.531364
O O2 0.649942 0.279544 0.451453
O O3 0.773844 0.006369 0.395746
O O4 0.638078 0.018846 0.362789
O O5 0.750000 0.750000 0.500000
O O6 0.597004 0.753358 0.674634
O O7 0.592933 0.534000 0.571099
O O8 0.957110 0.504658 0.210336
O O9 0.968573 0.766171 0.617467
O O10 0.000000 0.000000 0.500000
#
# Coordination Sequence:
#
# PCOD8135252 Si02
#       5
#     8   8   4   8   8
#     4   9  19  40  66  89 124 164 212 254 328 369
#     4  12  22  39  63  95 125 170 210 261 320 381
#     4  12  24  40  62  94 132 168 216 268 312 384
#     4   9  20  40  65  90 126 161 211 261 324 368
#     4  10  19  37  67  94 121 167 211 260 321 384
#
# _framework density 19.779430999999999
#
# number of rings (size 3 to 8) (size 9 to 14) (size 15 to 20)
#    1.333    0.444    2.222    3.333    0.000    0.889 
#    0.000    8.889    0.000    0.000    0.000    0.000 
#    0.000    0.000    0.000    0.000    0.000    0.000 
#
# Total GULP energy -223134.677114 kJ/mol
# GULP energy per Si atom -12396.370951 kJ/mol
# Density = 1.973441 g / cm^3
# Si number density = 19.779431 Si / 1000 Ang^3
#
#
#
# Elastic Constant Matrix: (Units=GPa)
#
#
# Indices 1 2 3 4 5 6 
#
# 1 135.2066 52.0193 54.4236 0.0001 38.8471 0.0002
# 2 52.0193 122.8738 54.2132 0.0001 18.6647 0.0007
# 3 54.4236 54.2132 96.9523 0.0000 20.2565 0.0000
# 4 0.0001 0.0001 0.0000 34.5009 0.0000 11.7620
# 5 38.8471 18.6647 20.2565 0.0000 40.4184 0.0000
# 6 0.0002 0.0007 0.0000 11.7620 0.0000 42.4099
#
#
#
# Elastic Compliance Matrix: (Units=1/GPa)
#
#
# Indices 1 2 3 4 5 6 
#
# 1 0.012349 -0.002172 -0.003851 0.000000 -0.008936 0.000000
# 2 -0.002172 0.011362 -0.004998 0.000000 -0.000655 0.000000
# 3 -0.003851 -0.004998 0.015654 0.000000 -0.001837 0.000000
# 4 0.000000 0.000000 0.000000 0.032012 0.000000 -0.008878
# 5 -0.008936 -0.000655 -0.001837 0.000000 0.034553 0.000000
# 6 0.000000 0.000000 0.000000 -0.008878 0.000000 0.026042
#
#
# Mechanical properties :
#
#
# Convention : Reuss Voigt Hill
#
# Bulk Modulus (GPa) = 57.71757 75.14943 66.43350
# Shear Modulus (GPa) = 31.29164 36.42429 33.85796
#
# Velocity S-wave (km/s) = 3.98179 4.29595 4.14185
# Velocity P-wave (km/s) = 7.09813 7.91727 7.51886
#
# Compressibility (1/GPa) = 0.01732575
#
# Stress axis : x y z
#
# Youngs Moduli (GPa) = 80.97706 88.01023 63.88080
#
# Poissons Ratio (x) = 0.19113 0.24599
# Poissons Ratio (y) = 0.17586 0.31925
# Poissons Ratio (z) = 0.31182 0.43984
#
# Static dielectric constant tensor:
#      x y z
#    x 3.633260 0.000000 0.168810 
#    y 0.000000 3.586360 0.000000 
#    z 0.168810 0.000000 3.278230 
# 
# 
# High freq. dielectric constant tensor:
#      x y z
#    x 1.780130 0.000000 0.023100 
#    y 0.000000 1.777410 0.000000 
#    z 0.023100 0.000000 1.733770 
# 
# From -- ./inp_files/202153.got.cif
#   From: 2010.06.25/outbox.cif.g09.slc.cpg/sg15_102_cif.got.tgz:202153.got - 2010.06.28 07:06:18.
