data_PCOD8135177
_publ_section_title
;
Structure prediction by ZEFSAII (Michael W. Deem and Ramdas Pophale) SiO2 
 PCOD8135177
Probable space group: C 2/C
;
_chemical_formula_sum "Si O2"
_cell_formula_units_Z 56
_cell_length_a 16.470135
_cell_length_b 13.539010
_cell_length_c 13.818637
_cell_angle_alpha 90.000000
_cell_angle_beta 122.598722
_cell_angle_gamma 90.000000
_cell_volume 2595.977009
_symmetry_space_group_name_H-M "C 2/C"
_symmetry_group_IT_number 15
_symmetry_cell_setting 'monoclinic'
loop_
_space_group_symop_operation_xyz
x,y,z
-x,y,1/2-z
-x,-y,-z
x,-y,1/2+z
1/2+x,1/2+y,z
1/2-x,1/2+y,1/2-z
1/2-x,1/2-y,-z
1/2+x,1/2-y,1/2+z
loop_
_atom_site_type_symbol
_atom_site_label
_atom_site_fract_x
_atom_site_fract_y
_atom_site_fract_z
Si Si1 0.301558 0.735847 0.827107
Si Si2 0.732898 0.557615 0.348491
Si Si3 0.732207 0.454871 0.074315
Si Si4 0.612527 0.781376 0.097739
Si Si5 0.411802 0.562009 0.400805
Si Si6 0.605516 0.973893 0.183091
Si Si7 0.010452 0.325446 0.646232
O O1 0.254372 0.826252 0.854163
O O2 0.314354 0.645237 0.910350
O O3 0.226814 0.710264 0.692204
O O4 0.403548 0.762358 0.845931
O O5 0.723936 0.535473 0.455051
O O6 0.630884 0.527311 0.231194
O O7 0.818276 0.496689 0.353400
O O8 0.675425 0.549811 0.079039
O O9 0.842747 0.464652 0.179204
O O10 0.563640 0.677371 0.094598
O O11 0.558233 0.867952 0.125158
O O12 0.590243 0.799181 0.970226
O O13 0.500000 0.500000 0.500000
O O14 0.525343 0.057457 0.141023
O O15 0.000000 0.295005 0.750000
#
# Coordination Sequence:
#
# PCOD8135177 Si02
#       7
#     8   8   8   8   8   8   8
#     4   9  20  40  62  92 125 157 209 257 305 374
#     4   9  19  36  63  88 116 164 204 258 312 361
#     4  10  19  37  64  87 118 164 204 253 314 366
#     4  10  21  41  61  83 124 165 198 260 306 357
#     4  10  21  38  56  86 125 159 212 254 300 370
#     4   9  21  39  60  88 122 151 205 258 307 372
#     4  11  23  39  62  93 126 163 203 253 314 372
#
# _framework density 21.571840999999999
#
# number of rings (size 3 to 8) (size 9 to 14) (size 15 to 20)
#    0.000    2.286    0.000    2.571    2.000    1.143 
#   10.286    0.000    6.286    0.000    0.000    0.000 
#    0.000    0.000    0.000    0.000    0.000    0.000 
#
# Total GULP energy -347029.170366 kJ/mol
# GULP energy per Si atom -12393.898942 kJ/mol
# Density = 2.152274 g / cm^3
# Si number density = 21.571841 Si / 1000 Ang^3
#
#
#
# Elastic Constant Matrix: (Units=GPa)
#
#
# Indices 1 2 3 4 5 6 
#
# 1 40.2037 14.8914 40.8478 0.0000 -7.3551 0.0000
# 2 14.8914 92.2903 32.5151 0.0000 0.4740 0.0000
# 3 40.8478 32.5151 194.0856 0.0000 -15.0729 0.0000
# 4 0.0000 0.0000 0.0000 30.9267 0.0000 8.4334
# 5 -7.3551 0.4740 -15.0729 0.0000 30.2703 0.0000
# 6 0.0000 0.0000 0.0000 8.4334 0.0000 11.6549
#
#
#
# Elastic Compliance Matrix: (Units=1/GPa)
#
#
# Indices 1 2 3 4 5 6 
#
# 1 0.033140 -0.003247 -0.006035 0.000000 0.005098 0.000000
# 2 -0.003247 0.011874 -0.001437 0.000000 -0.001691 0.000000
# 3 -0.006035 -0.001437 0.006815 0.000000 0.001949 0.000000
# 4 0.000000 0.000000 0.000000 0.040283 0.000000 -0.029149
# 5 0.005098 -0.001691 0.001949 0.000000 0.035272 0.000000
# 6 0.000000 0.000000 0.000000 -0.029149 0.000000 0.106892
#
#
# Mechanical properties :
#
#
# Convention : Reuss Voigt Hill
#
# Bulk Modulus (GPa) = 32.90486 55.89871 44.40179
# Shear Modulus (GPa) = 18.80792 30.45874 24.63333
#
# Velocity S-wave (km/s) = 2.95595 3.76169 3.38290
# Velocity P-wave (km/s) = 5.19008 6.69598 5.99054
#
# Compressibility (1/GPa) = 0.03039064
#
# Stress axis : x y z
#
# Youngs Moduli (GPa) = 30.17466 84.21503 146.74294
#
# Poissons Ratio (x) = 0.27348 0.88557
# Poissons Ratio (y) = 0.09799 0.21089
# Poissons Ratio (z) = 0.18210 0.12103
#
# Static dielectric constant tensor:
#      x y z
#    x 3.400620 0.000000 0.228020 
#    y 0.000000 4.262780 0.000000 
#    z 0.228020 0.000000 4.083380 
# 
# 
# High freq. dielectric constant tensor:
#      x y z
#    x 1.798790 0.000000 0.018800 
#    y 0.000000 1.864820 0.000000 
#    z 0.018800 0.000000 1.862880 
# 
# From -- ./inp_files/105801.got.cif
#   From: 2010.06.25/outbox.cif.g09.slc.cpg/sg15_53_cif.got.tgz:105801.got - 2010.06.28 07:06:18.
