data_PCOD8135500
_publ_section_title
;
Structure prediction by ZEFSAII (Michael W. Deem and Ramdas Pophale) SiO2 
 PCOD8135500
Probable space group: C 2/C
;
_chemical_formula_sum "Si O2"
_cell_formula_units_Z 56
_cell_length_a 16.738172
_cell_length_b 8.959969
_cell_length_c 17.080372
_cell_angle_alpha 90.000000
_cell_angle_beta 78.872234
_cell_angle_gamma 90.000000
_cell_volume 2513.443150
_symmetry_space_group_name_H-M "C 2/C"
_symmetry_group_IT_number 15
_symmetry_cell_setting 'monoclinic'
loop_
_space_group_symop_operation_xyz
x,y,z
-x,y,1/2-z
-x,-y,-z
x,-y,1/2+z
1/2+x,1/2+y,z
1/2-x,1/2+y,1/2-z
1/2-x,1/2-y,-z
1/2+x,1/2-y,1/2+z
loop_
_atom_site_type_symbol
_atom_site_label
_atom_site_fract_x
_atom_site_fract_y
_atom_site_fract_z
Si Si1 0.148513 0.867423 0.504909
Si Si2 0.922583 0.317944 0.621275
Si Si3 0.764820 0.856632 0.351485
Si Si4 0.684098 0.089389 0.588901
Si Si5 0.895421 0.422692 0.025279
Si Si6 0.424348 0.651536 0.926078
Si Si7 0.289189 0.931592 0.762323
O O1 0.129788 0.765752 0.434154
O O2 0.228707 0.959581 0.464729
O O3 0.168689 0.765845 0.577067
O O4 0.075730 0.981500 0.542062
O O5 0.952312 0.473152 0.571645
O O6 0.867973 0.358592 0.705858
O O7 0.994872 0.206216 0.635941
O O8 0.692802 0.911142 0.419395
O O9 0.846815 0.829448 0.384738
O O10 0.741065 0.700054 0.315413
O O11 0.773776 0.986397 0.284219
O O12 0.614456 0.995083 0.558738
O O13 0.679233 0.055387 0.681907
O O14 0.928227 0.256288 0.003506
#
# Coordination Sequence:
#
# PCOD8135500 Si02
#       7
#     8   8   8   8   8   8   8
#     4  10  21  36  66  95 126 158 218 279 318 371
#     4  10  24  39  58  93 130 167 202 256 337 389
#     4  11  23  37  63  92 122 160 221 268 320 369
#     4  10  19  38  64  92 121 161 215 269 316 370
#     4  10  20  40  62  92 113 162 218 266 298 377
#     4  12  21  38  64  92 125 163 214 260 321 388
#     4  11  23  39  58  93 132 169 209 269 329 389
#
# _framework density 22.280192
#
# number of rings (size 3 to 8) (size 9 to 14) (size 15 to 20)
#    0.000    1.429    2.857    3.000    4.000    0.571 
#    0.000    0.000    0.000    0.000    7.429    0.000 
#    0.000    0.000    0.000    0.000    0.000    0.000 
#
# Total GULP energy -347027.825677 kJ/mol
# GULP energy per Si atom -12393.850917 kJ/mol
# Density = 2.222948 g / cm^3
# Si number density = 22.280192 Si / 1000 Ang^3
#
#
#
# Elastic Constant Matrix: (Units=GPa)
#
#
# Indices 1 2 3 4 5 6 
#
# 1 70.9619 32.8923 18.4802 0.0000 1.5441 0.0000
# 2 32.8923 122.5212 51.3468 0.0000 1.2484 0.0000
# 3 18.4802 51.3468 93.3253 0.0000 9.2407 0.0000
# 4 0.0000 0.0000 0.0000 43.3376 0.0000 1.3443
# 5 1.5441 1.2484 9.2407 0.0000 17.1753 0.0000
# 6 0.0000 0.0000 0.0000 1.3443 0.0000 44.2432
#
#
#
# Elastic Compliance Matrix: (Units=1/GPa)
#
#
# Indices 1 2 3 4 5 6 
#
# 1 0.016181 -0.003927 -0.000980 0.000000 -0.000642 0.000000
# 2 -0.003927 0.011663 -0.005905 0.000000 0.002682 0.000000
# 3 -0.000980 -0.005905 0.014901 0.000000 -0.007500 0.000000
# 4 0.000000 0.000000 0.000000 0.023096 0.000000 -0.000702
# 5 -0.000642 0.002682 -0.007500 0.000000 0.062121 0.000000
# 6 0.000000 0.000000 0.000000 -0.000702 0.000000 0.022624
#
#
# Mechanical properties :
#
#
# Convention : Reuss Voigt Hill
#
# Bulk Modulus (GPa) = 47.34509 54.69410 51.01960
# Shear Modulus (GPa) = 27.89376 33.22382 30.55879
#
# Velocity S-wave (km/s) = 3.54213 3.86577 3.70749
# Velocity P-wave (km/s) = 6.16644 6.67287 6.42465
#
# Compressibility (1/GPa) = 0.02112151
#
# Stress axis : x y z
#
# Youngs Moduli (GPa) = 61.79917 85.73770 67.11017
#
# Poissons Ratio (x) = 0.33667 0.06578
# Poissons Ratio (y) = 0.24267 0.39630
# Poissons Ratio (z) = 0.06058 0.50630
#
# Static dielectric constant tensor:
#      x y z
#    x 3.843630 0.000000 0.058720 
#    y 0.000000 4.345120 0.000000 
#    z 0.058720 0.000000 3.973920 
# 
# 
# High freq. dielectric constant tensor:
#      x y z
#    x 1.861270 0.000000 0.007610 
#    y 0.000000 1.892190 0.000000 
#    z 0.007610 0.000000 1.866420 
# 
# From -- ./inp_files/209545.got.cif
#   From: 2010.06.25/outbox.cif.g09.slc.cpg/sg15_105_cif.got.tgz:209545.got - 2010.06.28 07:06:18.
