data_PCOD8135127
_publ_section_title
;
Structure prediction by ZEFSAII (Michael W. Deem and Ramdas Pophale) SiO2 
 PCOD8135127
Probable space group: C 2/C
;
_chemical_formula_sum "Si O2"
_cell_formula_units_Z 60
_cell_length_a 11.844883
_cell_length_b 18.723026
_cell_length_c 13.226200
_cell_angle_alpha 90.000000
_cell_angle_beta 100.522557
_cell_angle_gamma 90.000000
_cell_volume 2883.874122
_symmetry_space_group_name_H-M "C 2/C"
_symmetry_group_IT_number 15
_symmetry_cell_setting 'monoclinic'
loop_
_space_group_symop_operation_xyz
x,y,z
-x,y,1/2-z
-x,-y,-z
x,-y,1/2+z
1/2+x,1/2+y,z
1/2-x,1/2+y,1/2-z
1/2-x,1/2-y,-z
1/2+x,1/2-y,1/2+z
loop_
_atom_site_type_symbol
_atom_site_label
_atom_site_fract_x
_atom_site_fract_y
_atom_site_fract_z
Si Si1 0.186818 0.769216 0.774919
Si Si2 0.149021 0.025640 0.913111
Si Si3 0.769662 0.580451 0.300699
Si Si4 0.491257 0.294296 0.589318
Si Si5 0.735798 0.327377 0.367113
Si Si6 0.000000 0.392989 0.750000
Si Si7 0.072317 0.055347 0.112919
Si Si8 0.914455 0.706183 0.057625
O O1 0.276193 0.833208 0.815980
O O2 0.107501 0.758969 0.859256
O O3 0.242104 0.693785 0.748197
O O4 0.115406 0.788634 0.662379
O O5 0.170148 0.097894 0.853555
O O6 0.245624 0.966028 0.897833
O O7 0.159199 0.039450 0.034842
O O8 0.015037 0.007606 0.873032
O O9 0.653114 0.565752 0.221181
O O10 0.889587 0.558538 0.265115
O O11 0.483019 0.379500 0.572997
O O12 0.486558 0.252173 0.482674
O O13 0.845995 0.337376 0.459117
O O14 0.664033 0.261279 0.396557
O O15 0.968916 0.347453 0.646249
#
# Coordination Sequence:
#
# PCOD8135127 Si02
#       8
#     8   8   8   8   8   4   8   8
#     4   9  17  33  62  87 119 158 203 237 302 371
#     4  11  21  35  62  97 120 149 206 263 308 358
#     4  11  22  40  58  85 125 168 203 243 307 370
#     4   9  16  33  62  91 113 157 201 248 300 366
#     4  10  19  37  62  92 120 157 202 256 301 363
#     4  12  24  40  60  86 120 174 216 246 288 382
#     4  10  20  37  63  91 121 156 201 252 318 374
#     4  10  20  37  62  87 120 160 210 245 298 365
#
# _framework density 20.805346
#
# number of rings (size 3 to 8) (size 9 to 14) (size 15 to 20)
#    0.000    1.867    4.000    1.200    0.000    0.000 
#    2.400    7.333    0.000    0.000    0.000    0.000 
#    0.000    0.000    0.000    0.000    0.000    0.000 
#
# Total GULP energy -371681.135822 kJ/mol
# GULP energy per Si atom -12389.371194 kJ/mol
# Density = 2.075799 g / cm^3
# Si number density = 20.805346 Si / 1000 Ang^3
#
#
#
# Elastic Constant Matrix: (Units=GPa)
#
#
# Indices 1 2 3 4 5 6 
#
# 1 87.5438 37.9787 25.5329 0.0000 -33.7922 0.0000
# 2 37.9787 92.3992 28.4142 0.0000 -17.4163 0.0000
# 3 25.5329 28.4142 73.5056 0.0000 -28.9615 0.0000
# 4 0.0000 0.0000 0.0000 23.1575 0.0000 -16.7965
# 5 -33.7922 -17.4163 -28.9615 0.0000 36.2104 0.0000
# 6 0.0000 0.0000 0.0000 -16.7965 0.0000 38.4934
#
#
#
# Elastic Compliance Matrix: (Units=1/GPa)
#
#
# Indices 1 2 3 4 5 6 
#
# 1 0.020073 -0.005569 0.002198 0.000000 0.017812 0.000000
# 2 -0.005569 0.014068 -0.004213 0.000000 -0.001801 0.000000
# 3 0.002198 -0.004213 0.021142 0.000000 0.016934 0.000000
# 4 0.000000 0.000000 0.000000 0.063177 0.000000 0.027567
# 5 0.017812 -0.001801 0.016934 0.000000 0.056917 0.000000
# 6 0.000000 0.000000 0.000000 0.027567 0.000000 0.038007
#
#
# Mechanical properties :
#
#
# Convention : Reuss Voigt Hill
#
# Bulk Modulus (GPa) = 24.92834 48.58891 36.75863
# Shear Modulus (GPa) = 20.66756 30.34046 25.50401
#
# Velocity S-wave (km/s) = 3.15521 3.82291 3.50500
# Velocity P-wave (km/s) = 5.02807 6.54912 5.83834
#
# Compressibility (1/GPa) = 0.04011499
#
# Stress axis : x y z
#
# Youngs Moduli (GPa) = 49.81697 71.08376 47.30008
#
# Poissons Ratio (x) = 0.39589 -0.10398
# Poissons Ratio (y) = 0.27745 0.19928
# Poissons Ratio (z) = -0.10951 0.29948
#
# Static dielectric constant tensor:
#      x y z
#    x 3.806760 0.000000 -0.285130 
#    y 0.000000 3.821490 0.000000 
#    z -0.285130 0.000000 3.730940 
# 
# 
# High freq. dielectric constant tensor:
#      x y z
#    x 1.810880 0.000000 -0.030330 
#    y 0.000000 1.793540 0.000000 
#    z -0.030330 0.000000 1.799140 
# 
# From -- ./inp_files/145713.got.cif
#   From: 2010.06.25/outbox.cif.g09.slc.cpg/sg15_73_cif.got.tgz:145713.got - 2010.06.28 07:06:18.
