data_PCOD8135076
_publ_section_title
;
Structure prediction by ZEFSAII (Michael W. Deem and Ramdas Pophale) SiO2 
 PCOD8135076
Probable space group: C 2/C
;
_chemical_formula_sum "Si O2"
_cell_formula_units_Z 56
_cell_length_a 23.188987
_cell_length_b 18.959502
_cell_length_c 18.228577
_cell_angle_alpha 90.000000
_cell_angle_beta 20.427791
_cell_angle_gamma 90.000000
_cell_volume 2797.177548
_symmetry_space_group_name_H-M "C 2/C"
_symmetry_group_IT_number 15
_symmetry_cell_setting 'monoclinic'
loop_
_space_group_symop_operation_xyz
x,y,z
-x,y,1/2-z
-x,-y,-z
x,-y,1/2+z
1/2+x,1/2+y,z
1/2-x,1/2+y,1/2-z
1/2-x,1/2-y,-z
1/2+x,1/2-y,1/2+z
loop_
_atom_site_type_symbol
_atom_site_label
_atom_site_fract_x
_atom_site_fract_y
_atom_site_fract_z
Si Si1 0.833103 0.978992 0.742756
Si Si2 0.167913 0.212185 0.809295
Si Si3 0.206258 0.446442 0.694495
Si Si4 0.187617 0.301232 0.512370
Si Si5 0.162624 0.424765 0.342994
Si Si6 0.306516 0.047013 0.462641
Si Si7 0.821749 0.154961 0.171765
O O1 0.786676 0.898086 0.781115
O O2 0.691216 0.032296 0.884033
O O3 0.000000 0.000000 0.500000
O O4 0.817160 0.990124 0.849844
O O5 0.288756 0.229273 0.596944
O O6 0.234647 0.148009 0.779924
O O7 0.176518 0.285653 0.844231
O O8 0.990426 0.196616 0.986603
O O9 0.226114 0.526346 0.700570
O O10 0.230095 0.452755 0.580061
O O11 0.334485 0.392658 0.581758
O O12 0.032511 0.411621 0.927206
O O13 0.250000 0.250000 0.500000
O O14 0.267415 0.378549 0.421299
O O15 0.000000 0.316149 0.750000
O O16 0.500000 0.032162 0.250000
#
# Coordination Sequence:
#
# PCOD8135076 Si02
#       7
#     8   8   8   8   8   8   8
#     4  11  20  39  62  88 124 167 207 260 305 370
#     4  12  21  39  57  86 122 167 201 256 308 374
#     4  10  21  36  59  94 116 164 204 256 301 380
#     4  11  21  32  53  81 122 157 189 237 298 372
#     4  10  19  37  61  83 127 155 211 249 309 368
#     4  11  20  37  60  89 123 162 207 251 310 365
#     4  11  24  37  63  90 124 162 213 251 316 371
#
# _framework density 20.020181000000001
#
# number of rings (size 3 to 8) (size 9 to 14) (size 15 to 20)
#    0.000    1.143    4.286    3.429    0.000    0.000 
#    0.000    5.714    0.000    0.857    0.000    0.000 
#    0.000    0.000    0.000    0.000    0.000    0.000 
#
# Total GULP energy -346965.940914 kJ/mol
# GULP energy per Si atom -12391.640747 kJ/mol
# Density = 1.997461 g / cm^3
# Si number density = 20.020181 Si / 1000 Ang^3
#
#
#
# Elastic Constant Matrix: (Units=GPa)
#
#
# Indices 1 2 3 4 5 6 
#
# 1 105.2513 63.3287 34.6331 -0.0011 0.9681 0.0042
# 2 63.3287 142.6482 42.1683 -0.0001 2.9810 0.0042
# 3 34.6331 42.1683 66.4781 -0.0432 2.0869 0.0310
# 4 -0.0011 -0.0001 -0.0432 22.0608 0.0229 -5.4669
# 5 0.9681 2.9810 2.0869 0.0229 22.3001 -0.0138
# 6 0.0042 0.0042 0.0310 -5.4669 -0.0138 46.0878
#
#
#
# Elastic Compliance Matrix: (Units=1/GPa)
#
#
# Indices 1 2 3 4 5 6 
#
# 1 0.013807 -0.004934 -0.004078 -0.000008 0.000442 0.000001
# 2 -0.004934 0.010400 -0.004002 -0.000007 -0.000802 0.000001
# 3 -0.004078 -0.004002 0.019741 0.000038 -0.001135 -0.000008
# 4 -0.000008 -0.000007 0.000038 0.046702 -0.000047 0.005540
# 5 0.000442 -0.000802 -0.001135 -0.000047 0.045037 0.000009
# 6 0.000001 0.000001 -0.000008 0.005540 0.000009 0.022355
#
#
# Mechanical properties :
#
#
# Convention : Reuss Voigt Hill
#
# Bulk Modulus (GPa) = 55.79518 66.07086 60.93302
# Shear Modulus (GPa) = 26.30996 29.70625 28.00810
#
# Velocity S-wave (km/s) = 3.62908 3.85621 3.74437
# Velocity P-wave (km/s) = 6.74465 7.27330 7.01396
#
# Compressibility (1/GPa) = 0.01792269
#
# Stress axis : x y z
#
# Youngs Moduli (GPa) = 72.42587 96.15211 50.65648
#
# Poissons Ratio (x) = 0.47437 0.20655
# Poissons Ratio (y) = 0.35732 0.20271
# Poissons Ratio (z) = 0.29532 0.38476
#
# Static dielectric constant tensor:
#      x y z
#    x 3.830060 -0.000240 -0.145750 
#    y -0.000240 3.429000 0.000130 
#    z -0.145750 0.000130 3.393160 
# 
# 
# High freq. dielectric constant tensor:
#      x y z
#    x 1.781350 -0.000010 -0.022830 
#    y -0.000010 1.784120 0.000010 
#    z -0.022830 0.000010 1.753160 
# 
# From -- ./inp_files/220172.got.cif
#   From: 2010.06.25/outbox.cif.g09.slc.cpg/sg15_111_cif.got.tgz:220172.got - 2010.06.28 07:06:18.
