data_PCOD8135603
_publ_section_title
;
Structure prediction by ZEFSAII (Michael W. Deem and Ramdas Pophale) SiO2 
 PCOD8135603
Probable space group: C 2/C
;
_chemical_formula_sum "Si O2"
_cell_formula_units_Z 48
_cell_length_a 27.441540
_cell_length_b 8.992126
_cell_length_c 18.476080
_cell_angle_alpha 90.000000
_cell_angle_beta 32.442929
_cell_angle_gamma 90.000000
_cell_volume 2445.780304
_symmetry_space_group_name_H-M "C 2/C"
_symmetry_group_IT_number 15
_symmetry_cell_setting 'monoclinic'
loop_
_space_group_symop_operation_xyz
x,y,z
-x,y,1/2-z
-x,-y,-z
x,-y,1/2+z
1/2+x,1/2+y,z
1/2-x,1/2+y,1/2-z
1/2-x,1/2-y,-z
1/2+x,1/2-y,1/2+z
loop_
_atom_site_type_symbol
_atom_site_label
_atom_site_fract_x
_atom_site_fract_y
_atom_site_fract_z
Si Si1 0.063865 0.558893 0.736103
Si Si2 0.788916 0.406598 0.777946
Si Si3 0.831195 0.733463 0.684130
Si Si4 0.248848 0.076841 0.488802
Si Si5 0.326159 0.315801 0.851065
Si Si6 0.981943 0.631640 0.076112
O O1 0.159099 0.488786 0.591420
O O2 0.082406 0.717288 0.753459
O O3 0.014255 0.438118 0.848500
O O4 0.000000 0.596762 0.750000
O O5 0.811590 0.557616 0.707040
O O6 0.724076 0.305694 0.811626
O O7 0.741185 0.455633 0.912777
O O8 0.879882 0.311266 0.684801
O O9 0.801202 0.808093 0.797361
O O10 0.939575 0.756566 0.531873
O O11 0.250000 0.250000 0.500000
O O12 0.165870 0.989947 0.634151
O O13 0.250000 0.250000 0.000000
O O14 0.000000 0.500000 0.000000
#
# Coordination Sequence:
#
# PCOD8135603 Si02
#       6
#     8   8   8   8   8   8
#     4  10  20  36  63  89 117 162 206 254 314 364
#     4  10  22  38  60  91 120 162 208 257 313 377
#     4  11  21  38  64  89 122 167 206 259 319 372
#     4  10  22  39  59  85 126 160 205 258 309 375
#     4  10  19  39  58  85 120 151 208 258 296 379
#     4   9  18  38  57  87 123 153 211 256 297 377
#
# _framework density 19.625639
#
# number of rings (size 3 to 8) (size 9 to 14) (size 15 to 20)
#    0.000    2.000    6.667    0.000    4.667    4.000 
#    0.000    1.667    0.000    0.000    0.000    0.000 
#    0.000    0.000    0.000    0.000    0.000    0.000 
#
# Total GULP energy -297349.728954 kJ/mol
# GULP energy per Si atom -12389.572040 kJ/mol
# Density = 1.958097 g / cm^3
# Si number density = 19.625639 Si / 1000 Ang^3
#
#
#
# Elastic Constant Matrix: (Units=GPa)
#
#
# Indices 1 2 3 4 5 6 
#
# 1 135.2210 33.7113 48.2993 -0.0009 -21.7747 0.0002
# 2 33.7113 105.1565 32.7490 -0.0024 -13.4327 0.0015
# 3 48.2993 32.7490 82.1211 -0.0013 0.6461 0.0006
# 4 -0.0009 -0.0024 -0.0013 21.9871 0.0004 0.8853
# 5 -21.7747 -13.4327 0.6461 0.0004 22.8959 0.0000
# 6 0.0002 0.0015 0.0006 0.8853 0.0000 35.4366
#
#
#
# Elastic Compliance Matrix: (Units=1/GPa)
#
#
# Indices 1 2 3 4 5 6 
#
# 1 0.011716 -0.000168 -0.006912 0.000000 0.011239 0.000000
# 2 -0.000168 0.011920 -0.004710 0.000001 0.006967 0.000000
# 3 -0.006912 -0.004710 0.018198 0.000000 -0.009851 0.000000
# 4 0.000000 0.000001 0.000000 0.045527 0.000000 -0.001137
# 5 0.011239 0.006967 -0.009851 0.000000 0.058730 0.000000
# 6 0.000000 0.000000 0.000000 -0.001137 0.000000 0.028248
#
#
# Mechanical properties :
#
#
# Convention : Reuss Voigt Hill
#
# Bulk Modulus (GPa) = 54.77979 61.33531 58.05755
# Shear Modulus (GPa) = 24.50940 29.91318 27.21129
#
# Velocity S-wave (km/s) = 3.53774 3.90832 3.72764
# Velocity P-wave (km/s) = 6.68284 7.18938 6.94073
#
# Compressibility (1/GPa) = 0.01825491
#
# Stress axis : x y z
#
# Youngs Moduli (GPa) = 85.35435 83.89185 54.95006
#
# Poissons Ratio (x) = 0.01406 0.37983
# Poissons Ratio (y) = 0.01430 0.25881
# Poissons Ratio (z) = 0.58999 0.39512
#
# Static dielectric constant tensor:
#      x y z
#    x 3.532980 0.000000 0.036360 
#    y 0.000000 3.791300 0.000010 
#    z 0.036360 0.000010 4.451690 
# 
# 
# High freq. dielectric constant tensor:
#      x y z
#    x 1.763990 0.000000 0.014000 
#    y 0.000000 1.745990 0.000000 
#    z 0.014000 0.000000 1.755010 
# 
# From -- ./inp_files/257143.got.cif
#   From: 2010.06.25/outbox.cif.g09.slc.cpg/sg15_129_cif.got.tgz:257143.got - 2010.06.28 07:06:18.
