data_PCOD8135209
_publ_section_title
;
Structure prediction by ZEFSAII (Michael W. Deem and Ramdas Pophale) SiO2 
 PCOD8135209
Probable space group: C 2/C
;
_chemical_formula_sum "Si O2"
_cell_formula_units_Z 36
_cell_length_a 7.167645
_cell_length_b 17.033835
_cell_length_c 23.101201
_cell_angle_alpha 90.000000
_cell_angle_beta 136.856309
_cell_angle_gamma 90.000000
_cell_volume 1928.731891
_symmetry_space_group_name_H-M "C 2/C"
_symmetry_group_IT_number 15
_symmetry_cell_setting 'monoclinic'
loop_
_space_group_symop_operation_xyz
x,y,z
-x,y,1/2-z
-x,-y,-z
x,-y,1/2+z
1/2+x,1/2+y,z
1/2-x,1/2+y,1/2-z
1/2-x,1/2-y,-z
1/2+x,1/2-y,1/2+z
loop_
_atom_site_type_symbol
_atom_site_label
_atom_site_fract_x
_atom_site_fract_y
_atom_site_fract_z
Si Si1 0.624924 0.570775 0.919701
Si Si2 0.000000 0.186370 0.250000
Si Si3 0.055340 0.534418 0.826233
Si Si4 0.649195 0.939432 0.611623
Si Si5 0.165726 0.179909 0.730339
O O1 0.380359 0.545697 0.907564
O O2 0.679894 0.502062 0.886096
O O3 0.539310 0.647980 0.865098
O O4 0.889129 0.590650 0.017068
O O5 0.841211 0.134150 0.167105
O O6 0.787015 0.238216 0.237140
O O7 0.000000 0.498237 0.750000
O O8 0.942266 0.476059 0.848372
O O9 0.908022 0.618572 0.797701
O O10 0.000000 0.198090 0.750000
#
# Coordination Sequence:
#
# PCOD8135209 Si02
#       5
#     8   4   8   8   8
#     4  10  21  40  65  89 116 160 195 248 295 351
#     4  12  24  38  58  90 120 156 194 248 292 354
#     4  10  19  37  65  86 114 162 197 235 295 360
#     4  11  23  38  64  93 119 145 210 251 286 344
#     4  11  21  39  60  83 122 164 195 230 307 356
#
# _framework density 18.665113999999999
#
# number of rings (size 3 to 8) (size 9 to 14) (size 15 to 20)
#    0.000    1.333    5.556    3.333    0.000    3.556 
#    0.000    1.111    0.000    0.000    0.000    0.000 
#    0.000    0.000    0.000    0.000    0.000    0.000 
#
# Total GULP energy -223249.539593 kJ/mol
# GULP energy per Si atom -12402.752200 kJ/mol
# Density = 1.862263 g / cm^3
# Si number density = 18.665114 Si / 1000 Ang^3
#
#
#
# Elastic Constant Matrix: (Units=GPa)
#
#
# Indices 1 2 3 4 5 6 
#
# 1 104.3007 51.8652 62.8737 -0.0401 6.8370 -0.0180
# 2 51.8652 116.0614 79.3482 -0.0057 3.0203 -0.0022
# 3 62.8737 79.3482 126.4597 0.1411 11.4395 0.0687
# 4 -0.0401 -0.0057 0.1411 -258.5015 0.0293 -126.2438
# 5 6.8370 3.0203 11.4395 0.0293 27.4003 0.0148
# 6 -0.0180 -0.0022 0.0687 -126.2438 0.0148 -49.7415
#
#
#
# Elastic Compliance Matrix: (Units=1/GPa)
#
#
# Indices 1 2 3 4 5 6 
#
# 1 0.014170 -0.002720 -0.005244 -0.000004 -0.001047 -0.000002
# 2 -0.002720 0.015762 -0.008773 -0.000004 0.002604 -0.000001
# 3 -0.005244 -0.008773 0.016434 0.000009 -0.004586 0.000002
# 4 -0.000004 -0.000004 0.000009 0.016154 0.000003 -0.040998
# 5 -0.001047 0.002604 -0.004586 0.000003 0.038385 -0.000002
# 6 -0.000002 -0.000001 0.000002 -0.040998 -0.000002 0.083950
#
#
# Mechanical properties :
#
#
# Convention : Reuss Voigt Hill
#
# Bulk Modulus (GPa) = 77.56483 81.66621 79.61552
# Shear Modulus (GPa) = 22.45935 -45.98621 -11.76343
#
# Velocity S-wave (km/s) = 3.47260 -4.96900 -2.51317
# Velocity P-wave (km/s) = 7.59768 3.30561 5.85883
#
# Compressibility (1/GPa) = 0.01289244
#
# Stress axis : x y z
#
# Youngs Moduli (GPa) = 70.57300 63.44454 60.84854
#
# Poissons Ratio (x) = 0.17257 0.31906
# Poissons Ratio (y) = 0.19196 0.53383
# Poissons Ratio (z) = 0.37006 0.55660
#
# Static dielectric constant tensor:
#      x y z
#    x 3.786220 0.000000 0.052490 
#    y 0.000000 3.217240 0.000000 
#    z 0.052490 0.000000 3.524050 
# 
# 
# High freq. dielectric constant tensor:
#      x y z
#    x 1.747840 0.000000 0.007350 
#    y 0.000000 1.706260 0.000000 
#    z 0.007350 0.000000 1.727080 
# 
# From -- ./inp_files/263785.got.cif
#   From: 2010.06.25/outbox.cif.g09.slc.cpg/sg15_132_cif.got.tgz:263785.got - 2010.06.28 07:06:18.
