data_PCOD8135672
_publ_section_title
;
Structure prediction by ZEFSAII (Michael W. Deem and Ramdas Pophale) SiO2 
 PCOD8135672
Probable space group: C 2/C
;
_chemical_formula_sum "Si O2"
_cell_formula_units_Z 48
_cell_length_a 18.436913
_cell_length_b 13.792545
_cell_length_c 8.824350
_cell_angle_alpha 90.000000
_cell_angle_beta 109.130329
_cell_angle_gamma 90.000000
_cell_volume 2120.039711
_symmetry_space_group_name_H-M "C 2/C"
_symmetry_group_IT_number 15
_symmetry_cell_setting 'monoclinic'
loop_
_space_group_symop_operation_xyz
x,y,z
-x,y,1/2-z
-x,-y,-z
x,-y,1/2+z
1/2+x,1/2+y,z
1/2-x,1/2+y,1/2-z
1/2-x,1/2-y,-z
1/2+x,1/2-y,1/2+z
loop_
_atom_site_type_symbol
_atom_site_label
_atom_site_fract_x
_atom_site_fract_y
_atom_site_fract_z
Si Si1 0.900314 0.267317 0.955717
Si Si2 0.780543 0.971756 0.506517
Si Si3 0.449362 0.566801 0.071087
Si Si4 0.526993 0.094559 0.600164
Si Si5 0.761961 0.637056 0.227046
Si Si6 0.320781 0.819970 0.216557
O O1 0.919544 0.155014 0.947265
O O2 0.983224 0.315420 0.997384
O O3 0.859167 0.281221 0.089220
O O4 0.846072 0.314125 0.789953
O O5 0.872256 0.986699 0.574115
O O6 0.749947 0.944315 0.651314
O O7 0.753810 0.885044 0.373971
O O8 0.746197 0.077215 0.435233
O O9 0.500000 0.601198 0.250000
O O10 0.500000 0.500000 0.000000
O O11 0.500000 0.079303 0.750000
O O12 0.500000 0.000000 0.500000
O O13 0.618190 0.114043 0.650271
O O14 0.701281 0.725298 0.200431
#
# Coordination Sequence:
#
# PCOD8135672 Si02
#       6
#     8   8   8   8   8   8
#     4  10  20  39  63  89 116 168 209 246 304 383
#     4  11  22  38  65  92 122 165 210 259 310 367
#     4  12  24  39  63  91 127 165 211 255 310 375
#     4  10  21  36  62  88 115 156 206 259 311 361
#     4  11  21  40  65  91 126 162 212 257 309 375
#     4  10  19  39  63  88 121 164 213 247 301 387
#
# _framework density 22.641085
#
# number of rings (size 3 to 8) (size 9 to 14) (size 15 to 20)
#    0.000    1.333    3.333    4.500    2.333    0.000 
#    0.000    1.667    3.667    0.000    0.000    0.000 
#    0.000    0.000    0.000    0.000    0.000    0.000 
#
# Total GULP energy -297546.757702 kJ/mol
# GULP energy per Si atom -12397.781571 kJ/mol
# Density = 2.258955 g / cm^3
# Si number density = 22.641085 Si / 1000 Ang^3
#
#
#
# Elastic Constant Matrix: (Units=GPa)
#
#
# Indices 1 2 3 4 5 6 
#
# 1 74.8990 28.3322 37.1575 0.0000 34.3063 0.0000
# 2 28.3322 114.8709 42.2606 0.0000 9.6423 0.0000
# 3 37.1575 42.2606 90.1941 0.0000 37.4014 0.0000
# 4 0.0000 0.0000 0.0000 44.0346 0.0000 7.2225
# 5 34.3063 9.6423 37.4014 0.0000 29.6978 0.0000
# 6 0.0000 0.0000 0.0000 7.2225 0.0000 36.6096
#
#
#
# Elastic Compliance Matrix: (Units=1/GPa)
#
#
# Indices 1 2 3 4 5 6 
#
# 1 0.034059 -0.008044 0.010403 0.000000 -0.049833 0.000000
# 2 -0.008044 0.012927 -0.010164 0.000000 0.017896 0.000000
# 3 0.010403 -0.010164 0.031770 0.000000 -0.048729 0.000000
# 4 0.000000 0.000000 0.000000 0.023469 0.000000 -0.004630
# 5 -0.049833 0.017896 -0.048729 0.000000 0.146797 0.000000
# 6 0.000000 0.000000 0.000000 -0.004630 0.000000 0.028229
#
#
# Mechanical properties :
#
#
# Convention : Reuss Voigt Hill
#
# Bulk Modulus (GPa) = 15.83660 55.05163 35.44411
# Shear Modulus (GPa) = 15.92813 33.54932 24.73872
#
# Velocity S-wave (km/s) = 2.65525 3.85358 3.30911
# Velocity P-wave (km/s) = 4.05096 6.64589 5.50355
#
# Compressibility (1/GPa) = 0.06314486
#
# Stress axis : x y z
#
# Youngs Moduli (GPa) = 29.36083 77.36026 31.47584
#
# Poissons Ratio (x) = 0.62232 -0.32743
# Poissons Ratio (y) = 0.23619 0.31991
# Poissons Ratio (z) = -0.30543 0.78626
#
# Static dielectric constant tensor:
#      x y z
#    x 3.675360 0.000000 0.501640 
#    y 0.000000 4.123500 0.000000 
#    z 0.501640 0.000000 5.083020 
# 
# 
# High freq. dielectric constant tensor:
#      x y z
#    x 1.876470 0.000000 0.035850 
#    y 0.000000 1.902770 0.000000 
#    z 0.035850 0.000000 1.880780 
# 
# From -- ./inp_files/111786.got.cif
#   From: 2010.06.25/outbox.cif.g09.slc.cpg/sg15_56_cif.got.tgz:111786.got - 2010.06.28 07:06:18.
