data_PCOD8135108
_publ_section_title
;
Structure prediction by ZEFSAII (Michael W. Deem and Ramdas Pophale) SiO2 
 PCOD8135108
Probable space group: C 2/C
;
_chemical_formula_sum "Si O2"
_cell_formula_units_Z 60
_cell_length_a 29.953271
_cell_length_b 8.692959
_cell_length_c 24.032728
_cell_angle_alpha 90.000000
_cell_angle_beta 30.671755
_cell_angle_gamma 90.000000
_cell_volume 3192.173129
_symmetry_space_group_name_H-M "C 2/C"
_symmetry_group_IT_number 15
_symmetry_cell_setting 'monoclinic'
loop_
_space_group_symop_operation_xyz
x,y,z
-x,y,1/2-z
-x,-y,-z
x,-y,1/2+z
1/2+x,1/2+y,z
1/2-x,1/2+y,1/2-z
1/2-x,1/2-y,-z
1/2+x,1/2-y,1/2+z
loop_
_atom_site_type_symbol
_atom_site_label
_atom_site_fract_x
_atom_site_fract_y
_atom_site_fract_z
Si Si1 0.791637 0.341031 0.795997
Si Si2 0.276442 0.726378 0.252364
Si Si3 0.803191 0.997858 0.317632
Si Si4 0.480720 0.329376 0.650244
Si Si5 0.164581 0.081533 0.951184
Si Si6 0.434624 0.079671 0.613700
Si Si7 0.188473 0.328903 0.020552
Si Si8 0.500000 0.202275 0.750000
O O1 0.756562 0.313747 0.772340
O O2 0.711944 0.420687 0.915809
O O3 0.877534 0.447270 0.704207
O O4 0.816365 0.183407 0.799372
O O5 0.267839 0.570782 0.298140
O O6 0.214360 0.857629 0.343455
O O7 0.374934 0.795189 0.145274
O O8 0.736808 0.028157 0.439798
O O9 0.894509 0.076478 0.231998
O O10 0.562694 0.436432 0.544458
O O11 0.484203 0.170212 0.610667
O O12 0.486735 0.303751 0.709559
O O13 0.173174 0.196930 0.992434
O O14 0.500000 0.000000 0.500000
O O15 0.092945 0.390217 0.144696
O O16 0.250000 0.250000 0.000000
#
# Coordination Sequence:
#
# PCOD8135108 Si02
#       8
#     8   8   8   8   8   8   8   4
#     4  11  21  35  55  83 121 150 182 239 305 334
#     4   9  19  35  54  78 113 159 192 220 282 359
#     4  10  20  35  57  85 114 152 188 241 290 346
#     4  10  20  37  58  83 109 148 205 228 286 354
#     4   9  20  35  56  81 108 148 190 237 279 343
#     4  10  21  35  57  85 117 152 193 245 282 347
#     4  10  19  37  62  80 109 145 204 238 282 347
#     4  10  20  34  66  84 100 154 202 246 268 342
#
# _framework density 18.795973
#
# number of rings (size 3 to 8) (size 9 to 14) (size 15 to 20)
#    0.000    2.133    1.333    3.200    0.000    3.200 
#    0.000    4.000    0.000    1.600    0.000    0.000 
#    0.000    0.000    0.000    0.000    0.000    0.000 
#
# Total GULP energy -371808.143856 kJ/mol
# GULP energy per Si atom -12393.604795 kJ/mol
# Density = 1.875319 g / cm^3
# Si number density = 18.795973 Si / 1000 Ang^3
#
#
#
# Elastic Constant Matrix: (Units=GPa)
#
#
# Indices 1 2 3 4 5 6 
#
# 1 71.5900 17.5036 33.4555 -0.0050 0.9144 0.0107
# 2 17.5036 102.4006 45.6338 0.0232 -0.3942 -0.0218
# 3 33.4555 45.6338 145.9530 0.0085 -14.9969 -0.0152
# 4 -0.0050 0.0232 0.0085 20.8559 -0.0187 -6.4534
# 5 0.9144 -0.3942 -14.9969 -0.0187 26.0970 0.0121
# 6 0.0107 -0.0218 -0.0152 -6.4534 0.0121 10.7773
#
#
#
# Elastic Compliance Matrix: (Units=1/GPa)
#
#
# Indices 1 2 3 4 5 6 
#
# 1 0.015949 -0.001147 -0.003567 -0.000003 -0.002626 -0.000022
# 2 -0.001147 0.011527 -0.003527 -0.000008 -0.001813 0.000017
# 3 -0.003567 -0.003527 0.009330 0.000006 0.005433 0.000007
# 4 -0.000003 -0.000008 0.000006 0.058853 0.000030 0.035241
# 5 -0.002626 -0.001813 0.005433 0.000030 0.041506 -0.000022
# 6 -0.000022 0.000017 0.000007 0.035241 -0.000022 0.113890
#
#
# Mechanical properties :
#
#
# Convention : Reuss Voigt Hill
#
# Bulk Modulus (GPa) = 49.20340 57.01438 53.10889
# Shear Modulus (GPa) = 18.22743 26.43606 22.33174
#
# Velocity S-wave (km/s) = 3.11746 3.75437 3.45064
# Velocity P-wave (km/s) = 6.26040 7.01376 6.64776
#
# Compressibility (1/GPa) = 0.02032380
#
# Stress axis : x y z
#
# Youngs Moduli (GPa) = 62.69829 86.75650 107.17695
#
# Poissons Ratio (x) = 0.09948 0.38233
# Poissons Ratio (y) = 0.07189 0.37805
# Poissons Ratio (z) = 0.22366 0.30602
#
# Static dielectric constant tensor:
#      x y z
#    x 3.587470 0.000100 -0.141870 
#    y 0.000100 2.817610 -0.001480 
#    z -0.141870 -0.001480 4.189390 
# 
# 
# High freq. dielectric constant tensor:
#      x y z
#    x 1.732170 0.000000 -0.009800 
#    y 0.000000 1.705510 0.000000 
#    z -0.009800 0.000000 1.743830 
# 
# From -- ./inp_files/284294.got.cif
#   From: 2010.06.25/outbox.cif.g09.slc.cpg/sg15_143_cif.got.tgz:284294.got - 2010.06.28 07:06:18.
