data_PCOD8135802
_publ_section_title
;
Structure prediction by ZEFSAII (Michael W. Deem and Ramdas Pophale) SiO2 
 PCOD8135802
Probable space group: C 2/C
;
_chemical_formula_sum "Si O2"
_cell_formula_units_Z 64
_cell_length_a 14.715535
_cell_length_b 11.892958
_cell_length_c 18.743425
_cell_angle_alpha 90.000000
_cell_angle_beta 95.919602
_cell_angle_gamma 90.000000
_cell_volume 3262.818093
_symmetry_space_group_name_H-M "C 2/C"
_symmetry_group_IT_number 15
_symmetry_cell_setting 'monoclinic'
loop_
_space_group_symop_operation_xyz
x,y,z
-x,y,1/2-z
-x,-y,-z
x,-y,1/2+z
1/2+x,1/2+y,z
1/2-x,1/2+y,1/2-z
1/2-x,1/2-y,-z
1/2+x,1/2-y,1/2+z
loop_
_atom_site_type_symbol
_atom_site_label
_atom_site_fract_x
_atom_site_fract_y
_atom_site_fract_z
Si Si1 0.489822 0.561243 0.072882
Si Si2 0.161224 0.452185 0.417675
Si Si3 0.682391 0.617726 0.058113
Si Si4 0.690877 0.289639 0.927595
Si Si5 0.511669 0.108533 0.335987
Si Si6 0.656336 0.046529 0.081595
Si Si7 0.225743 0.158996 0.903513
Si Si8 0.545819 0.359360 0.328919
O O1 0.585290 0.627826 0.090279
O O2 0.402640 0.643300 0.063923
O O3 0.489915 0.467152 0.132844
O O4 0.500000 0.500000 0.000000
O O5 0.264897 0.499770 0.425713
O O6 0.164336 0.325922 0.383991
O O7 0.096697 0.531805 0.366056
O O8 0.124689 0.440674 0.496544
O O9 0.745937 0.712323 0.097139
O O10 0.669572 0.633580 0.972020
O O11 0.758636 0.371976 0.889888
O O12 0.750000 0.250000 0.000000
O O13 0.500000 0.099130 0.250000
O O14 0.423437 0.065240 0.369491
O O15 0.523581 0.237799 0.362255
O O16 0.685523 0.917805 0.095434
O O17 0.156169 0.134564 0.833000
O O18 0.500000 0.367359 0.250000
#
# Coordination Sequence:
#
# PCOD8135802 Si02
#       8
#     8   8   8   8   8   8   8   8
#     4  12  22  38  66  95 125 163 214 263 309 373
#     4  10  21  39  62  95 125 159 208 257 318 370
#     4  10  21  35  65  96 125 156 206 270 311 361
#     4  10  22  37  61  99 128 155 203 263 324 363
#     4  11  25  43  61  90 128 172 211 251 313 387
#     4  10  21  38  66  89 123 161 205 264 312 360
#     4  10  19  40  61  92 126 159 210 258 310 372
#     4  11  24  43  62  89 129 168 214 255 312 384
#
# _framework density 19.614946
#
# number of rings (size 3 to 8) (size 9 to 14) (size 15 to 20)
#    0.000    1.500    3.750    1.875    7.000    0.000 
#    2.250    0.625    0.000    0.000    0.000    0.000 
#    0.000    0.000    0.000    0.000    0.000    0.000 
#
# Total GULP energy -396599.147915 kJ/mol
# GULP energy per Si atom -12393.723372 kJ/mol
# Density = 1.957030 g / cm^3
# Si number density = 19.614946 Si / 1000 Ang^3
#
#
#
# Elastic Constant Matrix: (Units=GPa)
#
#
# Indices 1 2 3 4 5 6 
#
# 1 124.3097 39.8910 38.7473 0.0000 6.2574 0.0000
# 2 39.8910 128.2587 31.8293 0.0000 8.5762 0.0000
# 3 38.7473 31.8293 54.4247 0.0000 12.1618 0.0000
# 4 0.0000 0.0000 0.0000 23.4098 0.0000 7.1313
# 5 6.2574 8.5762 12.1618 0.0000 23.9525 0.0000
# 6 0.0000 0.0000 0.0000 7.1313 0.0000 18.4592
#
#
#
# Elastic Compliance Matrix: (Units=1/GPa)
#
#
# Indices 1 2 3 4 5 6 
#
# 1 0.010674 -0.001695 -0.006903 0.000000 0.001324 0.000000
# 2 -0.001695 0.009398 -0.004102 0.000000 -0.000839 0.000000
# 3 -0.006903 -0.004102 0.028151 0.000000 -0.011021 0.000000
# 4 0.000000 0.000000 0.000000 0.048415 0.000000 -0.018704
# 5 0.001324 -0.000839 -0.011021 0.000000 0.047300 0.000000
# 6 0.000000 0.000000 0.000000 -0.018704 0.000000 0.061400
#
#
# Mechanical properties :
#
#
# Convention : Reuss Voigt Hill
#
# Bulk Modulus (GPa) = 43.81852 58.65870 51.23861
# Shear Modulus (GPa) = 20.97800 26.26598 23.62199
#
# Velocity S-wave (km/s) = 3.27385 3.66331 3.47405
# Velocity P-wave (km/s) = 6.05629 6.91832 6.50161
#
# Compressibility (1/GPa) = 0.02282140
#
# Stress axis : x y z
#
# Youngs Moduli (GPa) = 93.68970 106.40557 35.52315
#
# Poissons Ratio (x) = 0.18036 0.24523
# Poissons Ratio (y) = 0.15880 0.14571
# Poissons Ratio (z) = 0.64678 0.43647
#
# Static dielectric constant tensor:
#      x y z
#    x 6.221250 0.000000 -0.194010 
#    y 0.000000 3.976090 0.000000 
#    z -0.194010 0.000000 3.206570 
# 
# 
# High freq. dielectric constant tensor:
#      x y z
#    x 1.775510 0.000000 0.015360 
#    y 0.000000 1.789330 0.000000 
#    z 0.015360 0.000000 1.715320 
# 
# From -- ./inp_files/204481.got.cif
#   From: 2010.06.25/outbox.cif.g09.slc.cpg/sg15_103_cif.got.tgz:204481.got - 2010.06.28 07:06:18.
