data_PCOD8135758
_publ_section_title
;
Structure prediction by ZEFSAII (Michael W. Deem and Ramdas Pophale) SiO2 
 PCOD8135758
Probable space group: C 2/C
;
_chemical_formula_sum "Si O2"
_cell_formula_units_Z 60
_cell_length_a 15.230968
_cell_length_b 12.110130
_cell_length_c 25.016179
_cell_angle_alpha 90.000000
_cell_angle_beta 141.885986
_cell_angle_gamma 90.000000
_cell_volume 2848.020694
_symmetry_space_group_name_H-M "C 2/C"
_symmetry_group_IT_number 15
_symmetry_cell_setting 'monoclinic'
loop_
_space_group_symop_operation_xyz
x,y,z
-x,y,1/2-z
-x,-y,-z
x,-y,1/2+z
1/2+x,1/2+y,z
1/2-x,1/2+y,1/2-z
1/2-x,1/2-y,-z
1/2+x,1/2-y,1/2+z
loop_
_atom_site_type_symbol
_atom_site_label
_atom_site_fract_x
_atom_site_fract_y
_atom_site_fract_z
Si Si1 0.759144 0.685000 0.654325
Si Si2 0.055964 0.131891 0.996694
Si Si3 0.086943 0.176450 0.191561
Si Si4 0.711070 0.713564 0.922014
Si Si5 0.851170 0.331939 0.078900
Si Si6 0.738536 0.449381 0.672613
Si Si7 0.000000 0.326158 0.750000
Si Si8 0.351334 0.500272 0.061427
O O1 0.591432 0.693833 0.562196
O O2 0.819184 0.795729 0.711157
O O3 0.843144 0.672985 0.639168
O O4 0.775765 0.577764 0.701518
O O5 0.063155 0.068799 0.943126
O O6 0.166481 0.234421 0.056146
O O7 0.102332 0.047451 0.066568
O O8 0.198451 0.126155 0.203507
O O9 0.011400 0.293838 0.138813
O O10 0.958038 0.089455 0.139009
O O11 0.557488 0.753954 0.827185
O O12 0.701156 0.580555 0.916429
O O13 0.750000 0.750000 0.000000
O O14 0.750000 0.250000 0.000000
O O15 0.796559 0.452309 0.034217
O O16 0.877406 0.403402 0.712213
#
# Coordination Sequence:
#
# PCOD8135758 Si02
#       8
#     8   8   8   8   8   8   4   8
#     4  12  23  39  66  97 133 170 222 276 334 409
#     4  10  19  39  67  93 121 171 228 265 328 392
#     4  11  25  38  62  98 136 167 212 278 341 389
#     4   9  21  37  65  90 128 168 219 276 331 401
#     4  10  22  41  65  91 125 170 222 272 325 402
#     4  11  23  40  68  95 126 178 221 284 325 393
#     4  10  24  40  64  98 132 168 234 274 336 406
#     4  10  19  41  64  93 124 177 213 274 329 395
#
# _framework density 21.067263000000001
#
# number of rings (size 3 to 8) (size 9 to 14) (size 15 to 20)
#    0.000    1.600    2.667    2.400    5.600    0.000 
#    4.800    0.000    0.000    4.800    0.000    0.000 
#    0.000    0.000    0.000    0.000    0.000    0.000 
#
# Total GULP energy -371690.010065 kJ/mol
# GULP energy per Si atom -12389.667002 kJ/mol
# Density = 2.101931 g / cm^3
# Si number density = 21.067263 Si / 1000 Ang^3
#
#
#
# Elastic Constant Matrix: (Units=GPa)
#
#
# Indices 1 2 3 4 5 6 
#
# 1 54.4042 38.6469 14.5609 0.0000 1.3275 0.0000
# 2 38.6469 101.2916 46.0877 0.0000 -0.1931 0.0000
# 3 14.5609 46.0877 111.7668 0.0000 -7.4533 0.0000
# 4 0.0000 0.0000 0.0000 40.1822 0.0000 -2.6886
# 5 1.3275 -0.1931 -7.4533 0.0000 26.7139 0.0000
# 6 0.0000 0.0000 0.0000 -2.6886 0.0000 26.2395
#
#
#
# Elastic Compliance Matrix: (Units=1/GPa)
#
#
# Indices 1 2 3 4 5 6 
#
# 1 0.025312 -0.010002 0.000752 0.000000 -0.001120 0.000000
# 2 -0.010002 0.016152 -0.005417 0.000000 -0.000898 0.000000
# 3 0.000752 -0.005417 0.011288 0.000000 0.003073 0.000000
# 4 0.000000 0.000000 0.000000 0.025058 0.000000 0.002568
# 5 -0.001120 -0.000898 0.003073 0.000000 0.038340 0.000000
# 6 0.000000 0.000000 0.000000 0.002568 0.000000 0.038374
#
#
# Mechanical properties :
#
#
# Convention : Reuss Voigt Hill
#
# Bulk Modulus (GPa) = 42.70273 51.78373 47.24323
# Shear Modulus (GPa) = 26.08737 29.83824 27.96281
#
# Velocity S-wave (km/s) = 3.52275 3.76750 3.64718
# Velocity P-wave (km/s) = 6.07125 6.59992 6.34110
#
# Compressibility (1/GPa) = 0.02341770
#
# Stress axis : x y z
#
# Youngs Moduli (GPa) = 39.50696 61.91315 88.59041
#
# Poissons Ratio (x) = 0.61925 -0.06662
# Poissons Ratio (y) = 0.39514 0.47990
# Poissons Ratio (z) = -0.02971 0.33539
#
# Static dielectric constant tensor:
#      x y z
#    x 3.825350 0.000000 0.103400 
#    y 0.000000 4.330440 0.000000 
#    z 0.103400 0.000000 4.364760 
# 
# 
# High freq. dielectric constant tensor:
#      x y z
#    x 1.798690 0.000000 0.013370 
#    y 0.000000 1.825450 0.000000 
#    z 0.013370 0.000000 1.839020 
# 
# From -- ./inp_files/316091.got.cif
#   From: 2010.06.25/outbox.cif.g09.slc.cpg/sg15_159_cif.got.tgz:316091.got - 2010.06.28 07:06:18.
