data_PCOD8135231
_publ_section_title
;
Structure prediction by ZEFSAII (Michael W. Deem and Ramdas Pophale) SiO2 
 PCOD8135231
Probable space group: C 2/C
;
_chemical_formula_sum "Si O2"
_cell_formula_units_Z 56
_cell_length_a 11.790997
_cell_length_b 13.867997
_cell_length_c 19.779418
_cell_angle_alpha 90.000000
_cell_angle_beta 120.250208
_cell_angle_gamma 90.000000
_cell_volume 2793.881020
_symmetry_space_group_name_H-M "C 2/C"
_symmetry_group_IT_number 15
_symmetry_cell_setting 'monoclinic'
loop_
_space_group_symop_operation_xyz
x,y,z
-x,y,1/2-z
-x,-y,-z
x,-y,1/2+z
1/2+x,1/2+y,z
1/2-x,1/2+y,1/2-z
1/2-x,1/2-y,-z
1/2+x,1/2-y,1/2+z
loop_
_atom_site_type_symbol
_atom_site_label
_atom_site_fract_x
_atom_site_fract_y
_atom_site_fract_z
Si Si1 0.763205 0.479880 0.085685
Si Si2 0.353028 0.450760 0.814953
Si Si3 0.304188 0.741796 0.229297
Si Si4 0.950000 0.852883 0.306984
Si Si5 0.456381 0.654436 0.035685
Si Si6 0.932621 0.694246 0.632660
Si Si7 0.161525 0.158741 0.984623
O O1 0.752513 0.521128 0.158553
O O2 0.898193 0.419766 0.117412
O O3 0.648198 0.401644 0.040910
O O4 0.752678 0.565180 0.027604
O O5 0.296044 0.369950 0.748023
O O6 0.384691 0.542455 0.778111
O O7 0.488815 0.415814 0.889627
O O8 0.158511 0.781485 0.195497
O O9 0.411272 0.798288 0.307180
O O10 0.347348 0.752466 0.164713
O O11 0.000000 0.813921 0.250000
O O12 0.074002 0.860609 0.393194
O O13 0.397924 0.751288 0.052108
O O14 0.575441 0.684197 0.023680
O O15 0.250000 0.250000 0.000000
#
# Coordination Sequence:
#
# PCOD8135231 Si02
#       7
#     8   8   8   8   8   8   8
#     4  11  19  40  66  90 119 168 213 253 319 372
#     4  10  20  38  62  88 124 170 207 252 309 382
#     4  10  23  41  59  94 132 163 213 260 319 367
#     4  12  25  41  63  92 128 167 212 258 315 388
#     4  10  19  37  66  89 119 164 215 254 306 372
#     4  10  21  37  67  93 127 158 212 272 308 367
#     4  11  24  42  63  91 129 167 214 258 314 387
#
# _framework density 20.043801999999999
#
# number of rings (size 3 to 8) (size 9 to 14) (size 15 to 20)
#    0.000    1.429    4.286    1.286   10.000    0.000 
#    2.571    0.714    0.000    0.000    0.000    0.000 
#    0.000    0.000    0.000    0.000    0.000    0.000 
#
# Total GULP energy -347224.418607 kJ/mol
# GULP energy per Si atom -12400.872093 kJ/mol
# Density = 1.999818 g / cm^3
# Si number density = 20.043802 Si / 1000 Ang^3
#
#
#
# Elastic Constant Matrix: (Units=GPa)
#
#
# Indices 1 2 3 4 5 6 
#
# 1 56.4751 43.3322 18.7956 0.0000 -8.2038 0.0000
# 2 43.3322 137.5268 43.0839 0.0000 2.0326 0.0000
# 3 18.7956 43.0839 67.5842 0.0000 -17.2176 0.0000
# 4 0.0000 0.0000 0.0000 28.8682 0.0000 -5.4181
# 5 -8.2038 2.0326 -17.2176 0.0000 24.4603 0.0000
# 6 0.0000 0.0000 0.0000 -5.4181 0.0000 36.0599
#
#
#
# Elastic Compliance Matrix: (Units=1/GPa)
#
#
# Indices 1 2 3 4 5 6 
#
# 1 0.025264 -0.008343 0.000765 0.000000 0.009705 0.000000
# 2 -0.008343 0.012595 -0.008150 0.000000 -0.009581 0.000000
# 3 0.000765 -0.008150 0.024391 0.000000 0.018102 0.000000
# 4 0.000000 0.000000 0.000000 0.035645 0.000000 0.005356
# 5 0.009705 -0.009581 0.018102 0.000000 0.057676 0.000000
# 6 0.000000 0.000000 0.000000 0.005356 0.000000 0.028536
#
#
# Mechanical properties :
#
#
# Convention : Reuss Voigt Hill
#
# Bulk Modulus (GPa) = 32.47420 52.44548 42.45984
# Shear Modulus (GPa) = 22.14084 28.30265 25.22174
#
# Velocity S-wave (km/s) = 3.32719 3.76179 3.55114
# Velocity P-wave (km/s) = 5.56750 6.71493 6.16796
#
# Compressibility (1/GPa) = 0.03079367
#
# Stress axis : x y z
#
# Youngs Moduli (GPa) = 39.58247 79.39757 40.99946
#
# Poissons Ratio (x) = 0.66244 -0.03137
# Poissons Ratio (y) = 0.33025 0.33413
# Poissons Ratio (z) = -0.03029 0.64706
#
# Static dielectric constant tensor:
#      x y z
#    x 3.849060 0.000000 0.084010 
#    y 0.000000 3.864880 0.000000 
#    z 0.084010 0.000000 3.732640 
# 
# 
# High freq. dielectric constant tensor:
#      x y z
#    x 1.765960 0.000000 -0.005580 
#    y 0.000000 1.782850 0.000000 
#    z -0.005580 0.000000 1.780740 
# 
# From -- ./inp_files/237612.got.cif
#   From: 2010.06.25/outbox.cif.g09.slc.cpg/sg15_119_cif.got.tgz:237612.got - 2010.06.28 07:06:18.
