data_PCOD8135885
_publ_section_title
;
Structure prediction by ZEFSAII (Michael W. Deem and Ramdas Pophale) SiO2 
 PCOD8135885
Probable space group: C 2/C
;
_chemical_formula_sum "Si O2"
_cell_formula_units_Z 60
_cell_length_a 19.262157
_cell_length_b 8.573289
_cell_length_c 25.437714
_cell_angle_alpha 90.000000
_cell_angle_beta 40.383083
_cell_angle_gamma 90.000000
_cell_volume 2721.667743
_symmetry_space_group_name_H-M "C 2/C"
_symmetry_group_IT_number 15
_symmetry_cell_setting 'monoclinic'
loop_
_space_group_symop_operation_xyz
x,y,z
-x,y,1/2-z
-x,-y,-z
x,-y,1/2+z
1/2+x,1/2+y,z
1/2-x,1/2+y,1/2-z
1/2-x,1/2-y,-z
1/2+x,1/2-y,1/2+z
loop_
_atom_site_type_symbol
_atom_site_label
_atom_site_fract_x
_atom_site_fract_y
_atom_site_fract_z
Si Si1 0.780082 0.244477 0.659143
Si Si2 0.816333 0.855529 0.888713
Si Si3 0.500000 0.588132 0.750000
Si Si4 0.548439 0.675835 0.410829
Si Si5 0.512526 0.345096 0.041955
Si Si6 0.228012 0.548077 0.248977
Si Si7 0.514141 0.822922 0.837044
Si Si8 0.601165 0.124147 0.572814
O O1 0.717876 0.245342 0.640062
O O2 0.894122 0.166455 0.584705
O O3 0.795802 0.418821 0.675083
O O4 0.720823 0.132368 0.736586
O O5 0.881258 0.757673 0.894202
O O6 0.892872 0.986441 0.819490
O O7 0.709346 0.922373 0.978740
O O8 0.502773 0.695445 0.799195
O O9 0.466991 0.526795 0.456153
O O10 0.582314 0.715482 0.452024
O O11 0.655987 0.625190 0.320755
O O12 0.490742 0.820342 0.415021
O O13 0.532115 0.242190 0.081499
O O14 0.140165 0.642054 0.266132
O O15 0.442597 0.976527 0.868988
#
# Coordination Sequence:
#
# PCOD8135885 Si02
#       8
#     8   8   4   8   8   8   8   8
#     4  10  21  41  63  97 132 172 217 272 338 397
#     4  11  27  46  70  97 135 186 232 283 341 414
#     4  12  30  46  68  94 142 186 226 292 348 402
#     4  10  19  40  69 101 131 179 214 275 342 406
#     4   9  20  39  64  97 137 168 219 269 334 407
#     4  10  23  37  67 100 133 168 217 283 336 400
#     4  11  26  45  63 101 134 174 232 281 343 404
#     4  11  25  47  71  99 135 184 236 276 342 420
#
# _framework density 22.045307000000001
#
# number of rings (size 3 to 8) (size 9 to 14) (size 15 to 20)
#    0.000    1.600    1.333    1.600   11.200    2.133 
#    0.000    0.000    0.000    0.000    0.000    0.000 
#    0.000    0.000    0.000    0.000    0.000    0.000 
#
# Total GULP energy -371734.912418 kJ/mol
# GULP energy per Si atom -12391.163747 kJ/mol
# Density = 2.199513 g / cm^3
# Si number density = 22.045307 Si / 1000 Ang^3
#
#
#
# Elastic Constant Matrix: (Units=GPa)
#
#
# Indices 1 2 3 4 5 6 
#
# 1 85.7259 31.9255 29.2772 -0.0002 9.5567 -0.0055
# 2 31.9255 94.4206 45.2162 -0.0005 6.1082 -0.0069
# 3 29.2772 45.2162 71.2308 -0.0004 0.9873 -0.0004
# 4 -0.0002 -0.0005 -0.0004 33.5356 0.0008 11.4015
# 5 9.5567 6.1082 0.9873 0.0008 30.5573 0.0032
# 6 -0.0055 -0.0069 -0.0004 11.4015 0.0032 29.0634
#
#
#
# Elastic Compliance Matrix: (Units=1/GPa)
#
#
# Indices 1 2 3 4 5 6 
#
# 1 0.014527 -0.002625 -0.004251 -0.000001 -0.003881 0.000003
# 2 -0.002625 0.015922 -0.008999 -0.000001 -0.002071 0.000004
# 3 -0.004251 -0.008999 0.021465 0.000001 0.002435 -0.000003
# 4 -0.000001 -0.000001 0.000001 0.034408 0.000001 -0.013498
# 5 -0.003881 -0.002071 0.002435 0.000001 0.034275 -0.000005
# 6 0.000003 0.000004 -0.000003 -0.013498 -0.000005 0.039703
#
#
# Mechanical properties :
#
#
# Convention : Reuss Voigt Hill
#
# Bulk Modulus (GPa) = 49.59443 51.57944 50.58694
# Shear Modulus (GPa) = 25.15450 28.29517 26.72483
#
# Velocity S-wave (km/s) = 3.38159 3.58648 3.48554
# Velocity P-wave (km/s) = 6.14754 6.37168 6.26061
#
# Compressibility (1/GPa) = 0.02016356
#
# Stress axis : x y z
#
# Youngs Moduli (GPa) = 68.83668 62.80551 46.58772
#
# Poissons Ratio (x) = 0.16488 0.19803
# Poissons Ratio (y) = 0.18072 0.41926
# Poissons Ratio (z) = 0.29260 0.56521
#
# Static dielectric constant tensor:
#      x y z
#    x 3.821350 0.000000 0.060660 
#    y 0.000000 4.099460 0.000000 
#    z 0.060660 0.000000 4.185290 
# 
# 
# High freq. dielectric constant tensor:
#      x y z
#    x 1.856040 0.000000 0.007800 
#    y 0.000000 1.863830 0.000000 
#    z 0.007800 0.000000 1.881060 
# 
# From -- ./inp_files/300503.got.cif
#   From: 2010.06.25/outbox.cif.g09.slc.cpg/sg15_151_cif.got.tgz:300503.got - 2010.06.28 07:06:18.
