data_PCOD8135825
_publ_section_title
;
Structure prediction by ZEFSAII (Michael W. Deem and Ramdas Pophale) SiO2 
 PCOD8135825
Probable space group: C 2/C
;
_chemical_formula_sum "Si O2"
_cell_formula_units_Z 64
_cell_length_a 26.733948
_cell_length_b 10.975345
_cell_length_c 14.998886
_cell_angle_alpha 90.000000
_cell_angle_beta 137.586929
_cell_angle_gamma 90.000000
_cell_volume 2968.270386
_symmetry_space_group_name_H-M "C 2/C"
_symmetry_group_IT_number 15
_symmetry_cell_setting 'monoclinic'
loop_
_space_group_symop_operation_xyz
x,y,z
-x,y,1/2-z
-x,-y,-z
x,-y,1/2+z
1/2+x,1/2+y,z
1/2-x,1/2+y,1/2-z
1/2-x,1/2-y,-z
1/2+x,1/2-y,1/2+z
loop_
_atom_site_type_symbol
_atom_site_label
_atom_site_fract_x
_atom_site_fract_y
_atom_site_fract_z
Si Si1 0.254897 0.804814 0.883661
Si Si2 0.965019 0.078658 0.569789
Si Si3 0.780813 0.070194 0.620084
Si Si4 0.398217 0.662334 0.651050
Si Si5 0.638060 0.093140 0.331554
Si Si6 0.837164 0.276394 0.811430
Si Si7 0.508402 0.315436 0.943948
Si Si8 0.629889 0.182291 0.812923
O O1 0.282221 0.812636 0.818478
O O2 0.192055 0.701053 0.816712
O O3 0.210037 0.927094 0.850483
O O4 0.328176 0.781380 0.040294
O O5 0.903607 0.143164 0.551804
O O6 0.965560 0.152593 0.478670
O O7 0.044079 0.078026 0.721659
O O8 0.950009 0.935346 0.538125
O O9 0.818815 0.115273 0.578474
O O10 0.695272 0.097018 0.489305
O O11 0.813833 0.141698 0.747818
O O12 0.418209 0.800812 0.709832
O O13 0.673739 0.127459 0.282903
O O14 0.603339 0.958764 0.278294
O O15 0.924252 0.279653 0.953386
O O16 0.445626 0.259900 0.796186
#
# Coordination Sequence:
#
# PCOD8135825 Si02
#       8
#     8   8   8   8   8   8   8   8
#     4  10  24  42  63  94 125 171 218 257 320 388
#     4  10  22  37  64  95 120 163 207 263 324 378
#     4  10  21  42  64  89 127 162 216 271 311 382
#     4  10  19  40  63  90 123 160 213 259 315 375
#     4  10  22  42  62  90 125 173 209 259 320 379
#     4  11  23  40  65  96 128 161 218 269 322 379
#     4  11  23  41  63  97 132 161 213 269 326 379
#     4  10  24  43  64  88 136 172 209 260 323 389
#
# _framework density 21.561378999999999
#
# number of rings (size 3 to 8) (size 9 to 14) (size 15 to 20)
#    0.000    1.750    2.500    2.250    3.500    8.000 
#    2.250    2.500    0.000    0.000    0.000    0.000 
#    0.000    0.000    0.000    0.000    0.000    0.000 
#
# Total GULP energy -396628.721211 kJ/mol
# GULP energy per Si atom -12394.647538 kJ/mol
# Density = 2.151230 g / cm^3
# Si number density = 21.561379 Si / 1000 Ang^3
#
#
#
# Elastic Constant Matrix: (Units=GPa)
#
#
# Indices 1 2 3 4 5 6 
#
# 1 102.0450 44.3316 3.4871 0.0000 -20.4238 0.0000
# 2 44.3316 101.3282 15.5486 0.0000 -4.6237 0.0000
# 3 3.4871 15.5486 72.1527 0.0000 3.6068 0.0000
# 4 0.0000 0.0000 0.0000 30.8505 0.0000 1.5510
# 5 -20.4238 -4.6237 3.6068 0.0000 28.3125 0.0000
# 6 0.0000 0.0000 0.0000 1.5510 0.0000 17.7935
#
#
#
# Elastic Compliance Matrix: (Units=1/GPa)
#
#
# Indices 1 2 3 4 5 6 
#
# 1 0.014165 -0.005790 0.000100 0.000000 0.009260 0.000000
# 2 -0.005790 0.012682 -0.002363 0.000000 -0.001805 0.000000
# 3 0.000100 -0.002363 0.014472 0.000000 -0.002157 0.000000
# 4 0.000000 0.000000 0.000000 0.032557 0.000000 -0.002838
# 5 0.009260 -0.001805 -0.002157 0.000000 0.041980 0.000000
# 6 0.000000 0.000000 0.000000 -0.002838 0.000000 0.056448
#
#
# Mechanical properties :
#
#
# Convention : Reuss Voigt Hill
#
# Bulk Modulus (GPa) = 39.66142 44.69562 42.17852
# Shear Modulus (GPa) = 25.40476 29.53520 27.46998
#
# Velocity S-wave (km/s) = 3.43629 3.70512 3.57324
# Velocity P-wave (km/s) = 5.84626 6.25127 6.05215
#
# Compressibility (1/GPa) = 0.02521342
#
# Stress axis : x y z
#
# Youngs Moduli (GPa) = 70.59734 78.84980 69.10044
#
# Poissons Ratio (x) = 0.45654 -0.00693
# Poissons Ratio (y) = 0.40876 0.16328
# Poissons Ratio (z) = -0.00708 0.18632
#
# Static dielectric constant tensor:
#      x y z
#    x 3.839810 0.000000 -0.127860 
#    y 0.000000 3.915150 0.000000 
#    z -0.127860 0.000000 3.822240 
# 
# 
# High freq. dielectric constant tensor:
#      x y z
#    x 1.831620 0.000000 -0.005460 
#    y 0.000000 1.843260 0.000000 
#    z -0.005460 0.000000 1.846030 
# 
# From -- ./inp_files/177862.got.cif
#   From: 2010.06.25/outbox.cif.g09.slc.cpg/sg15_89_cif.got.tgz:177862.got - 2010.06.28 07:06:18.
