data_PCOD8135752
_publ_section_title
;
Structure prediction by ZEFSAII (Michael W. Deem and Ramdas Pophale) SiO2 
 PCOD8135752
Probable space group: C 2/C
;
_chemical_formula_sum "Si O2"
_cell_formula_units_Z 56
_cell_length_a 12.346669
_cell_length_b 11.919194
_cell_length_c 19.790061
_cell_angle_alpha 90.000000
_cell_angle_beta 66.624281
_cell_angle_gamma 90.000000
_cell_volume 2673.314209
_symmetry_space_group_name_H-M "C 2/C"
_symmetry_group_IT_number 15
_symmetry_cell_setting 'monoclinic'
loop_
_space_group_symop_operation_xyz
x,y,z
-x,y,1/2-z
-x,-y,-z
x,-y,1/2+z
1/2+x,1/2+y,z
1/2-x,1/2+y,1/2-z
1/2-x,1/2-y,-z
1/2+x,1/2-y,1/2+z
loop_
_atom_site_type_symbol
_atom_site_label
_atom_site_fract_x
_atom_site_fract_y
_atom_site_fract_z
Si Si1 0.347228 0.521217 0.967070
Si Si2 0.199235 0.322482 0.953327
Si Si3 0.668272 0.705084 0.828361
Si Si4 0.594238 0.240720 0.104538
Si Si5 0.715010 0.755823 0.338061
Si Si6 0.107555 0.962530 0.895795
Si Si7 0.556397 0.122619 0.982126
O O1 0.242159 0.451817 0.954701
O O2 0.366352 0.633797 0.921700
O O3 0.467265 0.449455 0.939058
O O4 0.320126 0.548948 0.051762
O O5 0.237166 0.273756 0.870530
O O6 0.250000 0.250000 0.000000
O O7 0.059247 0.299650 0.993214
O O8 0.544428 0.767085 0.843337
O O9 0.750601 0.695607 0.742762
O O10 0.644750 0.577565 0.852983
O O11 0.668853 0.210788 0.151882
O O12 0.625688 0.156397 0.034146
O O13 0.639801 0.644162 0.342107
O O14 0.640391 0.850879 0.397444
O O15 0.500000 0.000000 0.000000
#
# Coordination Sequence:
#
# PCOD8135752 Si02
#       7
#     8   8   8   8   8   8   8
#     4  10  19  39  67  89 113 159 220 256 289 368
#     4  11  21  38  64  88 119 162 204 257 306 368
#     4  10  24  41  59  93 128 160 206 261 322 370
#     4  10  22  40  63  89 117 167 216 252 302 375
#     4  12  23  40  63  92 129 164 204 264 317 377
#     4  10  21  38  65  90 117 160 211 255 304 370
#     4  11  24  37  59  94 126 158 210 254 307 377
#
# _framework density 20.947780999999999
#
# number of rings (size 3 to 8) (size 9 to 14) (size 15 to 20)
#    0.000    1.429    2.857    2.571    2.000    3.429 
#    0.000    4.286    0.000    0.000    0.000    0.000 
#    0.000    0.000    0.000    0.000    0.000    0.000 
#
# Total GULP energy -347127.244333 kJ/mol
# GULP energy per Si atom -12397.401583 kJ/mol
# Density = 2.090010 g / cm^3
# Si number density = 20.947781 Si / 1000 Ang^3
#
#
#
# Elastic Constant Matrix: (Units=GPa)
#
#
# Indices 1 2 3 4 5 6 
#
# 1 81.4181 -5.1594 29.2120 0.0000 11.3674 0.0000
# 2 -5.1594 54.5127 7.1393 0.0000 -2.3635 0.0000
# 3 29.2120 7.1393 132.3356 0.0000 -2.9381 0.0000
# 4 0.0000 0.0000 0.0000 21.7677 0.0000 -0.2763
# 5 11.3674 -2.3635 -2.9381 0.0000 25.0421 0.0000
# 6 0.0000 0.0000 0.0000 -0.2763 0.0000 33.4661
#
#
#
# Elastic Compliance Matrix: (Units=1/GPa)
#
#
# Indices 1 2 3 4 5 6 
#
# 1 0.014579 0.001534 -0.003454 0.000000 -0.006878 0.000000
# 2 0.001534 0.018703 -0.001327 0.000000 0.000913 0.000000
# 3 -0.003454 -0.001327 0.008445 0.000000 0.002433 0.000000
# 4 0.000000 0.000000 0.000000 0.045945 0.000000 0.000379
# 5 -0.006878 0.000913 0.002433 0.000000 0.043427 0.000000
# 6 0.000000 0.000000 0.000000 0.000379 0.000000 0.029884
#
#
# Mechanical properties :
#
#
# Convention : Reuss Voigt Hill
#
# Bulk Modulus (GPa) = 28.38297 36.73888 32.56093
# Shear Modulus (GPa) = 27.89868 31.86015 29.87942
#
# Velocity S-wave (km/s) = 3.65337 3.90414 3.78084
# Velocity P-wave (km/s) = 5.60134 6.15626 5.88534
#
# Compressibility (1/GPa) = 0.03523239
#
# Stress axis : x y z
#
# Youngs Moduli (GPa) = 68.59208 53.46745 118.41973
#
# Poissons Ratio (x) = -0.08202 0.40898
# Poissons Ratio (y) = -0.10522 0.15718
# Poissons Ratio (z) = 0.23689 0.07097
#
# Static dielectric constant tensor:
#      x y z
#    x 4.403980 0.000000 -0.127770 
#    y 0.000000 3.864590 0.000000 
#    z -0.127770 0.000000 3.601880 
# 
# 
# High freq. dielectric constant tensor:
#      x y z
#    x 1.834980 0.000000 -0.002940 
#    y 0.000000 1.827260 0.000000 
#    z -0.002940 0.000000 1.797110 
# 
# From -- ./inp_files/237546.got.cif
#   From: 2010.06.25/outbox.cif.g09.slc.cpg/sg15_119_cif.got.tgz:237546.got - 2010.06.28 07:06:18.
