data_PCOD8135687
_publ_section_title
;
Structure prediction by ZEFSAII (Michael W. Deem and Ramdas Pophale) SiO2 
 PCOD8135687
Probable space group: C 2/C
;
_chemical_formula_sum "Si O2"
_cell_formula_units_Z 48
_cell_length_a 9.267824
_cell_length_b 15.673950
_cell_length_c 21.672047
_cell_angle_alpha 90.000000
_cell_angle_beta 131.242456
_cell_angle_gamma 90.000000
_cell_volume 2367.181871
_symmetry_space_group_name_H-M "C 2/C"
_symmetry_group_IT_number 15
_symmetry_cell_setting 'monoclinic'
loop_
_space_group_symop_operation_xyz
x,y,z
-x,y,1/2-z
-x,-y,-z
x,-y,1/2+z
1/2+x,1/2+y,z
1/2-x,1/2+y,1/2-z
1/2-x,1/2-y,-z
1/2+x,1/2-y,1/2+z
loop_
_atom_site_type_symbol
_atom_site_label
_atom_site_fract_x
_atom_site_fract_y
_atom_site_fract_z
Si Si1 0.551815 0.308483 0.006563
Si Si2 0.969812 0.948945 0.170093
Si Si3 0.181274 0.917058 0.946207
Si Si4 0.756099 0.551885 0.061274
Si Si5 0.795976 0.411371 0.167995
Si Si6 0.427173 0.116642 0.993650
O O1 0.717509 0.339418 0.099580
O O2 0.631475 0.322262 0.957710
O O3 0.361688 0.364753 0.955402
O O4 0.492230 0.214161 0.006498
O O5 0.781598 0.896694 0.095109
O O6 0.000000 0.932979 0.250000
O O7 0.155644 0.916376 0.186775
O O8 0.939413 0.050786 0.147240
O O9 0.406538 0.933568 0.996361
O O10 0.124719 0.984565 0.985064
O O11 0.829703 0.502710 0.142982
O O12 0.928140 0.586688 0.065568
O O13 0.000000 0.379130 0.250000
#
# Coordination Sequence:
#
# PCOD8135687 Si02
#       6
#     8   8   8   8   8   8
#     4  11  20  41  65  89 120 159 202 247 300 366
#     4  11  23  39  61  88 123 158 206 253 301 358
#     4  10  20  39  61  90 115 158 203 245 289 362
#     4  10  19  39  64  84 114 157 211 240 284 365
#     4  11  23  38  63  88 119 163 205 252 301 357
#     4  11  23  36  67  93 120 157 199 252 308 360
#
# _framework density 20.277277000000002
#
# number of rings (size 3 to 8) (size 9 to 14) (size 15 to 20)
#    0.000    1.333    5.000    4.000    7.000    0.000 
#    0.000    1.667    0.000    0.000    0.000    0.000 
#    0.000    0.000    0.000    0.000    0.000    0.000 
#
# Total GULP energy -297402.967031 kJ/mol
# GULP energy per Si atom -12391.790293 kJ/mol
# Density = 2.023113 g / cm^3
# Si number density = 20.277277 Si / 1000 Ang^3
#
#
#
# Elastic Constant Matrix: (Units=GPa)
#
#
# Indices 1 2 3 4 5 6 
#
# 1 134.8061 16.0112 57.2141 0.0000 -5.5159 0.0000
# 2 16.0112 47.7932 38.5341 0.0000 -1.7906 0.0000
# 3 57.2141 38.5341 105.7676 0.0000 0.3457 0.0000
# 4 0.0000 0.0000 0.0000 16.7415 0.0000 2.3864
# 5 -5.5159 -1.7906 0.3457 0.0000 31.5452 0.0000
# 6 0.0000 0.0000 0.0000 2.3864 0.0000 28.2210
#
#
#
# Elastic Compliance Matrix: (Units=1/GPa)
#
#
# Indices 1 2 3 4 5 6 
#
# 1 0.009801 0.001509 -0.005858 0.000000 0.001864 0.000000
# 2 0.001509 0.029961 -0.011739 0.000000 0.002093 0.000000
# 3 -0.005858 -0.011739 0.016906 0.000000 -0.001876 0.000000
# 4 0.000000 0.000000 0.000000 0.060461 0.000000 -0.005113
# 5 0.001864 0.002093 -0.001876 0.000000 0.032166 0.000000
# 6 0.000000 0.000000 0.000000 -0.005113 0.000000 0.035867
#
#
# Mechanical properties :
#
#
# Convention : Reuss Voigt Hill
#
# Bulk Modulus (GPa) = 40.82683 56.87618 48.85151
# Shear Modulus (GPa) = 22.17281 27.07538 24.62409
#
# Velocity S-wave (km/s) = 3.31037 3.65808 3.48856
# Velocity P-wave (km/s) = 5.89825 6.77880 6.35380
#
# Compressibility (1/GPa) = 0.02449369
#
# Stress axis : x y z
#
# Youngs Moduli (GPa) = 102.02780 33.37675 59.14914
#
# Poissons Ratio (x) = -0.05038 0.34649
# Poissons Ratio (y) = -0.15399 0.69435
# Poissons Ratio (z) = 0.59767 0.39181
#
# Static dielectric constant tensor:
#      x y z
#    x 4.178660 0.000000 -0.163180 
#    y 0.000000 3.682100 0.000000 
#    z -0.163180 0.000000 3.420610 
# 
# 
# High freq. dielectric constant tensor:
#      x y z
#    x 1.829050 0.000000 -0.005410 
#    y 0.000000 1.784030 0.000000 
#    z -0.005410 0.000000 1.750920 
# 
# From -- ./inp_files/134877.got.cif
#   From: 2010.06.25/outbox.cif.g09.slc.cpg/sg15_68_cif.got.tgz:134877.got - 2010.06.28 07:06:18.
