data_PCOD8135493
_publ_section_title
;
Structure prediction by ZEFSAII (Michael W. Deem and Ramdas Pophale) SiO2 
 PCOD8135493
Probable space group: C 2/C
;
_chemical_formula_sum "Si O2"
_cell_formula_units_Z 56
_cell_length_a 17.628688
_cell_length_b 28.151167
_cell_length_c 8.613936
_cell_angle_alpha 90.000000
_cell_angle_beta 41.491533
_cell_angle_gamma 90.000000
_cell_volume 2832.109595
_symmetry_space_group_name_H-M "C 2/C"
_symmetry_group_IT_number 15
_symmetry_cell_setting 'monoclinic'
loop_
_space_group_symop_operation_xyz
x,y,z
-x,y,1/2-z
-x,-y,-z
x,-y,1/2+z
1/2+x,1/2+y,z
1/2-x,1/2+y,1/2-z
1/2-x,1/2-y,-z
1/2+x,1/2-y,1/2+z
loop_
_atom_site_type_symbol
_atom_site_label
_atom_site_fract_x
_atom_site_fract_y
_atom_site_fract_z
Si Si1 0.000000 0.633922 0.750000
Si Si2 0.183611 0.438909 0.850246
Si Si3 0.134337 0.797173 0.794422
Si Si4 0.366698 0.965589 0.919368
Si Si5 0.279466 0.380378 0.253109
Si Si6 0.852341 0.690780 0.753358
Si Si7 0.000000 0.853007 0.750000
Si Si8 0.371413 0.374890 0.452867
O O1 0.961868 0.665519 0.661721
O O2 0.103619 0.602252 0.534823
O O3 0.143136 0.457509 0.747119
O O4 0.309023 0.415821 0.648217
O O5 0.182367 0.482137 0.972518
O O6 0.107162 0.742104 0.869815
O O7 0.258719 0.803074 0.530380
O O8 0.036184 0.819039 0.835562
O O9 0.133540 0.823658 0.959473
O O10 0.500000 0.960954 0.750000
O O11 0.292533 0.929113 0.136914
O O12 0.197665 0.338928 0.314111
O O13 0.314551 0.367396 0.373276
O O14 0.393257 0.385582 0.970712
O O15 0.500000 0.393972 0.250000
#
# Coordination Sequence:
#
# PCOD8135493 Si02
#       8
#     4   8   8   8   8   8   4   8
#     4  12  21  40  66  94 130 162 206 261 312 372
#     4  11  25  39  65  90 124 165 208 260 317 376
#     4  10  20  38  63  88 126 163 211 252 312 371
#     4  11  23  41  62  93 122 163 208 259 319 376
#     4  10  23  39  63  92 127 161 216 258 313 377
#     4  10  22  37  62  95 120 165 208 258 302 380
#     4  10  19  38  64  90 120 172 208 261 312 370
#     4  11  22  44  61  91 127 170 203 264 318 369
#
# _framework density 19.773246
#
# number of rings (size 3 to 8) (size 9 to 14) (size 15 to 20)
#    0.000    1.429    3.571    1.714    2.000    0.571 
#    1.286    5.000    0.000    0.000    0.000    0.000 
#    0.000    0.000    0.000    0.000    0.000    0.000 
#
# Total GULP energy -347282.320240 kJ/mol
# GULP energy per Si atom -12402.940009 kJ/mol
# Density = 1.972824 g / cm^3
# Si number density = 19.773246 Si / 1000 Ang^3
#
#
#
# Elastic Constant Matrix: (Units=GPa)
#
#
# Indices 1 2 3 4 5 6 
#
# 1 103.0479 60.5368 37.5901 0.0000 -2.6368 0.0000
# 2 60.5368 146.3164 56.2677 0.0000 -7.1773 0.0000
# 3 37.5901 56.2677 88.7613 0.0000 -13.9914 0.0000
# 4 0.0000 0.0000 0.0000 -67.1712 0.0000 13.8707
# 5 -2.6368 -7.1773 -13.9914 0.0000 29.2712 0.0000
# 6 0.0000 0.0000 0.0000 13.8707 0.0000 31.0173
#
#
#
# Elastic Compliance Matrix: (Units=1/GPa)
#
#
# Indices 1 2 3 4 5 6 
#
# 1 0.013391 -0.004422 -0.003081 0.000000 -0.001351 0.000000
# 2 -0.004422 0.010507 -0.004807 0.000000 -0.000120 0.000000
# 3 -0.003081 -0.004807 0.016642 0.000000 0.006499 0.000000
# 4 0.000000 0.000000 0.000000 -0.013629 0.000000 0.006095
# 5 -0.001351 -0.000120 0.006499 0.000000 0.037119 0.000000
# 6 0.000000 0.000000 0.000000 0.006095 0.000000 0.029515
#
#
# Mechanical properties :
#
#
# Convention : Reuss Voigt Hill
#
# Bulk Modulus (GPa) = 62.80848 71.87941 67.34395
# Shear Modulus (GPa) = 40.49556 10.87220 25.68388
#
# Velocity S-wave (km/s) = 4.53039 2.34742 3.60796
# Velocity P-wave (km/s) = 7.69410 6.61649 7.17556
#
# Compressibility (1/GPa) = 0.01592142
#
# Stress axis : x y z
#
# Youngs Moduli (GPa) = 74.67563 95.17849 60.08798
#
# Poissons Ratio (x) = 0.42087 0.18512
# Poissons Ratio (y) = 0.33021 0.28881
# Poissons Ratio (z) = 0.23007 0.45748
#
# Static dielectric constant tensor:
#      x y z
#    x 3.699930 0.000000 0.182500 
#    y 0.000000 3.755290 0.000000 
#    z 0.182500 0.000000 4.924410 
# 
# 
# High freq. dielectric constant tensor:
#      x y z
#    x 1.779020 0.000000 -0.002030 
#    y 0.000000 1.770470 0.000000 
#    z -0.002030 0.000000 1.774690 
# 
# From -- ./inp_files/34231.got.cif
#   From: 2010.06.25/outbox.cif.g09.slc.cpg/sg15_18_cif.got.tgz:34231.got - 2010.06.28 07:06:18.
