data_PCOD8135772
_publ_section_title
;
Structure prediction by ZEFSAII (Michael W. Deem and Ramdas Pophale) SiO2 
 PCOD8135772
Probable space group: C 2/C
;
_chemical_formula_sum "Si O2"
_cell_formula_units_Z 52
_cell_length_a 17.635286
_cell_length_b 8.486589
_cell_length_c 19.629594
_cell_angle_alpha 90.000000
_cell_angle_beta 65.795821
_cell_angle_gamma 90.000000
_cell_volume 2679.568052
_symmetry_space_group_name_H-M "C 2/C"
_symmetry_group_IT_number 15
_symmetry_cell_setting 'monoclinic'
loop_
_space_group_symop_operation_xyz
x,y,z
-x,y,1/2-z
-x,-y,-z
x,-y,1/2+z
1/2+x,1/2+y,z
1/2-x,1/2+y,1/2-z
1/2-x,1/2-y,-z
1/2+x,1/2-y,1/2+z
loop_
_atom_site_type_symbol
_atom_site_label
_atom_site_fract_x
_atom_site_fract_y
_atom_site_fract_z
Si Si1 0.500000 0.493447 0.750000
Si Si2 0.305205 0.837254 0.668731
Si Si3 0.501193 0.611874 0.398525
Si Si4 0.630351 0.568301 0.938270
Si Si5 0.428195 0.076460 0.571015
Si Si6 0.217918 0.242255 0.436947
Si Si7 0.323586 0.389809 0.287826
O O1 0.520515 0.395330 0.673800
O O2 0.578039 0.599423 0.741281
O O3 0.319191 0.728201 0.596797
O O4 0.300200 0.718583 0.733063
O O5 0.384258 0.955504 0.639668
O O6 0.219596 0.937158 0.700713
O O7 0.418051 0.589772 0.473058
O O8 0.567860 0.479384 0.399016
O O9 0.536871 0.785342 0.395373
O O10 0.698567 0.434944 0.922599
O O11 0.361740 0.145113 0.542044
O O12 0.500000 0.000000 0.500000
O O13 0.250000 0.250000 0.500000
O O14 0.294309 0.300424 0.364850
#
# Coordination Sequence:
#
# PCOD8135772 Si02
#       7
#     4   8   8   8   8   8   8
#     4  12  24  42  62  96 130 162 214 276 322 368
#     4  11  22  41  66  91 121 172 215 258 312 392
#     4  10  21  38  64  94 125 167 207 262 315 385
#     4  10  19  39  69  88 122 173 215 249 319 385
#     4  10  21  40  65  92 123 164 217 256 313 386
#     4  10  22  40  61  93 126 166 211 261 312 382
#     4  11  25  40  65  91 130 166 213 262 323 379
#
# _framework density 19.406113999999999
#
# number of rings (size 3 to 8) (size 9 to 14) (size 15 to 20)
#    0.000    1.538    3.077    1.846    4.308    1.231 
#    2.769    3.077    0.000    0.000    0.000    0.000 
#    0.000    0.000    0.000    0.000    0.000    0.000 
#
# Total GULP energy -322350.436801 kJ/mol
# GULP energy per Si atom -12398.093723 kJ/mol
# Density = 1.936194 g / cm^3
# Si number density = 19.406114 Si / 1000 Ang^3
#
#
#
# Elastic Constant Matrix: (Units=GPa)
#
#
# Indices 1 2 3 4 5 6 
#
# 1 88.2098 42.7278 47.9827 0.0000 -6.0486 0.0001
# 2 42.7278 125.9701 51.4553 0.0001 -7.9052 0.0002
# 3 47.9827 51.4553 126.1114 0.0000 14.7828 0.0000
# 4 0.0000 0.0001 0.0000 42.4702 0.0000 -12.6766
# 5 -6.0486 -7.9052 14.7828 0.0000 36.2459 0.0000
# 6 0.0001 0.0002 0.0000 -12.6766 0.0000 8.7646
#
#
#
# Elastic Compliance Matrix: (Units=1/GPa)
#
#
# Indices 1 2 3 4 5 6 
#
# 1 0.015979 -0.002965 -0.005363 0.000000 0.004207 0.000000
# 2 -0.002965 0.010616 -0.003588 0.000000 0.003284 -0.000001
# 3 -0.005363 -0.003588 0.012215 0.000000 -0.006659 0.000000
# 4 0.000000 0.000000 0.000000 0.041433 0.000000 0.059926
# 5 0.004207 0.003284 -0.006659 0.000000 0.031724 0.000000
# 6 0.000000 -0.000001 0.000000 0.059926 0.000000 0.200768
#
#
# Mechanical properties :
#
#
# Convention : Reuss Voigt Hill
#
# Bulk Modulus (GPa) = 66.77068 69.40254 68.08661
# Shear Modulus (GPa) = 14.63880 30.70450 22.67165
#
# Velocity S-wave (km/s) = 2.74950 3.98201 3.42171
# Velocity P-wave (km/s) = 6.67543 7.54869 7.12545
#
# Compressibility (1/GPa) = 0.01497663
#
# Stress axis : x y z
#
# Youngs Moduli (GPa) = 62.58402 94.19809 81.86957
#
# Poissons Ratio (x) = 0.27932 0.43905
# Poissons Ratio (y) = 0.18557 0.29376
# Poissons Ratio (z) = 0.33562 0.33800
#
# Static dielectric constant tensor:
#      x y z
#    x 3.429590 0.000000 -0.252170 
#    y 0.000000 3.736830 0.000000 
#    z -0.252170 0.000000 3.767030 
# 
# 
# High freq. dielectric constant tensor:
#      x y z
#    x 1.739030 0.000000 -0.017540 
#    y 0.000000 1.763590 0.000000 
#    z -0.017540 0.000000 1.771270 
# 
# From -- ./inp_files/246891.got.cif
#   From: 2010.06.25/outbox.cif.g09.slc.cpg/sg15_124_cif.got.tgz:246891.got - 2010.06.28 07:06:18.
