data_PCOD8135761
_publ_section_title
;
Structure prediction by ZEFSAII (Michael W. Deem and Ramdas Pophale) SiO2 
 PCOD8135761
Probable space group: C 2/C
;
_chemical_formula_sum "Si O2"
_cell_formula_units_Z 56
_cell_length_a 15.583181
_cell_length_b 6.375055
_cell_length_c 25.706617
_cell_angle_alpha 90.000000
_cell_angle_beta 112.906931
_cell_angle_gamma 90.000000
_cell_volume 2352.392743
_symmetry_space_group_name_H-M "C 2/C"
_symmetry_group_IT_number 15
_symmetry_cell_setting 'monoclinic'
loop_
_space_group_symop_operation_xyz
x,y,z
-x,y,1/2-z
-x,-y,-z
x,-y,1/2+z
1/2+x,1/2+y,z
1/2-x,1/2+y,1/2-z
1/2-x,1/2-y,-z
1/2+x,1/2-y,1/2+z
loop_
_atom_site_type_symbol
_atom_site_label
_atom_site_fract_x
_atom_site_fract_y
_atom_site_fract_z
Si Si1 0.502550 0.407573 0.418095
Si Si2 0.845115 0.403018 0.886766
Si Si3 0.372721 0.349572 0.749090
Si Si4 0.881208 0.216191 0.458873
Si Si5 0.726674 0.278049 0.291075
Si Si6 0.556746 0.280383 0.846796
Si Si7 0.716372 0.975837 0.381820
O O1 0.432548 0.224266 0.382262
O O2 0.442229 0.589101 0.431128
O O3 0.579702 0.312360 0.474335
O O4 0.559038 0.513562 0.383516
O O5 0.884842 0.539113 0.944660
O O6 0.798639 0.563562 0.835875
O O7 0.771415 0.242315 0.892675
O O8 0.370171 0.605697 0.747698
O O9 0.271881 0.286436 0.746899
O O10 0.450194 0.246190 0.804539
O O11 0.382170 0.297546 0.691166
O O12 0.773771 0.134492 0.432134
O O13 0.704319 0.077440 0.321372
O O14 0.613486 0.078667 0.883667
#
# Coordination Sequence:
#
# PCOD8135761 Si02
#       7
#     8   8   8   8   8   8   8
#     4  10  21  39  65  97 137 167 223 277 330 397
#     4  10  19  39  67  94 125 173 220 275 321 408
#     4  11  24  41  65  91 128 166 228 265 333 394
#     4   9  20  39  68  97 123 183 224 261 332 412
#     4  11  23  43  69  91 121 185 223 268 328 416
#     4  11  23  42  58  97 136 163 208 290 326 388
#     4  10  21  41  66  91 134 168 220 273 333 402
#
# _framework density 23.805548999999999
#
# number of rings (size 3 to 8) (size 9 to 14) (size 15 to 20)
#    0.000    1.714    1.429    3.857    2.000    0.571 
#    5.143    2.143    0.000    0.000    0.000    0.000 
#    0.000    0.000    0.000    0.000    0.000    0.000 
#
# Total GULP energy -346885.704518 kJ/mol
# GULP energy per Si atom -12388.775161 kJ/mol
# Density = 2.375137 g / cm^3
# Si number density = 23.805549 Si / 1000 Ang^3
#
#
#
# Elastic Constant Matrix: (Units=GPa)
#
#
# Indices 1 2 3 4 5 6 
#
# 1 89.8387 38.3755 23.2182 0.0000 20.1667 0.0000
# 2 38.3755 100.1475 9.8612 0.0000 4.8156 0.0000
# 3 23.2182 9.8612 63.2671 0.0000 6.6901 0.0000
# 4 0.0000 0.0000 0.0000 34.7415 0.0000 8.5259
# 5 20.1667 4.8156 6.6901 0.0000 29.1117 0.0000
# 6 0.0000 0.0000 0.0000 8.5259 0.0000 48.1358
#
#
#
# Elastic Compliance Matrix: (Units=1/GPa)
#
#
# Indices 1 2 3 4 5 6 
#
# 1 0.016787 -0.005544 -0.004267 0.000000 -0.009731 0.000000
# 2 -0.005544 0.012024 -0.000036 0.000000 0.001860 0.000000
# 3 -0.004267 -0.000036 0.017489 0.000000 -0.001057 0.000000
# 4 0.000000 0.000000 0.000000 0.030092 0.000000 -0.005330
# 5 -0.009731 0.001860 -0.001057 0.000000 0.041027 0.000000
# 6 0.000000 0.000000 0.000000 -0.005330 0.000000 0.021719
#
#
# Mechanical properties :
#
#
# Convention : Reuss Voigt Hill
#
# Bulk Modulus (GPa) = 37.58772 44.01814 40.80293
# Shear Modulus (GPa) = 29.81497 34.51769 32.16633
#
# Velocity S-wave (km/s) = 3.54282 3.81200 3.67987
# Velocity P-wave (km/s) = 5.70607 6.15678 5.93570
#
# Compressibility (1/GPa) = 0.02660443
#
# Stress axis : x y z
#
# Youngs Moduli (GPa) = 59.57131 83.16750 57.17732
#
# Poissons Ratio (x) = 0.46111 0.24399
# Poissons Ratio (y) = 0.33028 0.00207
# Poissons Ratio (z) = 0.25421 0.00300
#
# Static dielectric constant tensor:
#      x y z
#    x 4.359290 0.000000 0.385510 
#    y 0.000000 4.689370 0.000000 
#    z 0.385510 0.000000 4.286070 
# 
# 
# High freq. dielectric constant tensor:
#      x y z
#    x 1.931000 0.000000 0.020600 
#    y 0.000000 1.951770 0.000000 
#    z 0.020600 0.000000 1.937030 
# 
# From -- ./inp_files/297779.got.cif
#   From: 2010.06.25/outbox.cif.g09.slc.cpg/sg15_149_cif.got.tgz:297779.got - 2010.06.28 07:06:18.
