data_PCOD8135943
_publ_section_title
;
Structure prediction by ZEFSAII (Michael W. Deem and Ramdas Pophale) SiO2 
 PCOD8135943
Probable space group: C 2/C
;
_chemical_formula_sum "Si O2"
_cell_formula_units_Z 60
_cell_length_a 14.425408
_cell_length_b 13.397599
_cell_length_c 14.520438
_cell_angle_alpha 90.000000
_cell_angle_beta 84.566733
_cell_angle_gamma 90.000000
_cell_volume 2793.696239
_symmetry_space_group_name_H-M "C 2/C"
_symmetry_group_IT_number 15
_symmetry_cell_setting 'monoclinic'
loop_
_space_group_symop_operation_xyz
x,y,z
-x,y,1/2-z
-x,-y,-z
x,-y,1/2+z
1/2+x,1/2+y,z
1/2-x,1/2+y,1/2-z
1/2-x,1/2-y,-z
1/2+x,1/2-y,1/2+z
loop_
_atom_site_type_symbol
_atom_site_label
_atom_site_fract_x
_atom_site_fract_y
_atom_site_fract_z
Si Si1 0.167263 0.972009 0.633738
Si Si2 0.004599 0.844256 0.603163
Si Si3 0.589828 0.139165 0.094241
Si Si4 0.000000 0.484306 0.750000
Si Si5 0.511991 0.117336 0.584784
Si Si6 0.967498 0.138180 0.903050
Si Si7 0.130999 0.016265 0.833626
Si Si8 0.711063 0.025052 0.539980
O O1 0.190384 0.008552 0.734209
O O2 0.114953 0.059019 0.582392
O O3 0.098416 0.876963 0.646974
O O4 0.261461 0.949296 0.568371
O O5 0.988800 0.727904 0.622843
O O6 0.021728 0.860225 0.493819
O O7 0.915454 0.908688 0.642426
O O8 0.574799 0.088169 0.195190
O O9 0.581050 0.256166 0.113866
O O10 0.690004 0.094820 0.053117
O O11 0.522228 0.100902 0.017362
O O12 0.040099 0.550214 0.832100
O O13 0.622112 0.091967 0.576370
O O14 0.049148 0.099998 0.826022
O O15 0.201735 0.053214 0.904629
#
# Coordination Sequence:
#
# PCOD8135943 Si02
#       8
#     8   8   8   4   8   8   8   8
#     4  11  22  37  66  90 133 157 200 260 313 359
#     4  10  19  41  65  92 121 166 206 251 306 369
#     4  10  24  41  67  88 123 167 210 246 310 375
#     4  10  20  38  64  84 120 160 208 246 296 356
#     4  10  24  41  67  88 123 167 210 246 310 375
#     4  10  19  41  65  92 121 166 206 251 306 369
#     4  11  22  38  66  94 125 160 208 256 306 358
#     4  11  22  42  58  94 129 160 199 264 309 352
#
# _framework density 21.476922999999999
#
# number of rings (size 3 to 8) (size 9 to 14) (size 15 to 20)
#    0.000    1.600    2.667    4.000    3.733    5.333 
#    0.000    1.333    0.000    0.000    0.000    0.000 
#    0.000    0.000    0.000    0.000    0.000    0.000 
#
# Total GULP energy -371679.525754 kJ/mol
# GULP energy per Si atom -12389.317525 kJ/mol
# Density = 2.142804 g / cm^3
# Si number density = 21.476923 Si / 1000 Ang^3
#
#
#
# Elastic Constant Matrix: (Units=GPa)
#
#
# Indices 1 2 3 4 5 6 
#
# 1 65.4927 12.9646 10.3524 0.0000 -3.2071 0.0000
# 2 12.9646 86.4492 12.8812 0.0000 9.2408 0.0000
# 3 10.3524 12.8812 113.7807 0.0000 -6.2969 0.0000
# 4 0.0000 0.0000 0.0000 29.3813 0.0000 3.4868
# 5 -3.2071 9.2408 -6.2969 0.0000 12.7167 0.0000
# 6 0.0000 0.0000 0.0000 3.4868 0.0000 21.8966
#
#
#
# Elastic Compliance Matrix: (Units=1/GPa)
#
#
# Indices 1 2 3 4 5 6 
#
# 1 0.016267 -0.002940 -0.000825 0.000000 0.005830 0.000000
# 2 -0.002940 0.013522 -0.001900 0.000000 -0.011508 0.000000
# 3 -0.000825 -0.001900 0.009402 0.000000 0.005828 0.000000
# 4 0.000000 0.000000 0.000000 0.034691 0.000000 -0.005524
# 5 0.005830 -0.011508 0.005828 0.000000 0.091356 0.000000
# 6 0.000000 0.000000 0.000000 -0.005524 0.000000 0.046549
#
#
# Mechanical properties :
#
#
# Convention : Reuss Voigt Hill
#
# Bulk Modulus (GPa) = 35.89289 37.56878 36.73084
# Shear Modulus (GPa) = 21.51450 28.10054 24.80752
#
# Velocity S-wave (km/s) = 3.16848 3.62111 3.40233
# Velocity P-wave (km/s) = 5.48947 5.91725 5.70737
#
# Compressibility (1/GPa) = 0.02786067
#
# Stress axis : x y z
#
# Youngs Moduli (GPa) = 61.47534 73.95558 106.36577
#
# Poissons Ratio (x) = 0.21742 0.08770
# Poissons Ratio (y) = 0.18073 0.20211
# Poissons Ratio (z) = 0.05069 0.14053
#
# Static dielectric constant tensor:
#      x y z
#    x 3.516010 0.000000 0.013400 
#    y 0.000000 3.993660 0.000000 
#    z 0.013400 0.000000 4.033520 
# 
# 
# High freq. dielectric constant tensor:
#      x y z
#    x 1.810030 0.000000 -0.000310 
#    y 0.000000 1.838570 0.000000 
#    z -0.000310 0.000000 1.859840 
# 
# From -- ./inp_files/153947.got.cif
#   From: 2010.06.25/outbox.cif.g09.slc.cpg/sg15_77_cif.got.tgz:153947.got - 2010.06.28 07:06:18.
