data_PCOD8135390
_publ_section_title
;
Structure prediction by ZEFSAII (Michael W. Deem and Ramdas Pophale) SiO2 
 PCOD8135390
Probable space group: C 2/C
;
_chemical_formula_sum "Si O2"
_cell_formula_units_Z 44
_cell_length_a 10.118055
_cell_length_b 12.098586
_cell_length_c 23.532546
_cell_angle_alpha 90.000000
_cell_angle_beta 46.787087
_cell_angle_gamma 90.000000
_cell_volume 2099.507696
_symmetry_space_group_name_H-M "C 2/C"
_symmetry_group_IT_number 15
_symmetry_cell_setting 'monoclinic'
loop_
_space_group_symop_operation_xyz
x,y,z
-x,y,1/2-z
-x,-y,-z
x,-y,1/2+z
1/2+x,1/2+y,z
1/2-x,1/2+y,1/2-z
1/2-x,1/2-y,-z
1/2+x,1/2-y,1/2+z
loop_
_atom_site_type_symbol
_atom_site_label
_atom_site_fract_x
_atom_site_fract_y
_atom_site_fract_z
Si Si1 0.202487 0.518860 0.866864
Si Si2 0.500000 0.302331 0.250000
Si Si3 0.630613 0.901662 0.778541
Si Si4 0.833547 0.392639 0.513489
Si Si5 0.257380 0.525004 0.127026
Si Si6 0.070065 0.158077 0.990625
O O1 0.331341 0.623213 0.818311
O O2 0.225534 0.423196 0.811585
O O3 0.251928 0.472515 0.914093
O O4 0.992550 0.554307 0.929306
O O5 0.428222 0.224761 0.218994
O O6 0.450752 0.976432 0.830536
O O7 0.771500 0.946956 0.689770
O O8 0.916642 0.288343 0.523629
O O9 0.669561 0.366561 0.520539
O O10 0.363180 0.618298 0.059140
O O11 0.341688 0.404820 0.089049
#
# Coordination Sequence:
#
# PCOD8135390 Si02
#       6
#     8   4   8   8   8   8
#     4  11  23  42  58  90 123 160 200 253 305 366
#     4  10  24  42  64  90 124 164 204 256 310 362
#     4  10  21  41  62  87 122 161 198 256 306 359
#     4  10  22  38  58  86 126 155 197 256 301 356
#     4   9  19  36  63  87 115 158 206 246 301 364
#     4  10  19  38  61  88 117 159 202 248 301 367
#
# _framework density 20.957294000000001
#
# number of rings (size 3 to 8) (size 9 to 14) (size 15 to 20)
#    0.000    2.182    1.818    2.182    2.545    1.455 
#    3.273    4.545    0.000    0.000    0.000    0.000 
#    0.000    0.000    0.000    0.000    0.000    0.000 
#
# Total GULP energy -272689.562929 kJ/mol
# GULP energy per Si atom -12394.980133 kJ/mol
# Density = 2.090959 g / cm^3
# Si number density = 20.957294 Si / 1000 Ang^3
#
#
#
# Elastic Constant Matrix: (Units=GPa)
#
#
# Indices 1 2 3 4 5 6 
#
# 1 35.3900 18.5396 24.3782 0.0000 11.3728 0.0000
# 2 18.5396 107.4502 44.8810 0.0000 15.8752 0.0000
# 3 24.3782 44.8810 129.8699 0.0000 7.2177 0.0000
# 4 0.0000 0.0000 0.0000 23.1171 0.0000 -2.2192
# 5 11.3728 15.8752 7.2177 0.0000 17.7854 0.0000
# 6 0.0000 0.0000 0.0000 -2.2192 0.0000 25.1919
#
#
#
# Elastic Compliance Matrix: (Units=1/GPa)
#
#
# Indices 1 2 3 4 5 6 
#
# 1 0.040048 -0.001179 -0.005878 0.000000 -0.022171 0.000000
# 2 -0.001179 0.012284 -0.003536 0.000000 -0.008775 0.000000
# 3 -0.005878 -0.003536 0.009863 0.000000 0.002912 0.000000
# 4 0.000000 0.000000 0.000000 0.043627 0.000000 0.003843
# 5 -0.022171 -0.008775 0.002912 0.000000 0.077054 0.000000
# 6 0.000000 0.000000 0.000000 0.003843 0.000000 0.040034
#
#
# Mechanical properties :
#
#
# Convention : Reuss Voigt Hill
#
# Bulk Modulus (GPa) = 24.38493 49.81197 37.09845
# Shear Modulus (GPa) = 19.39750 25.54630 22.47190
#
# Velocity S-wave (km/s) = 3.04562 3.49516 3.27811
# Velocity P-wave (km/s) = 4.90189 6.33310 5.66289
#
# Compressibility (1/GPa) = 0.04100893
#
# Stress axis : x y z
#
# Youngs Moduli (GPa) = 24.97015 81.40979 101.38409
#
# Poissons Ratio (x) = 0.09600 0.59591
# Poissons Ratio (y) = 0.02945 0.35849
# Poissons Ratio (z) = 0.14677 0.28786
#
# Static dielectric constant tensor:
#      x y z
#    x 3.446410 0.000000 -0.010940 
#    y 0.000000 3.868080 0.000000 
#    z -0.010940 0.000000 3.947740 
# 
# 
# High freq. dielectric constant tensor:
#      x y z
#    x 1.797210 0.000000 -0.005850 
#    y 0.000000 1.813950 0.000000 
#    z -0.005850 0.000000 1.835880 
# 
# From -- ./inp_files/195957.got.cif
#   From: 2010.06.25/outbox.cif.g09.slc.cpg/sg15_98_cif.got.tgz:195957.got - 2010.06.28 07:06:18.
