data_PCOD8135985
_publ_section_title
;
Structure prediction by ZEFSAII (Michael W. Deem and Ramdas Pophale) SiO2 
 PCOD8135985
Probable space group: C 2/C
;
_chemical_formula_sum "Si O2"
_cell_formula_units_Z 64
_cell_length_a 11.226401
_cell_length_b 15.321728
_cell_length_c 17.603190
_cell_angle_alpha 90.000000
_cell_angle_beta 85.678079
_cell_angle_gamma 90.000000
_cell_volume 3019.276908
_symmetry_space_group_name_H-M "C 2/C"
_symmetry_group_IT_number 15
_symmetry_cell_setting 'monoclinic'
loop_
_space_group_symop_operation_xyz
x,y,z
-x,y,1/2-z
-x,-y,-z
x,-y,1/2+z
1/2+x,1/2+y,z
1/2-x,1/2+y,1/2-z
1/2-x,1/2-y,-z
1/2+x,1/2-y,1/2+z
loop_
_atom_site_type_symbol
_atom_site_label
_atom_site_fract_x
_atom_site_fract_y
_atom_site_fract_z
Si Si1 0.519028 0.846025 0.593359
Si Si2 0.614852 0.173335 0.923494
Si Si3 0.802162 0.485273 0.601095
Si Si4 0.866443 0.993004 0.035469
Si Si5 0.385938 0.736690 0.402332
Si Si6 0.267082 0.652845 0.134945
Si Si7 0.877103 0.094885 0.281874
Si Si8 0.637726 0.309192 0.421279
O O1 0.596590 0.842426 0.513191
O O2 0.416527 0.920206 0.594360
O O3 0.623535 0.864225 0.649508
O O4 0.462492 0.750858 0.613614
O O5 0.487457 0.190655 0.890897
O O6 0.706395 0.252482 0.903252
O O7 0.661438 0.084114 0.885943
O O8 0.728599 0.472234 0.526823
O O9 0.719550 0.469806 0.678250
O O10 0.870021 0.912369 0.095350
O O11 0.830367 0.080559 0.079764
O O12 0.000000 0.000000 0.000000
O O13 0.422393 0.659474 0.345250
O O14 0.374320 0.700836 0.487770
O O15 0.262329 0.777387 0.381370
O O16 0.316993 0.649115 0.217199
O O17 0.000000 0.046270 0.250000
#
# Coordination Sequence:
#
# PCOD8135985 Si02
#       8
#     8   8   8   8   8   8   8   8
#     4  11  23  42  70 106 136 172 222 295 342 405
#     4  11  23  42  72 100 136 177 226 288 340 402
#     4  12  25  44  73 101 138 179 233 286 345 402
#     4  12  23  40  68 105 135 180 234 292 329 402
#     4  10  19  41  70  95 127 177 227 275 339 405
#     4  12  27  42  66 102 146 181 221 283 355 412
#     4  12  24  49  66  93 139 188 226 283 347 419
#     4  10  20  38  71 102 129 166 235 283 336 387
#
# _framework density 21.197127999999999
#
# number of rings (size 3 to 8) (size 9 to 14) (size 15 to 20)
#    0.000    0.750    5.000    4.500    3.500    0.500 
#    2.250    1.250    0.000    0.000    0.000    0.000 
#    0.000    0.000    0.000    0.000    0.000    0.000 
#
# Total GULP energy -396694.588446 kJ/mol
# GULP energy per Si atom -12396.705889 kJ/mol
# Density = 2.114888 g / cm^3
# Si number density = 21.197128 Si / 1000 Ang^3
#
#
#
# Elastic Constant Matrix: (Units=GPa)
#
#
# Indices 1 2 3 4 5 6 
#
# 1 140.2345 54.6818 36.1390 0.0000 -3.0066 0.0000
# 2 54.6818 156.8043 19.5729 0.0000 -14.2933 0.0000
# 3 36.1390 19.5729 42.7014 0.0000 -7.9762 0.0000
# 4 0.0000 0.0000 0.0000 12.2011 0.0000 -4.8363
# 5 -3.0066 -14.2933 -7.9762 0.0000 27.4917 0.0000
# 6 0.0000 0.0000 0.0000 -4.8363 0.0000 40.4719
#
#
#
# Elastic Compliance Matrix: (Units=1/GPa)
#
#
# Indices 1 2 3 4 5 6 
#
# 1 0.010188 -0.002815 -0.007821 0.000000 -0.002619 0.000000
# 2 -0.002815 0.007748 -0.000501 0.000000 0.003575 0.000000
# 3 -0.007821 -0.000501 0.031781 0.000000 0.008105 0.000000
# 4 0.000000 0.000000 0.000000 0.086035 0.000000 0.010281
# 5 -0.002619 0.003575 0.008105 0.000000 0.040298 0.000000
# 6 0.000000 0.000000 0.000000 0.010281 0.000000 0.025937
#
#
# Mechanical properties :
#
#
# Convention : Reuss Voigt Hill
#
# Bulk Modulus (GPa) = 36.44016 62.28084 49.36050
# Shear Modulus (GPa) = 21.42163 31.32270 26.37217
#
# Velocity S-wave (km/s) = 3.18243 3.84824 3.53106
# Velocity P-wave (km/s) = 5.54366 7.01361 6.32151
#
# Compressibility (1/GPa) = 0.02744225
#
# Stress axis : x y z
#
# Youngs Moduli (GPa) = 98.15421 129.07365 31.46537
#
# Poissons Ratio (x) = 0.36338 0.24609
# Poissons Ratio (y) = 0.27633 0.01576
# Poissons Ratio (z) = 0.76767 0.06464
#
# Static dielectric constant tensor:
#      x y z
#    x 4.223240 0.000000 -0.065150 
#    y 0.000000 4.053540 0.000000 
#    z -0.065150 0.000000 3.642510 
# 
# 
# High freq. dielectric constant tensor:
#      x y z
#    x 1.858750 0.000000 -0.004300 
#    y 0.000000 1.832470 0.000000 
#    z -0.004300 0.000000 1.798240 
# 
# From -- ./inp_files/198350.got.cif
#   From: 2010.06.25/outbox.cif.g09.slc.cpg/sg15_100_cif.got.tgz:198350.got - 2010.06.28 07:06:18.
