data_PCOD8135976
_publ_section_title
;
Structure prediction by ZEFSAII (Michael W. Deem and Ramdas Pophale) SiO2 
 PCOD8135976
Probable space group: C 2/C
;
_chemical_formula_sum "Si O2"
_cell_formula_units_Z 56
_cell_length_a 11.474896
_cell_length_b 27.989459
_cell_length_c 9.828072
_cell_angle_alpha 90.000000
_cell_angle_beta 119.297798
_cell_angle_gamma 90.000000
_cell_volume 2752.782775
_symmetry_space_group_name_H-M "C 2/C"
_symmetry_group_IT_number 15
_symmetry_cell_setting 'monoclinic'
loop_
_space_group_symop_operation_xyz
x,y,z
-x,y,1/2-z
-x,-y,-z
x,-y,1/2+z
1/2+x,1/2+y,z
1/2-x,1/2+y,1/2-z
1/2-x,1/2-y,-z
1/2+x,1/2-y,1/2+z
loop_
_atom_site_type_symbol
_atom_site_label
_atom_site_fract_x
_atom_site_fract_y
_atom_site_fract_z
Si Si1 0.777208 0.939011 0.578865
Si Si2 0.320112 0.390996 0.868986
Si Si3 0.109642 0.111876 0.620872
Si Si4 0.842689 0.306216 0.673165
Si Si5 0.343713 0.300355 0.195611
Si Si6 0.991493 0.454129 0.403128
Si Si7 0.268636 0.552373 0.597957
O O1 0.856652 0.921201 0.755954
O O2 0.832378 0.914812 0.476142
O O3 0.622470 0.922298 0.508095
O O4 0.788486 0.996390 0.581730
O O5 0.224484 0.346832 0.771494
O O6 0.458081 0.372084 0.008751
O O7 0.246409 0.424200 0.938005
O O8 0.188667 0.161067 0.704045
O O9 0.107785 0.074960 0.747751
O O10 0.761438 0.310536 0.485004
O O11 0.821066 0.254371 0.730364
O O12 0.000000 0.316831 0.750000
O O13 0.500000 0.307143 0.250000
O O14 0.853012 0.430526 0.370792
O O15 0.000000 0.468885 0.250000
O O16 0.000000 0.500000 0.500000
#
# Coordination Sequence:
#
# PCOD8135976 Si02
#       7
#     8   8   8   8   8   8   8
#     4  11  26  39  60  91 134 171 213 266 317 389
#     4  12  25  39  63  97 127 167 219 266 323 385
#     4  12  22  42  63  91 130 173 210 263 332 387
#     4  10  22  38  66 100 123 155 218 283 322 388
#     4  10  19  41  68  94 125 163 213 270 335 391
#     4  10  22  40  61  86 122 171 220 266 323 370
#     4  11  23  40  64  90 127 175 220 264 310 380
#
# _framework density 20.343052
#
# number of rings (size 3 to 8) (size 9 to 14) (size 15 to 20)
#    0.000    1.143    4.286    1.714    8.000    3.429 
#    0.000    0.714    0.000    0.000    0.000    0.000 
#    0.000    0.000    0.000    0.000    0.000    0.000 
#
# Total GULP energy -346943.561262 kJ/mol
# GULP energy per Si atom -12390.841474 kJ/mol
# Density = 2.029675 g / cm^3
# Si number density = 20.343052 Si / 1000 Ang^3
#
#
#
# Elastic Constant Matrix: (Units=GPa)
#
#
# Indices 1 2 3 4 5 6 
#
# 1 79.3961 51.8559 34.8126 0.0000 4.3263 0.0000
# 2 51.8559 155.9296 56.9215 0.0000 -8.1540 0.0000
# 3 34.8126 56.9215 112.7877 0.0000 -2.4775 0.0000
# 4 0.0000 0.0000 0.0000 20.0189 0.0000 13.2769
# 5 4.3263 -8.1540 -2.4775 0.0000 45.4752 0.0000
# 6 0.0000 0.0000 0.0000 13.2769 0.0000 12.6030
#
#
#
# Elastic Compliance Matrix: (Units=1/GPa)
#
#
# Indices 1 2 3 4 5 6 
#
# 1 0.017142 -0.004764 -0.002945 0.000000 -0.002645 0.000000
# 2 -0.004764 0.009251 -0.003156 0.000000 0.001940 0.000000
# 3 -0.002945 -0.003156 0.011375 0.000000 0.000334 0.000000
# 4 0.000000 0.000000 0.000000 0.165782 0.000000 -0.174646
# 5 -0.002645 0.001940 0.000334 0.000000 0.022608 0.000000
# 6 0.000000 0.000000 0.000000 -0.174646 0.000000 0.263331
#
#
# Mechanical properties :
#
#
# Convention : Reuss Voigt Hill
#
# Bulk Modulus (GPa) = 62.34824 70.58818 66.46821
# Shear Modulus (GPa) = 9.67936 29.25432 19.46684
#
# Velocity S-wave (km/s) = 2.18367 3.79628 3.09678
# Velocity P-wave (km/s) = 6.08875 7.34778 6.74769
#
# Compressibility (1/GPa) = 0.01603894
#
# Stress axis : x y z
#
# Youngs Moduli (GPa) = 58.33631 108.09749 87.91166
#
# Poissons Ratio (x) = 0.51499 0.25888
# Poissons Ratio (y) = 0.27792 0.27742
# Poissons Ratio (z) = 0.17179 0.34112
#
# Static dielectric constant tensor:
#      x y z
#    x 8.398250 0.000000 0.535210 
#    y 0.000000 3.828560 0.000000 
#    z 0.535210 0.000000 3.878450 
# 
# 
# High freq. dielectric constant tensor:
#      x y z
#    x 1.787950 0.000000 0.022430 
#    y 0.000000 1.789960 0.000000 
#    z 0.022430 0.000000 1.803600 
# 
# From -- ./inp_files/35763.got.cif
#   From: 2010.06.25/outbox.cif.g09.slc.cpg/sg15_18_cif.got.tgz:35763.got - 2010.06.28 07:06:18.
