data_PCOD8135932
_publ_section_title
;
Structure prediction by ZEFSAII (Michael W. Deem and Ramdas Pophale) SiO2 
 PCOD8135932
Probable space group: C 2/C
;
_chemical_formula_sum "Si O2"
_cell_formula_units_Z 36
_cell_length_a 8.792972
_cell_length_b 21.031326
_cell_length_c 8.646060
_cell_angle_alpha 90.000000
_cell_angle_beta 94.239913
_cell_angle_gamma 90.000000
_cell_volume 1594.521543
_symmetry_space_group_name_H-M "C 2/C"
_symmetry_group_IT_number 15
_symmetry_cell_setting 'monoclinic'
loop_
_space_group_symop_operation_xyz
x,y,z
-x,y,1/2-z
-x,-y,-z
x,-y,1/2+z
1/2+x,1/2+y,z
1/2-x,1/2+y,1/2-z
1/2-x,1/2-y,-z
1/2+x,1/2-y,1/2+z
loop_
_atom_site_type_symbol
_atom_site_label
_atom_site_fract_x
_atom_site_fract_y
_atom_site_fract_z
Si Si1 0.343408 0.423788 0.035616
Si Si2 0.500000 0.526720 0.250000
Si Si3 0.500000 0.754006 0.250000
Si Si4 0.806596 0.294099 0.810800
Si Si5 0.422148 0.843268 0.509175
Si Si6 0.500000 0.319414 0.250000
O O1 0.380309 0.485013 0.142271
O O2 0.419434 0.361618 0.114062
O O3 0.402344 0.431220 0.863021
O O4 0.158494 0.412015 0.026573
O O5 0.371565 0.710394 0.155866
O O6 0.407440 0.798961 0.359091
O O7 0.817470 0.312391 0.633052
O O8 0.883891 0.224925 0.838531
O O9 0.899321 0.346044 0.923092
#
# Coordination Sequence:
#
# PCOD8135932 Si02
#       6
#     8   4   4   8   8   4
#     4  10  19  41  64  93 121 159 208 264 307 363
#     4   9  22  39  68  96 112 158 221 265 312 354
#     4  12  20  37  60  87 131 174 197 240 286 376
#     4  10  23  38  55  96 133 162 198 240 295 389
#     4  10  22  39  58  88 132 163 204 245 306 363
#     4   9  18  36  60  89 131 158 194 245 308 366
#
# _framework density 22.577304999999999
#
# number of rings (size 3 to 8) (size 9 to 14) (size 15 to 20)
#    0.000    2.222    2.222    1.333    3.111    0.889 
#    8.000    0.000    0.000    9.333    0.000    0.000 
#    0.000    0.000    0.000    0.000    0.000    0.000 
#
# Total GULP energy -223038.694940 kJ/mol
# GULP energy per Si atom -12391.038608 kJ/mol
# Density = 2.252592 g / cm^3
# Si number density = 22.577305 Si / 1000 Ang^3
#
#
#
# Elastic Constant Matrix: (Units=GPa)
#
#
# Indices 1 2 3 4 5 6 
#
# 1 181.6786 56.7179 36.7552 0.0000 25.8060 0.0000
# 2 56.7179 56.1822 21.9466 0.0000 13.5245 0.0000
# 3 36.7552 21.9466 106.5618 0.0000 11.8390 0.0000
# 4 0.0000 0.0000 0.0000 16.2404 0.0000 0.1420
# 5 25.8060 13.5245 11.8390 0.0000 20.8863 0.0000
# 6 0.0000 0.0000 0.0000 0.1420 0.0000 42.9664
#
#
#
# Elastic Compliance Matrix: (Units=1/GPa)
#
#
# Indices 1 2 3 4 5 6 
#
# 1 0.008697 -0.007061 -0.000918 0.000000 -0.005654 0.000000
# 2 -0.007061 0.027767 -0.002407 0.000000 -0.007892 0.000000
# 3 -0.000918 -0.002407 0.010562 0.000000 -0.003295 0.000000
# 4 0.000000 0.000000 0.000000 0.061576 0.000000 -0.000203
# 5 -0.005654 -0.007892 -0.003295 0.000000 0.061842 0.000000
# 6 0.000000 0.000000 0.000000 -0.000203 0.000000 0.023275
#
#
# Mechanical properties :
#
#
# Convention : Reuss Voigt Hill
#
# Bulk Modulus (GPa) = 38.08471 63.91799 51.00135
# Shear Modulus (GPa) = 22.39726 31.28550 26.84138
#
# Velocity S-wave (km/s) = 3.15306 3.72655 3.45173
# Velocity P-wave (km/s) = 5.49190 6.84751 6.20682
#
# Compressibility (1/GPa) = 0.02625725
#
# Stress axis : x y z
#
# Youngs Moduli (GPa) = 114.97983 36.01376 94.67536
#
# Poissons Ratio (x) = 0.25428 0.08687
# Poissons Ratio (y) = 0.81184 0.22784
# Poissons Ratio (z) = 0.10550 0.08667
#
# Static dielectric constant tensor:
#      x y z
#    x 4.293890 0.000000 0.281210 
#    y 0.000000 3.868080 0.000000 
#    z 0.281210 0.000000 4.151460 
# 
# 
# High freq. dielectric constant tensor:
#      x y z
#    x 1.887020 0.000000 0.015930 
#    y 0.000000 1.848570 0.000000 
#    z 0.015930 0.000000 1.907020 
# 
# From -- ./inp_files/22583.got.cif
#   From: 2010.06.25/outbox.cif.g09.slc.cpg/sg15_12_cif.got.tgz:22583.got - 2010.06.28 07:06:18.
