data_PCOD8135718
_publ_section_title
;
Structure prediction by ZEFSAII (Michael W. Deem and Ramdas Pophale) SiO2 
 PCOD8135718
Probable space group: C 2/C
;
_chemical_formula_sum "Si O2"
_cell_formula_units_Z 56
_cell_length_a 11.657755
_cell_length_b 19.314365
_cell_length_c 18.898247
_cell_angle_alpha 90.000000
_cell_angle_beta 135.818158
_cell_angle_gamma 90.000000
_cell_volume 2965.588855
_symmetry_space_group_name_H-M "C 2/C"
_symmetry_group_IT_number 15
_symmetry_cell_setting 'monoclinic'
loop_
_space_group_symop_operation_xyz
x,y,z
-x,y,1/2-z
-x,-y,-z
x,-y,1/2+z
1/2+x,1/2+y,z
1/2-x,1/2+y,1/2-z
1/2-x,1/2-y,-z
1/2+x,1/2-y,1/2+z
loop_
_atom_site_type_symbol
_atom_site_label
_atom_site_fract_x
_atom_site_fract_y
_atom_site_fract_z
Si Si1 0.719849 0.232748 0.776028
Si Si2 0.165758 0.621937 0.232466
Si Si3 0.697993 0.909544 0.908945
Si Si4 0.857646 0.706151 0.600129
Si Si5 0.058116 0.971101 0.696846
Si Si6 0.961136 0.891697 0.386740
Si Si7 0.189475 0.936704 0.034054
O O1 0.782355 0.303984 0.772980
O O2 0.548549 0.212314 0.662648
O O3 0.683648 0.239226 0.842682
O O4 0.859591 0.176063 0.822154
O O5 0.205891 0.618633 0.333005
O O6 0.263001 0.562486 0.233650
O O7 0.973494 0.611377 0.131029
O O8 0.708992 0.992691 0.915066
O O9 0.844281 0.874807 0.019815
O O10 0.750000 0.750000 0.500000
O O11 0.818803 0.624905 0.581555
O O12 0.000000 0.955551 0.750000
O O13 0.932362 0.935735 0.586391
O O14 0.069862 0.053303 0.689325
O O15 0.913408 0.927135 0.439856
#
# Coordination Sequence:
#
# PCOD8135718 Si02
#       7
#     8   8   8   8   8   8   8
#     4  10  24  37  60  88 123 163 204 245 314 358
#     4  11  22  37  60  93 117 159 206 256 299 359
#     4  10  21  38  66  86 115 160 218 243 294 367
#     4  10  22  38  61  91 124 157 201 260 308 365
#     4  11  22  37  63  90 126 152 194 260 313 355
#     4  10  20  43  60  86 117 166 206 245 300 374
#     4  10  19  39  65  88 114 162 208 251 299 359
#
# _framework density 18.883265000000002
#
# number of rings (size 3 to 8) (size 9 to 14) (size 15 to 20)
#    0.000    1.714    2.857    1.714    8.000    1.714 
#    2.571    5.714    0.000    0.000    0.000    0.000 
#    0.000    0.000    0.000    0.000    0.000    0.000 
#
# Total GULP energy -347274.349700 kJ/mol
# GULP energy per Si atom -12402.655346 kJ/mol
# Density = 1.884029 g / cm^3
# Si number density = 18.883265 Si / 1000 Ang^3
#
#
#
# Elastic Constant Matrix: (Units=GPa)
#
#
# Indices 1 2 3 4 5 6 
#
# 1 110.6698 50.1772 53.4753 0.0000 29.0271 0.0000
# 2 50.1772 106.6243 56.1217 0.0000 25.6958 0.0000
# 3 53.4753 56.1217 102.4899 0.0000 26.1829 0.0000
# 4 0.0000 0.0000 0.0000 33.5764 0.0000 0.7898
# 5 29.0271 25.6958 26.1829 0.0000 39.3165 0.0000
# 6 0.0000 0.0000 0.0000 0.7898 0.0000 31.5120
#
#
#
# Elastic Compliance Matrix: (Units=1/GPa)
#
#
# Indices 1 2 3 4 5 6 
#
# 1 0.013856 -0.002994 -0.004189 0.000000 -0.005483 0.000000
# 2 -0.002994 0.014548 -0.005470 0.000000 -0.003654 0.000000
# 3 -0.004189 -0.005470 0.015948 0.000000 -0.003953 0.000000
# 4 0.000000 0.000000 0.000000 0.029800 0.000000 -0.000747
# 5 -0.005483 -0.003654 -0.003953 0.000000 0.034503 0.000000
# 6 0.000000 0.000000 0.000000 -0.000747 0.000000 0.031753
#
#
# Mechanical properties :
#
#
# Convention : Reuss Voigt Hill
#
# Bulk Modulus (GPa) = 52.50917 71.03692 61.77305
# Shear Modulus (GPa) = 29.05915 31.54829 30.30372
#
# Velocity S-wave (km/s) = 3.92712 4.09186 4.01033
# Velocity P-wave (km/s) = 6.95921 7.74758 7.36395
#
# Compressibility (1/GPa) = 0.01904429
#
# Stress axis : x y z
#
# Youngs Moduli (GPa) = 72.17261 68.73924 62.70392
#
# Poissons Ratio (x) = 0.20582 0.26267
# Poissons Ratio (y) = 0.21610 0.34301
# Poissons Ratio (z) = 0.30234 0.37602
#
# Static dielectric constant tensor:
#      x y z
#    x 47.318180 -0.000030 7.266350 
#    y -0.000030 3.502880 -0.000010 
#    z 7.266350 -0.000010 4.680250 
# 
# 
# High freq. dielectric constant tensor:
#      x y z
#    x 1.730510 0.000000 0.015520 
#    y 0.000000 1.737240 0.000000 
#    z 0.015520 0.000000 1.735100 
# 
# From -- ./inp_files/199605.got.cif
#   From: 2010.06.25/outbox.cif.g09.slc.cpg/sg15_100_cif.got.tgz:199605.got - 2010.06.28 07:06:18.
