data_PCOD8135247
_publ_section_title
;
Structure prediction by ZEFSAII (Michael W. Deem and Ramdas Pophale) SiO2 
 PCOD8135247
Probable space group: C 2/C
;
_chemical_formula_sum "Si O2"
_cell_formula_units_Z 56
_cell_length_a 18.582063
_cell_length_b 18.790793
_cell_length_c 15.392668
_cell_angle_alpha 90.000000
_cell_angle_beta 151.502261
_cell_angle_gamma 90.000000
_cell_volume 2564.391180
_symmetry_space_group_name_H-M "C 2/C"
_symmetry_group_IT_number 15
_symmetry_cell_setting 'monoclinic'
loop_
_space_group_symop_operation_xyz
x,y,z
-x,y,1/2-z
-x,-y,-z
x,-y,1/2+z
1/2+x,1/2+y,z
1/2-x,1/2+y,1/2-z
1/2-x,1/2-y,-z
1/2+x,1/2-y,1/2+z
loop_
_atom_site_type_symbol
_atom_site_label
_atom_site_fract_x
_atom_site_fract_y
_atom_site_fract_z
Si Si1 0.251423 0.062040 0.679910
Si Si2 0.816512 0.584544 0.175539
Si Si3 0.215741 0.300848 0.711156
Si Si4 0.877156 0.516782 0.988199
Si Si5 0.446205 0.662961 0.924220
Si Si6 0.124343 0.086466 0.819791
Si Si7 0.493933 0.864457 0.143798
O O1 0.368777 0.037086 0.878326
O O2 0.101792 0.097663 0.562946
O O3 0.336012 0.121897 0.711216
O O4 0.218915 0.988105 0.594112
O O5 0.825629 0.638032 0.264933
O O6 0.984665 0.561628 0.325734
O O7 0.741309 0.623437 0.012249
O O8 0.184952 0.222351 0.715876
O O9 0.101816 0.304900 0.508565
O O10 0.392092 0.307415 0.872818
O O11 0.717228 0.529687 0.863779
O O12 0.897894 0.434860 0.028150
O O13 0.456845 0.639744 0.834171
O O14 0.000000 0.050061 0.750000
O O15 0.500000 0.840540 0.250000
#
# Coordination Sequence:
#
# PCOD8135247 Si02
#       7
#     8   8   8   8   8   8   8
#     4  10  20  41  67  99 130 174 214 271 329 393
#     4  11  20  39  67  94 131 168 222 262 326 385
#     4  12  24  44  65  93 129 179 215 269 326 396
#     4  10  19  37  66  99 135 171 214 267 334 386
#     4  11  27  44  66  91 138 174 220 263 337 385
#     4  11  23  39  59 101 134 169 218 272 311 382
#     4  11  21  40  69 101 125 166 221 274 325 392
#
# _framework density 21.837541000000002
#
# number of rings (size 3 to 8) (size 9 to 14) (size 15 to 20)
#    0.000    1.143    4.286    3.857    2.000    2.286 
#    0.000    3.571    0.000    0.000    0.000    0.000 
#    0.000    0.000    0.000    0.000    0.000    0.000 
#
# Total GULP energy -347010.121766 kJ/mol
# GULP energy per Si atom -12393.218634 kJ/mol
# Density = 2.178784 g / cm^3
# Si number density = 21.837541 Si / 1000 Ang^3
#
#
#
# Elastic Constant Matrix: (Units=GPa)
#
#
# Indices 1 2 3 4 5 6 
#
# 1 104.6965 20.1823 31.8551 0.0000 -3.6907 0.0000
# 2 20.1823 61.5415 9.7411 0.0000 11.7221 0.0000
# 3 31.8551 9.7411 32.5535 0.0000 -18.9698 0.0000
# 4 0.0000 0.0000 0.0000 24.8327 0.0000 5.5953
# 5 -3.6907 11.7221 -18.9698 0.0000 41.4499 0.0000
# 6 0.0000 0.0000 0.0000 5.5953 0.0000 10.9007
#
#
#
# Elastic Compliance Matrix: (Units=1/GPa)
#
#
# Indices 1 2 3 4 5 6 
#
# 1 0.015116 -0.000664 -0.018682 0.000000 -0.007016 0.000000
# 2 -0.000664 0.020577 -0.012182 0.000000 -0.011453 0.000000
# 3 -0.018682 -0.012182 0.073206 0.000000 0.035285 0.000000
# 4 0.000000 0.000000 0.000000 0.045536 0.000000 -0.023374
# 5 -0.007016 -0.011453 0.035285 0.000000 0.042888 0.000000
# 6 0.000000 0.000000 0.000000 -0.023374 0.000000 0.103735
#
#
# Mechanical properties :
#
#
# Convention : Reuss Voigt Hill
#
# Bulk Modulus (GPa) = 21.81297 35.81651 28.81474
# Shear Modulus (GPa) = 13.17892 24.57085 18.87489
#
# Velocity S-wave (km/s) = 2.45929 3.35799 2.94314
# Velocity P-wave (km/s) = 4.25142 5.60997 4.97726
#
# Compressibility (1/GPa) = 0.04584428
#
# Stress axis : x y z
#
# Youngs Moduli (GPa) = 66.15438 48.59875 13.66014
#
# Poissons Ratio (x) = 0.03226 0.25519
# Poissons Ratio (y) = 0.04392 0.16640
# Poissons Ratio (z) = 1.23587 0.59201
#
# Static dielectric constant tensor:
#      x y z
#    x 4.094980 0.000000 -0.072770 
#    y 0.000000 3.621650 0.000000 
#    z -0.072770 0.000000 4.020360 
# 
# 
# High freq. dielectric constant tensor:
#      x y z
#    x 1.870220 0.000000 0.003470 
#    y 0.000000 1.825130 0.000000 
#    z 0.003470 0.000000 1.862060 
# 
# From -- ./inp_files/50349.got.cif
#   From: 2010.06.25/outbox.cif.g09.slc.cpg/sg15_26_cif.got.tgz:50349.got - 2010.06.28 07:06:18.
