data_PCOD8135626
_publ_section_title
;
Structure prediction by ZEFSAII (Michael W. Deem and Ramdas Pophale) SiO2 
 PCOD8135626
Probable space group: C 2/C
;
_chemical_formula_sum "Si O2"
_cell_formula_units_Z 64
_cell_length_a 17.918494
_cell_length_b 9.850300
_cell_length_c 32.649267
_cell_angle_alpha 90.000000
_cell_angle_beta 145.293872
_cell_angle_gamma 90.000000
_cell_volume 3281.081630
_symmetry_space_group_name_H-M "C 2/C"
_symmetry_group_IT_number 15
_symmetry_cell_setting 'monoclinic'
loop_
_space_group_symop_operation_xyz
x,y,z
-x,y,1/2-z
-x,-y,-z
x,-y,1/2+z
1/2+x,1/2+y,z
1/2-x,1/2+y,1/2-z
1/2-x,1/2-y,-z
1/2+x,1/2-y,1/2+z
loop_
_atom_site_type_symbol
_atom_site_label
_atom_site_fract_x
_atom_site_fract_y
_atom_site_fract_z
Si Si1 0.788741 0.641062 0.461422
Si Si2 0.748846 0.632990 0.050679
Si Si3 0.701419 0.533275 0.195487
Si Si4 0.092712 0.895492 0.946131
Si Si5 0.647331 0.024542 0.320636
Si Si6 0.186564 0.280097 0.685544
Si Si7 0.093636 0.619756 0.454974
Si Si8 0.646922 0.712169 0.318684
O O1 0.865581 0.781315 0.502553
O O2 0.664821 0.628937 0.435674
O O3 0.896085 0.524271 0.517671
O O4 0.733955 0.629785 0.390608
O O5 0.781922 0.610777 0.112624
O O6 0.875986 0.601781 0.079825
O O7 0.628382 0.539684 0.981825
O O8 0.705769 0.788026 0.026091
O O9 0.561837 0.607607 0.131216
O O10 0.770784 0.546374 0.183287
O O11 0.790190 0.613660 0.267722
O O12 0.688603 0.375121 0.202729
O O13 0.500000 0.080540 0.250000
O O14 0.643536 0.867693 0.332324
O O15 0.295932 0.302195 0.700713
O O16 0.047582 0.314392 0.602284
O O17 0.500000 0.652616 0.250000
#
# Coordination Sequence:
#
# PCOD8135626 Si02
#       8
#     8   8   8   8   8   8   8   8
#     4  10  21  37  61  92 116 155 196 236 290 349
#     4  10  19  39  60  86 119 153 192 239 290 346
#     4  11  24  40  61  87 117 155 197 244 293 346
#     4  10  20  37  63  88 116 154 198 235 285 352
#     4  10  21  38  62  87 114 154 200 241 286 348
#     4  11  24  41  60  85 119 156 194 243 294 347
#     4  10  22  37  60  87 123 154 186 241 297 341
#     4  10  21  39  61  86 117 152 196 245 288 342
#
# _framework density 19.505762000000001
#
# number of rings (size 3 to 8) (size 9 to 14) (size 15 to 20)
#    0.000    1.750    2.500    1.500    1.750    2.000 
#    2.250    0.625    0.000    0.000    0.000    0.000 
#    0.000    0.000    0.000    0.000    0.000    0.000 
#
# Total GULP energy -396953.212528 kJ/mol
# GULP energy per Si atom -12404.787892 kJ/mol
# Density = 1.946137 g / cm^3
# Si number density = 19.505762 Si / 1000 Ang^3
#
#
#
# Elastic Constant Matrix: (Units=GPa)
#
#
# Indices 1 2 3 4 5 6 
#
# 1 68.3670 31.7428 36.9967 0.0000 5.3363 0.0000
# 2 31.7428 82.2200 29.1846 0.0000 -4.8718 0.0001
# 3 36.9967 29.1846 91.4765 0.0000 -2.8823 0.0000
# 4 0.0000 0.0000 0.0000 25.2657 0.0000 3.0451
# 5 5.3363 -4.8718 -2.8823 0.0000 36.8594 0.0000
# 6 0.0000 0.0001 0.0000 3.0451 0.0000 22.6786
#
#
#
# Elastic Compliance Matrix: (Units=1/GPa)
#
#
# Indices 1 2 3 4 5 6 
#
# 1 0.021562 -0.006139 -0.006903 0.000000 -0.004473 0.000000
# 2 -0.006139 0.015544 -0.002389 0.000000 0.002756 0.000000
# 3 -0.006903 -0.002389 0.014543 0.000000 0.001821 0.000000
# 4 0.000000 0.000000 0.000000 0.040230 0.000000 -0.005402
# 5 -0.004473 0.002756 0.001821 0.000000 0.028284 0.000000
# 6 0.000000 0.000000 0.000000 -0.005402 0.000000 0.044820
#
#
# Mechanical properties :
#
#
# Convention : Reuss Voigt Hill
#
# Bulk Modulus (GPa) = 48.10827 48.65685 48.38256
# Shear Modulus (GPa) = 24.65781 26.57004 25.61393
#
# Velocity S-wave (km/s) = 3.55932 3.69475 3.62767
# Velocity P-wave (km/s) = 6.45049 6.57272 6.51189
#
# Compressibility (1/GPa) = 0.02078645
#
# Stress axis : x y z
#
# Youngs Moduli (GPa) = 46.37797 64.33291 68.76069
#
# Poissons Ratio (x) = 0.39496 0.47464
# Poissons Ratio (y) = 0.28473 0.16429
# Poissons Ratio (z) = 0.32014 0.15371
#
# Static dielectric constant tensor:
#      x y z
#    x 3.441460 0.000000 0.062510 
#    y 0.000000 3.541060 0.000000 
#    z 0.062510 0.000000 3.423450 
# 
# 
# High freq. dielectric constant tensor:
#      x y z
#    x 1.756010 0.000000 0.004590 
#    y 0.000000 1.756200 0.000000 
#    z 0.004590 0.000000 1.761850 
# 
# From -- ./inp_files/315746.got.cif
#   From: 2010.06.25/outbox.cif.g09.slc.cpg/sg15_158_cif.got.tgz:315746.got - 2010.06.28 07:06:18.
