data_PCOD8135169
_publ_section_title
;
Structure prediction by ZEFSAII (Michael W. Deem and Ramdas Pophale) SiO2 
 PCOD8135169
Probable space group: C 2/C
;
_chemical_formula_sum "Si O2"
_cell_formula_units_Z 48
_cell_length_a 18.114212
_cell_length_b 11.201351
_cell_length_c 16.021794
_cell_angle_alpha 90.000000
_cell_angle_beta 134.839707
_cell_angle_gamma 90.000000
_cell_volume 2305.141584
_symmetry_space_group_name_H-M "C 2/C"
_symmetry_group_IT_number 15
_symmetry_cell_setting 'monoclinic'
loop_
_space_group_symop_operation_xyz
x,y,z
-x,y,1/2-z
-x,-y,-z
x,-y,1/2+z
1/2+x,1/2+y,z
1/2-x,1/2+y,1/2-z
1/2-x,1/2-y,-z
1/2+x,1/2-y,1/2+z
loop_
_atom_site_type_symbol
_atom_site_label
_atom_site_fract_x
_atom_site_fract_y
_atom_site_fract_z
Si Si1 0.475227 0.573606 0.815562
Si Si2 0.108808 0.161522 0.441818
Si Si3 0.598111 0.064170 0.620207
Si Si4 0.664541 0.191880 0.831507
Si Si5 0.303501 0.430986 0.740911
Si Si6 0.458564 0.307341 0.969301
O O1 0.500000 0.644860 0.750000
O O2 0.551505 0.459981 0.873506
O O3 0.355253 0.529624 0.721668
O O4 0.492786 0.666076 0.903194
O O5 0.229421 0.128035 0.554141
O O6 0.099212 0.259036 0.358795
O O7 0.050877 0.217862 0.475994
O O8 0.596131 0.102049 0.718112
O O9 0.610866 0.187502 0.579229
O O10 0.500000 0.000000 0.500000
O O11 0.693184 0.974713 0.684265
O O12 0.705352 0.304410 0.810747
O O13 0.385097 0.418414 0.883567
#
# Coordination Sequence:
#
# PCOD8135169 Si02
#       6
#     8   8   8   8   8   8
#     4  11  20  37  62  89 120 155 206 257 309 374
#     4  10  19  37  63  96 120 152 209 266 311 364
#     4  11  23  38  59  89 130 164 202 252 317 381
#     4  10  20  35  64  95 124 159 205 261 309 365
#     4  10  20  37  57  86 119 160 206 248 308 372
#     4  10  22  37  64  87 120 162 204 257 317 372
#
# _framework density 20.823015000000002
#
# number of rings (size 3 to 8) (size 9 to 14) (size 15 to 20)
#    0.000    1.667    1.667    5.000    0.000    1.333 
#    0.000    0.833   11.000    0.000    0.000    0.000 
#    0.000    0.000    0.000    0.000    0.000    0.000 
#
# Total GULP energy -297379.561788 kJ/mol
# GULP energy per Si atom -12390.815074 kJ/mol
# Density = 2.077562 g / cm^3
# Si number density = 20.823015 Si / 1000 Ang^3
#
#
#
# Elastic Constant Matrix: (Units=GPa)
#
#
# Indices 1 2 3 4 5 6 
#
# 1 109.9104 39.6448 70.4602 0.0000 -15.1359 0.0000
# 2 39.6448 53.3273 32.9557 0.0000 -11.2685 0.0000
# 3 70.4602 32.9557 123.7403 0.0000 -9.9695 0.0000
# 4 0.0000 0.0000 0.0000 32.5349 0.0000 -2.4345
# 5 -15.1359 -11.2685 -9.9695 0.0000 41.6956 0.0000
# 6 0.0000 0.0000 0.0000 -2.4345 0.0000 24.7267
#
#
#
# Elastic Compliance Matrix: (Units=1/GPa)
#
#
# Indices 1 2 3 4 5 6 
#
# 1 0.016876 -0.007458 -0.007435 0.000000 0.002333 0.000000
# 2 -0.007458 0.026696 -0.002549 0.000000 0.003898 0.000000
# 3 -0.007435 -0.002549 0.012971 0.000000 -0.000287 0.000000
# 4 0.000000 0.000000 0.000000 0.030964 0.000000 0.003049
# 5 0.002333 0.003898 -0.000287 0.000000 0.025815 0.000000
# 6 0.000000 0.000000 0.000000 0.003049 0.000000 0.040742
#
#
# Mechanical properties :
#
#
# Convention : Reuss Voigt Hill
#
# Bulk Modulus (GPa) = 46.17270 63.67769 54.92519
# Shear Modulus (GPa) = 25.48815 29.38593 27.43704
#
# Velocity S-wave (km/s) = 3.50242 3.76070 3.63386
# Velocity P-wave (km/s) = 6.21111 7.03591 6.63634
#
# Compressibility (1/GPa) = 0.02165782
#
# Stress axis : x y z
#
# Youngs Moduli (GPa) = 59.25410 37.45925 77.09454
#
# Poissons Ratio (x) = 0.27939 0.57323
# Poissons Ratio (y) = 0.44194 0.19650
# Poissons Ratio (z) = 0.44058 0.09548
#
# Static dielectric constant tensor:
#      x y z
#    x 3.805440 0.000000 -0.089570 
#    y 0.000000 3.567510 0.000000 
#    z -0.089570 0.000000 4.149520 
# 
# 
# High freq. dielectric constant tensor:
#      x y z
#    x 1.802550 0.000000 0.003440 
#    y 0.000000 1.787170 0.000000 
#    z 0.003440 0.000000 1.830710 
# 
# From -- ./inp_files/152739.got.cif
#   From: 2010.06.25/outbox.cif.g09.slc.cpg/sg15_77_cif.got.tgz:152739.got - 2010.06.28 07:06:18.
