data_PCOD8135754
_publ_section_title
;
Structure prediction by ZEFSAII (Michael W. Deem and Ramdas Pophale) SiO2 
 PCOD8135754
Probable space group: C 2/C
;
_chemical_formula_sum "Si O2"
_cell_formula_units_Z 56
_cell_length_a 9.108348
_cell_length_b 10.517562
_cell_length_c 28.139313
_cell_angle_alpha 90.000000
_cell_angle_beta 62.988258
_cell_angle_gamma 90.000000
_cell_volume 2401.616782
_symmetry_space_group_name_H-M "C 2/C"
_symmetry_group_IT_number 15
_symmetry_cell_setting 'monoclinic'
loop_
_space_group_symop_operation_xyz
x,y,z
-x,y,1/2-z
-x,-y,-z
x,-y,1/2+z
1/2+x,1/2+y,z
1/2-x,1/2+y,1/2-z
1/2-x,1/2-y,-z
1/2+x,1/2-y,1/2+z
loop_
_atom_site_type_symbol
_atom_site_label
_atom_site_fract_x
_atom_site_fract_y
_atom_site_fract_z
Si Si1 0.659196 0.328501 0.753073
Si Si2 0.938684 0.181179 0.668508
Si Si3 0.433677 0.732166 0.131800
Si Si4 0.912243 0.620790 0.491303
Si Si5 0.269241 0.811694 0.920493
Si Si6 0.784292 0.018087 0.833343
Si Si7 0.703253 0.766279 0.900549
O O1 0.500000 0.266803 0.750000
O O2 0.815926 0.234269 0.727166
O O3 0.610189 0.349107 0.815017
O O4 0.698503 0.464798 0.722993
O O5 0.832705 0.160708 0.635314
O O6 0.070448 0.290930 0.635646
O O7 0.033887 0.057948 0.674039
O O8 0.377830 0.648376 0.093971
O O9 0.340109 0.865704 0.147075
O O10 0.626223 0.765924 0.098461
O O11 0.783099 0.676477 0.548023
O O12 0.811665 0.589188 0.456771
O O13 0.000000 0.500000 0.500000
O O14 0.051367 0.728518 0.459847
O O15 0.715022 0.906642 0.876257
#
# Coordination Sequence:
#
# PCOD8135754 Si02
#       7
#     8   8   8   8   8   8   8
#     4  11  22  38  62  91 123 164 209 254 306 378
#     4   9  19  38  64  86 124 166 203 254 307 367
#     4  11  22  39  66  92 129 162 213 262 309 374
#     4  10  19  39  67  90 125 165 209 256 320 375
#     4   9  21  37  61  95 119 163 210 253 315 374
#     4  10  22  40  64  84 124 172 204 251 325 363
#     4  10  21  40  64  94 128 160 212 266 304 372
#
# _framework density 23.317625
#
# number of rings (size 3 to 8) (size 9 to 14) (size 15 to 20)
#    0.000    2.000    2.857    1.714    2.000    2.286 
#    0.000    9.286   25.143    0.000    0.000    0.000 
#    0.000    0.000    0.000    0.000    0.000    0.000 
#
# Total GULP energy -346967.876876 kJ/mol
# GULP energy per Si atom -12391.709888 kJ/mol
# Density = 2.326455 g / cm^3
# Si number density = 23.317625 Si / 1000 Ang^3
#
#
#
# Elastic Constant Matrix: (Units=GPa)
#
#
# Indices 1 2 3 4 5 6 
#
# 1 177.1245 25.7920 41.8623 0.0000 15.6099 0.0000
# 2 25.7920 69.7672 7.6915 0.0000 5.1004 0.0000
# 3 41.8623 7.6915 84.8561 0.0000 8.3427 0.0000
# 4 0.0000 0.0000 0.0000 20.7929 0.0000 -2.4856
# 5 15.6099 5.1004 8.3427 0.0000 53.1525 0.0000
# 6 0.0000 0.0000 0.0000 -2.4856 0.0000 39.8750
#
#
#
# Elastic Compliance Matrix: (Units=1/GPa)
#
#
# Indices 1 2 3 4 5 6 
#
# 1 0.006780 -0.002076 -0.003027 0.000000 -0.001317 0.000000
# 2 -0.002076 0.015190 -0.000273 0.000000 -0.000805 0.000000
# 3 -0.003027 -0.000273 0.013420 0.000000 -0.001191 0.000000
# 4 0.000000 0.000000 0.000000 0.048454 0.000000 0.003020
# 5 -0.001317 -0.000805 -0.001191 0.000000 0.019465 0.000000
# 6 0.000000 0.000000 0.000000 0.003020 0.000000 0.025267
#
#
# Mechanical properties :
#
#
# Convention : Reuss Voigt Hill
#
# Bulk Modulus (GPa) = 40.59092 53.60436 47.09764
# Shear Modulus (GPa) = 33.88907 39.85756 36.87331
#
# Velocity S-wave (km/s) = 3.81644 4.13889 3.98093
# Velocity P-wave (km/s) = 6.07173 6.77342 6.43215
#
# Compressibility (1/GPa) = 0.02463605
#
# Stress axis : x y z
#
# Youngs Moduli (GPa) = 147.50299 65.83297 74.51662
#
# Poissons Ratio (x) = 0.13669 0.22555
# Poissons Ratio (y) = 0.30627 0.02037
# Poissons Ratio (z) = 0.44648 0.01800
#
# Static dielectric constant tensor:
#      x y z
#    x 4.791030 0.000000 0.078110 
#    y 0.000000 3.645780 0.000000 
#    z 0.078110 0.000000 4.499140 
# 
# 
# High freq. dielectric constant tensor:
#      x y z
#    x 1.940570 0.000000 -0.007810 
#    y 0.000000 1.871350 0.000000 
#    z -0.007810 0.000000 1.933240 
# 
# From -- ./inp_files/307085.got.cif
#   From: 2010.06.25/outbox.cif.g09.slc.cpg/sg15_154_cif.got.tgz:307085.got - 2010.06.28 07:06:18.
