data_PCOD8135248
_publ_section_title
;
Structure prediction by ZEFSAII (Michael W. Deem and Ramdas Pophale) SiO2 
 PCOD8135248
Probable space group: C 2/C
;
_chemical_formula_sum "Si O2"
_cell_formula_units_Z 48
_cell_length_a 16.925531
_cell_length_b 7.830823
_cell_length_c 30.789603
_cell_angle_alpha 90.000000
_cell_angle_beta 148.335306
_cell_angle_gamma 90.000000
_cell_volume 2142.246719
_symmetry_space_group_name_H-M "C 2/C"
_symmetry_group_IT_number 15
_symmetry_cell_setting 'monoclinic'
loop_
_space_group_symop_operation_xyz
x,y,z
-x,y,1/2-z
-x,-y,-z
x,-y,1/2+z
1/2+x,1/2+y,z
1/2-x,1/2+y,1/2-z
1/2-x,1/2-y,-z
1/2+x,1/2-y,1/2+z
loop_
_atom_site_type_symbol
_atom_site_label
_atom_site_fract_x
_atom_site_fract_y
_atom_site_fract_z
Si Si1 0.113813 0.794329 0.465840
Si Si2 0.178769 0.973674 0.580816
Si Si3 0.273964 0.288320 0.810390
Si Si4 0.842173 0.746610 0.605894
Si Si5 0.578878 0.504221 0.188141
Si Si6 0.066522 0.575005 0.937385
O O1 0.250000 0.750000 0.500000
O O2 0.190296 0.840471 0.547174
O O3 0.016407 0.620163 0.423481
O O4 0.021431 0.949362 0.400833
O O5 0.251172 0.902842 0.658884
O O6 0.281964 0.142100 0.619667
O O7 0.000000 0.000000 0.500000
O O8 0.279150 0.401081 0.768481
O O9 0.134861 0.157516 0.741739
O O10 0.430698 0.191951 0.889046
O O11 0.884143 0.605727 0.589312
O O12 0.709838 0.876623 0.532866
O O13 0.989799 0.869077 0.679546
#
# Coordination Sequence:
#
# PCOD8135248 Si02
#       6
#     8   8   8   8   8   8
#     4  12  21  38  73 102 135 185 233 278 346 428
#     4  12  22  42  71 109 138 175 242 304 342 410
#     4  11  24  43  71 102 141 183 244 299 352 417
#     4  10  19  38  68  99 137 180 227 286 350 420
#     4  11  23  43  70  98 141 191 231 287 372 427
#     4  10  19  37  67 101 132 183 231 278 344 426
#
# _framework density 22.406381
#
# number of rings (size 3 to 8) (size 9 to 14) (size 15 to 20)
#    0.000    1.000    6.667    2.000    0.000    0.667 
#    0.000    0.833    3.667    0.000    0.000    0.000 
#    0.000    0.000    0.000    0.000    0.000    0.000 
#
# Total GULP energy -297450.931082 kJ/mol
# GULP energy per Si atom -12393.788795 kJ/mol
# Density = 2.235538 g / cm^3
# Si number density = 22.406381 Si / 1000 Ang^3
#
#
#
# Elastic Constant Matrix: (Units=GPa)
#
#
# Indices 1 2 3 4 5 6 
#
# 1 120.0212 55.9704 39.3888 0.0001 -2.5797 0.0000
# 2 55.9704 132.6407 33.0498 0.0005 -2.4748 -0.0002
# 3 39.3888 33.0498 68.3717 0.0000 -4.5198 0.0000
# 4 0.0001 0.0005 0.0000 32.8417 -0.0001 -2.4511
# 5 -2.5797 -2.4748 -4.5198 -0.0001 17.4124 0.0001
# 6 0.0000 -0.0002 0.0000 -2.4511 0.0001 48.5660
#
#
#
# Elastic Compliance Matrix: (Units=1/GPa)
#
#
# Indices 1 2 3 4 5 6 
#
# 1 0.011677 -0.003697 -0.004945 0.000000 -0.000079 0.000000
# 2 -0.003697 0.009742 -0.002568 0.000000 0.000170 0.000000
# 3 -0.004945 -0.002568 0.018969 0.000000 0.003826 0.000000
# 4 0.000000 0.000000 0.000000 0.030564 0.000000 0.001543
# 5 -0.000079 0.000170 0.003826 0.000000 0.058436 0.000000
# 6 0.000000 0.000000 0.000000 0.001543 0.000000 0.020668
#
#
# Mechanical properties :
#
#
# Convention : Reuss Voigt Hill
#
# Bulk Modulus (GPa) = 55.65505 64.20571 59.93038
# Shear Modulus (GPa) = 28.01633 32.60565 30.31099
#
# Velocity S-wave (km/s) = 3.53990 3.81884 3.68201
# Velocity P-wave (km/s) = 6.44986 6.93989 6.69935
#
# Compressibility (1/GPa) = 0.01796782
#
# Stress axis : x y z
#
# Youngs Moduli (GPa) = 85.63821 102.64695 52.71635
#
# Poissons Ratio (x) = 0.37944 0.26071
# Poissons Ratio (y) = 0.31657 0.13539
# Poissons Ratio (z) = 0.42352 0.26363
#
# Static dielectric constant tensor:
#      x y z
#    x 3.958220 0.000000 0.272520 
#    y 0.000000 3.059620 0.000000 
#    z 0.272520 0.000000 3.535300 
# 
# 
# High freq. dielectric constant tensor:
#      x y z
#    x 1.875210 0.000000 0.018550 
#    y 0.000000 1.900220 0.000000 
#    z 0.018550 0.000000 1.855120 
# 
# From -- ./inp_files/315776.got.cif
#   From: 2010.06.25/outbox.cif.g09.slc.cpg/sg15_158_cif.got.tgz:315776.got - 2010.06.28 07:06:18.
