data_PCOD8135406
_publ_section_title
;
Structure prediction by ZEFSAII (Michael W. Deem and Ramdas Pophale) SiO2 
 PCOD8135406
Probable space group: C 2/C
;
_chemical_formula_sum "Si O2"
_cell_formula_units_Z 40
_cell_length_a 14.660918
_cell_length_b 21.751358
_cell_length_c 8.596011
_cell_angle_alpha 90.000000
_cell_angle_beta 35.652564
_cell_angle_gamma 90.000000
_cell_volume 1597.773523
_symmetry_space_group_name_H-M "C 2/C"
_symmetry_group_IT_number 15
_symmetry_cell_setting 'monoclinic'
loop_
_space_group_symop_operation_xyz
x,y,z
-x,y,1/2-z
-x,-y,-z
x,-y,1/2+z
1/2+x,1/2+y,z
1/2-x,1/2+y,1/2-z
1/2-x,1/2-y,-z
1/2+x,1/2-y,1/2+z
loop_
_atom_site_type_symbol
_atom_site_label
_atom_site_fract_x
_atom_site_fract_y
_atom_site_fract_z
Si Si1 0.831239 0.413476 0.446003
Si Si2 0.500000 0.883885 0.750000
Si Si3 0.500000 0.589795 0.750000
Si Si4 0.250402 0.716697 0.831131
Si Si5 0.803693 0.531901 0.312763
Si Si6 0.904175 0.179863 0.145639
O O1 0.842672 0.459947 0.284155
O O2 0.784614 0.457377 0.655516
O O3 0.706377 0.358688 0.581139
O O4 0.000000 0.382837 0.250000
O O5 0.641232 0.842634 0.489162
O O6 0.558992 0.925612 0.809547
O O7 0.638377 0.547420 0.627160
O O8 0.582834 0.634029 0.514810
O O9 0.186829 0.759934 0.783670
O O10 0.423907 0.697737 0.532078
O O11 0.250000 0.750000 0.000000
#
# Coordination Sequence:
#
# PCOD8135406 Si02
#       6
#     8   4   4   8   8   8
#     4  11  25  46  67  99 139 184 228 281 344 408
#     4  12  21  36  72 104 132 171 238 274 334 404
#     4  10  19  38  62 104 132 165 226 288 344 378
#     4  12  19  37  64 102 133 172 230 283 326 400
#     4  11  24  41  70 100 137 177 230 282 341 410
#     4  11  22  36  66  97 137 174 225 286 333 394
#
# _framework density 25.034835999999999
#
# number of rings (size 3 to 8) (size 9 to 14) (size 15 to 20)
#    0.000    0.800    7.000    1.800    0.000    3.200 
#    0.000    1.000    0.000    0.000    0.000    0.000 
#    0.000    0.000    0.000    0.000    0.000    0.000 
#
# Total GULP energy -247969.418561 kJ/mol
# GULP energy per Si atom -12398.470928 kJ/mol
# Density = 2.497786 g / cm^3
# Si number density = 25.034836 Si / 1000 Ang^3
#
#
#
# Elastic Constant Matrix: (Units=GPa)
#
#
# Indices 1 2 3 4 5 6 
#
# 1 59.9296 27.7485 27.4737 0.0000 -30.5810 0.0000
# 2 27.7485 114.3895 68.8771 0.0000 -29.4277 0.0000
# 3 27.4737 68.8771 151.0731 0.0000 -54.4017 0.0001
# 4 0.0000 0.0000 0.0000 48.3294 0.0000 -31.0701
# 5 -30.5810 -29.4277 -54.4017 0.0000 50.1450 0.0000
# 6 0.0000 0.0000 0.0001 -31.0701 0.0000 -8.6495
#
#
#
# Elastic Compliance Matrix: (Units=1/GPa)
#
#
# Indices 1 2 3 4 5 6 
#
# 1 0.025543 -0.003753 0.003089 0.000000 0.016726 0.000000
# 2 -0.003753 0.012704 -0.005332 0.000000 -0.000618 0.000000
# 3 0.003089 -0.005332 0.013195 0.000000 0.013070 0.000000
# 4 0.000000 0.000000 0.000000 0.006252 0.000000 -0.022460
# 5 0.016726 -0.000618 0.013070 0.000000 0.043959 0.000000
# 6 0.000000 0.000000 0.000000 -0.022460 0.000000 -0.034936
#
#
# Mechanical properties :
#
#
# Convention : Reuss Voigt Hill
#
# Bulk Modulus (GPa) = 25.34877 63.73231 44.54054
# Shear Modulus (GPa) = 54.43044 31.38451 42.90748
#
# Velocity S-wave (km/s) = 4.66788 3.54451 4.14443
# Velocity P-wave (km/s) = 6.26095 6.50109 6.38215
#
# Compressibility (1/GPa) = 0.03944965
#
# Stress axis : x y z
#
# Youngs Moduli (GPa) = 39.14964 78.71477 75.78606
#
# Poissons Ratio (x) = 0.29544 -0.23412
# Poissons Ratio (y) = 0.14694 0.40410
# Poissons Ratio (z) = -0.12094 0.41972
#
# Static dielectric constant tensor:
#      x y z
#    x 4.174900 0.000000 -0.372340 
#    y 0.000000 4.619630 0.000000 
#    z -0.372340 0.000000 5.550070 
# 
# 
# High freq. dielectric constant tensor:
#      x y z
#    x 1.973210 0.000000 -0.018800 
#    y 0.000000 2.001600 0.000000 
#    z -0.018800 0.000000 2.019490 
# 
# From -- ./inp_files/107451.got.cif
#   From: 2010.06.25/outbox.cif.g09.slc.cpg/sg15_54_cif.got.tgz:107451.got - 2010.06.28 07:06:18.
