data_PCOD8135281
_publ_section_title
;
Structure prediction by ZEFSAII (Michael W. Deem and Ramdas Pophale) SiO2 
 PCOD8135281
Probable space group: C 2/C
;
_chemical_formula_sum "Si O2"
_cell_formula_units_Z 36
_cell_length_a 9.843138
_cell_length_b 9.843163
_cell_length_c 21.996983
_cell_angle_alpha 90.000000
_cell_angle_beta 102.928626
_cell_angle_gamma 90.000000
_cell_volume 2077.207342
_symmetry_space_group_name_H-M "C 2/C"
_symmetry_group_IT_number 15
_symmetry_cell_setting 'monoclinic'
loop_
_space_group_symop_operation_xyz
x,y,z
-x,y,1/2-z
-x,-y,-z
x,-y,1/2+z
1/2+x,1/2+y,z
1/2-x,1/2+y,1/2-z
1/2-x,1/2-y,-z
1/2+x,1/2-y,1/2+z
loop_
_atom_site_type_symbol
_atom_site_label
_atom_site_fract_x
_atom_site_fract_y
_atom_site_fract_z
Si Si1 0.000000 0.375000 0.750000
Si Si2 0.051636 0.485025 0.073322
Si Si3 0.728314 0.735025 0.926678
Si Si4 0.308135 0.989159 0.137953
Si Si5 0.079818 0.760842 0.137953
O O1 0.117072 0.471303 0.791538
O O2 0.075534 0.278697 0.708462
O O3 0.171196 0.375000 0.092392
O O4 0.115550 0.627718 0.102013
O O5 0.923289 0.435458 0.102013
O O6 0.000000 0.500000 0.000000
O O7 0.763536 0.877717 0.897987
O O8 0.571276 0.685458 0.897987
O O9 0.750000 0.750000 0.000000
O O10 0.194105 0.875000 0.138210
#
# Coordination Sequence:
#
# PCOD8135281 Si02
#       5
#     4   8   8   8   8
#     4   8  20  40  56  76 120 144 188 248 288 316
#     4  10  19  38  55  81 120 149 177 228 281 335
#     4  10  19  38  55  81 120 149 177 228 281 335
#     4  10  22  37  60  85 108 154 194 231 284 339
#     4  10  22  37  60  85 108 154 194 231 284 339
#
# _framework density 17.330962
#
# number of rings (size 3 to 8) (size 9 to 14) (size 15 to 20)
#    0.000    2.667    4.444    0.000    0.000   10.667 
#    0.000    0.000    0.000    0.000    0.000    0.000 
#    0.000    0.000    0.000    0.000    0.000    0.000 
#
# Total GULP energy -223157.994305 kJ/mol
# GULP energy per Si atom -12397.666350 kJ/mol
# Density = 1.729152 g / cm^3
# Si number density = 17.330962 Si / 1000 Ang^3
#
#
#
# Elastic Constant Matrix: (Units=GPa)
#
#
# Indices 1 2 3 4 5 6 
#
# 1 151.7596 108.8285 65.3930 0.0000 -2.5432 0.0000
# 2 108.8285 152.0185 65.2454 0.0000 -2.1959 0.0000
# 3 65.3930 65.2454 152.6095 0.0000 2.5868 0.0000
# 4 0.0000 0.0000 0.0000 18.0606 0.0000 -2.2899
# 5 -2.5432 -2.1959 2.5868 0.0000 18.2039 0.0000
# 6 0.0000 0.0000 0.0000 -2.2899 0.0000 63.5028
#
#
#
# Elastic Compliance Matrix: (Units=1/GPa)
#
#
# Indices 1 2 3 4 5 6 
#
# 1 0.014100 -0.009155 -0.002147 0.000000 0.001171 0.000000
# 2 -0.009155 0.014040 -0.002092 0.000000 0.000712 0.000000
# 3 -0.002147 -0.002092 0.008397 0.000000 -0.001746 0.000000
# 4 0.000000 0.000000 0.000000 0.055623 0.000000 0.002006
# 5 0.001171 0.000712 -0.001746 0.000000 0.055431 0.000000
# 6 0.000000 0.000000 0.000000 0.002006 0.000000 0.015820
#
#
# Mechanical properties :
#
#
# Convention : Reuss Voigt Hill
#
# Bulk Modulus (GPa) = 102.58556 103.92458 103.25507
# Shear Modulus (GPa) = 25.84670 34.41485 30.13077
#
# Velocity S-wave (km/s) = 3.86600 4.46100 4.17412
# Velocity P-wave (km/s) = 8.90216 9.30747 9.10707
#
# Compressibility (1/GPa) = 0.00974796
#
# Stress axis : x y z
#
# Youngs Moduli (GPa) = 70.92414 71.22351 119.09460
#
# Poissons Ratio (x) = 0.65207 0.25574
# Poissons Ratio (y) = 0.64932 0.24912
# Poissons Ratio (z) = 0.15230 0.14898
#
# Static dielectric constant tensor:
#      x y z
#    x 3.110230 0.000000 0.015810 
#    y 0.000000 3.109450 0.000000 
#    z 0.015810 0.000000 3.423860 
# 
# 
# High freq. dielectric constant tensor:
#      x y z
#    x 1.664720 0.000000 0.001180 
#    y 0.000000 1.664660 0.000000 
#    z 0.001180 0.000000 1.688170 
# 
# From -- ./inp_files/229534.got.cif
#   From: 2010.06.25/outbox.cif.g09.slc.cpg/sg15_115_cif.got.tgz:229534.got - 2010.06.28 07:06:18.
