data_PCOD8135883
_publ_section_title
;
Structure prediction by ZEFSAII (Michael W. Deem and Ramdas Pophale) SiO2 
 PCOD8135883
Probable space group: C 2/C
;
_chemical_formula_sum "Si O2"
_cell_formula_units_Z 28
_cell_length_a 11.619836
_cell_length_b 16.693239
_cell_length_c 7.837717
_cell_angle_alpha 90.000000
_cell_angle_beta 59.341060
_cell_angle_gamma 90.000000
_cell_volume 1307.791995
_symmetry_space_group_name_H-M "C 2/C"
_symmetry_group_IT_number 15
_symmetry_cell_setting 'monoclinic'
loop_
_space_group_symop_operation_xyz
x,y,z
-x,y,1/2-z
-x,-y,-z
x,-y,1/2+z
1/2+x,1/2+y,z
1/2-x,1/2+y,1/2-z
1/2-x,1/2-y,-z
1/2+x,1/2-y,1/2+z
loop_
_atom_site_type_symbol
_atom_site_label
_atom_site_fract_x
_atom_site_fract_y
_atom_site_fract_z
Si Si1 0.874395 0.053112 0.151419
Si Si2 0.729411 0.591435 0.911892
Si Si3 0.490988 0.700123 0.566615
Si Si4 0.000000 0.320370 0.250000
O O1 0.748882 0.995134 0.198078
O O2 0.131805 0.075858 0.146061
O O3 0.885963 0.136631 0.040253
O O4 0.000000 0.000000 0.000000
O O5 0.652087 0.656530 0.853865
O O6 0.871177 0.623845 0.864407
O O7 0.500000 0.737231 0.750000
O O8 0.511100 0.769167 0.413080
#
# Coordination Sequence:
#
# PCOD8135883 Si02
#       4
#     8   8   8   4
#     4  10  19  40  68  94 124 172 231 271 310 394
#     4  11  23  42  68  99 137 173 225 281 328 398
#     4  11  22  42  71  95 129 179 229 271 327 400
#     4  12  26  44  62 102 148 168 208 288 352 388
#
# _framework density 21.410132999999998
#
# number of rings (size 3 to 8) (size 9 to 14) (size 15 to 20)
#    0.000    1.143    2.857    6.857    0.000    2.286 
#    5.143    0.000    0.000    0.000    0.000    0.000 
#    0.000    0.000    0.000    0.000    0.000    0.000 
#
# Total GULP energy -173498.390250 kJ/mol
# GULP energy per Si atom -12392.742161 kJ/mol
# Density = 2.136140 g / cm^3
# Si number density = 21.410133 Si / 1000 Ang^3
#
#
#
# Elastic Constant Matrix: (Units=GPa)
#
#
# Indices 1 2 3 4 5 6 
#
# 1 94.7292 60.8277 67.7010 0.0000 2.3425 0.0000
# 2 60.8277 101.9358 30.8928 0.0000 2.1165 0.0000
# 3 67.7010 30.8928 109.6157 0.0000 31.9448 0.0000
# 4 0.0000 0.0000 0.0000 19.1812 0.0000 34.3822
# 5 2.3425 2.1165 31.9448 0.0000 40.9029 0.0000
# 6 0.0000 0.0000 0.0000 34.3822 0.0000 -106.3816
#
#
#
# Elastic Compliance Matrix: (Units=1/GPa)
#
#
# Indices 1 2 3 4 5 6 
#
# 1 0.036180 -0.014972 -0.022978 0.000000 0.016648 0.000000
# 2 -0.014972 0.017097 0.005743 0.000000 -0.004513 0.000000
# 3 -0.022978 0.005743 0.027704 0.000000 -0.020618 0.000000
# 4 0.000000 0.000000 0.000000 0.033010 0.000000 0.010669
# 5 0.016648 -0.004513 -0.020618 0.000000 0.039831 0.000000
# 6 0.000000 0.000000 0.000000 0.010669 0.000000 -0.005952
#
#
# Mechanical properties :
#
#
# Convention : Reuss Voigt Hill
#
# Bulk Modulus (GPa) = 60.35147 69.45819 64.90483
# Shear Modulus (GPa) = 22.95626 0.53113 11.74369
#
# Velocity S-wave (km/s) = 3.27802 0.49861 2.34457
# Velocity P-wave (km/s) = 6.52508 5.73094 6.14086
#
# Compressibility (1/GPa) = 0.01656960
#
# Stress axis : x y z
#
# Youngs Moduli (GPa) = 27.63957 58.48955 36.09546
#
# Poissons Ratio (x) = 0.87568 0.82939
# Poissons Ratio (y) = 0.41381 -0.20731
# Poissons Ratio (z) = 0.63510 -0.33593
#
# Static dielectric constant tensor:
#      x y z
#    x 3.942830 0.000000 0.259660 
#    y 0.000000 4.421440 0.000000 
#    z 0.259660 0.000000 3.811350 
# 
# 
# High freq. dielectric constant tensor:
#      x y z
#    x 1.817450 0.000000 0.021130 
#    y 0.000000 1.841790 0.000000 
#    z 0.021130 0.000000 1.837880 
# 
# From -- ./inp_files/27816.got.cif
#   From: 2010.06.25/outbox.cif.g09.slc.cpg/sg15_14_cif.got.tgz:27816.got - 2010.06.28 07:06:18.
