data_PCOD8135822
_publ_section_title
;
Structure prediction by ZEFSAII (Michael W. Deem and Ramdas Pophale) SiO2 
 PCOD8135822
Probable space group: C 2/C
;
_chemical_formula_sum "Si O2"
_cell_formula_units_Z 64
_cell_length_a 20.328348
_cell_length_b 11.992921
_cell_length_c 17.986210
_cell_angle_alpha 90.000000
_cell_angle_beta 46.608395
_cell_angle_gamma 90.000000
_cell_volume 3186.450228
_symmetry_space_group_name_H-M "C 2/C"
_symmetry_group_IT_number 15
_symmetry_cell_setting 'monoclinic'
loop_
_space_group_symop_operation_xyz
x,y,z
-x,y,1/2-z
-x,-y,-z
x,-y,1/2+z
1/2+x,1/2+y,z
1/2-x,1/2+y,1/2-z
1/2-x,1/2-y,-z
1/2+x,1/2-y,1/2+z
loop_
_atom_site_type_symbol
_atom_site_label
_atom_site_fract_x
_atom_site_fract_y
_atom_site_fract_z
Si Si1 0.406211 0.619417 0.351845
Si Si2 0.303529 0.525055 0.303127
Si Si3 0.315002 0.571890 0.572407
Si Si4 0.171878 0.662632 0.584890
Si Si5 0.837821 0.199552 0.705400
Si Si6 0.507292 0.822782 0.529372
Si Si7 0.895033 0.462989 0.505135
Si Si8 0.836593 0.842498 0.638095
O O1 0.500000 0.567604 0.250000
O O2 0.324873 0.557231 0.371396
O O3 0.391323 0.596514 0.450818
O O4 0.407699 0.751885 0.330302
O O5 0.346192 0.405210 0.253330
O O6 0.195167 0.525657 0.374033
O O7 0.348541 0.615091 0.213114
O O8 0.212914 0.588696 0.619889
O O9 0.327728 0.661216 0.627855
O O10 0.326144 0.446310 0.590786
O O11 0.250000 0.750000 0.500000
O O12 0.132931 0.579479 0.553818
O O13 0.928881 0.271908 0.642225
O O14 0.752377 0.268474 0.799904
O O15 0.464688 0.877712 0.488720
O O16 0.574679 0.725697 0.452103
O O17 0.559288 0.915626 0.537600
#
# Coordination Sequence:
#
# PCOD8135822 Si02
#       8
#     8   8   8   8   8   8   8   8
#     4  11  24  39  63  97 130 165 214 273 330 385
#     4  11  22  40  65  92 129 172 216 266 328 384
#     4  10  23  41  66  91 128 166 217 263 329 388
#     4  10  19  40  63  88 123 161 208 266 326 379
#     4  11  23  42  64  94 132 168 220 270 325 383
#     4  11  24  39  64  94 134 169 221 263 326 388
#     4  11  21  40  65  95 124 171 218 268 321 386
#     4  11  24  39  66  96 127 171 215 269 328 380
#
# _framework density 20.085045999999998
#
# number of rings (size 3 to 8) (size 9 to 14) (size 15 to 20)
#    0.000    1.250    5.000    2.250    5.250    1.000 
#    2.250    2.500    0.000    0.000    0.000    0.000 
#    0.000    0.000    0.000    0.000    0.000    0.000 
#
# Total GULP energy -396789.135036 kJ/mol
# GULP energy per Si atom -12399.660470 kJ/mol
# Density = 2.003933 g / cm^3
# Si number density = 20.085046 Si / 1000 Ang^3
#
#
#
# Elastic Constant Matrix: (Units=GPa)
#
#
# Indices 1 2 3 4 5 6 
#
# 1 94.5561 45.6346 30.5562 0.0000 1.2385 0.0000
# 2 45.6346 102.8739 20.2077 0.0000 5.5599 0.0000
# 3 30.5562 20.2077 70.1370 0.0000 -4.2842 0.0000
# 4 0.0000 0.0000 0.0000 32.1795 0.0000 -7.3989
# 5 1.2385 5.5599 -4.2842 0.0000 32.4324 0.0000
# 6 0.0000 0.0000 0.0000 -7.3989 0.0000 36.9062
#
#
#
# Elastic Compliance Matrix: (Units=1/GPa)
#
#
# Indices 1 2 3 4 5 6 
#
# 1 0.014868 -0.005625 -0.004872 0.000000 -0.000247 0.000000
# 2 -0.005625 0.012587 -0.001305 0.000000 -0.002115 0.000000
# 3 -0.004872 -0.001305 0.016918 0.000000 0.002645 0.000000
# 4 0.000000 0.000000 0.000000 0.032577 0.000000 0.006531
# 5 -0.000247 -0.002115 0.002645 0.000000 0.031555 0.000000
# 6 0.000000 0.000000 0.000000 0.006531 0.000000 0.028405
#
#
# Mechanical properties :
#
#
# Convention : Reuss Voigt Hill
#
# Bulk Modulus (GPa) = 48.14965 51.15156 49.65060
# Shear Modulus (GPa) = 29.86207 31.71485 30.78846
#
# Velocity S-wave (km/s) = 3.86006 3.97801 3.91948
# Velocity P-wave (km/s) = 6.62508 6.82804 6.72733
#
# Compressibility (1/GPa) = 0.02076858
#
# Stress axis : x y z
#
# Youngs Moduli (GPa) = 67.25799 79.44965 59.10920
#
# Poissons Ratio (x) = 0.44691 0.28797
# Poissons Ratio (y) = 0.37833 0.07714
# Poissons Ratio (z) = 0.32767 0.10368
#
# Static dielectric constant tensor:
#      x y z
#    x 3.688870 0.000000 -0.241610 
#    y 0.000000 3.862160 0.000000 
#    z -0.241610 0.000000 3.589310 
# 
# 
# High freq. dielectric constant tensor:
#      x y z
#    x 1.779190 0.000000 -0.014970 
#    y 0.000000 1.793480 0.000000 
#    z -0.014970 0.000000 1.775550 
# 
# From -- ./inp_files/215045.got.cif
#   From: 2010.06.25/outbox.cif.g09.slc.cpg/sg15_108_cif.got.tgz:215045.got - 2010.06.28 07:06:18.
