data_PCOD8135543
_publ_section_title
;
Structure prediction by ZEFSAII (Michael W. Deem and Ramdas Pophale) SiO2 
 PCOD8135543
Probable space group: C 2/C
;
_chemical_formula_sum "Si O2"
_cell_formula_units_Z 64
_cell_length_a 13.423781
_cell_length_b 10.945065
_cell_length_c 17.410321
_cell_angle_alpha 90.000000
_cell_angle_beta 99.954524
_cell_angle_gamma 90.000000
_cell_volume 2519.486758
_symmetry_space_group_name_H-M "C 2/C"
_symmetry_group_IT_number 15
_symmetry_cell_setting 'monoclinic'
loop_
_space_group_symop_operation_xyz
x,y,z
-x,y,1/2-z
-x,-y,-z
x,-y,1/2+z
1/2+x,1/2+y,z
1/2-x,1/2+y,1/2-z
1/2-x,1/2-y,-z
1/2+x,1/2-y,1/2+z
loop_
_atom_site_type_symbol
_atom_site_label
_atom_site_fract_x
_atom_site_fract_y
_atom_site_fract_z
Si Si1 0.858287 0.168052 0.560258
Si Si2 0.042723 0.172293 0.385706
Si Si3 0.708309 0.397256 0.289124
Si Si4 0.273342 0.318039 0.692177
Si Si5 0.678101 0.575999 0.529345
Si Si6 0.364698 0.893502 0.955441
Si Si7 0.583145 0.152605 0.547782
Si Si8 0.050699 0.087112 0.653838
O O1 0.780813 0.143053 0.620005
O O2 0.860616 0.055280 0.502963
O O3 0.838076 0.287119 0.504003
O O4 0.970972 0.186433 0.611891
O O5 0.116354 0.209957 0.326898
O O6 0.945973 0.261717 0.383234
O O7 0.006316 0.040202 0.357528
O O8 0.107726 0.174286 0.474329
O O9 0.738624 0.540713 0.278667
O O10 0.767225 0.288542 0.254023
O O11 0.590789 0.386509 0.245649
O O12 0.187329 0.302249 0.613480
O O13 0.795890 0.599123 0.524184
O O14 0.654523 0.584289 0.616528
O O15 0.479355 0.867398 0.988683
O O16 0.365552 0.028785 0.915776
#
# Coordination Sequence:
#
# PCOD8135543 Si02
#       8
#     8   8   8   8   8   8   8   8
#     4  11  20  41  65  97 133 174 224 283 328 407
#     4  10  20  40  67  95 131 169 230 279 331 400
#     4  12  26  43  69  97 143 182 229 270 350 410
#     4  11  26  47  66  95 139 182 227 281 336 418
#     4  10  19  38  66  94 128 165 229 277 331 388
#     4  10  24  41  60  99 139 166 223 290 344 395
#     4  11  22  39  69  97 131 174 222 289 349 394
#     4  11  20  37  68 103 123 176 226 278 325 408
#
# _framework density 25.401999
#
# number of rings (size 3 to 8) (size 9 to 14) (size 15 to 20)
#    0.000    1.250    6.250    1.875    1.750    3.500 
#    2.250    0.000    0.000    0.000    0.000    0.000 
#    0.000    0.000    0.000    0.000    0.000    0.000 
#
# Total GULP energy -396521.393773 kJ/mol
# GULP energy per Si atom -12391.293555 kJ/mol
# Density = 2.534418 g / cm^3
# Si number density = 25.401999 Si / 1000 Ang^3
#
#
#
# Elastic Constant Matrix: (Units=GPa)
#
#
# Indices 1 2 3 4 5 6 
#
# 1 56.0672 -0.1714 -2.2295 0.0000 -17.1853 0.0000
# 2 -0.1714 56.0959 4.4022 0.0000 -12.3774 0.0000
# 3 -2.2295 4.4022 55.4938 0.0000 -3.0148 0.0000
# 4 0.0000 0.0000 0.0000 29.9788 0.0000 -5.8620
# 5 -17.1853 -12.3774 -3.0148 0.0000 31.1733 0.0000
# 6 0.0000 0.0000 0.0000 -5.8620 0.0000 30.2021
#
#
#
# Elastic Compliance Matrix: (Units=1/GPa)
#
#
# Indices 1 2 3 4 5 6 
#
# 1 0.022016 0.002922 0.001382 0.000000 0.013431 0.000000
# 2 0.002922 0.019998 -0.000955 0.000000 0.009459 0.000000
# 3 0.001382 -0.000955 0.018268 0.000000 0.002150 0.000000
# 4 0.000000 0.000000 0.000000 0.034673 0.000000 0.006730
# 5 0.013431 0.009459 0.002150 0.000000 0.043447 0.000000
# 6 0.000000 0.000000 0.000000 0.006730 0.000000 0.034416
#
#
# Mechanical properties :
#
#
# Convention : Reuss Voigt Hill
#
# Bulk Modulus (GPa) = 14.92950 19.07327 17.00139
# Shear Modulus (GPa) = 26.53283 29.31456 27.92370
#
# Velocity S-wave (km/s) = 3.23541 3.40078 3.31912
# Velocity P-wave (km/s) = 4.45502 4.79012 4.62561
#
# Compressibility (1/GPa) = 0.06698146
#
# Stress axis : x y z
#
# Youngs Moduli (GPa) = 45.42049 50.00620 54.74023
#
# Poissons Ratio (x) = -0.14614 -0.07567
# Poissons Ratio (y) = -0.13274 0.05228
# Poissons Ratio (z) = -0.06279 0.04776
#
# Static dielectric constant tensor:
#      x y z
#    x 4.929990 0.000000 0.069320 
#    y 0.000000 4.995170 0.000000 
#    z 0.069320 0.000000 4.533830 
# 
# 
# High freq. dielectric constant tensor:
#      x y z
#    x 2.031860 0.000000 0.004750 
#    y 0.000000 2.024780 0.000000 
#    z 0.004750 0.000000 1.998360 
# 
# From -- ./inp_files/204487.got.cif
#   From: 2010.06.25/outbox.cif.g09.slc.cpg/sg15_103_cif.got.tgz:204487.got - 2010.06.28 07:06:18.
