data_PCOD8135120
_publ_section_title
;
Structure prediction by ZEFSAII (Michael W. Deem and Ramdas Pophale) SiO2 
 PCOD8135120
Probable space group: C 2/C
;
_chemical_formula_sum "Si O2"
_cell_formula_units_Z 64
_cell_length_a 16.049175
_cell_length_b 17.921420
_cell_length_c 17.779585
_cell_angle_alpha 90.000000
_cell_angle_beta 38.785443
_cell_angle_gamma 90.000000
_cell_volume 3203.336124
_symmetry_space_group_name_H-M "C 2/C"
_symmetry_group_IT_number 15
_symmetry_cell_setting 'monoclinic'
loop_
_space_group_symop_operation_xyz
x,y,z
-x,y,1/2-z
-x,-y,-z
x,-y,1/2+z
1/2+x,1/2+y,z
1/2-x,1/2+y,1/2-z
1/2-x,1/2-y,-z
1/2+x,1/2-y,1/2+z
loop_
_atom_site_type_symbol
_atom_site_label
_atom_site_fract_x
_atom_site_fract_y
_atom_site_fract_z
Si Si1 0.179525 0.446545 0.412183
Si Si2 0.981664 0.915552 0.482054
Si Si3 0.157264 0.290967 0.627102
Si Si4 0.276436 0.693208 0.196484
Si Si5 0.784390 0.062888 0.993942
Si Si6 0.641123 0.041482 0.687256
Si Si7 0.768783 0.652203 0.762899
Si Si8 0.618433 0.939185 0.839982
O O1 0.294058 0.436561 0.395658
O O2 0.175603 0.381195 0.353843
O O3 0.193181 0.525149 0.359489
O O4 0.038785 0.448896 0.552768
O O5 0.895858 0.866179 0.601231
O O6 0.921250 0.915750 0.439682
O O7 0.116068 0.869926 0.378426
O O8 0.000000 0.000000 0.500000
O O9 0.250000 0.250000 0.500000
O O10 0.232002 0.268147 0.650581
O O11 0.168095 0.379205 0.601823
O O12 0.000000 0.269021 0.750000
O O13 0.302657 0.759730 0.237114
O O14 0.150932 0.647940 0.317371
O O15 0.745304 0.978804 0.047818
O O16 0.500000 0.036850 0.750000
O O17 0.657492 0.122059 0.714308
O O18 0.675109 0.978876 0.725804
#
# Coordination Sequence:
#
# PCOD8135120 Si02
#       8
#     8   8   8   8   8   8   8   8
#     4  10  21  35  60  95 119 154 209 264 308 372
#     4  11  22  42  64  89 124 170 211 250 321 391
#     4  11  23  36  58  91 131 168 208 260 330 399
#     4  11  24  39  63  84 128 172 200 258 329 388
#     4  11  20  37  62  90 120 167 203 260 313 387
#     4  11  19  39  67  90 117 168 216 258 308 383
#     4  11  25  39  59  93 129 163 207 259 318 387
#     4  10  19  37  62  90 120 155 211 261 314 373
#
# _framework density 19.979171999999998
#
# number of rings (size 3 to 8) (size 9 to 14) (size 15 to 20)
#    0.000    1.250    5.000    2.625    5.250    0.500 
#    0.000    0.000    2.750    1.500    0.000    0.000 
#    0.000    0.000    0.000    0.000    0.000    0.000 
#
# Total GULP energy -396503.578499 kJ/mol
# GULP energy per Si atom -12390.736828 kJ/mol
# Density = 1.993370 g / cm^3
# Si number density = 19.979172 Si / 1000 Ang^3
#
#
#
# Elastic Constant Matrix: (Units=GPa)
#
#
# Indices 1 2 3 4 5 6 
#
# 1 59.2159 22.3857 14.4386 -0.0001 11.2695 0.0001
# 2 22.3857 121.3205 27.5461 0.0006 6.9253 -0.0002
# 3 14.4386 27.5461 64.0969 0.0026 -0.4288 -0.0008
# 4 -0.0001 0.0006 0.0026 32.3045 -0.0005 3.9805
# 5 11.2695 6.9253 -0.4288 -0.0005 20.3187 0.0000
# 6 0.0001 -0.0002 -0.0008 3.9805 0.0000 20.2008
#
#
#
# Elastic Compliance Matrix: (Units=1/GPa)
#
#
# Indices 1 2 3 4 5 6 
#
# 1 0.020741 -0.002366 -0.003728 0.000000 -0.010776 0.000000
# 2 -0.002366 0.009616 -0.003613 0.000000 -0.002042 0.000000
# 3 -0.003728 -0.003613 0.018019 -0.000001 0.003679 0.000001
# 4 0.000000 0.000000 -0.000001 0.031726 0.000001 -0.006251
# 5 -0.010776 -0.002042 0.003679 0.000001 0.055966 0.000000
# 6 0.000000 0.000000 0.000001 -0.006251 0.000000 0.050735
#
#
# Mechanical properties :
#
#
# Convention : Reuss Voigt Hill
#
# Bulk Modulus (GPa) = 34.52713 41.48600 38.00656
# Shear Modulus (GPa) = 23.16205 26.58234 24.87219
#
# Velocity S-wave (km/s) = 3.40856 3.65156 3.53215
# Velocity P-wave (km/s) = 5.72801 6.21194 5.97488
#
# Compressibility (1/GPa) = 0.02896274
#
# Stress axis : x y z
#
# Youngs Moduli (GPa) = 48.21268 103.99228 55.49835
#
# Poissons Ratio (x) = 0.24601 0.20688
# Poissons Ratio (y) = 0.11405 0.20054
# Poissons Ratio (z) = 0.17972 0.37576
#
# Static dielectric constant tensor:
#      x y z
#    x 3.751610 0.000000 0.153430 
#    y 0.000000 3.680400 0.000000 
#    z 0.153430 0.000000 3.708220 
# 
# 
# High freq. dielectric constant tensor:
#      x y z
#    x 1.769950 0.000000 0.002280 
#    y 0.000000 1.768870 0.000000 
#    z 0.002280 0.000000 1.776160 
# 
# From -- ./inp_files/206449.got.cif
#   From: 2010.06.25/outbox.cif.g09.slc.cpg/sg15_104_cif.got.tgz:206449.got - 2010.06.28 07:06:18.
