data_PCOD8135964
_publ_section_title
;
Structure prediction by ZEFSAII (Michael W. Deem and Ramdas Pophale) SiO2 
 PCOD8135964
Probable space group: C 2/C
;
_chemical_formula_sum "Si O2"
_cell_formula_units_Z 64
_cell_length_a 28.062146
_cell_length_b 11.641564
_cell_length_c 16.165451
_cell_angle_alpha 90.000000
_cell_angle_beta 35.259631
_cell_angle_gamma 90.000000
_cell_volume 3048.655788
_symmetry_space_group_name_H-M "C 2/C"
_symmetry_group_IT_number 15
_symmetry_cell_setting 'monoclinic'
loop_
_space_group_symop_operation_xyz
x,y,z
-x,y,1/2-z
-x,-y,-z
x,-y,1/2+z
1/2+x,1/2+y,z
1/2-x,1/2+y,1/2-z
1/2-x,1/2-y,-z
1/2+x,1/2-y,1/2+z
loop_
_atom_site_type_symbol
_atom_site_label
_atom_site_fract_x
_atom_site_fract_y
_atom_site_fract_z
Si Si1 0.699617 0.668889 0.129121
Si Si2 0.070190 0.865612 0.251944
Si Si3 0.976336 0.115361 0.191870
Si Si4 0.306601 0.081188 0.277759
Si Si5 0.156195 0.239887 0.487078
Si Si6 0.368782 0.162787 0.649486
Si Si7 0.537133 0.768986 0.962203
Si Si8 0.256016 0.071876 0.530200
O O1 0.618574 0.639412 0.191797
O O2 0.682530 0.732349 0.238859
O O3 0.753127 0.555253 0.073762
O O4 0.750000 0.750000 0.000000
O O5 0.077114 0.801020 0.153254
O O6 0.034637 0.791578 0.376917
O O7 0.164724 0.891642 0.137108
O O8 0.011531 0.977484 0.329054
O O9 0.000000 0.160691 0.250000
O O10 0.033403 0.176426 0.042056
O O11 0.218477 0.134935 0.375791
O O12 0.381512 0.157373 0.136984
O O13 0.313201 0.073036 0.367713
O O14 0.315642 0.953654 0.227773
O O15 0.114578 0.298638 0.467414
O O16 0.209895 0.337397 0.454295
O O17 0.455585 0.149401 0.576339
#
# Coordination Sequence:
#
# PCOD8135964 Si02
#       8
#     8   8   8   8   8   8   8   8
#     4  10  21  42  65  88 130 170 206 262 316 370
#     4  10  20  41  64  90 124 170 203 258 311 367
#     4  10  24  40  62  96 126 164 213 256 314 374
#     4  11  21  44  66  86 127 169 207 260 312 377
#     4  11  23  40  65  97 121 160 225 260 301 375
#     4  11  26  38  61 101 125 165 209 261 320 370
#     4  11  22  43  64  88 133 167 203 251 325 378
#     4  10  19  41  67  87 119 167 215 255 310 369
#
# _framework density 20.992858999999999
#
# number of rings (size 3 to 8) (size 9 to 14) (size 15 to 20)
#    0.000    1.500    3.750    1.500    3.500    1.000 
#    0.000    0.000    0.000    0.000    0.000    0.000 
#    0.000    0.000    0.000    0.000    0.000    0.000 
#
# Total GULP energy -396780.783710 kJ/mol
# GULP energy per Si atom -12399.399491 kJ/mol
# Density = 2.094508 g / cm^3
# Si number density = 20.992859 Si / 1000 Ang^3
#
#
#
# Elastic Constant Matrix: (Units=GPa)
#
#
# Indices 1 2 3 4 5 6 
#
# 1 73.2157 32.4518 23.3305 0.0000 21.8111 0.0000
# 2 32.4518 126.2009 40.6165 0.0000 6.2932 0.0000
# 3 23.3305 40.6165 88.8178 0.0000 10.4755 0.0000
# 4 0.0000 0.0000 0.0000 27.5206 0.0000 10.4376
# 5 21.8111 6.2932 10.4755 0.0000 28.4717 0.0000
# 6 0.0000 0.0000 0.0000 10.4376 0.0000 20.3729
#
#
#
# Elastic Compliance Matrix: (Units=1/GPa)
#
#
# Indices 1 2 3 4 5 6 
#
# 1 0.020099 -0.003874 -0.001874 0.000000 -0.013851 0.000000
# 2 -0.003874 0.010045 -0.003830 0.000000 0.002157 0.000000
# 3 -0.001874 -0.003830 0.013834 0.000000 -0.002808 0.000000
# 4 0.000000 0.000000 0.000000 0.045100 0.000000 -0.023106
# 5 -0.013851 0.002157 -0.002808 0.000000 0.046290 0.000000
# 6 0.000000 0.000000 0.000000 -0.023106 0.000000 0.060923
#
#
# Mechanical properties :
#
#
# Convention : Reuss Voigt Hill
#
# Bulk Modulus (GPa) = 40.28933 53.44801 46.86867
# Shear Modulus (GPa) = 22.34917 28.06208 25.20563
#
# Velocity S-wave (km/s) = 3.26637 3.66012 3.46884
# Velocity P-wave (km/s) = 5.78439 6.58615 6.19825
#
# Compressibility (1/GPa) = 0.02482047
#
# Stress axis : x y z
#
# Youngs Moduli (GPa) = 49.75358 99.54813 72.28512
#
# Poissons Ratio (x) = 0.38570 0.13547
# Poissons Ratio (y) = 0.19277 0.27688
# Poissons Ratio (z) = 0.09324 0.38131
#
# Static dielectric constant tensor:
#      x y z
#    x 3.481220 0.000000 0.046130 
#    y 0.000000 4.183480 0.000000 
#    z 0.046130 0.000000 4.086800 
# 
# 
# High freq. dielectric constant tensor:
#      x y z
#    x 1.806680 0.000000 0.005120 
#    y 0.000000 1.828470 0.000000 
#    z 0.005120 0.000000 1.832470 
# 
# From -- ./inp_files/225159.got.cif
#   From: 2010.06.25/outbox.cif.g09.slc.cpg/sg15_113_cif.got.tgz:225159.got - 2010.06.28 07:06:18.
