data_PCOD8135998
_publ_section_title
;
Structure prediction by ZEFSAII (Michael W. Deem and Ramdas Pophale) SiO2 
 PCOD8135998
Probable space group: C 2/C
;
_chemical_formula_sum "Si O2"
_cell_formula_units_Z 56
_cell_length_a 6.335055
_cell_length_b 27.564727
_cell_length_c 17.037209
_cell_angle_alpha 90.000000
_cell_angle_beta 66.407537
_cell_angle_gamma 90.000000
_cell_volume 2726.433494
_symmetry_space_group_name_H-M "C 2/C"
_symmetry_group_IT_number 15
_symmetry_cell_setting 'monoclinic'
loop_
_space_group_symop_operation_xyz
x,y,z
-x,y,1/2-z
-x,-y,-z
x,-y,1/2+z
1/2+x,1/2+y,z
1/2-x,1/2+y,1/2-z
1/2-x,1/2-y,-z
1/2+x,1/2-y,1/2+z
loop_
_atom_site_type_symbol
_atom_site_label
_atom_site_fract_x
_atom_site_fract_y
_atom_site_fract_z
Si Si1 0.680458 0.313837 0.938677
Si Si2 0.000000 0.857050 0.250000
Si Si3 0.500000 0.425361 0.750000
Si Si4 0.274986 0.024389 0.335680
Si Si5 0.230705 0.583720 0.666437
Si Si6 0.205866 0.293946 0.405331
Si Si7 0.028855 0.604489 0.385295
Si Si8 0.294492 0.141603 0.987890
O O1 0.707269 0.263422 0.888183
O O2 0.902569 0.345412 0.882538
O O3 0.650323 0.305242 0.036805
O O4 0.455628 0.342895 0.943462
O O5 0.924158 0.892766 0.192082
O O6 0.804469 0.822148 0.315060
O O7 0.446519 0.457114 0.680428
O O8 0.734351 0.395109 0.700278
O O9 0.500000 0.020624 0.250000
O O10 0.350921 0.059917 0.395760
O O11 0.203857 0.970391 0.373473
O O12 0.207388 0.615998 0.594331
O O13 0.000000 0.583058 0.750000
O O14 0.942967 0.309537 0.458240
O O15 0.090062 0.603966 0.468227
#
# Coordination Sequence:
#
# PCOD8135998 Si02
#       8
#     8   4   4   8   8   8   8   8
#     4  10  21  41  61  88 125 168 198 257 312 361
#     4  12  21  40  62  94 120 160 210 261 300 374
#     4  10  19  42  62  84 124 160 206 257 306 368
#     4   9  20  38  61  88 121 162 201 257 312 368
#     4  11  22  38  64  91 123 161 207 253 312 365
#     4  10  22  38  63  88 125 160 209 253 310 365
#     4  10  22  39  63  89 124 162 207 251 313 371
#     4  11  21  39  64  90 126 167 202 255 309 375
#
# _framework density 20.539653999999999
#
# number of rings (size 3 to 8) (size 9 to 14) (size 15 to 20)
#    0.000    1.714    2.857    1.714    0.000    0.571 
#    6.429    2.857    0.000    0.000    0.000    0.000 
#    0.000    0.000    0.000    0.000    0.000    0.000 
#
# Total GULP energy -347133.083905 kJ/mol
# GULP energy per Si atom -12397.610139 kJ/mol
# Density = 2.049290 g / cm^3
# Si number density = 20.539654 Si / 1000 Ang^3
#
#
#
# Elastic Constant Matrix: (Units=GPa)
#
#
# Indices 1 2 3 4 5 6 
#
# 1 125.1356 63.7595 36.5876 0.0000 11.7340 0.0000
# 2 63.7595 156.7625 45.0096 0.0000 12.7143 0.0000
# 3 36.5876 45.0096 48.2391 0.0000 5.9308 0.0000
# 4 0.0000 0.0000 0.0000 2.7687 0.0000 -4.5164
# 5 11.7340 12.7143 5.9308 0.0000 42.1371 0.0000
# 6 0.0000 0.0000 0.0000 -4.5164 0.0000 25.3785
#
#
#
# Elastic Compliance Matrix: (Units=1/GPa)
#
#
# Indices 1 2 3 4 5 6 
#
# 1 0.011232 -0.002807 -0.005719 0.000000 -0.001476 0.000000
# 2 -0.002807 0.009510 -0.006602 0.000000 -0.001159 0.000000
# 3 -0.005719 -0.006602 0.031329 0.000000 -0.000825 0.000000
# 4 0.000000 0.000000 0.000000 0.508923 0.000000 0.090568
# 5 -0.001476 -0.001159 -0.000825 0.000000 0.024609 0.000000
# 6 0.000000 0.000000 0.000000 0.090568 0.000000 0.055521
#
#
# Mechanical properties :
#
#
# Convention : Reuss Voigt Hill
#
# Bulk Modulus (GPa) = 45.83815 68.98340 57.41078
# Shear Modulus (GPa) = 7.36755 26.37554 16.87154
#
# Velocity S-wave (km/s) = 1.89599 3.58736 2.86914
# Velocity P-wave (km/s) = 5.21137 7.12862 6.24402
#
# Compressibility (1/GPa) = 0.02181589
#
# Stress axis : x y z
#
# Youngs Moduli (GPa) = 89.03251 105.14970 31.91901
#
# Poissons Ratio (x) = 0.29511 0.18254
# Poissons Ratio (y) = 0.24988 0.21074
# Poissons Ratio (z) = 0.50916 0.69424
#
# Static dielectric constant tensor:
#      x y z
#    x 3.857920 0.000000 0.120390 
#    y 0.000000 3.981460 0.000000 
#    z 0.120390 0.000000 3.476730 
# 
# 
# High freq. dielectric constant tensor:
#      x y z
#    x 1.815660 0.000000 0.004770 
#    y 0.000000 1.805280 0.000000 
#    z 0.004770 0.000000 1.781300 
# 
# From -- ./inp_files/186141.got.cif
#   From: 2010.06.25/outbox.cif.g09.slc.cpg/sg15_94_cif.got.tgz:186141.got - 2010.06.28 07:06:18.
