data_PCOD8135538
_publ_section_title
;
Structure prediction by ZEFSAII (Michael W. Deem and Ramdas Pophale) SiO2 
 PCOD8135538
Probable space group: C 2/C
;
_chemical_formula_sum "Si O2"
_cell_formula_units_Z 52
_cell_length_a 5.143939
_cell_length_b 17.669862
_cell_length_c 27.502371
_cell_angle_alpha 90.000000
_cell_angle_beta 94.602549
_cell_angle_gamma 90.000000
_cell_volume 2491.703577
_symmetry_space_group_name_H-M "C 2/C"
_symmetry_group_IT_number 15
_symmetry_cell_setting 'monoclinic'
loop_
_space_group_symop_operation_xyz
x,y,z
-x,y,1/2-z
-x,-y,-z
x,-y,1/2+z
1/2+x,1/2+y,z
1/2-x,1/2+y,1/2-z
1/2-x,1/2-y,-z
1/2+x,1/2-y,1/2+z
loop_
_atom_site_type_symbol
_atom_site_label
_atom_site_fract_x
_atom_site_fract_y
_atom_site_fract_z
Si Si1 0.749210 0.494164 0.842658
Si Si2 0.926572 0.378777 0.606244
Si Si3 0.000000 0.709873 0.250000
Si Si4 0.927344 0.131188 0.309127
Si Si5 0.264206 0.989145 0.532525
Si Si6 0.753518 0.424068 0.130879
Si Si7 0.813217 0.754029 0.347127
O O1 0.630801 0.437406 0.799327
O O2 0.530629 0.553693 0.854813
O O3 0.820818 0.435206 0.887619
O O4 0.008693 0.542273 0.832350
O O5 0.765268 0.401799 0.652290
O O6 0.771356 0.403110 0.555249
O O7 0.008935 0.290623 0.610091
O O8 0.741606 0.656374 0.240915
O O9 0.968962 0.760765 0.297857
O O10 0.055611 0.205733 0.334028
O O11 0.500000 0.000000 0.500000
O O12 0.291625 0.050525 0.575916
O O13 0.000000 0.000000 0.500000
O O14 0.769105 0.333684 0.132796
#
# Coordination Sequence:
#
# PCOD8135538 Si02
#       7
#     8   8   4   8   8   8   8
#     4  10  19  38  66  91 122 166 218 250 307 392
#     4   9  20  39  65  94 122 174 214 252 322 386
#     4  10  22  40  66  96 122 166 222 256 320 372
#     4  10  19  40  68  91 125 168 214 260 307 395
#     4  11  22  39  65  96 128 166 219 271 313 381
#     4  11  23  40  66  97 129 170 210 262 340 371
#     4  10  23  39  69  89 133 171 213 261 323 399
#
# _framework density 20.869257000000001
#
# number of rings (size 3 to 8) (size 9 to 14) (size 15 to 20)
#    0.000    1.846    3.077    2.308    6.462    0.000 
#    0.000    1.538   13.538    0.000    0.000    0.000 
#    0.000    0.000    0.000    0.000    0.000    0.000 
#
# Total GULP energy -322118.838950 kJ/mol
# GULP energy per Si atom -12389.186113 kJ/mol
# Density = 2.082176 g / cm^3
# Si number density = 20.869257 Si / 1000 Ang^3
#
#
#
# Elastic Constant Matrix: (Units=GPa)
#
#
# Indices 1 2 3 4 5 6 
#
# 1 125.2462 55.1639 28.4129 0.0000 13.8959 0.0000
# 2 55.1639 159.4541 42.8778 0.0000 9.7024 0.0000
# 3 28.4129 42.8778 87.4698 0.0000 4.9148 0.0000
# 4 0.0000 0.0000 0.0000 28.6611 0.0000 -1.3634
# 5 13.8959 9.7024 4.9148 0.0000 29.1190 0.0000
# 6 0.0000 0.0000 0.0000 -1.3634 0.0000 35.0414
#
#
#
# Elastic Compliance Matrix: (Units=1/GPa)
#
#
# Indices 1 2 3 4 5 6 
#
# 1 0.009987 -0.002788 -0.001678 0.000000 -0.003554 0.000000
# 2 -0.002788 0.008099 -0.003016 0.000000 -0.000859 0.000000
# 3 -0.001678 -0.003016 0.013483 0.000000 -0.000470 0.000000
# 4 0.000000 0.000000 0.000000 0.034955 0.000000 0.001360
# 5 -0.003554 -0.000859 -0.000470 0.000000 0.036403 0.000000
# 6 0.000000 0.000000 0.000000 0.001360 0.000000 0.028591
#
#
# Mechanical properties :
#
#
# Convention : Reuss Voigt Hill
#
# Bulk Modulus (GPa) = 60.22330 69.45326 64.83828
# Shear Modulus (GPa) = 32.89109 34.94534 33.91822
#
# Velocity S-wave (km/s) = 3.97426 4.09649 4.03584
# Velocity P-wave (km/s) = 7.06964 7.46508 7.27005
#
# Compressibility (1/GPa) = 0.01660487
#
# Stress axis : x y z
#
# Youngs Moduli (GPa) = 100.13012 123.46893 74.16955
#
# Poissons Ratio (x) = 0.34418 0.12445
# Poissons Ratio (y) = 0.27912 0.22373
# Poissons Ratio (z) = 0.16801 0.37244
#
# Static dielectric constant tensor:
#      x y z
#    x 4.205880 0.000000 0.209980 
#    y 0.000000 3.612000 0.000000 
#    z 0.209980 0.000000 3.637920 
# 
# 
# High freq. dielectric constant tensor:
#      x y z
#    x 1.847860 0.000000 0.005720 
#    y 0.000000 1.802360 0.000000 
#    z 0.005720 0.000000 1.781180 
# 
# From -- ./inp_files/285854.got.cif
#   From: 2010.06.25/outbox.cif.g09.slc.cpg/sg15_143_cif.got.tgz:285854.got - 2010.06.28 07:06:18.
