data_PCOD8135645
_publ_section_title
;
Structure prediction by ZEFSAII (Michael W. Deem and Ramdas Pophale) SiO2 
 PCOD8135645
Probable space group: C 2/C
;
_chemical_formula_sum "Si O2"
_cell_formula_units_Z 56
_cell_length_a 9.672139
_cell_length_b 18.856625
_cell_length_c 17.109549
_cell_angle_alpha 90.000000
_cell_angle_beta 116.625994
_cell_angle_gamma 90.000000
_cell_volume 2789.579690
_symmetry_space_group_name_H-M "C 2/C"
_symmetry_group_IT_number 15
_symmetry_cell_setting 'monoclinic'
loop_
_space_group_symop_operation_xyz
x,y,z
-x,y,1/2-z
-x,-y,-z
x,-y,1/2+z
1/2+x,1/2+y,z
1/2-x,1/2+y,1/2-z
1/2-x,1/2-y,-z
1/2+x,1/2-y,1/2+z
loop_
_atom_site_type_symbol
_atom_site_label
_atom_site_fract_x
_atom_site_fract_y
_atom_site_fract_z
Si Si1 0.333187 0.318795 0.487224
Si Si2 0.829616 0.189132 0.673696
Si Si3 0.176226 0.703424 0.791520
Si Si4 0.180058 0.587970 0.518339
Si Si5 0.669797 0.367322 0.767728
Si Si6 0.167834 0.575082 0.053761
Si Si7 0.307326 0.664533 0.402736
O O1 0.250000 0.250000 0.500000
O O2 0.274211 0.333888 0.384606
O O3 0.289420 0.382944 0.532093
O O4 0.518342 0.312091 0.531662
O O5 0.721541 0.173683 0.719370
O O6 0.802218 0.125777 0.606168
O O7 0.793822 0.263902 0.622971
O O8 0.000000 0.190015 0.750000
O O9 0.201625 0.787483 0.804654
O O10 0.000000 0.681196 0.750000
O O11 0.186630 0.504005 0.527691
O O12 0.228461 0.610444 0.443119
O O13 0.004056 0.608632 0.496494
O O14 0.500000 0.391375 0.750000
O O15 0.787078 0.419087 0.843155
O O16 0.696166 0.374464 0.681946
#
# Coordination Sequence:
#
# PCOD8135645 Si02
#       7
#     8   8   8   8   8   8   8
#     4  12  20  39  69  95 124 170 216 274 312 380
#     4  11  24  41  63  94 129 165 205 272 329 376
#     4  10  20  35  62  94 122 155 214 261 314 370
#     4  11  26  44  59  96 131 174 215 258 328 395
#     4  10  19  39  61  94 120 162 208 263 318 369
#     4  11  24  42  66  86 135 175 210 263 329 381
#     4  11  24  39  68  97 124 164 224 267 319 390
#
# _framework density 20.074708999999999
#
# number of rings (size 3 to 8) (size 9 to 14) (size 15 to 20)
#    0.000    1.143    2.857    4.714    4.000    1.143 
#    2.571    0.000    0.000    0.000    0.000    0.000 
#    0.000    0.000    0.000    0.000    0.000    0.000 
#
# Total GULP energy -347235.772615 kJ/mol
# GULP energy per Si atom -12401.277593 kJ/mol
# Density = 2.002902 g / cm^3
# Si number density = 20.074709 Si / 1000 Ang^3
#
#
#
# Elastic Constant Matrix: (Units=GPa)
#
#
# Indices 1 2 3 4 5 6 
#
# 1 114.8550 50.7800 48.0710 0.0000 8.0087 0.0000
# 2 50.7800 70.7494 45.4281 0.0000 0.2450 0.0000
# 3 48.0710 45.4281 146.1806 0.0000 4.9451 0.0000
# 4 0.0000 0.0000 0.0000 26.4299 0.0000 -5.2605
# 5 8.0087 0.2450 4.9451 0.0000 39.6885 0.0000
# 6 0.0000 0.0000 0.0000 -5.2605 0.0000 24.9497
#
#
#
# Elastic Compliance Matrix: (Units=1/GPa)
#
#
# Indices 1 2 3 4 5 6 
#
# 1 0.013324 -0.008488 -0.001662 0.000000 -0.002429 0.000000
# 2 -0.008488 0.023078 -0.004453 0.000000 0.002125 0.000000
# 3 -0.001662 -0.004453 0.008796 0.000000 -0.000733 0.000000
# 4 0.000000 0.000000 0.000000 0.039493 0.000000 0.008327
# 5 -0.002429 0.002125 -0.000733 0.000000 0.025765 0.000000
# 6 0.000000 0.000000 0.000000 0.008327 0.000000 0.041836
#
#
# Mechanical properties :
#
#
# Convention : Reuss Voigt Hill
#
# Bulk Modulus (GPa) = 62.52440 68.92700 65.72570
# Shear Modulus (GPa) = 26.76254 30.71402 28.73828
#
# Velocity S-wave (km/s) = 3.65519 3.91575 3.78771
# Velocity P-wave (km/s) = 7.00195 7.40634 7.20698
#
# Compressibility (1/GPa) = 0.01599376
#
# Stress axis : x y z
#
# Youngs Moduli (GPa) = 75.05124 43.33078 113.69057
#
# Poissons Ratio (x) = 0.36779 0.18891
# Poissons Ratio (y) = 0.63704 0.50622
# Poissons Ratio (z) = 0.12471 0.19293
#
# Static dielectric constant tensor:
#      x y z
#    x 3.757350 0.000000 0.009690 
#    y 0.000000 3.358680 0.000000 
#    z 0.009690 0.000000 3.924000 
# 
# 
# High freq. dielectric constant tensor:
#      x y z
#    x 1.794950 0.000000 0.001250 
#    y 0.000000 1.753250 0.000000 
#    z 0.001250 0.000000 1.804990 
# 
# From -- ./inp_files/191043.got.cif
#   From: 2010.06.25/outbox.cif.g09.slc.cpg/sg15_96_cif.got.tgz:191043.got - 2010.06.28 07:06:18.
