data_PCOD8135386
_publ_section_title
;
Structure prediction by ZEFSAII (Michael W. Deem and Ramdas Pophale) SiO2 
 PCOD8135386
Probable space group: C 2/C
;
_chemical_formula_sum "Si O2"
_cell_formula_units_Z 52
_cell_length_a 20.440685
_cell_length_b 13.153164
_cell_length_c 9.975331
_cell_angle_alpha 90.000000
_cell_angle_beta 66.057129
_cell_angle_gamma 90.000000
_cell_volume 2451.182783
_symmetry_space_group_name_H-M "C 2/C"
_symmetry_group_IT_number 15
_symmetry_cell_setting 'monoclinic'
loop_
_space_group_symop_operation_xyz
x,y,z
-x,y,1/2-z
-x,-y,-z
x,-y,1/2+z
1/2+x,1/2+y,z
1/2-x,1/2+y,1/2-z
1/2-x,1/2-y,-z
1/2+x,1/2-y,1/2+z
loop_
_atom_site_type_symbol
_atom_site_label
_atom_site_fract_x
_atom_site_fract_y
_atom_site_fract_z
Si Si1 0.597254 0.620681 0.099702
Si Si2 0.777016 0.777036 0.124816
Si Si3 0.875851 0.275855 0.208159
Si Si4 0.621654 0.890465 0.855467
Si Si5 0.500000 0.559013 0.750000
Si Si6 0.008792 0.222925 0.963633
Si Si7 0.582025 0.032042 0.666762
O O1 0.624616 0.667045 0.216403
O O2 0.569770 0.506482 0.148688
O O3 0.663720 0.632188 0.936802
O O4 0.530525 0.684277 0.094019
O O5 0.705294 0.808197 0.267398
O O6 0.809334 0.677625 0.169982
O O7 0.750000 0.750000 0.000000
O O8 0.909319 0.354495 0.285268
O O9 0.926256 0.262122 0.035856
O O10 0.554234 0.819130 0.880944
O O11 0.632753 0.957055 0.711946
O O12 0.605630 0.968222 0.991690
O O13 0.522305 0.629293 0.854280
O O14 0.500000 0.997499 0.750000
#
# Coordination Sequence:
#
# PCOD8135386 Si02
#       7
#     8   8   8   8   4   8   8
#     4  10  19  38  61  86 119 164 217 257 318 386
#     4   9  19  40  63  88 124 172 213 255 325 399
#     4  11  19  39  67  86 123 171 210 259 326 399
#     4  11  24  40  65  96 129 172 215 279 324 399
#     4  12  24  34  62  98 120 164 212 282 314 382
#     4  11  22  39  60  91 128 160 216 267 334 376
#     4  12  22  39  66  98 123 169 228 266 330 387
#
# _framework density 21.21425
#
# number of rings (size 3 to 8) (size 9 to 14) (size 15 to 20)
#    0.000    1.231    7.692    0.923    1.077    0.000 
#    2.769    1.538    0.000    4.615    0.000    0.000 
#    0.000    0.000    0.000    0.000    0.000    0.000 
#
# Total GULP energy -322255.109641 kJ/mol
# GULP energy per Si atom -12394.427294 kJ/mol
# Density = 2.116597 g / cm^3
# Si number density = 21.214250 Si / 1000 Ang^3
#
#
#
# Elastic Constant Matrix: (Units=GPa)
#
#
# Indices 1 2 3 4 5 6 
#
# 1 116.1604 39.9484 42.1483 0.0000 -23.9696 0.0000
# 2 39.9484 96.6901 45.0853 0.0000 7.7739 0.0000
# 3 42.1483 45.0853 52.5154 0.0000 -9.1202 0.0000
# 4 0.0000 0.0000 0.0000 28.8828 0.0000 13.9103
# 5 -23.9696 7.7739 -9.1202 0.0000 34.5871 0.0000
# 6 0.0000 0.0000 0.0000 13.9103 0.0000 36.1052
#
#
#
# Elastic Compliance Matrix: (Units=1/GPa)
#
#
# Indices 1 2 3 4 5 6 
#
# 1 0.014034 -0.003227 -0.006999 0.000000 0.008605 0.000000
# 2 -0.003227 0.020502 -0.016978 0.000000 -0.011321 0.000000
# 3 -0.006999 -0.016978 0.040930 0.000000 0.009758 0.000000
# 4 0.000000 0.000000 0.000000 0.042511 0.000000 -0.016378
# 5 0.008605 -0.011321 0.009758 0.000000 0.039994 0.000000
# 6 0.000000 0.000000 0.000000 -0.016378 0.000000 0.034007
#
#
# Mechanical properties :
#
#
# Convention : Reuss Voigt Hill
#
# Bulk Modulus (GPa) = 47.48555 57.74777 52.61666
# Shear Modulus (GPa) = 19.73142 29.12729 24.42935
#
# Velocity S-wave (km/s) = 3.05307 3.70943 3.39714
# Velocity P-wave (km/s) = 5.90429 6.75476 6.34380
#
# Compressibility (1/GPa) = 0.02105904
#
# Stress axis : x y z
#
# Youngs Moduli (GPa) = 71.25770 48.77520 24.43217
#
# Poissons Ratio (x) = 0.15738 0.17099
# Poissons Ratio (y) = 0.22992 0.41481
# Poissons Ratio (z) = 0.49871 0.82810
#
# Static dielectric constant tensor:
#      x y z
#    x 4.307480 0.000000 -0.503230 
#    y 0.000000 3.667100 0.000000 
#    z -0.503230 0.000000 3.892570 
# 
# 
# High freq. dielectric constant tensor:
#      x y z
#    x 1.828100 0.000000 -0.009070 
#    y 0.000000 1.818880 0.000000 
#    z -0.009070 0.000000 1.808400 
# 
# From -- ./inp_files/110943.got.cif
#   From: 2010.06.25/outbox.cif.g09.slc.cpg/sg15_56_cif.got.tgz:110943.got - 2010.06.28 07:06:18.
