data_PCOD8135912
_publ_section_title
;
Structure prediction by ZEFSAII (Michael W. Deem and Ramdas Pophale) SiO2 
 PCOD8135912
Probable space group: C 2/C
;
_chemical_formula_sum "Si O2"
_cell_formula_units_Z 48
_cell_length_a 21.004616
_cell_length_b 24.873881
_cell_length_c 8.957430
_cell_angle_alpha 90.000000
_cell_angle_beta 152.882106
_cell_angle_gamma 90.000000
_cell_volume 2133.230909
_symmetry_space_group_name_H-M "C 2/C"
_symmetry_group_IT_number 15
_symmetry_cell_setting 'monoclinic'
loop_
_space_group_symop_operation_xyz
x,y,z
-x,y,1/2-z
-x,-y,-z
x,-y,1/2+z
1/2+x,1/2+y,z
1/2-x,1/2+y,1/2-z
1/2-x,1/2-y,-z
1/2+x,1/2-y,1/2+z
loop_
_atom_site_type_symbol
_atom_site_label
_atom_site_fract_x
_atom_site_fract_y
_atom_site_fract_z
Si Si1 0.656488 0.826608 0.354879
Si Si2 0.000000 0.893039 0.250000
Si Si3 0.771788 0.443077 0.946124
Si Si4 0.500000 0.417524 0.750000
Si Si5 0.714754 0.045220 0.682997
Si Si6 0.966959 0.829719 0.910424
Si Si7 0.500000 0.862348 0.750000
Si Si8 0.500000 0.754585 0.250000
O O1 0.642200 0.887843 0.381145
O O2 0.813162 0.808316 0.637450
O O3 0.617088 0.790599 0.416020
O O4 0.552418 0.822978 0.993582
O O5 0.120878 0.931689 0.559409
O O6 0.946230 0.851516 0.266888
O O7 0.851826 0.490246 0.021989
O O8 0.760685 0.463235 0.091542
O O9 0.366197 0.451398 0.415845
O O10 0.433499 0.381597 0.741435
O O11 0.623582 0.097846 0.452593
O O12 0.053741 0.784822 0.997332
#
# Coordination Sequence:
#
# PCOD8135912 Si02
#       8
#     8   4   8   4   8   8   4   4
#     4  10  22  46  60  93 129 167 211 271 315 380
#     4  10  19  41  61  90 134 157 201 275 320 358
#     4  10  23  38  60  95 131 169 210 265 307 378
#     4  11  19  40  66  95 127 168 214 264 314 372
#     4  11  23  38  64  94 131 174 215 251 319 380
#     4  10  22  42  66  93 128 161 213 274 321 373
#     4  10  22  44  64  87 135 178 200 272 312 378
#     4  11  24  41  71  90 124 167 215 267 334 380
#
# _framework density 22.501080000000002
#
# number of rings (size 3 to 8) (size 9 to 14) (size 15 to 20)
#    0.000    1.667    5.000    1.000    2.333    6.667 
#    3.000    4.167    0.000    0.000    0.000    0.000 
#    0.000    0.000    0.000    0.000    0.000    0.000 
#
# Total GULP energy -297343.711429 kJ/mol
# GULP energy per Si atom -12389.321310 kJ/mol
# Density = 2.244987 g / cm^3
# Si number density = 22.501080 Si / 1000 Ang^3
#
#
#
# Elastic Constant Matrix: (Units=GPa)
#
#
# Indices 1 2 3 4 5 6 
#
# 1 117.0733 56.1714 28.1071 0.0000 -10.0562 0.0000
# 2 56.1714 84.9592 1.1704 0.0000 -8.5336 0.0000
# 3 28.1071 1.1704 80.2540 0.0000 -4.5175 0.0000
# 4 0.0000 0.0000 0.0000 13.6485 0.0000 -0.4626
# 5 -10.0562 -8.5336 -4.5175 0.0000 27.9256 0.0000
# 6 0.0000 0.0000 0.0000 -0.4626 0.0000 32.1195
#
#
#
# Elastic Compliance Matrix: (Units=1/GPa)
#
#
# Indices 1 2 3 4 5 6 
#
# 1 0.014223 -0.009183 -0.004760 0.000000 0.001546 0.000000
# 2 -0.009183 0.018072 0.003106 0.000000 0.002718 0.000000
# 3 -0.004760 0.003106 0.014168 0.000000 0.001527 0.000000
# 4 0.000000 0.000000 0.000000 0.073304 0.000000 0.001056
# 5 0.001546 0.002718 0.001527 0.000000 0.037444 0.000000
# 6 0.000000 0.000000 0.000000 0.001056 0.000000 0.031149
#
#
# Mechanical properties :
#
#
# Convention : Reuss Voigt Hill
#
# Bulk Modulus (GPa) = 40.34237 50.35384 45.34810
# Shear Modulus (GPa) = 22.90442 27.86122 25.38282
#
# Velocity S-wave (km/s) = 3.19396 3.52265 3.36232
# Velocity P-wave (km/s) = 5.61870 6.24279 5.93895
#
# Compressibility (1/GPa) = 0.02478783
#
# Stress axis : x y z
#
# Youngs Moduli (GPa) = 70.30717 55.33423 70.57999
#
# Poissons Ratio (x) = 0.50813 0.33599
# Poissons Ratio (y) = 0.64563 -0.21919
# Poissons Ratio (z) = 0.33469 -0.17184
#
# Static dielectric constant tensor:
#      x y z
#    x 4.036270 0.000000 -0.310110 
#    y 0.000000 4.213550 0.000000 
#    z -0.310110 0.000000 3.935940 
# 
# 
# High freq. dielectric constant tensor:
#      x y z
#    x 1.882340 0.000000 -0.016020 
#    y 0.000000 1.897500 0.000000 
#    z -0.016020 0.000000 1.861390 
# 
# From -- ./inp_files/33136.got.cif
#   From: 2010.06.25/outbox.cif.g09.slc.cpg/sg15_17_cif.got.tgz:33136.got - 2010.06.28 07:06:18.
