data_PCOD8135346
_publ_section_title
;
Structure prediction by ZEFSAII (Michael W. Deem and Ramdas Pophale) SiO2 
 PCOD8135346
Probable space group: C 2/C
;
_chemical_formula_sum "Si O2"
_cell_formula_units_Z 48
_cell_length_a 14.801223
_cell_length_b 9.340362
_cell_length_c 28.233386
_cell_angle_alpha 90.000000
_cell_angle_beta 142.042386
_cell_angle_gamma 90.000000
_cell_volume 2400.793026
_symmetry_space_group_name_H-M "C 2/C"
_symmetry_group_IT_number 15
_symmetry_cell_setting 'monoclinic'
loop_
_space_group_symop_operation_xyz
x,y,z
-x,y,1/2-z
-x,-y,-z
x,-y,1/2+z
1/2+x,1/2+y,z
1/2-x,1/2+y,1/2-z
1/2-x,1/2-y,-z
1/2+x,1/2-y,1/2+z
loop_
_atom_site_type_symbol
_atom_site_label
_atom_site_fract_x
_atom_site_fract_y
_atom_site_fract_z
Si Si1 0.729707 0.583673 0.161632
Si Si2 0.069552 0.275782 0.682991
Si Si3 0.630167 0.271285 0.870152
Si Si4 0.717722 0.048018 0.422851
Si Si5 0.942066 0.001384 0.091477
Si Si6 0.694706 0.241820 0.793612
O O1 0.835333 0.701182 0.229988
O O2 0.729763 0.613596 0.105527
O O3 0.564887 0.592271 0.113767
O O4 0.797937 0.428787 0.199183
O O5 0.171084 0.310701 0.679525
O O6 0.934344 0.382945 0.624363
O O7 0.016787 0.111288 0.658533
O O8 0.665432 0.393741 0.923247
O O9 0.695259 0.313297 0.845779
O O10 0.454174 0.270107 0.795880
O O11 0.700333 0.122620 0.915155
O O12 0.843250 0.085461 0.512917
#
# Coordination Sequence:
#
# PCOD8135346 Si02
#       6
#     8   8   8   8   8   8
#     4  10  20  39  62  85 111 163 201 231 282 361
#     4  11  21  38  60  86 120 152 197 245 290 344
#     4  10  19  38  60  83 114 152 200 237 292 345
#     4  11  22  39  62  86 122 157 194 240 299 358
#     4  11  23  38  59  93 122 149 192 254 300 338
#     4   9  19  36  60  82 109 153 200 242 274 352
#
# _framework density 19.993393999999999
#
# number of rings (size 3 to 8) (size 9 to 14) (size 15 to 20)
#    0.000    1.667    3.333    2.000    0.000    0.000 
#    6.000    0.833    0.000    0.000    0.000    0.000 
#    0.000    0.000    0.000    0.000    0.000    0.000 
#
# Total GULP energy -297638.735630 kJ/mol
# GULP energy per Si atom -12401.613985 kJ/mol
# Density = 1.994789 g / cm^3
# Si number density = 19.993394 Si / 1000 Ang^3
#
#
#
# Elastic Constant Matrix: (Units=GPa)
#
#
# Indices 1 2 3 4 5 6 
#
# 1 106.0282 33.5873 28.6162 0.0000 -16.1062 0.0000
# 2 33.5873 43.5737 25.4981 0.0000 -14.1529 0.0000
# 3 28.6162 25.4981 85.2282 0.0000 -12.9604 0.0000
# 4 0.0000 0.0000 0.0000 21.2156 0.0000 -3.3700
# 5 -16.1062 -14.1529 -12.9604 0.0000 29.1553 0.0000
# 6 0.0000 0.0000 0.0000 -3.3700 0.0000 32.6136
#
#
#
# Elastic Compliance Matrix: (Units=1/GPa)
#
#
# Indices 1 2 3 4 5 6 
#
# 1 0.012800 -0.008218 -0.001470 0.000000 0.002429 0.000000
# 2 -0.008218 0.036466 -0.006595 0.000000 0.010230 0.000000
# 3 -0.001470 -0.006595 0.014575 0.000000 0.002465 0.000000
# 4 0.000000 0.000000 0.000000 0.047922 0.000000 0.004952
# 5 0.002429 0.010230 0.002465 0.000000 0.041703 0.000000
# 6 0.000000 0.000000 0.000000 0.004952 0.000000 0.031174
#
#
# Mechanical properties :
#
#
# Convention : Reuss Voigt Hill
#
# Bulk Modulus (GPa) = 31.97339 45.58149 38.77744
# Shear Modulus (GPa) = 21.96553 26.40545 24.18549
#
# Velocity S-wave (km/s) = 3.31817 3.63810 3.48181
# Velocity P-wave (km/s) = 5.54139 6.36360 5.96668
#
# Compressibility (1/GPa) = 0.03127601
#
# Stress axis : x y z
#
# Youngs Moduli (GPa) = 78.12327 27.42294 68.61211
#
# Poissons Ratio (x) = 0.22535 0.10086
# Poissons Ratio (y) = 0.64199 0.45248
# Poissons Ratio (z) = 0.11484 0.18085
#
# Static dielectric constant tensor:
#      x y z
#    x 3.867900 0.000000 -0.082860 
#    y 0.000000 3.354880 0.000000 
#    z -0.082860 0.000000 3.598070 
# 
# 
# High freq. dielectric constant tensor:
#      x y z
#    x 1.792170 0.000000 -0.002830 
#    y 0.000000 1.753680 0.000000 
#    z -0.002830 0.000000 1.778590 
# 
# From -- ./inp_files/242568.got.cif
#   From: 2010.06.25/outbox.cif.g09.slc.cpg/sg15_122_cif.got.tgz:242568.got - 2010.06.28 07:06:18.
