data_PCOD8135487
_publ_section_title
;
Structure prediction by ZEFSAII (Michael W. Deem and Ramdas Pophale) SiO2 
 PCOD8135487
Probable space group: C 2/C
;
_chemical_formula_sum "Si O2"
_cell_formula_units_Z 48
_cell_length_a 10.669484
_cell_length_b 13.619212
_cell_length_c 29.607094
_cell_angle_alpha 90.000000
_cell_angle_beta 147.133558
_cell_angle_gamma 90.000000
_cell_volume 2334.732190
_symmetry_space_group_name_H-M "C 2/C"
_symmetry_group_IT_number 15
_symmetry_cell_setting 'monoclinic'
loop_
_space_group_symop_operation_xyz
x,y,z
-x,y,1/2-z
-x,-y,-z
x,-y,1/2+z
1/2+x,1/2+y,z
1/2-x,1/2+y,1/2-z
1/2-x,1/2-y,-z
1/2+x,1/2-y,1/2+z
loop_
_atom_site_type_symbol
_atom_site_label
_atom_site_fract_x
_atom_site_fract_y
_atom_site_fract_z
Si Si1 0.620973 0.531462 0.602918
Si Si2 0.358291 0.511857 0.611677
Si Si3 0.500000 0.480242 0.750000
Si Si4 0.352114 0.815392 0.840100
Si Si5 0.957769 0.661009 0.472072
Si Si6 0.168865 0.146542 0.055793
Si Si7 0.000000 0.341013 0.250000
O O1 0.566599 0.523370 0.639742
O O2 0.416895 0.584587 0.513566
O O3 0.658859 0.421691 0.596522
O O4 0.859241 0.592588 0.671450
O O5 0.427764 0.543273 0.684034
O O6 0.160324 0.582752 0.534858
O O7 0.276462 0.396959 0.585645
O O8 0.717119 0.417728 0.798091
O O9 0.567683 0.817975 0.871510
O O10 0.176789 0.726884 0.774373
O O11 0.444947 0.794130 0.918239
O O12 0.011497 0.757133 0.518710
#
# Coordination Sequence:
#
# PCOD8135487 Si02
#       7
#     8   8   4   8   8   8   4
#     4  11  24  38  62  94 127 159 200 262 310 367
#     4  10  21  39  64  90 124 159 211 256 306 367
#     4   9  22  36  61  92 118 164 205 256 309 356
#     4  10  19  38  64  88 116 162 214 249 287 376
#     4  10  19  38  66  89 117 163 214 248 300 370
#     4  11  22  40  62  92 124 164 205 247 313 372
#     4  11  22  38  61  94 120 164 213 252 303 362
#
# _framework density 20.559103
#
# number of rings (size 3 to 8) (size 9 to 14) (size 15 to 20)
#    0.000    1.667    3.333    1.500    2.333    0.667 
#    0.000    0.833   11.000    0.000    0.000    0.000 
#    0.000    0.000    0.000    0.000    0.000    0.000 
#
# Total GULP energy -297527.799349 kJ/mol
# GULP energy per Si atom -12396.991640 kJ/mol
# Density = 2.051231 g / cm^3
# Si number density = 20.559103 Si / 1000 Ang^3
#
#
#
# Elastic Constant Matrix: (Units=GPa)
#
#
# Indices 1 2 3 4 5 6 
#
# 1 83.5428 33.7576 40.6492 0.0000 -3.3128 0.0000
# 2 33.7576 92.1584 19.9648 0.0001 4.6421 0.0000
# 3 40.6492 19.9648 87.1303 0.0009 7.1723 0.0001
# 4 0.0000 0.0001 0.0009 34.2882 0.0001 -2.7494
# 5 -3.3128 4.6421 7.1723 0.0001 24.0411 0.0000
# 6 0.0000 0.0000 0.0001 -2.7494 0.0000 18.5535
#
#
#
# Elastic Compliance Matrix: (Units=1/GPa)
#
#
# Indices 1 2 3 4 5 6 
#
# 1 0.018067 -0.005241 -0.007705 0.000000 0.005800 0.000000
# 2 -0.005241 0.012988 -0.000272 0.000000 -0.003149 0.000000
# 3 -0.007705 -0.000272 0.015600 0.000000 -0.005663 0.000000
# 4 0.000000 0.000000 0.000000 0.029515 0.000000 0.004374
# 5 0.005800 -0.003149 -0.005663 0.000000 0.044692 0.000000
# 6 0.000000 0.000000 0.000000 0.004374 0.000000 0.054546
#
#
# Mechanical properties :
#
#
# Convention : Reuss Voigt Hill
#
# Bulk Modulus (GPa) = 49.45780 50.17498 49.81639
# Shear Modulus (GPa) = 23.97107 26.60722 25.28914
#
# Velocity S-wave (km/s) = 3.41832 3.60138 3.51104
# Velocity P-wave (km/s) = 6.29988 6.46154 6.38122
#
# Compressibility (1/GPa) = 0.02021926
#
# Stress axis : x y z
#
# Youngs Moduli (GPa) = 55.35033 76.99373 64.10103
#
# Poissons Ratio (x) = 0.40350 0.49392
# Poissons Ratio (y) = 0.29008 0.01743
# Poissons Ratio (z) = 0.42649 0.02093
#
# Static dielectric constant tensor:
#      x y z
#    x 3.381270 0.000000 0.109130 
#    y 0.000000 3.850610 0.000000 
#    z 0.109130 0.000000 3.922600 
# 
# 
# High freq. dielectric constant tensor:
#      x y z
#    x 1.763820 0.000000 0.014440 
#    y 0.000000 1.807090 0.000000 
#    z 0.014440 0.000000 1.812210 
# 
# From -- ./inp_files/196628.got.cif
#   From: 2010.06.25/outbox.cif.g09.slc.cpg/sg15_99_cif.got.tgz:196628.got - 2010.06.28 07:06:18.
