data_PCOD8135797
_publ_section_title
;
Structure prediction by ZEFSAII (Michael W. Deem and Ramdas Pophale) SiO2 
 PCOD8135797
Probable space group: C 2/C
;
_chemical_formula_sum "Si O2"
_cell_formula_units_Z 60
_cell_length_a 24.878274
_cell_length_b 16.305041
_cell_length_c 9.099673
_cell_angle_alpha 90.000000
_cell_angle_beta 129.936436
_cell_angle_gamma 90.000000
_cell_volume 2830.256023
_symmetry_space_group_name_H-M "C 2/C"
_symmetry_group_IT_number 15
_symmetry_cell_setting 'monoclinic'
loop_
_space_group_symop_operation_xyz
x,y,z
-x,y,1/2-z
-x,-y,-z
x,-y,1/2+z
1/2+x,1/2+y,z
1/2-x,1/2+y,1/2-z
1/2-x,1/2-y,-z
1/2+x,1/2-y,1/2+z
loop_
_atom_site_type_symbol
_atom_site_label
_atom_site_fract_x
_atom_site_fract_y
_atom_site_fract_z
Si Si1 0.415311 0.271186 0.367784
Si Si2 0.670392 0.445321 0.620085
Si Si3 0.872855 0.344387 0.214427
Si Si4 0.132710 0.237475 0.027713
Si Si5 0.708681 0.724867 0.637926
Si Si6 0.256115 0.437394 0.451168
Si Si7 0.500000 0.171101 0.750000
Si Si8 0.957075 0.057308 0.030260
O O1 0.338757 0.267648 0.302985
O O2 0.469909 0.223326 0.564038
O O3 0.441652 0.363909 0.404611
O O4 0.408224 0.233680 0.191340
O O5 0.627802 0.361279 0.521145
O O6 0.720875 0.474370 0.574251
O O7 0.614593 0.515875 0.548047
O O8 0.723933 0.435390 0.845368
O O9 0.903390 0.285092 0.397983
O O10 0.828807 0.421290 0.204104
O O11 0.935708 0.377593 0.217510
O O12 0.815165 0.290093 0.026852
O O13 0.213880 0.260256 0.168164
O O14 0.701821 0.633959 0.559627
O O15 0.000000 0.082819 0.250000
O O16 0.000000 0.000000 0.000000
#
# Coordination Sequence:
#
# PCOD8135797 Si02
#       8
#     8   8   8   8   8   8   4   8
#     4  11  22  37  57  87 123 164 207 248 303 368
#     4  12  23  37  59  88 124 162 212 249 309 359
#     4  10  21  42  65  86 123 162 210 260 318 374
#     4  11  21  36  61  94 121 156 204 264 305 364
#     4  10  19  40  61  85 123 160 204 261 311 357
#     4  11  21  39  61  90 121 162 207 263 312 357
#     4  10  24  40  64  84 118 166 210 256 310 382
#     4  12  25  38  51  82 129 178 206 239 287 372
#
# _framework density 21.199496
#
# number of rings (size 3 to 8) (size 9 to 14) (size 15 to 20)
#    0.000    1.067    4.667    3.600    1.867    0.533 
#    0.000    0.000    0.000    0.800    0.000    0.000 
#    0.000    0.000    0.000    0.000    0.000    0.000 
#
# Total GULP energy -371855.352672 kJ/mol
# GULP energy per Si atom -12395.178422 kJ/mol
# Density = 2.115124 g / cm^3
# Si number density = 21.199496 Si / 1000 Ang^3
#
#
#
# Elastic Constant Matrix: (Units=GPa)
#
#
# Indices 1 2 3 4 5 6 
#
# 1 113.9024 15.6048 21.7547 0.0000 -0.9396 0.0000
# 2 15.6048 28.5853 9.6916 0.0000 -0.7862 0.0000
# 3 21.7547 9.6916 134.0160 0.0000 -18.6160 0.0000
# 4 0.0000 0.0000 0.0000 17.7759 0.0000 -2.9307
# 5 -0.9396 -0.7862 -18.6160 0.0000 32.1703 0.0000
# 6 0.0000 0.0000 0.0000 -2.9307 0.0000 23.3313
#
#
#
# Elastic Compliance Matrix: (Units=1/GPa)
#
#
# Indices 1 2 3 4 5 6 
#
# 1 0.009690 -0.004864 -0.001303 0.000000 -0.000590 0.000000
# 2 -0.004864 0.038318 -0.002035 0.000000 -0.000383 0.000000
# 3 -0.001303 -0.002035 0.008491 0.000000 0.004826 0.000000
# 4 0.000000 0.000000 0.000000 0.057445 0.000000 0.007216
# 5 -0.000590 -0.000383 0.004826 0.000000 0.033850 0.000000
# 6 0.000000 0.000000 0.000000 0.007216 0.000000 0.043767
#
#
# Mechanical properties :
#
#
# Convention : Reuss Voigt Hill
#
# Bulk Modulus (GPa) = 24.94111 41.17846 33.05979
# Shear Modulus (GPa) = 22.59069 29.95234 26.27152
#
# Velocity S-wave (km/s) = 3.26793 3.76291 3.52412
# Velocity P-wave (km/s) = 5.10193 6.19239 5.67342
#
# Compressibility (1/GPa) = 0.04009445
#
# Stress axis : x y z
#
# Youngs Moduli (GPa) = 103.20060 26.09767 117.77474
#
# Poissons Ratio (x) = 0.12694 0.15348
# Poissons Ratio (y) = 0.50198 0.23963
# Poissons Ratio (z) = 0.13448 0.05310
#
# Static dielectric constant tensor:
#      x y z
#    x 3.988070 0.000000 -0.125920 
#    y 0.000000 3.727190 0.000000 
#    z -0.125920 0.000000 3.918800 
# 
# 
# High freq. dielectric constant tensor:
#      x y z
#    x 1.840560 0.000000 -0.006220 
#    y 0.000000 1.792440 0.000000 
#    z -0.006220 0.000000 1.837250 
# 
# From -- ./inp_files/67041.got.cif
#   From: 2010.06.25/outbox.cif.g09.slc.cpg/sg15_34_cif.got.tgz:67041.got - 2010.06.28 07:06:18.
