data_PCOD8135521
_publ_section_title
;
Structure prediction by ZEFSAII (Michael W. Deem and Ramdas Pophale) SiO2 
 PCOD8135521
Probable space group: C 2/C
;
_chemical_formula_sum "Si O2"
_cell_formula_units_Z 52
_cell_length_a 27.961432
_cell_length_b 18.277007
_cell_length_c 14.305417
_cell_angle_alpha 90.000000
_cell_angle_beta 19.609523
_cell_angle_gamma 90.000000
_cell_volume 2453.564607
_symmetry_space_group_name_H-M "C 2/C"
_symmetry_group_IT_number 15
_symmetry_cell_setting 'monoclinic'
loop_
_space_group_symop_operation_xyz
x,y,z
-x,y,1/2-z
-x,-y,-z
x,-y,1/2+z
1/2+x,1/2+y,z
1/2-x,1/2+y,1/2-z
1/2-x,1/2-y,-z
1/2+x,1/2-y,1/2+z
loop_
_atom_site_type_symbol
_atom_site_label
_atom_site_fract_x
_atom_site_fract_y
_atom_site_fract_z
Si Si1 0.302168 0.086405 0.984554
Si Si2 0.387491 0.788389 0.210739
Si Si3 0.443957 0.120404 0.449257
Si Si4 0.512274 0.354714 0.425505
Si Si5 0.201320 0.465295 0.806890
Si Si6 0.805216 0.569427 0.388697
Si Si7 0.500000 0.591487 0.750000
O O1 0.353135 0.074612 0.998046
O O2 0.136824 0.106940 0.273499
O O3 0.413057 0.146298 0.738634
O O4 0.324151 0.014049 0.883554
O O5 0.250000 0.750000 0.500000
O O6 0.345580 0.821833 0.185492
O O7 0.514170 0.727897 0.965390
O O8 0.500000 0.154719 0.250000
O O9 0.576860 0.115870 0.275583
O O10 0.359874 0.046673 0.580871
O O11 0.521295 0.352971 0.296585
O O12 0.649797 0.400341 0.207330
O O13 0.162895 0.423772 0.781287
O O14 0.371948 0.465925 0.500263
#
# Coordination Sequence:
#
# PCOD8135521 Si02
#       7
#     8   8   8   8   8   8   4
#     4  10  19  38  65  93 124 160 213 265 318 370
#     4  10  23  42  63  87 127 174 209 259 326 389
#     4  12  24  39  64  92 127 159 208 262 319 378
#     4   9  20  37  62  91 124 168 211 253 320 387
#     4  10  20  37  61  97 121 158 205 267 320 371
#     4  11  21  37  64  92 126 161 209 267 317 372
#     4   8  18  36  62  92 124 160 212 262 312 378
#
# _framework density 21.193655
#
# number of rings (size 3 to 8) (size 9 to 14) (size 15 to 20)
#    0.000    1.846    3.077    0.923    1.077    0.615 
#    0.000    0.000    3.385    0.000    0.000    0.000 
#    0.000    0.000    0.000    0.000    0.000    0.000 
#
# Total GULP energy -322098.090582 kJ/mol
# GULP energy per Si atom -12388.388099 kJ/mol
# Density = 2.114542 g / cm^3
# Si number density = 21.193655 Si / 1000 Ang^3
#
#
#
# Elastic Constant Matrix: (Units=GPa)
#
#
# Indices 1 2 3 4 5 6 
#
# 1 134.9789 45.9043 53.9030 0.0002 25.5352 -0.0002
# 2 45.9043 102.5810 48.4277 0.0013 11.3261 -0.0010
# 3 53.9030 48.4277 68.1079 0.0006 18.5213 -0.0004
# 4 0.0002 0.0013 0.0006 33.5260 -0.0004 19.0387
# 5 25.5352 11.3261 18.5213 -0.0004 42.5979 0.0005
# 6 -0.0002 -0.0010 -0.0004 19.0387 0.0005 22.7494
#
#
#
# Elastic Compliance Matrix: (Units=1/GPa)
#
#
# Indices 1 2 3 4 5 6 
#
# 1 0.011338 -0.001351 -0.007101 0.000000 -0.003349 0.000000
# 2 -0.001351 0.014855 -0.009798 -0.000001 0.001120 0.000002
# 3 -0.007101 -0.009798 0.028810 0.000000 -0.005664 0.000000
# 4 0.000000 -0.000001 0.000000 0.056842 0.000001 -0.047570
# 5 -0.003349 0.001120 -0.005664 0.000001 0.027648 -0.000002
# 6 0.000000 0.000002 0.000000 -0.047570 -0.000002 0.083768
#
#
# Mechanical properties :
#
#
# Convention : Reuss Voigt Hill
#
# Bulk Modulus (GPa) = 54.04908 66.90422 60.47665
# Shear Modulus (GPa) = 18.80212 30.27019 24.53615
#
# Velocity S-wave (km/s) = 2.98175 3.78334 3.40621
# Velocity P-wave (km/s) = 6.11656 7.12190 6.63829
#
# Compressibility (1/GPa) = 0.01850170
#
# Stress axis : x y z
#
# Youngs Moduli (GPa) = 88.20187 67.31857 34.71039
#
# Poissons Ratio (x) = 0.09096 0.24649
# Poissons Ratio (y) = 0.11918 0.34008
# Poissons Ratio (z) = 0.62636 0.65956
#
# Static dielectric constant tensor:
#      x y z
#    x 4.126930 -0.000010 0.325530 
#    y -0.000010 4.270180 0.000010 
#    z 0.325530 0.000010 4.284820 
# 
# 
# High freq. dielectric constant tensor:
#      x y z
#    x 1.823210 0.000000 0.023370 
#    y 0.000000 1.817210 0.000000 
#    z 0.023370 0.000000 1.849710 
# 
# From -- ./inp_files/182826.got.cif
#   From: 2010.06.25/outbox.cif.g09.slc.cpg/sg15_92_cif.got.tgz:182826.got - 2010.06.28 07:06:18.
