data_PCOD8135170
_publ_section_title
;
Structure prediction by ZEFSAII (Michael W. Deem and Ramdas Pophale) SiO2 
 PCOD8135170
Probable space group: C 2/C
;
_chemical_formula_sum "Si O2"
_cell_formula_units_Z 60
_cell_length_a 14.480458
_cell_length_b 21.243800
_cell_length_c 9.792322
_cell_angle_alpha 90.000000
_cell_angle_beta 88.382023
_cell_angle_gamma 90.000000
_cell_volume 3011.112646
_symmetry_space_group_name_H-M "C 2/C"
_symmetry_group_IT_number 15
_symmetry_cell_setting 'monoclinic'
loop_
_space_group_symop_operation_xyz
x,y,z
-x,y,1/2-z
-x,-y,-z
x,-y,1/2+z
1/2+x,1/2+y,z
1/2-x,1/2+y,1/2-z
1/2-x,1/2-y,-z
1/2+x,1/2-y,1/2+z
loop_
_atom_site_type_symbol
_atom_site_label
_atom_site_fract_x
_atom_site_fract_y
_atom_site_fract_z
Si Si1 0.500000 0.333100 0.250000
Si Si2 0.588435 0.975391 0.573194
Si Si3 0.725814 0.121082 0.392491
Si Si4 0.203335 0.513383 0.808869
Si Si5 0.904037 0.250949 0.979225
Si Si6 0.014609 0.353468 0.893326
Si Si7 0.761604 0.236678 0.202948
Si Si8 0.695522 0.371781 0.314587
O O1 0.541945 0.299033 0.114780
O O2 0.584821 0.372128 0.308222
O O3 0.619233 0.016987 0.702392
O O4 0.560852 0.907526 0.629383
O O5 0.500000 0.000000 0.500000
O O6 0.671795 0.972327 0.463513
O O7 0.746411 0.057786 0.302897
O O8 0.615876 0.122889 0.427561
O O9 0.759769 0.185232 0.322183
O O10 0.779212 0.115727 0.530959
O O11 0.275802 0.567859 0.775057
O O12 0.818547 0.281010 0.899461
O O13 0.977992 0.306239 0.011918
O O14 0.861540 0.227773 0.125036
O O15 0.000000 0.315092 0.750000
O O16 0.744754 0.307282 0.261330
#
# Coordination Sequence:
#
# PCOD8135170 Si02
#       8
#     4   8   8   8   8   8   8   8
#     4  10  22  44  68  82 124 158 224 272 318 378
#     4  12  21  35  57  92 131 170 203 246 304 385
#     4  12  23  40  64  95 130 168 209 260 323 381
#     4  12  23  39  61  91 134 166 212 259 313 379
#     4  10  19  37  63  97 121 168 211 252 321 382
#     4  12  18  34  60  90 128 165 202 244 310 385
#     4  10  21  38  65  95 129 164 211 264 314 379
#     4  11  24  44  63  94 124 171 211 271 324 377
#
# _framework density 19.926188
#
# number of rings (size 3 to 8) (size 9 to 14) (size 15 to 20)
#    0.000    0.800    6.000    2.400    0.000    2.133 
#    0.000    4.667    0.000    0.000    0.000    0.000 
#    0.000    0.000    0.000    0.000    0.000    0.000 
#
# Total GULP energy -371768.536173 kJ/mol
# GULP energy per Si atom -12392.284539 kJ/mol
# Density = 1.988083 g / cm^3
# Si number density = 19.926188 Si / 1000 Ang^3
#
#
#
# Elastic Constant Matrix: (Units=GPa)
#
#
# Indices 1 2 3 4 5 6 
#
# 1 104.9999 51.7629 38.7255 0.0000 -8.4295 0.0000
# 2 51.7629 123.4812 35.1708 0.0000 -17.1586 0.0000
# 3 38.7255 35.1708 87.3282 0.0000 -8.5098 0.0000
# 4 0.0000 0.0000 0.0000 27.0814 0.0000 -9.3345
# 5 -8.4295 -17.1586 -8.5098 0.0000 34.0292 0.0000
# 6 0.0000 0.0000 0.0000 -9.3345 0.0000 33.1553
#
#
#
# Elastic Compliance Matrix: (Units=1/GPa)
#
#
# Indices 1 2 3 4 5 6 
#
# 1 0.013182 -0.004355 -0.004087 0.000000 0.000047 0.000000
# 2 -0.004355 0.011088 -0.002147 0.000000 0.003975 0.000000
# 3 -0.004087 -0.002147 0.014272 0.000000 0.001474 0.000000
# 4 0.000000 0.000000 0.000000 0.040894 0.000000 0.011513
# 5 0.000047 0.003975 0.001474 0.000000 0.031771 0.000000
# 6 0.000000 0.000000 0.000000 0.011513 0.000000 0.033402
#
#
# Mechanical properties :
#
#
# Convention : Reuss Voigt Hill
#
# Bulk Modulus (GPa) = 57.59180 63.01418 60.30299
# Shear Modulus (GPa) = 29.14172 31.52986 30.33579
#
# Velocity S-wave (km/s) = 3.82839 3.98217 3.90604
# Velocity P-wave (km/s) = 6.96473 7.26884 7.11841
#
# Compressibility (1/GPa) = 0.01736358
#
# Stress axis : x y z
#
# Youngs Moduli (GPa) = 75.86138 90.18784 70.06894
#
# Poissons Ratio (x) = 0.39279 0.28636
# Poissons Ratio (y) = 0.33039 0.15043
# Poissons Ratio (z) = 0.31003 0.19363
#
# Static dielectric constant tensor:
#      x y z
#    x 3.811140 0.000000 0.050090 
#    y 0.000000 3.831980 0.000000 
#    z 0.050090 0.000000 4.936380 
# 
# 
# High freq. dielectric constant tensor:
#      x y z
#    x 1.759450 0.000000 -0.007260 
#    y 0.000000 1.775410 0.000000 
#    z -0.007260 0.000000 1.781340 
# 
# From -- ./inp_files/42196.got.cif
#   From: 2010.06.25/outbox.cif.g09.slc.cpg/sg15_22_cif.got.tgz:42196.got - 2010.06.28 07:06:18.
