data_PCOD8135398
_publ_section_title
;
Structure prediction by ZEFSAII (Michael W. Deem and Ramdas Pophale) SiO2 
 PCOD8135398
Probable space group: C 2/C
;
_chemical_formula_sum "Si O2"
_cell_formula_units_Z 64
_cell_length_a 10.336905
_cell_length_b 16.022063
_cell_length_c 19.693341
_cell_angle_alpha 90.000000
_cell_angle_beta 108.501759
_cell_angle_gamma 90.000000
_cell_volume 3093.004013
_symmetry_space_group_name_H-M "C 2/C"
_symmetry_group_IT_number 15
_symmetry_cell_setting 'monoclinic'
loop_
_space_group_symop_operation_xyz
x,y,z
-x,y,1/2-z
-x,-y,-z
x,-y,1/2+z
1/2+x,1/2+y,z
1/2-x,1/2+y,1/2-z
1/2-x,1/2-y,-z
1/2+x,1/2-y,1/2+z
loop_
_atom_site_type_symbol
_atom_site_label
_atom_site_fract_x
_atom_site_fract_y
_atom_site_fract_z
Si Si1 0.022109 0.261573 0.473050
Si Si2 0.704252 0.622134 0.079657
Si Si3 0.131320 0.230398 0.848182
Si Si4 0.676414 0.314281 0.211470
Si Si5 0.683320 0.464698 0.844888
Si Si6 0.796722 0.394168 0.451093
Si Si7 0.371017 0.497626 0.812305
Si Si8 0.722970 0.277604 0.891905
O O1 0.130486 0.254369 0.551961
O O2 0.101040 0.262539 0.414661
O O3 0.923320 0.181785 0.458981
O O4 0.943170 0.349322 0.467810
O O5 0.826351 0.674310 0.133674
O O6 0.663500 0.551236 0.125508
O O7 0.764989 0.576813 0.022852
O O8 0.213850 0.192183 0.797130
O O9 0.179386 0.174412 0.918863
O O10 0.970327 0.229188 0.816908
O O11 0.680166 0.408572 0.186570
O O12 0.783382 0.262448 0.184131
O O13 0.789993 0.527530 0.898576
O O14 0.533179 0.501287 0.831290
O O15 0.703670 0.458356 0.766627
O O16 0.701578 0.376155 0.883361
#
# Coordination Sequence:
#
# PCOD8135398 Si02
#       8
#     8   8   8   8   8   8   8   8
#     4  10  23  40  58  90 128 162 205 253 316 371
#     4  11  22  37  64  94 121 159 215 257 300 372
#     4  10  19  38  61  92 119 158 206 256 305 360
#     4  11  20  38  66  89 121 162 206 258 310 365
#     4  11  22  41  62  91 126 163 200 259 313 360
#     4  11  21  39  63  88 123 164 203 256 305 367
#     4  11  22  40  61  94 122 156 211 257 303 365
#     4  11  23  40  61  90 126 165 205 256 312 377
#
# _framework density 20.691858
#
# number of rings (size 3 to 8) (size 9 to 14) (size 15 to 20)
#    0.000    1.250    3.750    4.500    0.000    3.000 
#    0.000    1.250    0.000    3.000    0.000    0.000 
#    0.000    0.000    0.000    0.000    0.000    0.000 
#
# Total GULP energy -396830.895250 kJ/mol
# GULP energy per Si atom -12400.965477 kJ/mol
# Density = 2.064476 g / cm^3
# Si number density = 20.691858 Si / 1000 Ang^3
#
#
#
# Elastic Constant Matrix: (Units=GPa)
#
#
# Indices 1 2 3 4 5 6 
#
# 1 71.0467 25.3227 50.4630 0.0000 -20.7659 0.0000
# 2 25.3227 87.0362 38.6387 0.0000 -10.9360 0.0000
# 3 50.4630 38.6387 98.9622 0.0000 -24.0806 0.0000
# 4 0.0000 0.0000 0.0000 34.8645 0.0000 -2.3654
# 5 -20.7659 -10.9360 -24.0806 0.0000 34.7262 0.0000
# 6 0.0000 0.0000 0.0000 -2.3654 0.0000 22.1930
#
#
#
# Elastic Compliance Matrix: (Units=1/GPa)
#
#
# Indices 1 2 3 4 5 6 
#
# 1 0.023558 -0.001694 -0.009688 0.000000 0.006836 0.000000
# 2 -0.001694 0.014036 -0.004556 0.000000 0.000248 0.000000
# 3 -0.009688 -0.004556 0.018123 0.000000 0.005339 0.000000
# 4 0.000000 0.000000 0.000000 0.028891 0.000000 0.003079
# 5 0.006836 0.000248 0.005339 0.000000 0.036665 0.000000
# 6 0.000000 0.000000 0.000000 0.003079 0.000000 0.045387
#
#
# Mechanical properties :
#
#
# Convention : Reuss Voigt Hill
#
# Bulk Modulus (GPa) = 41.94477 53.98820 47.96649
# Shear Modulus (GPa) = 24.21485 27.86480 26.03983
#
# Velocity S-wave (km/s) = 3.42462 3.67366 3.55132
# Velocity P-wave (km/s) = 5.99604 6.64399 6.32831
#
# Compressibility (1/GPa) = 0.02384088
#
# Stress axis : x y z
#
# Youngs Moduli (GPa) = 42.44776 71.24466 55.17854
#
# Poissons Ratio (x) = 0.12071 0.53457
# Poissons Ratio (y) = 0.07192 0.25139
# Poissons Ratio (z) = 0.41123 0.32459
#
# Static dielectric constant tensor:
#      x y z
#    x 3.608090 0.000000 -0.098270 
#    y 0.000000 3.545680 0.000000 
#    z -0.098270 0.000000 4.083110 
# 
# 
# High freq. dielectric constant tensor:
#      x y z
#    x 1.792940 0.000000 -0.011190 
#    y 0.000000 1.802230 0.000000 
#    z -0.011190 0.000000 1.826290 
# 
# From -- ./inp_files/238756.got.cif
#   From: 2010.06.25/outbox.cif.g09.slc.cpg/sg15_120_cif.got.tgz:238756.got - 2010.06.28 07:06:18.
