data_PCOD8135459
_publ_section_title
;
Structure prediction by ZEFSAII (Michael W. Deem and Ramdas Pophale) SiO2 
 PCOD8135459
Probable space group: C 2/C
;
_chemical_formula_sum "Si O2"
_cell_formula_units_Z 64
_cell_length_a 12.910697
_cell_length_b 14.073321
_cell_length_c 17.540982
_cell_angle_alpha 90.000000
_cell_angle_beta 88.977129
_cell_angle_gamma 90.000000
_cell_volume 3186.625114
_symmetry_space_group_name_H-M "C 2/C"
_symmetry_group_IT_number 15
_symmetry_cell_setting 'monoclinic'
loop_
_space_group_symop_operation_xyz
x,y,z
-x,y,1/2-z
-x,-y,-z
x,-y,1/2+z
1/2+x,1/2+y,z
1/2-x,1/2+y,1/2-z
1/2-x,1/2-y,-z
1/2+x,1/2-y,1/2+z
loop_
_atom_site_type_symbol
_atom_site_label
_atom_site_fract_x
_atom_site_fract_y
_atom_site_fract_z
Si Si1 0.414465 0.709275 0.438515
Si Si2 0.354683 0.425185 0.356140
Si Si3 0.822028 0.078935 0.689501
Si Si4 0.620751 0.917012 0.091771
Si Si5 0.721583 0.073454 0.427354
Si Si6 0.982824 0.215928 0.609060
Si Si7 0.524919 0.579354 0.328618
Si Si8 0.977746 0.422961 0.662053
O O1 0.426332 0.811699 0.399493
O O2 0.301551 0.662335 0.424379
O O3 0.428764 0.720319 0.528062
O O4 0.507251 0.645947 0.402026
O O5 0.295178 0.400230 0.278458
O O6 0.282184 0.474213 0.419789
O O7 0.406397 0.335806 0.397018
O O8 0.444068 0.494370 0.327468
O O9 0.715526 0.080478 0.647306
O O10 0.901806 0.161735 0.664292
O O11 0.863638 0.971825 0.671020
O O12 0.535687 0.996473 0.112043
O O13 0.657075 0.931252 0.005019
O O14 0.644812 0.078755 0.355817
O O15 0.016434 0.318363 0.639742
O O16 0.500000 0.636728 0.250000
O O17 0.000000 0.444087 0.750000
#
# Coordination Sequence:
#
# PCOD8135459 Si02
#       8
#     8   8   8   8   8   8   8   8
#     4  11  22  37  63  91 116 155 196 240 287 349
#     4   9  20  36  62  91 119 149 192 246 289 344
#     4  10  19  38  63  91 116 150 196 242 290 342
#     4  12  24  39  60  86 118 155 199 241 288 345
#     4  11  22  41  62  88 118 153 197 240 291 344
#     4  11  21  38  64  91 118 151 196 238 292 347
#     4   8  18  35  59  89 121 149 189 245 293 337
#     4  12  26  43  61  83 118 160 196 239 293 347
#
# _framework density 20.083943000000001
#
# number of rings (size 3 to 8) (size 9 to 14) (size 15 to 20)
#    0.000    1.500    2.500    4.125    1.750    2.000 
#    0.000    1.875    0.000    0.000    0.000    0.000 
#    0.000    0.000    0.000    0.000    0.000    0.000 
#
# Total GULP energy -396678.029513 kJ/mol
# GULP energy per Si atom -12396.188422 kJ/mol
# Density = 2.003823 g / cm^3
# Si number density = 20.083943 Si / 1000 Ang^3
#
#
#
# Elastic Constant Matrix: (Units=GPa)
#
#
# Indices 1 2 3 4 5 6 
#
# 1 66.7466 47.1762 23.5227 0.0000 15.0454 0.0000
# 2 47.1762 126.1671 32.0742 0.0000 -6.7461 0.0000
# 3 23.5227 32.0742 76.4292 0.0000 12.2572 0.0000
# 4 0.0000 0.0000 0.0000 21.5912 0.0000 3.1931
# 5 15.0454 -6.7461 12.2572 0.0000 33.0198 0.0000
# 6 0.0000 0.0000 0.0000 3.1931 0.0000 28.6669
#
#
#
# Elastic Compliance Matrix: (Units=1/GPa)
#
#
# Indices 1 2 3 4 5 6 
#
# 1 0.025382 -0.009768 -0.001635 0.000000 -0.012954 0.000000
# 2 -0.009768 0.013005 -0.003819 0.000000 0.008525 0.000000
# 3 -0.001635 -0.003819 0.016157 0.000000 -0.006033 0.000000
# 4 0.000000 0.000000 0.000000 0.047091 0.000000 -0.005245
# 5 -0.012954 0.008525 -0.006033 0.000000 0.040168 0.000000
# 6 0.000000 0.000000 0.000000 -0.005245 0.000000 0.035468
#
#
# Mechanical properties :
#
#
# Convention : Reuss Voigt Hill
#
# Bulk Modulus (GPa) = 41.49200 52.76546 47.12873
# Shear Modulus (GPa) = 23.17515 27.76023 25.46769
#
# Velocity S-wave (km/s) = 3.40062 3.72184 3.56485
# Velocity P-wave (km/s) = 6.01025 6.69320 6.36090
#
# Compressibility (1/GPa) = 0.02410103
#
# Stress axis : x y z
#
# Youngs Moduli (GPa) = 39.39783 76.89390 61.89155
#
# Poissons Ratio (x) = 0.75108 0.10121
# Poissons Ratio (y) = 0.38483 0.23634
# Poissons Ratio (z) = 0.06443 0.29363
#
# Static dielectric constant tensor:
#      x y z
#    x 3.626530 0.000000 0.119100 
#    y 0.000000 3.802050 0.000000 
#    z 0.119100 0.000000 3.717400 
# 
# 
# High freq. dielectric constant tensor:
#      x y z
#    x 1.769790 0.000000 0.013260 
#    y 0.000000 1.780730 0.000000 
#    z 0.013260 0.000000 1.792450 
# 
# From -- ./inp_files/198365.got.cif
#   From: 2010.06.25/outbox.cif.g09.slc.cpg/sg15_100_cif.got.tgz:198365.got - 2010.06.28 07:06:18.
