data_PCOD8135677
_publ_section_title
;
Structure prediction by ZEFSAII (Michael W. Deem and Ramdas Pophale) SiO2 
 PCOD8135677
Probable space group: C 2/C
;
_chemical_formula_sum "Si O2"
_cell_formula_units_Z 56
_cell_length_a 23.053646
_cell_length_b 8.905716
_cell_length_c 14.868506
_cell_angle_alpha 90.000000
_cell_angle_beta 63.866766
_cell_angle_gamma 90.000000
_cell_volume 2740.576738
_symmetry_space_group_name_H-M "C 2/C"
_symmetry_group_IT_number 15
_symmetry_cell_setting 'monoclinic'
loop_
_space_group_symop_operation_xyz
x,y,z
-x,y,1/2-z
-x,-y,-z
x,-y,1/2+z
1/2+x,1/2+y,z
1/2-x,1/2+y,1/2-z
1/2-x,1/2-y,-z
1/2+x,1/2-y,1/2+z
loop_
_atom_site_type_symbol
_atom_site_label
_atom_site_fract_x
_atom_site_fract_y
_atom_site_fract_z
Si Si1 0.826215 0.775204 0.842316
Si Si2 0.963539 0.712396 0.534541
Si Si3 0.961301 0.224180 0.690903
Si Si4 0.573538 0.967825 0.207867
Si Si5 0.408097 0.930856 0.501394
Si Si6 0.316447 0.327793 0.053375
Si Si7 0.875765 0.025081 0.161706
O O1 0.884830 0.663880 0.774248
O O2 0.760209 0.682231 0.884991
O O3 0.824871 0.903290 0.766663
O O4 0.836691 0.847802 0.934549
O O5 0.915293 0.567854 0.567211
O O6 0.931185 0.858660 0.597196
O O7 0.983577 0.743004 0.418869
O O8 0.026985 0.670707 0.548278
O O9 0.923381 0.378321 0.738269
O O10 0.000000 0.159485 0.750000
O O11 0.908473 0.110692 0.691568
O O12 0.500000 0.911850 0.250000
O O13 0.604991 0.996941 0.088589
O O14 0.348814 0.824286 0.570840
O O15 0.339754 0.470154 0.095962
#
# Coordination Sequence:
#
# PCOD8135677 Si02
#       7
#     8   8   8   8   8   8   8
#     4  10  25  44  66  91 127 167 220 257 313 384
#     4  11  22  38  61  99 123 164 208 264 317 380
#     4  11  23  38  60  97 133 159 206 268 323 376
#     4  10  19  39  63  91 117 166 207 252 313 375
#     4  10  20  37  65  84 127 163 212 254 309 380
#     4  10  24  46  63  91 127 172 213 267 309 375
#     4  12  26  38  66  93 129 169 205 269 330 372
#
# _framework density 20.433653
#
# number of rings (size 3 to 8) (size 9 to 14) (size 15 to 20)
#    0.000    1.429    4.286    1.286    4.000    4.000 
#    0.000    0.000    0.000    6.000    0.000    0.000 
#    0.000    0.000    0.000    0.000    0.000    0.000 
#
# Total GULP energy -347172.971148 kJ/mol
# GULP energy per Si atom -12399.034684 kJ/mol
# Density = 2.038715 g / cm^3
# Si number density = 20.433653 Si / 1000 Ang^3
#
#
#
# Elastic Constant Matrix: (Units=GPa)
#
#
# Indices 1 2 3 4 5 6 
#
# 1 86.3794 53.9984 29.3617 0.0000 3.2981 0.0000
# 2 53.9984 94.3125 65.3388 0.0000 -3.1950 0.0001
# 3 29.3617 65.3388 84.9499 0.0000 13.1419 0.0000
# 4 0.0000 0.0000 0.0000 34.5896 0.0000 12.0094
# 5 3.2981 -3.1950 13.1419 0.0000 32.7841 0.0000
# 6 0.0000 0.0001 0.0000 12.0094 0.0000 24.6939
#
#
#
# Elastic Compliance Matrix: (Units=1/GPa)
#
#
# Indices 1 2 3 4 5 6 
#
# 1 0.019497 -0.015717 0.006280 0.000000 -0.006010 0.000000
# 2 -0.015717 0.038778 -0.026890 0.000000 0.016140 0.000000
# 3 0.006280 -0.026890 0.032822 0.000000 -0.016410 0.000000
# 4 0.000000 0.000000 0.000000 0.034784 0.000000 -0.016916
# 5 -0.006010 0.016140 -0.016410 0.000000 0.039258 0.000000
# 6 0.000000 0.000000 0.000000 -0.016916 0.000000 0.048723
#
#
# Mechanical properties :
#
#
# Convention : Reuss Voigt Hill
#
# Bulk Modulus (GPa) = 54.22460 62.55999 58.39230
# Shear Modulus (GPa) = 17.08442 26.20972 21.64707
#
# Velocity S-wave (km/s) = 2.89466 3.58533 3.25835
# Velocity P-wave (km/s) = 6.14546 6.91535 6.54174
#
# Compressibility (1/GPa) = 0.01844181
#
# Stress axis : x y z
#
# Youngs Moduli (GPa) = 51.29000 25.78786 30.46711
#
# Poissons Ratio (x) = 0.40531 -0.19132
# Poissons Ratio (y) = 0.80613 0.81927
# Poissons Ratio (z) = -0.32208 0.69344
#
# Static dielectric constant tensor:
#      x y z
#    x 3.651890 0.000000 0.240210 
#    y 0.000000 3.700920 0.000000 
#    z 0.240210 0.000000 3.820770 
# 
# 
# High freq. dielectric constant tensor:
#      x y z
#    x 1.788990 0.000000 0.019630 
#    y 0.000000 1.791430 0.000000 
#    z 0.019630 0.000000 1.807650 
# 
# From -- ./inp_files/172260.got.cif
#   From: 2010.06.25/outbox.cif.g09.slc.cpg/sg15_87_cif.got.tgz:172260.got - 2010.06.28 07:06:18.
