data_PCOD8135665
_publ_section_title
;
Structure prediction by ZEFSAII (Michael W. Deem and Ramdas Pophale) SiO2 
 PCOD8135665
Probable space group: C 2/C
;
_chemical_formula_sum "Si O2"
_cell_formula_units_Z 64
_cell_length_a 11.674122
_cell_length_b 29.526230
_cell_length_c 14.404130
_cell_angle_alpha 90.000000
_cell_angle_beta 37.933808
_cell_angle_gamma 90.000000
_cell_volume 3052.237268
_symmetry_space_group_name_H-M "C 2/C"
_symmetry_group_IT_number 15
_symmetry_cell_setting 'monoclinic'
loop_
_space_group_symop_operation_xyz
x,y,z
-x,y,1/2-z
-x,-y,-z
x,-y,1/2+z
1/2+x,1/2+y,z
1/2-x,1/2+y,1/2-z
1/2-x,1/2-y,-z
1/2+x,1/2-y,1/2+z
loop_
_atom_site_type_symbol
_atom_site_label
_atom_site_fract_x
_atom_site_fract_y
_atom_site_fract_z
Si Si1 0.607879 0.561768 0.987785
Si Si2 0.073622 0.559981 0.978950
Si Si3 0.306893 0.201523 0.427361
Si Si4 0.759753 0.508663 0.253324
Si Si5 0.609623 0.108652 0.580767
Si Si6 0.709908 0.643351 0.645274
Si Si7 0.694187 0.202654 0.578473
Si Si8 0.445344 0.657156 0.566896
O O1 0.752634 0.529271 0.838623
O O2 0.707233 0.578679 0.017543
O O3 0.533005 0.604268 0.975389
O O4 0.437239 0.532051 0.131167
O O5 0.185667 0.515150 0.878343
O O6 0.228890 0.592789 0.921270
O O7 0.990529 0.587064 0.943207
O O8 0.922856 0.547139 0.156060
O O9 0.500000 0.204126 0.250000
O O10 0.250000 0.250000 0.500000
O O11 0.344887 0.174708 0.498333
O O12 0.145138 0.177576 0.469222
O O13 0.500000 0.108917 0.750000
O O14 0.666531 0.161009 0.522741
O O15 0.500000 0.650779 0.750000
O O16 0.714291 0.656702 0.750891
O O17 0.500000 0.212758 0.750000
O O18 0.750000 0.250000 0.500000
O O19 0.860381 0.188134 0.541261
#
# Coordination Sequence:
#
# PCOD8135665 Si02
#       8
#     8   8   8   8   8   8   8   8
#     4  10  20  41  61  88 123 165 202 249 313 363
#     4  11  21  40  59  93 123 159 207 256 311 355
#     4  11  25  43  66  96 124 163 216 255 316 379
#     4  10  22  37  61  86 123 158 212 252 298 371
#     4  10  19  39  63  84 122 162 194 242 317 369
#     4  10  21  41  64  89 126 169 204 254 317 370
#     4  10  22  40  63  94 121 162 208 245 305 378
#     4  10  21  42  66  88 132 169 201 260 316 371
#
# _framework density 20.968225
#
# number of rings (size 3 to 8) (size 9 to 14) (size 15 to 20)
#    0.000    1.750    2.500    2.625    1.750    3.500 
#    9.000    2.500    0.000    0.000    0.000    0.000 
#    0.000    0.000    0.000    0.000    0.000    0.000 
#
# Total GULP energy -396474.449399 kJ/mol
# GULP energy per Si atom -12389.826544 kJ/mol
# Density = 2.092050 g / cm^3
# Si number density = 20.968225 Si / 1000 Ang^3
#
#
#
# Elastic Constant Matrix: (Units=GPa)
#
#
# Indices 1 2 3 4 5 6 
#
# 1 48.5360 37.3711 18.9510 0.0000 0.6626 0.0000
# 2 37.3711 142.6208 58.2041 0.0000 0.1000 0.0000
# 3 18.9510 58.2041 129.2065 0.0000 -9.4934 0.0000
# 4 0.0000 0.0000 0.0000 43.0048 0.0000 -7.1093
# 5 0.6626 0.1000 -9.4934 0.0000 18.7774 0.0000
# 6 0.0000 0.0000 0.0000 -7.1093 0.0000 28.1518
#
#
#
# Elastic Compliance Matrix: (Units=1/GPa)
#
#
# Indices 1 2 3 4 5 6 
#
# 1 0.025933 -0.006371 -0.001037 0.000000 -0.001405 0.000000
# 2 -0.006371 0.010235 -0.003805 0.000000 -0.001753 0.000000
# 3 -0.001037 -0.003805 0.009981 0.000000 0.005103 0.000000
# 4 0.000000 0.000000 0.000000 0.024266 0.000000 0.006128
# 5 -0.001405 -0.001753 0.005103 0.000000 0.055894 0.000000
# 6 0.000000 0.000000 0.000000 0.006128 0.000000 0.037069
#
#
# Mechanical properties :
#
#
# Convention : Reuss Voigt Hill
#
# Bulk Modulus (GPa) = 42.15395 61.04621 51.60008
# Shear Modulus (GPa) = 25.81156 31.70928 28.76042
#
# Velocity S-wave (km/s) = 3.51235 3.89299 3.70756
# Velocity P-wave (km/s) = 6.04947 7.02738 6.55668
#
# Compressibility (1/GPa) = 0.02372257
#
# Stress axis : x y z
#
# Youngs Moduli (GPa) = 38.56121 97.70314 100.19427
#
# Poissons Ratio (x) = 0.62247 0.10389
# Poissons Ratio (y) = 0.24568 0.38124
# Poissons Ratio (z) = 0.03998 0.37176
#
# Static dielectric constant tensor:
#      x y z
#    x 3.731410 0.000000 -0.038520 
#    y 0.000000 5.127710 0.000000 
#    z -0.038520 0.000000 3.926870 
# 
# 
# High freq. dielectric constant tensor:
#      x y z
#    x 1.801250 0.000000 -0.013640 
#    y 0.000000 1.842850 0.000000 
#    z -0.013640 0.000000 1.820450 
# 
# From -- ./inp_files/149166.got.cif
#   From: 2010.06.25/outbox.cif.g09.slc.cpg/sg15_75_cif.got.tgz:149166.got - 2010.06.28 07:06:18.
