data_PCOD8135970
_publ_section_title
;
Structure prediction by ZEFSAII (Michael W. Deem and Ramdas Pophale) SiO2 
 PCOD8135970
Probable space group: C 2/C
;
_chemical_formula_sum "Si O2"
_cell_formula_units_Z 48
_cell_length_a 11.631733
_cell_length_b 16.173982
_cell_length_c 12.159664
_cell_angle_alpha 90.000000
_cell_angle_beta 90.424530
_cell_angle_gamma 90.000000
_cell_volume 2287.552306
_symmetry_space_group_name_H-M "C 2/C"
_symmetry_group_IT_number 15
_symmetry_cell_setting 'monoclinic'
loop_
_space_group_symop_operation_xyz
x,y,z
-x,y,1/2-z
-x,-y,-z
x,-y,1/2+z
1/2+x,1/2+y,z
1/2-x,1/2+y,1/2-z
1/2-x,1/2-y,-z
1/2+x,1/2-y,1/2+z
loop_
_atom_site_type_symbol
_atom_site_label
_atom_site_fract_x
_atom_site_fract_y
_atom_site_fract_z
Si Si1 0.348027 0.069511 0.830257
Si Si2 0.578233 0.133918 0.887879
Si Si3 0.267201 0.345553 0.975406
Si Si4 0.864197 0.608001 0.239589
Si Si5 0.508013 0.320899 0.879072
Si Si6 0.749328 0.163361 0.059768
O O1 0.475123 0.067117 0.887054
O O2 0.354419 0.133854 0.728031
O O3 0.316641 0.979740 0.783586
O O4 0.251815 0.100641 0.914639
O O5 0.521881 0.223765 0.907077
O O6 0.667057 0.105043 0.984405
O O7 0.175366 0.375751 0.884507
O O8 0.397115 0.359848 0.936421
O O9 0.250000 0.250000 0.000000
O O10 0.805954 0.675362 0.319670
O O11 0.000000 0.615096 0.250000
O O12 0.500000 0.336478 0.750000
O O13 0.619923 0.369232 0.927530
O O14 0.750000 0.250000 0.000000
#
# Coordination Sequence:
#
# PCOD8135970 Si02
#       6
#     8   8   8   8   8   8
#     4  11  23  41  68 101 133 174 217 289 349 390
#     4  10  19  41  67  94 136 171 215 281 353 383
#     4  12  25  42  70 100 135 178 233 273 333 413
#     4  12  26  41  67 106 131 167 228 288 342 399
#     4  11  19  42  65  95 132 183 224 270 333 406
#     4  10  24  39  65  97 133 177 225 273 332 405
#
# _framework density 20.983127
#
# number of rings (size 3 to 8) (size 9 to 14) (size 15 to 20)
#    0.000    1.000    6.667    1.000    7.000    1.333 
#    0.000    1.667    3.667    0.000    0.000    0.000 
#    0.000    0.000    0.000    0.000    0.000    0.000 
#
# Total GULP energy -297555.612203 kJ/mol
# GULP energy per Si atom -12398.150508 kJ/mol
# Density = 2.093537 g / cm^3
# Si number density = 20.983127 Si / 1000 Ang^3
#
#
#
# Elastic Constant Matrix: (Units=GPa)
#
#
# Indices 1 2 3 4 5 6 
#
# 1 147.6660 19.6169 57.1052 0.0000 -1.2984 0.0000
# 2 19.6169 71.1690 27.7913 0.0000 -4.2427 0.0000
# 3 57.1052 27.7913 106.6202 0.0000 -8.5388 0.0000
# 4 0.0000 0.0000 0.0000 35.5872 0.0000 -3.1847
# 5 -1.2984 -4.2427 -8.5388 0.0000 53.9860 0.0000
# 6 0.0000 0.0000 0.0000 -3.1847 0.0000 23.3307
#
#
#
# Elastic Compliance Matrix: (Units=1/GPa)
#
#
# Indices 1 2 3 4 5 6 
#
# 1 0.008583 -0.000653 -0.004471 0.000000 -0.000552 0.000000
# 2 -0.000653 0.015712 -0.003695 0.000000 0.000635 0.000000
# 3 -0.004471 -0.003695 0.012868 0.000000 0.001637 0.000000
# 4 0.000000 0.000000 0.000000 0.028447 0.000000 0.003883
# 5 -0.000552 0.000635 0.001637 0.000000 0.018819 0.000000
# 6 0.000000 0.000000 0.000000 0.003883 0.000000 0.043392
#
#
# Mechanical properties :
#
#
# Convention : Reuss Voigt Hill
#
# Bulk Modulus (GPa) = 51.21594 59.38689 55.30141
# Shear Modulus (GPa) = 32.90190 37.31022 35.10606
#
# Velocity S-wave (km/s) = 3.96412 4.22133 4.09474
# Velocity P-wave (km/s) = 6.73895 7.21964 6.98343
#
# Compressibility (1/GPa) = 0.01952517
#
# Stress axis : x y z
#
# Youngs Moduli (GPa) = 116.51020 63.64688 77.71224
#
# Poissons Ratio (x) = 0.04155 0.34745
# Poissons Ratio (y) = 0.07605 0.28714
# Poissons Ratio (z) = 0.52092 0.23517
#
# Static dielectric constant tensor:
#      x y z
#    x 4.414000 0.000000 0.375320 
#    y 0.000000 3.698500 0.000000 
#    z 0.375320 0.000000 4.450600 
# 
# 
# High freq. dielectric constant tensor:
#      x y z
#    x 1.825260 0.000000 0.000140 
#    y 0.000000 1.790010 0.000000 
#    z 0.000140 0.000000 1.838900 
# 
# From -- ./inp_files/87404.got.cif
#   From: 2010.06.25/outbox.cif.g09.slc.cpg/sg15_44_cif.got.tgz:87404.got - 2010.06.28 07:06:18.
