data_PCOD8135650
_publ_section_title
;
Structure prediction by ZEFSAII (Michael W. Deem and Ramdas Pophale) SiO2 
 PCOD8135650
Probable space group: C 2/C
;
_chemical_formula_sum "Si O2"
_cell_formula_units_Z 48
_cell_length_a 19.030078
_cell_length_b 13.426883
_cell_length_c 9.588167
_cell_angle_alpha 90.000000
_cell_angle_beta 99.988659
_cell_angle_gamma 90.000000
_cell_volume 2412.781368
_symmetry_space_group_name_H-M "C 2/C"
_symmetry_group_IT_number 15
_symmetry_cell_setting 'monoclinic'
loop_
_space_group_symop_operation_xyz
x,y,z
-x,y,1/2-z
-x,-y,-z
x,-y,1/2+z
1/2+x,1/2+y,z
1/2-x,1/2+y,1/2-z
1/2-x,1/2-y,-z
1/2+x,1/2-y,1/2+z
loop_
_atom_site_type_symbol
_atom_site_label
_atom_site_fract_x
_atom_site_fract_y
_atom_site_fract_z
Si Si1 0.931591 0.691896 0.630102
Si Si2 0.317115 0.353986 0.597949
Si Si3 0.286988 0.720358 0.789914
Si Si4 0.351373 0.998382 0.692776
Si Si5 0.743629 0.045192 0.591694
Si Si6 0.064534 0.677363 0.185428
O O1 0.894617 0.801349 0.630345
O O2 0.873513 0.609206 0.652927
O O3 0.958245 0.667990 0.483669
O O4 0.000000 0.690038 0.750000
O O5 0.283203 0.341301 0.432568
O O6 0.267162 0.311341 0.704800
O O7 0.314736 0.473911 0.618527
O O8 0.263899 0.654612 0.650355
O O9 0.365842 0.755225 0.780654
O O10 0.292445 0.948886 0.571947
O O11 0.420887 0.928659 0.733818
O O12 0.317846 0.999439 0.833695
O O13 0.000000 0.727697 0.250000
#
# Coordination Sequence:
#
# PCOD8135650 Si02
#       6
#     8   8   8   8   8   8
#     4  11  24  41  61  85 123 166 195 238 306 361
#     4  10  19  39  62  85 120 159 198 242 298 354
#     4  10  20  39  62  85 122 158 196 247 296 350
#     4  12  22  37  63  93 122 155 195 250 304 356
#     4  12  21  38  65  94 118 154 201 249 300 347
#     4  11  25  41  58  89 125 159 199 244 295 360
#
# _framework density 19.894053
#
# number of rings (size 3 to 8) (size 9 to 14) (size 15 to 20)
#    0.000    1.000    6.667    1.500    2.333    2.000 
#    3.000    0.833    0.000    4.000    0.000    0.000 
#    0.000    0.000    0.000    0.000    0.000    0.000 
#
# Total GULP energy -297534.702226 kJ/mol
# GULP energy per Si atom -12397.279259 kJ/mol
# Density = 1.984877 g / cm^3
# Si number density = 19.894053 Si / 1000 Ang^3
#
#
#
# Elastic Constant Matrix: (Units=GPa)
#
#
# Indices 1 2 3 4 5 6 
#
# 1 87.4548 23.3432 41.6904 0.0000 0.8992 0.0000
# 2 23.3432 45.0518 30.6144 0.0000 4.4197 0.0000
# 3 41.6904 30.6144 82.7504 0.0000 9.4288 0.0000
# 4 0.0000 0.0000 0.0000 26.5783 0.0000 4.3910
# 5 0.8992 4.4197 9.4288 0.0000 41.0061 0.0000
# 6 0.0000 0.0000 0.0000 4.3910 0.0000 24.9776
#
#
#
# Elastic Compliance Matrix: (Units=1/GPa)
#
#
# Indices 1 2 3 4 5 6 
#
# 1 0.015582 -0.003703 -0.006662 0.000000 0.001589 0.000000
# 2 -0.003703 0.030550 -0.009315 0.000000 -0.001070 0.000000
# 3 -0.006662 -0.009315 0.019260 0.000000 -0.003279 0.000000
# 4 0.000000 0.000000 0.000000 0.038750 0.000000 -0.006812
# 5 0.001589 -0.001070 -0.003279 0.000000 0.025221 0.000000
# 6 0.000000 0.000000 0.000000 -0.006812 0.000000 0.041233
#
#
# Mechanical properties :
#
#
# Convention : Reuss Voigt Hill
#
# Bulk Modulus (GPa) = 38.41142 45.17256 41.79199
# Shear Modulus (GPa) = 22.86930 26.48635 24.67782
#
# Velocity S-wave (km/s) = 3.39419 3.65275 3.52584
# Velocity P-wave (km/s) = 5.89157 6.36757 6.13419
#
# Compressibility (1/GPa) = 0.02603393
#
# Stress axis : x y z
#
# Youngs Moduli (GPa) = 64.17612 32.73314 51.91994
#
# Poissons Ratio (x) = 0.12121 0.34587
# Poissons Ratio (y) = 0.23763 0.48363
# Poissons Ratio (z) = 0.42751 0.30491
#
# Static dielectric constant tensor:
#      x y z
#    x 3.363510 0.000000 -0.086960 
#    y 0.000000 3.507130 0.000000 
#    z -0.086960 0.000000 3.671690 
# 
# 
# High freq. dielectric constant tensor:
#      x y z
#    x 1.759590 0.000000 -0.006920 
#    y 0.000000 1.764530 0.000000 
#    z -0.006920 0.000000 1.785540 
# 
# From -- ./inp_files/47466.got.cif
#   From: 2010.06.25/outbox.cif.g09.slc.cpg/sg15_24_cif.got.tgz:47466.got - 2010.06.28 07:06:18.
