data_PCOD8135770
_publ_section_title
;
Structure prediction by ZEFSAII (Michael W. Deem and Ramdas Pophale) SiO2 
 PCOD8135770
Probable space group: C 2/C
;
_chemical_formula_sum "Si O2"
_cell_formula_units_Z 40
_cell_length_a 25.817184
_cell_length_b 14.562984
_cell_length_c 13.586274
_cell_angle_alpha 90.000000
_cell_angle_beta 158.340458
_cell_angle_gamma 90.000000
_cell_volume 1885.352555
_symmetry_space_group_name_H-M "C 2/C"
_symmetry_group_IT_number 15
_symmetry_cell_setting 'monoclinic'
loop_
_space_group_symop_operation_xyz
x,y,z
-x,y,1/2-z
-x,-y,-z
x,-y,1/2+z
1/2+x,1/2+y,z
1/2-x,1/2+y,1/2-z
1/2-x,1/2-y,-z
1/2+x,1/2-y,1/2+z
loop_
_atom_site_type_symbol
_atom_site_label
_atom_site_fract_x
_atom_site_fract_y
_atom_site_fract_z
Si Si1 0.269243 0.778249 0.724390
Si Si2 0.848543 0.037239 0.449368
Si Si3 0.253805 0.350908 0.614472
Si Si4 0.116243 0.392815 0.023247
Si Si5 0.046810 0.698300 0.598269
O O1 0.175008 0.868247 0.530635
O O2 0.317171 0.790051 0.923241
O O3 0.180927 0.684531 0.564622
O O4 0.394817 0.774712 0.869334
O O5 0.827881 0.059172 0.295096
O O6 0.733081 0.961233 0.272399
O O7 0.000000 0.998326 0.750000
O O8 0.127498 0.372040 0.315309
O O9 0.371671 0.294526 0.764053
O O10 0.035275 0.348515 0.972160
O O11 0.000000 0.444579 0.750000
#
# Coordination Sequence:
#
# PCOD8135770 Si02
#       5
#     8   8   8   8   8
#     4   9  21  40  68  87 130 163 210 260 315 367
#     4  10  23  44  63  89 134 166 204 268 312 368
#     4   8  20  37  63  94 127 158 209 258 310 372
#     4  11  25  42  64  95 129 167 215 260 316 374
#     4  10  19  39  68  94 121 170 211 254 317 379
#
# _framework density 21.216190999999998
#
# number of rings (size 3 to 8) (size 9 to 14) (size 15 to 20)
#    1.200    1.200    0.000    1.200    2.800    6.400 
#    0.000    2.000    0.000    0.000    0.000    0.000 
#    0.000    0.000    0.000    0.000    0.000    0.000 
#
# Total GULP energy -247775.375723 kJ/mol
# GULP energy per Si atom -12388.768786 kJ/mol
# Density = 2.116790 g / cm^3
# Si number density = 21.216191 Si / 1000 Ang^3
#
#
#
# Elastic Constant Matrix: (Units=GPa)
#
#
# Indices 1 2 3 4 5 6 
#
# 1 100.3266 7.5062 47.8767 0.0000 19.5886 0.0000
# 2 7.5062 67.4231 13.0579 0.0000 11.1619 0.0000
# 3 47.8767 13.0579 106.3235 0.0000 1.8057 0.0000
# 4 0.0000 0.0000 0.0000 26.9641 0.0000 1.0666
# 5 19.5886 11.1619 1.8057 0.0000 39.4861 0.0000
# 6 0.0000 0.0000 0.0000 1.0666 0.0000 14.6327
#
#
#
# Elastic Compliance Matrix: (Units=1/GPa)
#
#
# Indices 1 2 3 4 5 6 
#
# 1 0.014362 0.000819 -0.006448 0.000000 -0.007061 0.000000
# 2 0.000819 0.015974 -0.002249 0.000000 -0.004819 0.000000
# 3 -0.006448 -0.002249 0.012529 0.000000 0.003261 0.000000
# 4 0.000000 0.000000 0.000000 0.037194 0.000000 -0.002711
# 5 -0.007061 -0.004819 0.003261 0.000000 0.030041 0.000000
# 6 0.000000 0.000000 0.000000 -0.002711 0.000000 0.068538
#
#
# Mechanical properties :
#
#
# Convention : Reuss Voigt Hill
#
# Bulk Modulus (GPa) = 36.88674 45.66165 41.27420
# Shear Modulus (GPa) = 24.57854 29.92541 27.25198
#
# Velocity S-wave (km/s) = 3.40734 3.75974 3.58787
# Velocity P-wave (km/s) = 5.73618 6.35738 6.05475
#
# Compressibility (1/GPa) = 0.02711001
#
# Stress axis : x y z
#
# Youngs Moduli (GPa) = 69.62931 62.60241 79.81251
#
# Poissons Ratio (x) = -0.05126 0.51460
# Poissons Ratio (y) = -0.05702 0.17947
# Poissons Ratio (z) = 0.44894 0.14077
#
# Static dielectric constant tensor:
#      x y z
#    x 3.647190 0.000000 -0.061320 
#    y 0.000000 3.532290 0.000000 
#    z -0.061320 0.000000 3.600770 
# 
# 
# High freq. dielectric constant tensor:
#      x y z
#    x 1.822660 0.000000 -0.002120 
#    y 0.000000 1.805590 0.000000 
#    z -0.002120 0.000000 1.826720 
# 
# From -- ./inp_files/178476.got.cif
#   From: 2010.06.25/outbox.cif.g09.slc.cpg/sg15_90_cif.got.tgz:178476.got - 2010.06.28 07:06:18.
