data_PCOD8135884
_publ_section_title
;
Structure prediction by ZEFSAII (Michael W. Deem and Ramdas Pophale) SiO2 
 PCOD8135884
Probable space group: C 2/C
;
_chemical_formula_sum "Si O2"
_cell_formula_units_Z 60
_cell_length_a 14.094668
_cell_length_b 13.590649
_cell_length_c 14.921823
_cell_angle_alpha 90.000000
_cell_angle_beta 112.527281
_cell_angle_gamma 90.000000
_cell_volume 2640.259205
_symmetry_space_group_name_H-M "C 2/C"
_symmetry_group_IT_number 15
_symmetry_cell_setting 'monoclinic'
loop_
_space_group_symop_operation_xyz
x,y,z
-x,y,1/2-z
-x,-y,-z
x,-y,1/2+z
1/2+x,1/2+y,z
1/2-x,1/2+y,1/2-z
1/2-x,1/2-y,-z
1/2+x,1/2-y,1/2+z
loop_
_atom_site_type_symbol
_atom_site_label
_atom_site_fract_x
_atom_site_fract_y
_atom_site_fract_z
Si Si1 0.394059 0.836597 0.256610
Si Si2 0.148756 0.282489 0.907030
Si Si3 0.573243 0.870180 0.046356
Si Si4 0.293401 0.988938 0.647115
Si Si5 0.852709 0.560677 0.483927
Si Si6 0.000000 0.858332 0.250000
Si Si7 0.577966 0.558992 0.593324
Si Si8 0.791813 0.239922 0.915865
O O1 0.500000 0.803882 0.250000
O O2 0.391676 0.801649 0.359136
O O3 0.299401 0.778453 0.183827
O O4 0.373537 0.955154 0.241814
O O5 0.171634 0.378471 0.856509
O O6 0.099061 0.204846 0.819843
O O7 0.250000 0.250000 0.000000
O O8 0.062256 0.307000 0.951215
O O9 0.661964 0.952963 0.064082
O O10 0.472855 0.924190 0.048595
O O11 0.291895 0.059122 0.556688
O O12 0.177800 0.990265 0.642782
O O13 0.825136 0.647909 0.405499
O O14 0.031241 0.924920 0.175895
O O15 0.500000 0.500000 0.500000
O O16 0.612802 0.664007 0.562133
O O17 0.750000 0.250000 0.000000
#
# Coordination Sequence:
#
# PCOD8135884 Si02
#       8
#     8   8   8   8   8   4   8   8
#     4  11  21  37  65  99 138 172 231 290 365 428
#     4  11  26  45  71 107 144 187 249 305 369 455
#     4  10  22  39  66  99 139 179 225 300 370 423
#     4  10  22  41  71  98 138 184 237 301 364 434
#     4  10  19  40  68  95 128 182 229 295 354 425
#     4  12  28  48  82 106 148 200 252 302 388 444
#     4  11  25  48  75 103 149 199 245 310 380 459
#     4  11  21  41  73 100 136 184 241 301 359 439
#
# _framework density 22.725042999999999
#
# number of rings (size 3 to 8) (size 9 to 14) (size 15 to 20)
#    0.000    1.333    4.000    1.600    4.667    1.067 
#    0.000    1.333   10.267    0.000    0.000    0.000 
#    0.000    0.000    0.000    0.000    0.000    0.000 
#
# Total GULP energy -371674.769599 kJ/mol
# GULP energy per Si atom -12389.158987 kJ/mol
# Density = 2.267332 g / cm^3
# Si number density = 22.725043 Si / 1000 Ang^3
#
#
#
# Elastic Constant Matrix: (Units=GPa)
#
#
# Indices 1 2 3 4 5 6 
#
# 1 115.7701 33.6681 43.2092 0.0000 -9.1462 0.0000
# 2 33.6681 75.5532 43.4492 0.0000 -1.6908 0.0000
# 3 43.2092 43.4492 116.2966 0.0000 -9.0230 0.0000
# 4 0.0000 0.0000 0.0000 34.2322 0.0000 0.2768
# 5 -9.1462 -1.6908 -9.0230 0.0000 44.6331 0.0000
# 6 0.0000 0.0000 0.0000 0.2768 0.0000 27.9652
#
#
#
# Elastic Compliance Matrix: (Units=1/GPa)
#
#
# Indices 1 2 3 4 5 6 
#
# 1 0.010680 -0.003198 -0.002654 0.000000 0.001531 0.000000
# 2 -0.003198 0.017834 -0.005560 0.000000 -0.001104 0.000000
# 3 -0.002654 -0.005560 0.011789 0.000000 0.001629 0.000000
# 4 0.000000 0.000000 0.000000 0.029215 0.000000 -0.000289
# 5 0.001531 -0.001104 0.001629 0.000000 0.023006 0.000000
# 6 0.000000 0.000000 0.000000 -0.000289 0.000000 0.035762
#
#
# Mechanical properties :
#
#
# Convention : Reuss Voigt Hill
#
# Bulk Modulus (GPa) = 57.22006 60.91922 59.06964
# Shear Modulus (GPa) = 31.86033 33.85232 32.85633
#
# Velocity S-wave (km/s) = 3.74838 3.86378 3.80652
# Velocity P-wave (km/s) = 6.63082 6.83889 6.73566
#
# Compressibility (1/GPa) = 0.01747639
#
# Stress axis : x y z
#
# Youngs Moduli (GPa) = 93.63711 56.07331 84.82836
#
# Poissons Ratio (x) = 0.17934 0.22515
# Poissons Ratio (y) = 0.29949 0.47166
# Poissons Ratio (z) = 0.24853 0.31177
#
# Static dielectric constant tensor:
#      x y z
#    x 4.179410 0.000000 -0.055020 
#    y 0.000000 4.820050 0.000000 
#    z -0.055020 0.000000 3.989680 
# 
# 
# High freq. dielectric constant tensor:
#      x y z
#    x 1.907520 0.000000 -0.010210 
#    y 0.000000 1.890540 0.000000 
#    z -0.010210 0.000000 1.887500 
# 
# From -- ./inp_files/154285.got.cif
#   From: 2010.06.25/outbox.cif.g09.slc.cpg/sg15_78_cif.got.tgz:154285.got - 2010.06.28 07:06:18.
