data_PCOD8135523
_publ_section_title
;
Structure prediction by ZEFSAII (Michael W. Deem and Ramdas Pophale) SiO2 
 PCOD8135523
Probable space group: C 2/C
;
_chemical_formula_sum "Si O2"
_cell_formula_units_Z 64
_cell_length_a 11.204763
_cell_length_b 21.222768
_cell_length_c 27.130807
_cell_angle_alpha 90.000000
_cell_angle_beta 151.343538
_cell_angle_gamma 90.000000
_cell_volume 3093.908714
_symmetry_space_group_name_H-M "C 2/C"
_symmetry_group_IT_number 15
_symmetry_cell_setting 'monoclinic'
loop_
_space_group_symop_operation_xyz
x,y,z
-x,y,1/2-z
-x,-y,-z
x,-y,1/2+z
1/2+x,1/2+y,z
1/2-x,1/2+y,1/2-z
1/2-x,1/2-y,-z
1/2+x,1/2-y,1/2+z
loop_
_atom_site_type_symbol
_atom_site_label
_atom_site_fract_x
_atom_site_fract_y
_atom_site_fract_z
Si Si1 0.266425 0.286122 0.557640
Si Si2 0.105827 0.425283 0.498677
Si Si3 0.234505 0.755934 0.277608
Si Si4 0.276598 0.902676 0.291326
Si Si5 0.649002 0.585096 0.019226
Si Si6 0.214617 0.057359 0.934174
Si Si7 0.383296 0.025773 0.656631
Si Si8 0.795032 0.218491 0.409844
O O1 0.250000 0.250000 0.500000
O O2 0.251718 0.360590 0.543750
O O3 0.547038 0.271011 0.679622
O O4 0.041920 0.260871 0.511505
O O5 0.303876 0.481938 0.563263
O O6 0.888563 0.436103 0.379910
O O7 0.984151 0.426994 0.508854
O O8 0.288448 0.828798 0.306251
O O9 0.254295 0.718207 0.336356
O O10 0.955048 0.746974 0.154767
O O11 0.437429 0.922038 0.302206
O O12 0.993728 0.923074 0.180623
O O13 0.858357 0.536282 0.113836
O O14 0.668000 0.649126 0.056287
O O15 0.686968 0.596329 0.974728
O O16 0.379065 0.557833 0.930490
O O17 0.500000 0.003029 0.750000
#
# Coordination Sequence:
#
# PCOD8135523 Si02
#       8
#     8   8   8   8   8   8   8   8
#     4  10  19  38  65  95 123 164 221 273 312 378
#     4  11  23  42  66  94 132 166 225 266 320 395
#     4  10  22  36  65  99 115 172 224 259 320 393
#     4  12  21  42  69  91 129 166 225 263 317 405
#     4  11  24  41  61  96 141 162 215 276 330 386
#     4  11  25  40  64  99 126 177 209 271 337 376
#     4  11  24  40  65  96 128 178 209 265 334 394
#     4  10  21  37  62  96 125 163 216 270 324 374
#
# _framework density 20.685807
#
# number of rings (size 3 to 8) (size 9 to 14) (size 15 to 20)
#    0.000    1.250    5.000    1.875    5.250    1.000 
#    0.000    2.500    0.000    0.000    0.000    0.000 
#    0.000    0.000    0.000    0.000    0.000    0.000 
#
# Total GULP energy -396726.924426 kJ/mol
# GULP energy per Si atom -12397.716388 kJ/mol
# Density = 2.063873 g / cm^3
# Si number density = 20.685807 Si / 1000 Ang^3
#
#
#
# Elastic Constant Matrix: (Units=GPa)
#
#
# Indices 1 2 3 4 5 6 
#
# 1 73.1837 22.7960 27.6523 -0.0232 14.4377 -0.0094
# 2 22.7960 122.0744 35.2601 -0.0179 -1.4720 -0.0083
# 3 27.6523 35.2601 76.6575 -0.0293 27.4770 -0.0119
# 4 -0.0232 -0.0179 -0.0293 94.7068 -0.0326 28.5404
# 5 14.4377 -1.4720 27.4770 -0.0326 36.4015 -0.0133
# 6 -0.0094 -0.0083 -0.0119 28.5404 -0.0133 45.2103
#
#
#
# Elastic Compliance Matrix: (Units=1/GPa)
#
#
# Indices 1 2 3 4 5 6 
#
# 1 0.016433 -0.002085 -0.003567 0.000001 -0.003909 0.000000
# 2 -0.002085 0.010432 -0.006160 0.000001 0.005899 0.000001
# 3 -0.003567 -0.006160 0.022960 0.000000 -0.016165 0.000000
# 4 0.000001 0.000001 0.000000 0.013040 0.000009 -0.008232
# 5 -0.003909 0.005899 -0.016165 0.000009 0.041462 0.000003
# 6 0.000000 0.000001 0.000000 -0.008232 0.000003 0.027315
#
#
# Mechanical properties :
#
#
# Convention : Reuss Voigt Hill
#
# Bulk Modulus (GPa) = 38.17105 49.25916 43.71511
# Shear Modulus (GPa) = 30.48777 47.67753 39.08265
#
# Velocity S-wave (km/s) = 3.84324 4.80609 4.35138
# Velocity P-wave (km/s) = 6.17955 7.39342 6.81357
#
# Compressibility (1/GPa) = 0.02619787
#
# Stress axis : x y z
#
# Youngs Moduli (GPa) = 60.85330 95.86198 43.55487
#
# Poissons Ratio (x) = 0.19991 0.15537
# Poissons Ratio (y) = 0.12690 0.26832
# Poissons Ratio (z) = 0.21708 0.59055
#
# Static dielectric constant tensor:
#      x y z
#    x 3.940610 0.000000 0.565280 
#    y 0.000000 3.725450 0.000000 
#    z 0.565280 0.000000 3.948430 
# 
# 
# High freq. dielectric constant tensor:
#      x y z
#    x 1.802970 0.000000 0.027430 
#    y 0.000000 1.809640 0.000000 
#    z 0.027430 0.000000 1.801390 
# 
# From -- ./inp_files/293786.got.cif
#   From: 2010.06.25/outbox.cif.g09.slc.cpg/sg15_147_cif.got.tgz:293786.got - 2010.06.28 07:06:18.
