data_PCOD8135817
_publ_section_title
;
Structure prediction by ZEFSAII (Michael W. Deem and Ramdas Pophale) SiO2 
 PCOD8135817
Probable space group: C 2/C
;
_chemical_formula_sum "Si O2"
_cell_formula_units_Z 40
_cell_length_a 10.543326
_cell_length_b 9.543481
_cell_length_c 18.046729
_cell_angle_alpha 90.000000
_cell_angle_beta 74.025138
_cell_angle_gamma 90.000000
_cell_volume 1745.738437
_symmetry_space_group_name_H-M "C 2/C"
_symmetry_group_IT_number 15
_symmetry_cell_setting 'monoclinic'
loop_
_space_group_symop_operation_xyz
x,y,z
-x,y,1/2-z
-x,-y,-z
x,-y,1/2+z
1/2+x,1/2+y,z
1/2-x,1/2+y,1/2-z
1/2-x,1/2-y,-z
1/2+x,1/2-y,1/2+z
loop_
_atom_site_type_symbol
_atom_site_label
_atom_site_fract_x
_atom_site_fract_y
_atom_site_fract_z
Si Si1 0.510789 0.218142 0.832948
Si Si2 0.125109 0.538847 0.383600
Si Si3 0.929174 0.846333 0.093021
Si Si4 0.845823 0.071927 0.449443
Si Si5 0.640993 0.472345 0.769401
O O1 0.500000 0.162957 0.750000
O O2 0.386797 0.311646 0.880950
O O3 0.636490 0.324097 0.814633
O O4 0.525552 0.090011 0.887784
O O5 0.042737 0.683272 0.393887
O O6 0.197646 0.525261 0.451629
O O7 0.234422 0.523767 0.302773
O O8 0.838829 0.904561 0.174074
O O9 0.846971 0.859298 0.030163
O O10 0.064735 0.932480 0.066556
O O11 0.500000 0.489988 0.750000
#
# Coordination Sequence:
#
# PCOD8135817 Si02
#       5
#     8   8   8   8   8
#     4  10  21  40  59  90 122 158 200 254 293 353
#     4  12  21  38  66  86 118 160 203 242 304 355
#     4  10  22  39  66  90 117 167 196 246 305 353
#     4  10  22  45  60  85 132 153 199 251 299 357
#     4  10  19  40  63  83 125 159 197 250 301 354
#
# _framework density 22.912941
#
# number of rings (size 3 to 8) (size 9 to 14) (size 15 to 20)
#    0.000    1.600    6.000    1.800    0.000    1.600 
#    3.600    9.000    0.000    0.000    0.000    0.000 
#    0.000    0.000    0.000    0.000    0.000    0.000 
#
# Total GULP energy -247891.963298 kJ/mol
# GULP energy per Si atom -12394.598165 kJ/mol
# Density = 2.286079 g / cm^3
# Si number density = 22.912941 Si / 1000 Ang^3
#
#
#
# Elastic Constant Matrix: (Units=GPa)
#
#
# Indices 1 2 3 4 5 6 
#
# 1 43.6888 37.0863 14.1494 0.0000 18.5465 0.0000
# 2 37.0863 133.2050 29.7748 0.0000 33.3190 0.0000
# 3 14.1494 29.7748 93.5243 0.0000 22.3587 0.0000
# 4 0.0000 0.0000 0.0000 34.0250 0.0000 8.5657
# 5 18.5465 33.3190 22.3587 0.0000 32.9131 0.0000
# 6 0.0000 0.0000 0.0000 8.5657 0.0000 23.6784
#
#
#
# Elastic Compliance Matrix: (Units=1/GPa)
#
#
# Indices 1 2 3 4 5 6 
#
# 1 0.033482 -0.006156 -0.000102 0.000000 -0.012566 0.000000
# 2 -0.006156 0.011251 -0.000904 0.000000 -0.007307 0.000000
# 3 -0.000102 -0.000904 0.012850 0.000000 -0.007757 0.000000
# 4 0.000000 0.000000 0.000000 0.032335 0.000000 -0.011697
# 5 -0.012566 -0.007307 -0.007757 0.000000 0.050131 0.000000
# 6 0.000000 0.000000 0.000000 -0.011697 0.000000 0.046464
#
#
# Mechanical properties :
#
#
# Convention : Reuss Voigt Hill
#
# Bulk Modulus (GPa) = 23.11570 48.04880 35.58225
# Shear Modulus (GPa) = 23.22821 30.75047 26.98934
#
# Velocity S-wave (km/s) = 3.18741 3.66738 3.43579
# Velocity P-wave (km/s) = 4.86380 6.24088 5.59487
#
# Compressibility (1/GPa) = 0.04326065
#
# Stress axis : x y z
#
# Youngs Moduli (GPa) = 29.86647 88.88245 77.82111
#
# Poissons Ratio (x) = 0.54716 0.00790
# Poissons Ratio (y) = 0.18386 0.07033
# Poissons Ratio (z) = 0.00303 0.08032
#
# Static dielectric constant tensor:
#      x y z
#    x 3.725410 0.000000 0.174080 
#    y 0.000000 4.267410 0.000000 
#    z 0.174080 0.000000 4.387060 
# 
# 
# High freq. dielectric constant tensor:
#      x y z
#    x 1.867900 0.000000 0.002970 
#    y 0.000000 1.908810 0.000000 
#    z 0.002970 0.000000 1.918050 
# 
# From -- ./inp_files/235704.got.cif
#   From: 2010.06.25/outbox.cif.g09.slc.cpg/sg15_118_cif.got.tgz:235704.got - 2010.06.28 07:06:18.
