data_PCOD8135517
_publ_section_title
;
Structure prediction by ZEFSAII (Michael W. Deem and Ramdas Pophale) SiO2 
 PCOD8135517
Probable space group: C 2/C
;
_chemical_formula_sum "Si O2"
_cell_formula_units_Z 44
_cell_length_a 8.076505
_cell_length_b 27.413918
_cell_length_c 11.278542
_cell_angle_alpha 90.000000
_cell_angle_beta 130.353873
_cell_angle_gamma 90.000000
_cell_volume 1902.990467
_symmetry_space_group_name_H-M "C 2/C"
_symmetry_group_IT_number 15
_symmetry_cell_setting 'monoclinic'
loop_
_space_group_symop_operation_xyz
x,y,z
-x,y,1/2-z
-x,-y,-z
x,-y,1/2+z
1/2+x,1/2+y,z
1/2-x,1/2+y,1/2-z
1/2-x,1/2-y,-z
1/2+x,1/2-y,1/2+z
loop_
_atom_site_type_symbol
_atom_site_label
_atom_site_fract_x
_atom_site_fract_y
_atom_site_fract_z
Si Si1 0.529064 0.318341 0.047389
Si Si2 0.266294 0.343632 0.583908
Si Si3 0.182869 0.081721 0.019188
Si Si4 0.836329 0.436144 0.841150
Si Si5 0.331125 0.227300 0.266633
Si Si6 0.000000 0.014153 0.750000
O O1 0.630189 0.285321 0.198544
O O2 0.725385 0.337590 0.054786
O O3 0.381261 0.361555 0.035522
O O4 0.400407 0.281867 0.899933
O O5 0.500000 0.348014 0.750000
O O6 0.149489 0.394785 0.552463
O O7 0.139856 0.300156 0.593811
O O8 0.415989 0.061028 0.086213
O O9 0.173971 0.077443 0.157355
O O10 0.007484 0.047888 0.871293
O O11 0.726847 0.484179 0.847241
O O12 0.500000 0.205425 0.250000
#
# Coordination Sequence:
#
# PCOD8135517 Si02
#       6
#     8   8   8   8   8   4
#     4  11  23  41  62  94 133 181 219 281 324 398
#     4  10  19  38  65  90 126 174 228 262 331 400
#     4  11  24  41  68  97 137 171 225 275 338 396
#     4  11  21  43  71  93 129 183 216 267 345 418
#     4  11  22  38  63  92 128 173 228 268 333 390
#     4  12  24  42  68 106 130 168 226 288 330 394
#
# _framework density 23.121502
#
# number of rings (size 3 to 8) (size 9 to 14) (size 15 to 20)
#    0.000    1.091    4.545    3.273    1.273    0.000 
#    0.000    0.000    0.000    0.000    0.000    0.000 
#    0.000    0.000    0.000    0.000    0.000    0.000 
#
# Total GULP energy -272627.537048 kJ/mol
# GULP energy per Si atom -12392.160775 kJ/mol
# Density = 2.306888 g / cm^3
# Si number density = 23.121502 Si / 1000 Ang^3
#
#
#
# Elastic Constant Matrix: (Units=GPa)
#
#
# Indices 1 2 3 4 5 6 
#
# 1 105.7158 33.5897 16.5095 0.0000 -11.6104 0.0000
# 2 33.5897 142.9305 42.1230 0.0000 -0.4039 0.0000
# 3 16.5095 42.1230 34.6682 0.0000 -1.8858 0.0000
# 4 0.0000 0.0000 0.0000 34.1002 0.0000 -2.3333
# 5 -11.6104 -0.4039 -1.8858 0.0000 12.8576 0.0000
# 6 0.0000 0.0000 0.0000 -2.3333 0.0000 37.6743
#
#
#
# Elastic Compliance Matrix: (Units=1/GPa)
#
#
# Indices 1 2 3 4 5 6 
#
# 1 0.011580 -0.001913 -0.002645 0.000000 0.010008 0.000000
# 2 -0.001913 0.011249 -0.012934 0.000000 -0.003272 0.000000
# 3 -0.002645 -0.012934 0.046035 0.000000 0.003957 0.000000
# 4 0.000000 0.000000 0.000000 0.029450 0.000000 0.001824
# 5 0.010008 -0.003272 0.003957 0.000000 0.087290 0.000000
# 6 0.000000 0.000000 0.000000 0.001824 0.000000 0.026656
#
#
# Mechanical properties :
#
#
# Convention : Reuss Voigt Hill
#
# Bulk Modulus (GPa) = 29.51771 51.97321 40.74546
# Shear Modulus (GPa) = 19.33953 29.66593 24.50273
#
# Velocity S-wave (km/s) = 2.89525 3.58585 3.25889
# Velocity P-wave (km/s) = 4.89599 6.29853 5.64102
#
# Compressibility (1/GPa) = 0.03387796
#
# Stress axis : x y z
#
# Youngs Moduli (GPa) = 86.35915 88.89935 21.72255
#
# Poissons Ratio (x) = 0.17011 0.05746
# Poissons Ratio (y) = 0.16525 0.28096
# Poissons Ratio (z) = 0.22842 1.14984
#
# Static dielectric constant tensor:
#      x y z
#    x 4.374500 0.000000 -0.295320 
#    y 0.000000 4.166450 0.000000 
#    z -0.295320 0.000000 3.842450 
# 
# 
# High freq. dielectric constant tensor:
#      x y z
#    x 1.918100 0.000000 -0.012640 
#    y 0.000000 1.915250 0.000000 
#    z -0.012640 0.000000 1.881200 
# 
# From -- ./inp_files/81563.got.cif
#   From: 2010.06.25/outbox.cif.g09.slc.cpg/sg15_41_cif.got.tgz:81563.got - 2010.06.28 07:06:18.
