data_PCOD8135963
_publ_section_title
;
Structure prediction by ZEFSAII (Michael W. Deem and Ramdas Pophale) SiO2 
 PCOD8135963
Probable space group: C 2/C
;
_chemical_formula_sum "Si O2"
_cell_formula_units_Z 40
_cell_length_a 12.399408
_cell_length_b 17.163292
_cell_length_c 9.305057
_cell_angle_alpha 90.000000
_cell_angle_beta 86.467639
_cell_angle_gamma 90.000000
_cell_volume 1976.490377
_symmetry_space_group_name_H-M "C 2/C"
_symmetry_group_IT_number 15
_symmetry_cell_setting 'monoclinic'
loop_
_space_group_symop_operation_xyz
x,y,z
-x,y,1/2-z
-x,-y,-z
x,-y,1/2+z
1/2+x,1/2+y,z
1/2-x,1/2+y,1/2-z
1/2-x,1/2-y,-z
1/2+x,1/2-y,1/2+z
loop_
_atom_site_type_symbol
_atom_site_label
_atom_site_fract_x
_atom_site_fract_y
_atom_site_fract_z
Si Si1 0.396993 0.653975 0.834333
Si Si2 0.376561 0.931014 0.736766
Si Si3 0.318105 0.922950 0.059839
Si Si4 0.728529 0.776460 0.841853
Si Si5 0.137969 0.745335 0.921452
O O1 0.500000 0.612647 0.750000
O O2 0.305060 0.590264 0.876239
O O3 0.354808 0.718140 0.725938
O O4 0.438967 0.697823 0.978564
O O5 0.500000 0.906903 0.750000
O O6 0.318430 0.863282 0.651919
O O7 0.373140 0.009412 0.645355
O O8 0.315697 0.944766 0.892447
O O9 0.393989 0.846025 0.076615
O O10 0.842279 0.775345 0.742814
O O11 0.750000 0.750000 0.000000
O O12 0.250000 0.750000 0.000000
#
# Coordination Sequence:
#
# PCOD8135963 Si02
#       5
#     8   8   8   8   8
#     4  10  19  41  67  80 113 175 208 246 315 355
#     4  12  23  39  62  91 128 166 198 249 318 372
#     4  10  22  38  58  90 126 157 203 256 301 371
#     4  10  20  36  63  89 119 156 206 263 300 358
#     4   8  16  37  57  78 116 159 197 248 301 344
#
# _framework density 20.237891999999999
#
# number of rings (size 3 to 8) (size 9 to 14) (size 15 to 20)
#    0.000    2.400    6.000    1.200    5.600    0.000 
#    0.000    2.000    0.000    0.000    0.000    0.000 
#    0.000    0.000    0.000    0.000    0.000    0.000 
#
# Total GULP energy -247849.618717 kJ/mol
# GULP energy per Si atom -12392.480936 kJ/mol
# Density = 2.019183 g / cm^3
# Si number density = 20.237892 Si / 1000 Ang^3
#
#
#
# Elastic Constant Matrix: (Units=GPa)
#
#
# Indices 1 2 3 4 5 6 
#
# 1 60.1418 13.0357 37.2144 0.0000 -25.5435 0.0000
# 2 13.0357 103.4598 48.3545 0.0000 10.0557 0.0000
# 3 37.2144 48.3545 159.2987 0.0000 -18.3525 0.0000
# 4 0.0000 0.0000 0.0000 39.6989 0.0000 0.6331
# 5 -25.5435 10.0557 -18.3525 0.0000 25.5879 0.0000
# 6 0.0000 0.0000 0.0000 0.6331 0.0000 17.3617
#
#
#
# Elastic Compliance Matrix: (Units=1/GPa)
#
#
# Indices 1 2 3 4 5 6 
#
# 1 0.034508 -0.006996 -0.001801 0.000000 0.035906 0.000000
# 2 -0.006996 0.014177 -0.004486 0.000000 -0.015773 0.000000
# 3 -0.001801 -0.004486 0.008782 0.000000 0.006263 0.000000
# 4 0.000000 0.000000 0.000000 0.025204 0.000000 -0.000919
# 5 0.035906 -0.015773 0.006263 0.000000 0.085615 0.000000
# 6 0.000000 0.000000 0.000000 -0.000919 0.000000 0.057631
#
#
# Mechanical properties :
#
#
# Convention : Reuss Voigt Hill
#
# Bulk Modulus (GPa) = 32.36245 57.78993 45.07619
# Shear Modulus (GPa) = 19.02700 31.48276 25.25488
#
# Velocity S-wave (km/s) = 3.06954 3.94843 3.53640
# Velocity P-wave (km/s) = 5.34682 7.02881 6.24470
#
# Compressibility (1/GPa) = 0.03090001
#
# Stress axis : x y z
#
# Youngs Moduli (GPa) = 28.97844 70.53802 113.87373
#
# Poissons Ratio (x) = 0.49348 0.20514
# Poissons Ratio (y) = 0.20273 0.51085
# Poissons Ratio (z) = 0.05220 0.31644
#
# Static dielectric constant tensor:
#      x y z
#    x 3.632450 0.000000 -0.781690 
#    y 0.000000 3.710180 0.000000 
#    z -0.781690 0.000000 4.381080 
# 
# 
# High freq. dielectric constant tensor:
#      x y z
#    x 1.757530 0.000000 -0.034520 
#    y 0.000000 1.777800 0.000000 
#    z -0.034520 0.000000 1.801970 
# 
# From -- ./inp_files/38715.got.cif
#   From: 2010.06.25/outbox.cif.g09.slc.cpg/sg15_20_cif.got.tgz:38715.got - 2010.06.28 07:06:18.
