data_PCOD8135699
_publ_section_title
;
Structure prediction by ZEFSAII (Michael W. Deem and Ramdas Pophale) SiO2 
 PCOD8135699
Probable space group: C 2/C
;
_chemical_formula_sum "Si O2"
_cell_formula_units_Z 48
_cell_length_a 32.843015
_cell_length_b 9.113130
_cell_length_c 19.210777
_cell_angle_alpha 90.000000
_cell_angle_beta 23.263859
_cell_angle_gamma 90.000000
_cell_volume 2270.990524
_symmetry_space_group_name_H-M "C 2/C"
_symmetry_group_IT_number 15
_symmetry_cell_setting 'monoclinic'
loop_
_space_group_symop_operation_xyz
x,y,z
-x,y,1/2-z
-x,-y,-z
x,-y,1/2+z
1/2+x,1/2+y,z
1/2-x,1/2+y,1/2-z
1/2-x,1/2-y,-z
1/2+x,1/2-y,1/2+z
loop_
_atom_site_type_symbol
_atom_site_label
_atom_site_fract_x
_atom_site_fract_y
_atom_site_fract_z
Si Si1 0.706565 0.815157 0.704103
Si Si2 0.097546 0.280108 0.734026
Si Si3 0.038330 0.525260 0.558996
Si Si4 0.340607 0.208737 0.909601
Si Si5 0.598291 0.522602 0.641179
Si Si6 0.173272 0.451204 0.479052
O O1 0.684026 0.794544 0.657337
O O2 0.802579 0.924943 0.558424
O O3 0.734107 0.654369 0.694513
O O4 0.612296 0.886020 0.892288
O O5 0.082957 0.108011 0.739182
O O6 0.124312 0.355521 0.618155
O O7 0.993955 0.365940 0.922710
O O8 0.090281 0.493112 0.551324
O O9 0.933314 0.618955 0.728749
O O10 0.391637 0.351019 0.862366
O O11 0.250000 0.250000 0.000000
O O12 0.287365 0.106725 0.052452
O O13 0.500000 0.557467 0.750000
#
# Coordination Sequence:
#
# PCOD8135699 Si02
#       6
#     8   8   8   8   8   8
#     4  11  23  40  63  93 122 159 210 262 310 367
#     4  10  19  39  64  88 119 164 206 245 305 385
#     4  11  23  40  62  92 126 161 204 264 320 365
#     4  11  22  40  62  88 122 166 209 253 312 385
#     4  11  21  37  62  90 118 161 212 253 301 380
#     4  10  21  40  62  87 123 167 205 247 310 382
#
# _framework density 21.136151999999999
#
# number of rings (size 3 to 8) (size 9 to 14) (size 15 to 20)
#    0.000    1.333    0.000   10.500    0.000    2.667 
#    0.000    6.667    0.000    0.000    0.000    0.000 
#    0.000    0.000    0.000    0.000    0.000    0.000 
#
# Total GULP energy -297422.759630 kJ/mol
# GULP energy per Si atom -12392.614985 kJ/mol
# Density = 2.108805 g / cm^3
# Si number density = 21.136152 Si / 1000 Ang^3
#
#
#
# Elastic Constant Matrix: (Units=GPa)
#
#
# Indices 1 2 3 4 5 6 
#
# 1 96.2301 -2.7004 13.2940 0.0000 -16.8486 0.0000
# 2 -2.7004 120.8667 32.4731 0.0000 3.6233 0.0000
# 3 13.2940 32.4731 88.1599 0.0000 -6.6246 0.0000
# 4 0.0000 0.0000 0.0000 32.7293 0.0000 -6.7712
# 5 -16.8486 3.6233 -6.6246 0.0000 26.5449 0.0000
# 6 0.0000 0.0000 0.0000 -6.7712 0.0000 39.6251
#
#
#
# Elastic Compliance Matrix: (Units=1/GPa)
#
#
# Indices 1 2 3 4 5 6 
#
# 1 0.011843 0.000431 -0.001410 0.000000 0.007106 0.000000
# 2 0.000431 0.009318 -0.003641 0.000000 -0.001907 0.000000
# 3 -0.001410 -0.003641 0.013113 0.000000 0.002874 0.000000
# 4 0.000000 0.000000 0.000000 0.031673 0.000000 0.005412
# 5 0.007106 -0.001907 0.002874 0.000000 0.043160 0.000000
# 6 0.000000 0.000000 0.000000 0.005412 0.000000 0.026161
#
#
# Mechanical properties :
#
#
# Convention : Reuss Voigt Hill
#
# Bulk Modulus (GPa) = 39.94736 43.48777 41.71756
# Shear Modulus (GPa) = 32.71088 37.25920 34.98504
#
# Velocity S-wave (km/s) = 3.93826 4.20315 4.07286
# Velocity P-wave (km/s) = 6.29451 6.64643 6.47286
#
# Compressibility (1/GPa) = 0.02503294
#
# Stress axis : x y z
#
# Youngs Moduli (GPa) = 84.43887 107.31347 76.26205
#
# Poissons Ratio (x) = -0.04620 0.10756
# Poissons Ratio (y) = -0.03635 0.27764
# Poissons Ratio (z) = 0.11910 0.39069
#
# Static dielectric constant tensor:
#      x y z
#    x 3.835510 0.000000 -0.233800 
#    y 0.000000 4.723290 0.000000 
#    z -0.233800 0.000000 3.795220 
# 
# 
# High freq. dielectric constant tensor:
#      x y z
#    x 1.835850 0.000000 -0.026350 
#    y 0.000000 1.850060 0.000000 
#    z -0.026350 0.000000 1.802050 
# 
# From -- ./inp_files/224525.got.cif
#   From: 2010.06.25/outbox.cif.g09.slc.cpg/sg15_113_cif.got.tgz:224525.got - 2010.06.28 07:06:18.
