data_PCOD8135137
_publ_section_title
;
Structure prediction by ZEFSAII (Michael W. Deem and Ramdas Pophale) SiO2 
 PCOD8135137
Probable space group: C 2/C
;
_chemical_formula_sum "Si O2"
_cell_formula_units_Z 56
_cell_length_a 14.045613
_cell_length_b 14.131333
_cell_length_c 20.194649
_cell_angle_alpha 90.000000
_cell_angle_beta 133.959965
_cell_angle_gamma 90.000000
_cell_volume 2885.274058
_symmetry_space_group_name_H-M "C 2/C"
_symmetry_group_IT_number 15
_symmetry_cell_setting 'monoclinic'
loop_
_space_group_symop_operation_xyz
x,y,z
-x,y,1/2-z
-x,-y,-z
x,-y,1/2+z
1/2+x,1/2+y,z
1/2-x,1/2+y,1/2-z
1/2-x,1/2-y,-z
1/2+x,1/2-y,1/2+z
loop_
_atom_site_type_symbol
_atom_site_label
_atom_site_fract_x
_atom_site_fract_y
_atom_site_fract_z
Si Si1 0.873005 0.595994 0.752219
Si Si2 0.136925 0.321827 0.924975
Si Si3 0.238315 0.083046 0.818900
Si Si4 0.000000 0.230932 0.250000
Si Si5 0.237146 0.102822 0.409078
Si Si6 0.008355 0.387010 0.993447
Si Si7 0.659300 0.025587 0.905252
Si Si8 0.000000 0.204361 0.750000
O O1 0.757436 0.574555 0.749075
O O2 0.924818 0.704386 0.768500
O O3 0.806701 0.567179 0.650280
O O4 0.000065 0.534762 0.837283
O O5 0.035415 0.354740 0.932415
O O6 0.203248 0.416180 0.927501
O O7 0.049496 0.272738 0.829355
O O8 0.250000 0.250000 0.000000
O O9 0.106703 0.139042 0.767608
O O10 0.224945 0.985517 0.852918
O O11 0.364151 0.145993 0.902999
O O12 0.107354 0.167076 0.340284
O O13 0.370818 0.159397 0.451917
O O14 0.256693 0.074945 0.495481
O O15 0.000000 0.500000 0.000000
#
# Coordination Sequence:
#
# PCOD8135137 Si02
#       8
#     8   8   8   4   8   8   8   4
#     4  10  23  40  61  94 132 157 224 247 319 392
#     4  12  22  38  60  98 122 160 220 263 311 374
#     4  11  21  42  60  93 124 174 205 259 321 383
#     4  10  25  39  60 104 122 158 214 279 307 366
#     4  11  20  39  71  86 126 170 216 252 317 379
#     4  10  19  37  63  85 115 169 211 243 304 392
#     4  10  19  40  65  87 125 175 201 260 318 383
#     4  12  25  35  64  90 140 156 206 285 317 348
#
# _framework density 19.408901
#
# number of rings (size 3 to 8) (size 9 to 14) (size 15 to 20)
#    0.000    1.429    5.714    2.143    2.000    2.286 
#    0.000    0.000    0.000    4.286    0.000    0.000 
#    0.000    0.000    0.000    0.000    0.000    0.000 
#
# Total GULP energy -346944.600532 kJ/mol
# GULP energy per Si atom -12390.878590 kJ/mol
# Density = 1.936473 g / cm^3
# Si number density = 19.408901 Si / 1000 Ang^3
#
#
#
# Elastic Constant Matrix: (Units=GPa)
#
#
# Indices 1 2 3 4 5 6 
#
# 1 122.0823 49.5421 71.1082 0.0000 -26.2205 0.0000
# 2 49.5421 107.0215 72.6671 0.0000 -7.8335 0.0000
# 3 71.1082 72.6671 143.3202 0.0000 -10.7351 0.0000
# 4 0.0000 0.0000 0.0000 33.7886 0.0000 -1.5103
# 5 -26.2205 -7.8335 -10.7351 0.0000 35.7051 0.0000
# 6 0.0000 0.0000 0.0000 -1.5103 0.0000 21.9709
#
#
#
# Elastic Compliance Matrix: (Units=1/GPa)
#
#
# Indices 1 2 3 4 5 6 
#
# 1 0.013847 -0.002385 -0.005052 0.000000 0.008127 0.000000
# 2 -0.002385 0.014694 -0.006298 0.000000 -0.000421 0.000000
# 3 -0.005052 -0.006298 0.012580 0.000000 -0.001310 0.000000
# 4 0.000000 0.000000 0.000000 0.029687 0.000000 0.002041
# 5 0.008127 -0.000421 -0.001310 0.000000 0.033489 0.000000
# 6 0.000000 0.000000 0.000000 0.002041 0.000000 0.045655
#
#
# Mechanical properties :
#
#
# Convention : Reuss Voigt Hill
#
# Bulk Modulus (GPa) = 73.26469 84.33988 78.80229
# Shear Modulus (GPa) = 27.47673 30.23335 28.85504
#
# Velocity S-wave (km/s) = 3.76663 3.95106 3.85995
# Velocity P-wave (km/s) = 7.53303 8.02266 7.78170
#
# Compressibility (1/GPa) = 0.01364914
#
# Stress axis : x y z
#
# Youngs Moduli (GPa) = 72.21665 68.05682 79.49423
#
# Poissons Ratio (x) = 0.16229 0.40164
# Poissons Ratio (y) = 0.17221 0.50069
# Poissons Ratio (z) = 0.36487 0.42865
#
# Static dielectric constant tensor:
#      x y z
#    x 3.611690 0.000000 -0.054510 
#    y 0.000000 3.557060 0.000000 
#    z -0.054510 0.000000 3.730610 
# 
# 
# High freq. dielectric constant tensor:
#      x y z
#    x 1.748190 0.000000 -0.011910 
#    y 0.000000 1.741710 0.000000 
#    z -0.011910 0.000000 1.766810 
# 
# From -- ./inp_files/244603.got.cif
#   From: 2010.06.25/outbox.cif.g09.slc.cpg/sg15_123_cif.got.tgz:244603.got - 2010.06.28 07:06:18.
