data_PCOD8135348
_publ_section_title
;
Structure prediction by ZEFSAII (Michael W. Deem and Ramdas Pophale) SiO2 
 PCOD8135348
Probable space group: C 2/C
;
_chemical_formula_sum "Si O2"
_cell_formula_units_Z 56
_cell_length_a 30.524450
_cell_length_b 17.780578
_cell_length_c 9.019840
_cell_angle_alpha 90.000000
_cell_angle_beta 143.268746
_cell_angle_gamma 90.000000
_cell_volume 2927.784221
_symmetry_space_group_name_H-M "C 2/C"
_symmetry_group_IT_number 15
_symmetry_cell_setting 'monoclinic'
loop_
_space_group_symop_operation_xyz
x,y,z
-x,y,1/2-z
-x,-y,-z
x,-y,1/2+z
1/2+x,1/2+y,z
1/2-x,1/2+y,1/2-z
1/2-x,1/2-y,-z
1/2+x,1/2-y,1/2+z
loop_
_atom_site_type_symbol
_atom_site_label
_atom_site_fract_x
_atom_site_fract_y
_atom_site_fract_z
Si Si1 0.960495 0.562122 0.799547
Si Si2 0.504676 0.206924 0.092332
Si Si3 0.875436 0.798033 0.708279
Si Si4 0.722580 0.779824 0.771421
Si Si5 0.338948 0.212260 0.898235
Si Si6 0.792941 0.557224 0.349919
Si Si7 0.760267 0.081625 0.960381
O O1 0.877273 0.531814 0.572410
O O2 0.000000 0.566824 0.750000
O O3 0.000000 0.500000 0.000000
O O4 0.965496 0.644224 0.886772
O O5 0.500000 0.181508 0.250000
O O6 0.591760 0.212384 0.300975
O O7 0.464663 0.288658 0.951067
O O8 0.846210 0.770709 0.469133
O O9 0.854008 0.734702 0.770500
O O10 0.841461 0.879207 0.662515
O O11 0.784783 0.774450 0.815340
O O12 0.705090 0.867009 0.741547
O O13 0.750000 0.750000 0.000000
O O14 0.300007 0.131434 0.788871
O O15 0.761292 0.569813 0.427962
O O16 0.739854 0.498026 0.123720
#
# Coordination Sequence:
#
# PCOD8135348 Si02
#       7
#     8   8   8   8   8   8   8
#     4  12  24  37  54  83 127 157 188 232 290 363
#     4  10  20  35  62  85 110 152 199 234 295 344
#     4  10  19  41  58  82 114 155 195 248 281 350
#     4  11  22  35  58  84 118 150 201 242 286 342
#     4  10  19  38  60  84 111 155 195 239 289 354
#     4  12  23  39  56  87 119 159 193 238 296 350
#     4  11  22  36  60  85 121 152 199 241 291 347
#
# _framework density 19.127092000000001
#
# number of rings (size 3 to 8) (size 9 to 14) (size 15 to 20)
#    0.000    1.143    4.286    3.857    6.000    0.000 
#    0.000    0.000    0.000    0.857    0.000    0.000 
#    0.000    0.000    0.000    0.000    0.000    0.000 
#
# Total GULP energy -347004.290102 kJ/mol
# GULP energy per Si atom -12393.010361 kJ/mol
# Density = 1.908356 g / cm^3
# Si number density = 19.127092 Si / 1000 Ang^3
#
#
#
# Elastic Constant Matrix: (Units=GPa)
#
#
# Indices 1 2 3 4 5 6 
#
# 1 54.9261 31.3887 36.8980 0.0000 -10.0888 0.0000
# 2 31.3887 89.1476 31.3006 0.0000 -5.2832 0.0000
# 3 36.8980 31.3006 92.5839 0.0000 -7.0021 0.0000
# 4 0.0000 0.0000 0.0000 39.3483 0.0000 -0.9149
# 5 -10.0888 -5.2832 -7.0021 0.0000 31.9711 0.0000
# 6 0.0000 0.0000 0.0000 -0.9149 0.0000 20.9762
#
#
#
# Elastic Compliance Matrix: (Units=1/GPa)
#
#
# Indices 1 2 3 4 5 6 
#
# 1 0.029173 -0.006795 -0.008865 0.000000 0.006141 0.000000
# 2 -0.006795 0.014355 -0.002164 0.000000 -0.000246 0.000000
# 3 -0.008865 -0.002164 0.015076 0.000000 0.000147 0.000000
# 4 0.000000 0.000000 0.000000 0.025440 0.000000 0.001110
# 5 0.006141 -0.000246 0.000147 0.000000 0.033208 0.000000
# 6 0.000000 0.000000 0.000000 0.001110 0.000000 0.047721
#
#
# Mechanical properties :
#
#
# Convention : Reuss Voigt Hill
#
# Bulk Modulus (GPa) = 43.55906 48.42580 45.99243
# Shear Modulus (GPa) = 24.00706 27.59715 25.80211
#
# Velocity S-wave (km/s) = 3.54663 3.80258 3.67683
# Velocity P-wave (km/s) = 6.29241 6.68224 6.49025
#
# Compressibility (1/GPa) = 0.02295734
#
# Stress axis : x y z
#
# Youngs Moduli (GPa) = 34.27881 69.66207 66.32866
#
# Poissons Ratio (x) = 0.47337 0.58797
# Poissons Ratio (y) = 0.23293 0.14351
# Poissons Ratio (z) = 0.30387 0.15072
#
# Static dielectric constant tensor:
#      x y z
#    x 3.510650 0.000000 0.185160 
#    y 0.000000 3.535950 0.000000 
#    z 0.185160 0.000000 3.933370 
# 
# 
# High freq. dielectric constant tensor:
#      x y z
#    x 1.734260 0.000000 -0.005260 
#    y 0.000000 1.725650 0.000000 
#    z -0.005260 0.000000 1.751080 
# 
# From -- ./inp_files/56742.got.cif
#   From: 2010.06.25/outbox.cif.g09.slc.cpg/sg15_29_cif.got.tgz:56742.got - 2010.06.28 07:06:18.
