data_PCOD8135102
_publ_section_title
;
Structure prediction by ZEFSAII (Michael W. Deem and Ramdas Pophale) SiO2 
 PCOD8135102
Probable space group: C 2/C
;
_chemical_formula_sum "Si O2"
_cell_formula_units_Z 52
_cell_length_a 16.210766
_cell_length_b 14.060771
_cell_length_c 27.814842
_cell_angle_alpha 90.000000
_cell_angle_beta 24.004884
_cell_angle_gamma 90.000000
_cell_volume 2579.204086
_symmetry_space_group_name_H-M "C 2/C"
_symmetry_group_IT_number 15
_symmetry_cell_setting 'monoclinic'
loop_
_space_group_symop_operation_xyz
x,y,z
-x,y,1/2-z
-x,-y,-z
x,-y,1/2+z
1/2+x,1/2+y,z
1/2-x,1/2+y,1/2-z
1/2-x,1/2-y,-z
1/2+x,1/2-y,1/2+z
loop_
_atom_site_type_symbol
_atom_site_label
_atom_site_fract_x
_atom_site_fract_y
_atom_site_fract_z
Si Si1 0.860705 0.156991 0.922531
Si Si2 0.187117 0.457617 0.019217
Si Si3 0.000000 0.105603 0.750000
Si Si4 0.093561 0.196349 0.048916
Si Si5 0.772497 0.742506 0.854290
Si Si6 0.291176 0.951540 0.602593
Si Si7 0.286680 0.161901 0.746350
O O1 0.888755 0.168825 0.849642
O O2 0.079910 0.137517 0.829071
O O3 0.750000 0.250000 0.000000
O O4 0.705539 0.070841 0.016350
O O5 0.956215 0.421677 0.151570
O O6 0.358551 0.413340 0.963859
O O7 0.248510 0.429327 0.932421
O O8 0.855968 0.032166 0.797760
O O9 0.872178 0.237229 0.180193
O O10 0.250000 0.250000 0.000000
O O11 0.121818 0.214408 0.977378
O O12 0.734671 0.851125 0.856843
O O13 0.729350 0.673518 0.832728
O O14 0.000000 0.727709 0.750000
O O15 0.500000 0.000000 0.500000
#
# Coordination Sequence:
#
# PCOD8135102 Si02
#       7
#     8   8   4   8   8   8   8
#     4  11  27  44  61  95 132 171 215 260 322 390
#     4  10  21  42  61  89 130 161 212 264 309 381
#     4  10  24  40  62  86 128 160 208 258 318 366
#     4  10  19  37  61  94 128 155 208 265 310 380
#     4  12  20  36  65  97 128 162 214 261 321 371
#     4  11  21  33  61  95 121 156 204 266 318 368
#     4  11  23  38  66  94 130 170 204 264 327 376
#
# _framework density 20.161256999999999
#
# number of rings (size 3 to 8) (size 9 to 14) (size 15 to 20)
#    0.000    1.231    6.923    0.923    6.462    1.231 
#    0.000    2.308    0.000    0.000    0.000    0.000 
#    0.000    0.000    0.000    0.000    0.000    0.000 
#
# Total GULP energy -322212.560255 kJ/mol
# GULP energy per Si atom -12392.790779 kJ/mol
# Density = 2.011537 g / cm^3
# Si number density = 20.161257 Si / 1000 Ang^3
#
#
#
# Elastic Constant Matrix: (Units=GPa)
#
#
# Indices 1 2 3 4 5 6 
#
# 1 75.9267 36.2771 41.7180 0.0019 10.9368 0.0034
# 2 36.2771 122.9377 45.0164 -0.0088 6.9281 -0.0054
# 3 41.7180 45.0164 92.1589 0.0235 3.1594 -0.0264
# 4 0.0019 -0.0088 0.0235 40.4278 -0.0284 0.5951
# 5 10.9368 6.9281 3.1594 -0.0284 47.2329 0.0020
# 6 0.0034 -0.0054 -0.0264 0.5951 0.0020 17.1778
#
#
#
# Elastic Compliance Matrix: (Units=1/GPa)
#
#
# Indices 1 2 3 4 5 6 
#
# 1 0.018890 -0.002789 -0.007069 0.000000 -0.003492 -0.000015
# 2 -0.002789 0.010379 -0.003786 0.000004 -0.000623 -0.000002
# 3 -0.007069 -0.003786 0.015861 -0.000009 0.001131 0.000025
# 4 0.000000 0.000004 -0.000009 0.024748 0.000015 -0.000857
# 5 -0.003492 -0.000623 0.001131 0.000015 0.021996 -0.000001
# 6 -0.000015 -0.000002 0.000025 -0.000857 -0.000001 0.058245
#
#
# Mechanical properties :
#
#
# Convention : Reuss Voigt Hill
#
# Bulk Modulus (GPa) = 56.04590 59.67182 57.85886
# Shear Modulus (GPa) = 27.26969 32.16848 29.71909
#
# Velocity S-wave (km/s) = 3.68173 3.99878 3.84353
# Velocity P-wave (km/s) = 6.77737 7.14016 6.96113
#
# Compressibility (1/GPa) = 0.01784252
#
# Stress axis : x y z
#
# Youngs Moduli (GPa) = 52.93730 96.35287 63.04670
#
# Poissons Ratio (x) = 0.26872 0.44569
# Poissons Ratio (y) = 0.14764 0.23868
# Poissons Ratio (z) = 0.37422 0.36476
#
# Static dielectric constant tensor:
#      x y z
#    x 3.729100 -0.000170 0.059480 
#    y -0.000170 3.917080 -0.000120 
#    z 0.059480 -0.000120 3.708620 
# 
# 
# High freq. dielectric constant tensor:
#      x y z
#    x 1.777770 0.000000 0.004810 
#    y 0.000000 1.773340 0.000000 
#    z 0.004810 0.000000 1.788110 
# 
# From -- ./inp_files/316430.got.cif
#   From: 2010.06.25/outbox.cif.g09.slc.cpg/sg15_159_cif.got.tgz:316430.got - 2010.06.28 07:06:18.
