data_PCOD8135081
_publ_section_title
;
Structure prediction by ZEFSAII (Michael W. Deem and Ramdas Pophale) SiO2 
 PCOD8135081
Probable space group: C 2/C
;
_chemical_formula_sum "Si O2"
_cell_formula_units_Z 36
_cell_length_a 10.488497
_cell_length_b 10.554240
_cell_length_c 22.642872
_cell_angle_alpha 90.000000
_cell_angle_beta 47.303245
_cell_angle_gamma 90.000000
_cell_volume 1842.176780
_symmetry_space_group_name_H-M "C 2/C"
_symmetry_group_IT_number 15
_symmetry_cell_setting 'monoclinic'
loop_
_space_group_symop_operation_xyz
x,y,z
-x,y,1/2-z
-x,-y,-z
x,-y,1/2+z
1/2+x,1/2+y,z
1/2-x,1/2+y,1/2-z
1/2-x,1/2-y,-z
1/2+x,1/2-y,1/2+z
loop_
_atom_site_type_symbol
_atom_site_label
_atom_site_fract_x
_atom_site_fract_y
_atom_site_fract_z
Si Si1 0.326043 0.568948 0.129596
Si Si2 0.000000 0.734344 0.250000
Si Si3 0.489141 0.525182 0.689185
Si Si4 0.328684 0.070045 0.030596
Si Si5 0.323250 0.354234 0.039145
O O1 0.154526 0.650638 0.175736
O O2 0.347330 0.542382 0.192716
O O3 0.307651 0.435161 0.102904
O O4 0.488394 0.642858 0.051064
O O5 0.937761 0.826814 0.215965
O O6 0.500000 0.455737 0.750000
O O7 0.673866 0.521865 0.598457
O O8 0.297343 0.209491 0.068244
O O9 0.322098 0.093186 0.961471
O O10 0.500000 0.000000 0.000000
#
# Coordination Sequence:
#
# PCOD8135081 Si02
#       5
#     8   4   8   8   8
#     4  10  20  40  57  82 118 153 192 246 290 341
#     4  10  22  40  58  84 120 158 192 242 284 356
#     4   9  22  38  55  84 120 151 194 241 283 354
#     4  10  19  37  61  86 114 153 189 246 291 343
#     4   9  21  36  58  88 114 145 202 241 286 350
#
# _framework density 19.542096999999998
#
# number of rings (size 3 to 8) (size 9 to 14) (size 15 to 20)
#    0.667    1.778    0.000    1.333    0.000    5.333 
#   10.000    6.667    0.000    0.000    0.000    0.000 
#    0.000    0.000    0.000    0.000    0.000    0.000 
#
# Total GULP energy -223059.005989 kJ/mol
# GULP energy per Si atom -12392.166999 kJ/mol
# Density = 1.949762 g / cm^3
# Si number density = 19.542097 Si / 1000 Ang^3
#
#
#
# Elastic Constant Matrix: (Units=GPa)
#
#
# Indices 1 2 3 4 5 6 
#
# 1 71.2085 20.5416 14.9016 0.0000 7.4875 0.0000
# 2 20.5416 81.5616 30.5158 0.0000 2.8753 0.0000
# 3 14.9016 30.5158 57.6671 0.0000 8.9733 0.0000
# 4 0.0000 0.0000 0.0000 19.5191 0.0000 6.3702
# 5 7.4875 2.8753 8.9733 0.0000 34.5461 0.0000
# 6 0.0000 0.0000 0.0000 6.3702 0.0000 30.4977
#
#
#
# Elastic Compliance Matrix: (Units=1/GPa)
#
#
# Indices 1 2 3 4 5 6 
#
# 1 0.015629 -0.003099 -0.001992 0.000000 -0.002612 0.000000
# 2 -0.003099 0.015926 -0.007842 0.000000 0.001383 0.000000
# 3 -0.001992 -0.007842 0.022757 0.000000 -0.004826 0.000000
# 4 0.000000 0.000000 0.000000 0.054980 0.000000 -0.011484
# 5 -0.002612 0.001383 -0.004826 0.000000 0.030651 0.000000
# 6 0.000000 0.000000 0.000000 -0.011484 0.000000 0.035188
#
#
# Mechanical properties :
#
#
# Convention : Reuss Voigt Hill
#
# Bulk Modulus (GPa) = 35.15540 38.03946 36.59743
# Shear Modulus (GPa) = 23.75525 26.54446 25.14986
#
# Velocity S-wave (km/s) = 3.49032 3.68954 3.59131
# Velocity P-wave (km/s) = 5.85421 6.13661 5.99707
#
# Compressibility (1/GPa) = 0.02844513
#
# Stress axis : x y z
#
# Youngs Moduli (GPa) = 63.98481 62.78844 43.94300
#
# Poissons Ratio (x) = 0.19456 0.08755
# Poissons Ratio (y) = 0.19826 0.34462
# Poissons Ratio (z) = 0.12749 0.49241
#
# Static dielectric constant tensor:
#      x y z
#    x 3.659690 0.000000 0.098400 
#    y 0.000000 3.475810 0.000000 
#    z 0.098400 0.000000 3.327860 
# 
# 
# High freq. dielectric constant tensor:
#      x y z
#    x 1.759340 0.000000 0.006020 
#    y 0.000000 1.761470 0.000000 
#    z 0.006020 0.000000 1.745060 
# 
# From -- ./inp_files/195372.got.cif
#   From: 2010.06.25/outbox.cif.g09.slc.cpg/sg15_98_cif.got.tgz:195372.got - 2010.06.28 07:06:18.
