data_PCOD8135381
_publ_section_title
;
Structure prediction by ZEFSAII (Michael W. Deem and Ramdas Pophale) SiO2 
 PCOD8135381
Probable space group: C 2/C
;
_chemical_formula_sum "Si O2"
_cell_formula_units_Z 44
_cell_length_a 9.117950
_cell_length_b 13.000749
_cell_length_c 20.793421
_cell_angle_alpha 90.000000
_cell_angle_beta 50.003690
_cell_angle_gamma 90.000000
_cell_volume 1888.291165
_symmetry_space_group_name_H-M "C 2/C"
_symmetry_group_IT_number 15
_symmetry_cell_setting 'monoclinic'
loop_
_space_group_symop_operation_xyz
x,y,z
-x,y,1/2-z
-x,-y,-z
x,-y,1/2+z
1/2+x,1/2+y,z
1/2-x,1/2+y,1/2-z
1/2-x,1/2-y,-z
1/2+x,1/2-y,1/2+z
loop_
_atom_site_type_symbol
_atom_site_label
_atom_site_fract_x
_atom_site_fract_y
_atom_site_fract_z
Si Si1 0.710685 0.926177 0.074849
Si Si2 0.421528 0.863815 0.043950
Si Si3 0.761679 0.440763 0.629222
Si Si4 0.856959 0.863560 0.569521
Si Si5 0.368788 0.354042 0.710622
Si Si6 0.000000 0.329307 0.250000
O O1 0.567552 0.877157 0.063116
O O2 0.637363 0.898162 0.166744
O O3 0.733095 0.051745 0.065328
O O4 0.917933 0.879716 0.003324
O O5 0.322791 0.754302 0.058601
O O6 0.247881 0.942163 0.107486
O O7 0.533190 0.893962 0.947717
O O8 0.594558 0.377802 0.642321
O O9 0.741417 0.435587 0.712441
O O10 0.784948 0.865580 0.663685
O O11 0.358145 0.240377 0.745253
#
# Coordination Sequence:
#
# PCOD8135381 Si02
#       6
#     8   8   8   8   8   4
#     4  11  23  36  59  91 111 152 196 249 283 360
#     4  11  20  41  60  82 117 157 190 245 294 352
#     4   9  21  35  62  81 113 155 194 233 293 348
#     4  11  22  37  61  83 119 148 196 241 301 343
#     4  10  19  38  61  86 110 157 192 233 289 361
#     4  10  20  36  60  84 114 148 204 230 292 346
#
# _framework density 23.301490999999999
#
# number of rings (size 3 to 8) (size 9 to 14) (size 15 to 20)
#    0.000    1.818    3.636    2.727    2.545    0.000 
#    0.000    5.455    8.000    0.000    0.000    0.000 
#    0.000    0.000    0.000    0.000    0.000    0.000 
#
# Total GULP energy -272607.126917 kJ/mol
# GULP energy per Si atom -12391.233042 kJ/mol
# Density = 2.324846 g / cm^3
# Si number density = 23.301491 Si / 1000 Ang^3
#
#
#
# Elastic Constant Matrix: (Units=GPa)
#
#
# Indices 1 2 3 4 5 6 
#
# 1 31.1380 -8.6526 -1.7584 0.0000 2.3927 0.0000
# 2 -8.6526 159.3949 32.2616 -0.0001 -8.8522 0.0001
# 3 -1.7584 32.2616 131.3650 -0.0004 7.1360 0.0002
# 4 0.0000 -0.0001 -0.0004 35.6488 0.0001 -1.3987
# 5 2.3927 -8.8522 7.1360 0.0001 16.6285 -0.0001
# 6 0.0000 0.0001 0.0002 -1.3987 -0.0001 17.5982
#
#
#
# Elastic Compliance Matrix: (Units=1/GPa)
#
#
# Indices 1 2 3 4 5 6 
#
# 1 0.032860 0.001499 0.000292 0.000000 -0.004055 0.000000
# 2 0.001499 0.006987 -0.001931 0.000000 0.004332 0.000000
# 3 0.000292 -0.001931 0.008343 0.000000 -0.004650 0.000000
# 4 0.000000 0.000000 0.000000 0.028139 0.000000 0.002236
# 5 -0.004055 0.004332 -0.004650 0.000000 0.065023 0.000000
# 6 0.000000 0.000000 0.000000 0.002236 0.000000 0.057002
#
#
# Mechanical properties :
#
#
# Convention : Reuss Voigt Hill
#
# Bulk Modulus (GPa) = 20.87238 40.62211 30.74724
# Shear Modulus (GPa) = 23.29878 33.97823 28.63850
#
# Velocity S-wave (km/s) = 3.16552 3.82278 3.50957
# Velocity P-wave (km/s) = 4.72628 6.07914 5.44489
#
# Compressibility (1/GPa) = 0.04791022
#
# Stress axis : x y z
#
# Youngs Moduli (GPa) = 30.43222 143.13161 119.85865
#
# Poissons Ratio (x) = -0.21462 -0.03499
# Poissons Ratio (y) = -0.04563 0.23146
# Poissons Ratio (z) = -0.00888 0.27640
#
# Static dielectric constant tensor:
#      x y z
#    x 3.654190 0.000000 0.239760 
#    y 0.000000 4.426200 0.000000 
#    z 0.239760 0.000000 4.489560 
# 
# 
# High freq. dielectric constant tensor:
#      x y z
#    x 1.875140 0.000000 0.017140 
#    y 0.000000 1.926220 0.000000 
#    z 0.017140 0.000000 1.942040 
# 
# From -- ./inp_files/196283.got.cif
#   From: 2010.06.25/outbox.cif.g09.slc.cpg/sg15_99_cif.got.tgz:196283.got - 2010.06.28 07:06:18.
