data_PCOD8135769
_publ_section_title
;
Structure prediction by ZEFSAII (Michael W. Deem and Ramdas Pophale) SiO2 
 PCOD8135769
Probable space group: C 2/C
;
_chemical_formula_sum "Si O2"
_cell_formula_units_Z 52
_cell_length_a 14.934358
_cell_length_b 10.979358
_cell_length_c 15.952308
_cell_angle_alpha 90.000000
_cell_angle_beta 100.753913
_cell_angle_gamma 90.000000
_cell_volume 2569.756841
_symmetry_space_group_name_H-M "C 2/C"
_symmetry_group_IT_number 15
_symmetry_cell_setting 'monoclinic'
loop_
_space_group_symop_operation_xyz
x,y,z
-x,y,1/2-z
-x,-y,-z
x,-y,1/2+z
1/2+x,1/2+y,z
1/2-x,1/2+y,1/2-z
1/2-x,1/2-y,-z
1/2+x,1/2-y,1/2+z
loop_
_atom_site_type_symbol
_atom_site_label
_atom_site_fract_x
_atom_site_fract_y
_atom_site_fract_z
Si Si1 0.449419 0.258275 0.982160
Si Si2 0.812385 0.023787 0.461484
Si Si3 0.118243 0.199065 0.621933
Si Si4 0.720411 0.672983 0.415051
Si Si5 0.114567 0.574997 0.400286
Si Si6 0.500000 0.225273 0.250000
Si Si7 0.454694 0.814730 0.154018
O O1 0.389494 0.376427 0.990918
O O2 0.461388 0.238603 0.885293
O O3 0.550897 0.276469 0.033671
O O4 0.408598 0.136744 0.015381
O O5 0.838641 0.931731 0.391057
O O6 0.793544 0.963035 0.550234
O O7 0.722746 0.088029 0.409517
O O8 0.195837 0.306736 0.636390
O O9 0.063727 0.193058 0.700500
O O10 0.750000 0.750000 0.500000
O O11 0.627625 0.717717 0.354186
O O12 0.066657 0.642599 0.315619
O O13 0.084274 0.435229 0.397155
O O14 0.500000 0.845578 0.250000
#
# Coordination Sequence:
#
# PCOD8135769 Si02
#       7
#     8   8   8   8   8   4   8
#     4  11  23  39  65  96 123 168 213 267 313 382
#     4  11  21  41  68  94 128 165 220 260 319 386
#     4  10  20  41  67  87 130 170 215 252 321 388
#     4  10  19  39  68  91 120 174 215 250 319 389
#     4  11  22  42  63  91 129 167 219 262 313 381
#     4  10  24  40  60  98 128 166 218 268 314 366
#     4  12  23  40  64  97 128 167 219 267 316 379
#
# _framework density 20.235377
#
# number of rings (size 3 to 8) (size 9 to 14) (size 15 to 20)
#    0.000    1.231    6.923    1.385    0.000    2.462 
#    1.385    3.077    0.000    0.000    0.000    0.000 
#    0.000    0.000    0.000    0.000    0.000    0.000 
#
# Total GULP energy -322322.382259 kJ/mol
# GULP energy per Si atom -12397.014702 kJ/mol
# Density = 2.018932 g / cm^3
# Si number density = 20.235377 Si / 1000 Ang^3
#
#
#
# Elastic Constant Matrix: (Units=GPa)
#
#
# Indices 1 2 3 4 5 6 
#
# 1 150.2507 54.1520 58.8502 0.0000 -2.5473 0.0000
# 2 54.1520 66.8386 39.4398 0.0000 12.8489 0.0000
# 3 58.8502 39.4398 73.1878 0.0000 -17.8652 0.0000
# 4 0.0000 0.0000 0.0000 22.0442 0.0000 -25.6400
# 5 -2.5473 12.8489 -17.8652 0.0000 29.9891 0.0000
# 6 0.0000 0.0000 0.0000 -25.6400 0.0000 258.5317
#
#
#
# Elastic Compliance Matrix: (Units=1/GPa)
#
#
# Indices 1 2 3 4 5 6 
#
# 1 0.010888 -0.005081 -0.006155 0.000000 -0.000565 0.000000
# 2 -0.005081 0.041021 -0.026230 0.000000 -0.033633 0.000000
# 3 -0.006155 -0.026230 0.041380 0.000000 0.035367 0.000000
# 4 0.000000 0.000000 0.000000 0.051278 0.000000 0.005086
# 5 -0.000565 -0.033633 0.035367 0.000000 0.068776 0.000000
# 6 0.000000 0.000000 0.000000 0.005086 0.000000 0.004372
#
#
# Mechanical properties :
#
#
# Convention : Reuss Voigt Hill
#
# Bulk Modulus (GPa) = 54.47140 66.12900 60.30020
# Shear Modulus (GPa) = 16.73546 71.30203 44.01875
#
# Velocity S-wave (km/s) = 2.87895 5.94246 4.66911
# Velocity P-wave (km/s) = 6.16672 8.93502 7.67669
#
# Compressibility (1/GPa) = 0.01835826
#
# Stress axis : x y z
#
# Youngs Moduli (GPa) = 91.84527 24.37778 24.16600
#
# Poissons Ratio (x) = 0.12386 0.14874
# Poissons Ratio (y) = 0.46666 0.63387
# Poissons Ratio (z) = 0.56529 0.63943
#
# Static dielectric constant tensor:
#      x y z
#    x 4.327140 0.000000 -0.146050 
#    y 0.000000 3.686360 0.000000 
#    z -0.146050 0.000000 3.465670 
# 
# 
# High freq. dielectric constant tensor:
#      x y z
#    x 1.812730 0.000000 0.004200 
#    y 0.000000 1.778690 0.000000 
#    z 0.004200 0.000000 1.769080 
# 
# From -- ./inp_files/152690.got.cif
#   From: 2010.06.25/outbox.cif.g09.slc.cpg/sg15_77_cif.got.tgz:152690.got - 2010.06.28 07:06:18.
