data_PCOD8135716
_publ_section_title
;
Structure prediction by ZEFSAII (Michael W. Deem and Ramdas Pophale) SiO2 
 PCOD8135716
Probable space group: C 2/C
;
_chemical_formula_sum "Si O2"
_cell_formula_units_Z 64
_cell_length_a 11.573853
_cell_length_b 19.328852
_cell_length_c 17.423349
_cell_angle_alpha 90.000000
_cell_angle_beta 127.344858
_cell_angle_gamma 90.000000
_cell_volume 3098.718536
_symmetry_space_group_name_H-M "C 2/C"
_symmetry_group_IT_number 15
_symmetry_cell_setting 'monoclinic'
loop_
_space_group_symop_operation_xyz
x,y,z
-x,y,1/2-z
-x,-y,-z
x,-y,1/2+z
1/2+x,1/2+y,z
1/2-x,1/2+y,1/2-z
1/2-x,1/2-y,-z
1/2+x,1/2-y,1/2+z
loop_
_atom_site_type_symbol
_atom_site_label
_atom_site_fract_x
_atom_site_fract_y
_atom_site_fract_z
Si Si1 0.313246 0.585453 0.509629
Si Si2 0.860939 0.092006 0.833195
Si Si3 0.040897 0.342839 0.375695
Si Si4 0.648009 0.703475 0.099330
Si Si5 0.211637 0.646381 0.624087
Si Si6 0.323439 0.714124 0.938886
Si Si7 0.871105 0.786693 0.744176
Si Si8 0.641285 0.982423 0.338702
O O1 0.475021 0.562586 0.598461
O O2 0.315280 0.647351 0.448763
O O3 0.229290 0.607937 0.551393
O O4 0.225510 0.521345 0.440173
O O5 0.824771 0.118698 0.733384
O O6 0.848936 0.150726 0.891965
O O7 0.753015 0.030088 0.813544
O O8 0.198017 0.304704 0.452442
O O9 0.072576 0.411220 0.340809
O O10 0.956417 0.365488 0.418787
O O11 0.927535 0.292245 0.284969
O O12 0.744354 0.771781 0.123275
O O13 0.676589 0.673822 0.197029
O O14 0.479288 0.729767 0.038798
O O15 0.269485 0.779527 0.866847
O O16 0.000000 0.826724 0.750000
O O17 0.500000 0.025094 0.250000
#
# Coordination Sequence:
#
# PCOD8135716 Si02
#       8
#     8   8   8   8   8   8   8   8
#     4  11  25  37  56  91 127 160 194 236 311 370
#     4  10  19  39  65  84 106 157 209 251 287 351
#     4   9  17  32  62  88 108 141 206 253 297 335
#     4  10  21  36  55  87 125 159 197 238 301 368
#     4  11  20  38  61  87 116 158 208 244 282 365
#     4   9  16  31  57  87 110 144 194 253 299 333
#     4   9  16  30  55  84 110 145 193 247 291 338
#     4  11  20  40  63  85 115 151 199 261 306 354
#
# _framework density 20.653700000000001
#
# number of rings (size 3 to 8) (size 9 to 14) (size 15 to 20)
#    0.000    2.000    3.750    2.250    0.000    5.000 
#    2.250    1.250    0.000    3.000    0.000    0.000 
#    0.000    0.000    0.000    0.000    0.000    0.000 
#
# Total GULP energy -396561.731398 kJ/mol
# GULP energy per Si atom -12392.554106 kJ/mol
# Density = 2.060669 g / cm^3
# Si number density = 20.653700 Si / 1000 Ang^3
#
#
#
# Elastic Constant Matrix: (Units=GPa)
#
#
# Indices 1 2 3 4 5 6 
#
# 1 119.8506 22.5143 48.0143 0.0000 -11.3284 0.0000
# 2 22.5143 48.0424 31.6046 0.0000 -1.0202 0.0000
# 3 48.0143 31.6046 111.7532 0.0000 6.5836 0.0000
# 4 0.0000 0.0000 0.0000 24.4352 0.0000 3.7395
# 5 -11.3284 -1.0202 6.5836 0.0000 32.9904 0.0000
# 6 0.0000 0.0000 0.0000 3.7395 0.0000 15.4987
#
#
#
# Elastic Compliance Matrix: (Units=1/GPa)
#
#
# Indices 1 2 3 4 5 6 
#
# 1 0.010922 -0.002160 -0.004350 0.000000 0.004552 0.000000
# 2 -0.002160 0.026168 -0.006553 0.000000 0.001375 0.000000
# 3 -0.004350 -0.006553 0.012922 0.000000 -0.004275 0.000000
# 4 0.000000 0.000000 0.000000 0.042494 0.000000 -0.010253
# 5 0.004552 0.001375 -0.004275 0.000000 0.032771 0.000000
# 6 0.000000 0.000000 0.000000 -0.010253 0.000000 0.066995
#
#
# Mechanical properties :
#
#
# Convention : Reuss Voigt Hill
#
# Bulk Modulus (GPa) = 41.86665 53.76806 47.81735
# Shear Modulus (GPa) = 22.08860 26.41904 24.25382
#
# Velocity S-wave (km/s) = 3.27383 3.58039 3.43054
# Velocity P-wave (km/s) = 5.88263 6.57129 6.23648
#
# Compressibility (1/GPa) = 0.02388536
#
# Stress axis : x y z
#
# Youngs Moduli (GPa) = 91.55423 38.21522 77.38502
#
# Poissons Ratio (x) = 0.08256 0.33662
# Poissons Ratio (y) = 0.19779 0.50712
# Poissons Ratio (z) = 0.39826 0.25043
#
# Static dielectric constant tensor:
#      x y z
#    x 4.097530 0.000000 0.108540 
#    y 0.000000 3.311490 0.000000 
#    z 0.108540 0.000000 3.928840 
# 
# 
# High freq. dielectric constant tensor:
#      x y z
#    x 1.819320 0.000000 -0.002170 
#    y 0.000000 1.760800 0.000000 
#    z -0.002170 0.000000 1.814020 
# 
# From -- ./inp_files/200388.got.cif
#   From: 2010.06.25/outbox.cif.g09.slc.cpg/sg15_101_cif.got.tgz:200388.got - 2010.06.28 07:06:18.
