data_PCOD8135201
_publ_section_title
;
Structure prediction by ZEFSAII (Michael W. Deem and Ramdas Pophale) SiO2 
 PCOD8135201
Probable space group: C 2/C
;
_chemical_formula_sum "Si O2"
_cell_formula_units_Z 56
_cell_length_a 19.212046
_cell_length_b 12.001654
_cell_length_c 13.003177
_cell_angle_alpha 90.000000
_cell_angle_beta 115.244384
_cell_angle_gamma 90.000000
_cell_volume 2711.885207
_symmetry_space_group_name_H-M "C 2/C"
_symmetry_group_IT_number 15
_symmetry_cell_setting 'monoclinic'
loop_
_space_group_symop_operation_xyz
x,y,z
-x,y,1/2-z
-x,-y,-z
x,-y,1/2+z
1/2+x,1/2+y,z
1/2-x,1/2+y,1/2-z
1/2-x,1/2-y,-z
1/2+x,1/2-y,1/2+z
loop_
_atom_site_type_symbol
_atom_site_label
_atom_site_fract_x
_atom_site_fract_y
_atom_site_fract_z
Si Si1 0.178248 0.810878 0.003323
Si Si2 0.917692 0.779741 0.241038
Si Si3 0.262758 0.061485 0.723676
Si Si4 0.900385 0.422117 0.434604
Si Si5 0.322620 0.522343 0.632438
Si Si6 0.561525 0.829252 0.537657
Si Si7 0.683876 0.099137 0.416748
O O1 0.203253 0.855740 0.131377
O O2 0.109428 0.720474 0.971104
O O3 0.250000 0.750000 0.000000
O O4 0.152768 0.911027 0.912258
O O5 0.900502 0.908667 0.203813
O O6 0.923940 0.761819 0.365979
O O7 0.843423 0.715329 0.148628
O O8 0.000000 0.741295 0.250000
O O9 0.329104 0.130336 0.826266
O O10 0.217328 0.991002 0.783188
O O11 0.308160 0.987706 0.670295
O O12 0.911969 0.549704 0.405309
O O13 0.883900 0.432737 0.546018
O O14 0.971518 0.341124 0.453366
O O15 0.265456 0.599562 0.527504
#
# Coordination Sequence:
#
# PCOD8135201 Si02
#       7
#     8   8   8   8   8   8   8
#     4  11  23  42  65  94 126 169 215 271 319 378
#     4  12  22  39  62  92 128 173 208 262 322 381
#     4  10  19  37  64  95 127 165 212 267 315 377
#     4  10  21  37  62 100 125 165 209 264 321 390
#     4  10  23  39  62  91 128 169 219 256 317 389
#     4  11  21  39  63  90 136 162 209 264 328 371
#     4  10  20  36  62  95 122 161 216 264 312 378
#
# _framework density 20.649842
#
# number of rings (size 3 to 8) (size 9 to 14) (size 15 to 20)
#    0.000    1.429    4.286    3.000    0.000    0.000 
#    0.000    4.286    0.000    0.000    0.000    0.000 
#    0.000    0.000    0.000    0.000    0.000    0.000 
#
# Total GULP energy -346989.670276 kJ/mol
# GULP energy per Si atom -12392.488224 kJ/mol
# Density = 2.060284 g / cm^3
# Si number density = 20.649842 Si / 1000 Ang^3
#
#
#
# Elastic Constant Matrix: (Units=GPa)
#
#
# Indices 1 2 3 4 5 6 
#
# 1 117.6452 42.6484 40.9528 0.0000 -7.2948 0.0000
# 2 42.6484 92.6817 37.2753 0.0000 9.7753 0.0000
# 3 40.9528 37.2753 95.3349 0.0000 -8.1426 0.0000
# 4 0.0000 0.0000 0.0000 16.7936 0.0000 0.6749
# 5 -7.2948 9.7753 -8.1426 0.0000 22.2066 0.0000
# 6 0.0000 0.0000 0.0000 0.6749 0.0000 44.0362
#
#
#
# Elastic Compliance Matrix: (Units=1/GPa)
#
#
# Indices 1 2 3 4 5 6 
#
# 1 0.011431 -0.004703 -0.002657 0.000000 0.004851 0.000000
# 2 -0.004703 0.016160 -0.005200 0.000000 -0.010565 0.000000
# 3 -0.002657 -0.005200 0.014231 0.000000 0.006634 0.000000
# 4 0.000000 0.000000 0.000000 0.059583 0.000000 -0.000913
# 5 0.004851 -0.010565 0.006634 0.000000 0.053709 0.000000
# 6 0.000000 0.000000 0.000000 -0.000913 0.000000 0.022723
#
#
# Mechanical properties :
#
#
# Convention : Reuss Voigt Hill
#
# Bulk Modulus (GPa) = 59.88006 60.82386 60.35196
# Shear Modulus (GPa) = 23.97814 28.92629 26.45222
#
# Velocity S-wave (km/s) = 3.41130 3.74679 3.58297
# Velocity P-wave (km/s) = 6.67658 6.94526 6.81225
#
# Compressibility (1/GPa) = 0.01670005
#
# Stress axis : x y z
#
# Youngs Moduli (GPa) = 87.48298 61.88270 70.27038
#
# Poissons Ratio (x) = 0.29103 0.18672
# Poissons Ratio (y) = 0.41143 0.36544
# Poissons Ratio (z) = 0.23246 0.32182
#
# Static dielectric constant tensor:
#      x y z
#    x 3.774390 0.000000 -0.056230 
#    y 0.000000 3.890040 0.000000 
#    z -0.056230 0.000000 3.913060 
# 
# 
# High freq. dielectric constant tensor:
#      x y z
#    x 1.812360 0.000000 -0.010620 
#    y 0.000000 1.781500 0.000000 
#    z -0.010620 0.000000 1.810980 
# 
# From -- ./inp_files/111675.got.cif
#   From: 2010.06.25/outbox.cif.g09.slc.cpg/sg15_56_cif.got.tgz:111675.got - 2010.06.28 07:06:18.
