data_PCOD8135071
_publ_section_title
;
Structure prediction by ZEFSAII (Michael W. Deem and Ramdas Pophale) SiO2 
 PCOD8135071
Probable space group: C 2/C
;
_chemical_formula_sum "Si O2"
_cell_formula_units_Z 56
_cell_length_a 17.463871
_cell_length_b 14.375284
_cell_length_c 20.411484
_cell_angle_alpha 90.000000
_cell_angle_beta 32.777733
_cell_angle_gamma 90.000000
_cell_volume 2774.181929
_symmetry_space_group_name_H-M "C 2/C"
_symmetry_group_IT_number 15
_symmetry_cell_setting 'monoclinic'
loop_
_space_group_symop_operation_xyz
x,y,z
-x,y,1/2-z
-x,-y,-z
x,-y,1/2+z
1/2+x,1/2+y,z
1/2-x,1/2+y,1/2-z
1/2-x,1/2-y,-z
1/2+x,1/2-y,1/2+z
loop_
_atom_site_type_symbol
_atom_site_label
_atom_site_fract_x
_atom_site_fract_y
_atom_site_fract_z
Si Si1 0.147297 0.184554 0.365740
Si Si2 0.227601 0.604312 0.093985
Si Si3 0.000000 0.746459 0.250000
Si Si4 0.531546 0.399478 0.826108
Si Si5 0.147298 0.815446 0.365741
Si Si6 0.531546 0.399478 0.326107
Si Si7 0.227601 0.604312 0.593985
Si Si8 0.000000 0.253540 0.250000
O O1 0.238078 0.137365 0.357162
O O2 0.096776 0.105384 0.351559
O O3 0.249999 0.249999 0.250000
O O4 0.000001 0.231904 0.500000
O O5 0.120288 0.676685 0.136492
O O6 0.163347 0.500000 0.143752
O O7 0.362696 0.604489 0.950472
O O8 0.075907 0.812279 0.249365
O O9 0.577799 0.500000 0.762876
O O10 0.575908 0.312280 0.749364
O O11 0.362696 0.395511 0.950472
O O12 0.096779 0.894615 0.351557
O O13 0.238076 0.862634 0.357164
O O14 0.120289 0.676685 0.636491
#
# Coordination Sequence:
#
# PCOD8135071 Si02
#       8
#     8   8   4   8   8   8   8   4
#     4  10  19  37  61  82 108 146 191 235 273 326
#     4  10  21  36  56  81 109 147 189 226 273 333
#     4  12  20  34  56  80 116 142 176 236 282 324
#     4  10  21  36  56  81 109 147 189 226 273 333
#     4  10  19  37  61  82 108 146 191 235 273 326
#     4  10  21  36  56  81 109 147 189 226 273 333
#     4  10  21  36  56  81 109 147 189 226 273 333
#     4  12  20  34  56  80 116 142 176 236 282 324
#
# _framework density 20.186131
#
# number of rings (size 3 to 8) (size 9 to 14) (size 15 to 20)
#    0.000    1.714    2.857    2.571    0.000    3.429 
#    0.000    0.000    0.000    6.857    0.000    0.000 
#    0.000    0.000    0.000    0.000    0.000    0.000 
#
# Total GULP energy -346885.949208 kJ/mol
# GULP energy per Si atom -12388.783900 kJ/mol
# Density = 2.014019 g / cm^3
# Si number density = 20.186131 Si / 1000 Ang^3
#
#
#
# Elastic Constant Matrix: (Units=GPa)
#
#
# Indices 1 2 3 4 5 6 
#
# 1 41.7682 13.8997 -8.3828 0.0000 1.9625 0.0000
# 2 13.8997 147.1788 41.8723 0.0002 -4.9352 0.0000
# 3 -8.3828 41.8723 71.4179 0.0007 -2.3514 -0.0001
# 4 0.0000 0.0002 0.0007 25.2261 -0.0001 1.8011
# 5 1.9625 -4.9352 -2.3514 -0.0001 27.0716 0.0000
# 6 0.0000 0.0000 -0.0001 1.8011 0.0000 21.3411
#
#
#
# Elastic Compliance Matrix: (Units=1/GPa)
#
#
# Indices 1 2 3 4 5 6 
#
# 1 0.026517 -0.004132 0.005463 0.000000 -0.002201 0.000000
# 2 -0.004132 0.008830 -0.005615 0.000000 0.001422 0.000000
# 3 0.005463 -0.005615 0.017940 0.000000 0.000139 0.000000
# 4 0.000000 0.000000 0.000000 0.039882 0.000000 -0.003366
# 5 -0.002201 0.001422 0.000139 0.000000 0.037370 0.000000
# 6 0.000000 0.000000 0.000000 -0.003366 0.000000 0.047142
#
#
# Mechanical properties :
#
#
# Convention : Reuss Voigt Hill
#
# Bulk Modulus (GPa) = 22.36286 39.46037 30.91161
# Shear Modulus (GPa) = 24.85644 28.92615 26.89129
#
# Velocity S-wave (km/s) = 3.51288 3.78957 3.65385
# Velocity P-wave (km/s) = 5.24940 6.22402 5.75737
#
# Compressibility (1/GPa) = 0.04471701
#
# Stress axis : x y z
#
# Youngs Moduli (GPa) = 37.71232 113.25180 55.74134
#
# Poissons Ratio (x) = 0.46798 -0.30449
# Poissons Ratio (y) = 0.15583 0.31300
# Poissons Ratio (z) = -0.20601 0.63593
#
# Static dielectric constant tensor:
#      x y z
#    x 3.676270 0.000000 -0.097790 
#    y 0.000000 3.807870 0.000000 
#    z -0.097790 0.000000 3.599730 
# 
# 
# High freq. dielectric constant tensor:
#      x y z
#    x 1.787860 0.000000 -0.003680 
#    y 0.000000 1.791590 0.000000 
#    z -0.003680 0.000000 1.769890 
# 
# From -- ./inp_files/111101.got.cif
#   From: 2010.06.25/outbox.cif.g09.slc.cpg/sg15_56_cif.got.tgz:111101.got - 2010.06.28 07:06:18.
