data_PCOD8135434
_publ_section_title
;
Structure prediction by ZEFSAII (Michael W. Deem and Ramdas Pophale) SiO2 
 PCOD8135434
Probable space group: C 2/C
;
_chemical_formula_sum "Si O2"
_cell_formula_units_Z 64
_cell_length_a 19.079565
_cell_length_b 18.160624
_cell_length_c 18.551264
_cell_angle_alpha 90.000000
_cell_angle_beta 151.637281
_cell_angle_gamma 90.000000
_cell_volume 3053.610614
_symmetry_space_group_name_H-M "C 2/C"
_symmetry_group_IT_number 15
_symmetry_cell_setting 'monoclinic'
loop_
_space_group_symop_operation_xyz
x,y,z
-x,y,1/2-z
-x,-y,-z
x,-y,1/2+z
1/2+x,1/2+y,z
1/2-x,1/2+y,1/2-z
1/2-x,1/2-y,-z
1/2+x,1/2-y,1/2+z
loop_
_atom_site_type_symbol
_atom_site_label
_atom_site_fract_x
_atom_site_fract_y
_atom_site_fract_z
Si Si1 0.342699 0.951420 0.577913
Si Si2 0.163571 0.372774 0.425214
Si Si3 0.134658 0.314482 0.552477
Si Si4 0.611221 0.431677 0.478612
Si Si5 0.789629 0.915474 0.190901
Si Si6 0.678231 0.574179 0.207589
Si Si7 0.795887 0.673477 0.758930
Si Si8 0.882557 0.901367 0.509184
O O1 0.500000 0.927412 0.750000
O O2 0.234894 0.906020 0.534247
O O3 0.316030 0.924026 0.472855
O O4 0.329514 0.039326 0.562571
O O5 0.200381 0.332002 0.533064
O O6 0.303284 0.350772 0.499503
O O7 0.000000 0.348747 0.250000
O O8 0.172105 0.382570 0.638974
O O9 0.192421 0.239716 0.639357
O O10 0.960708 0.307546 0.387484
O O11 0.456330 0.392210 0.320125
O O12 0.653059 0.421322 0.599639
O O13 0.596722 0.516799 0.444564
O O14 0.719479 0.847148 0.171132
O O15 0.805970 0.990238 0.252706
O O16 0.546196 0.620503 0.128578
O O17 0.736066 0.601031 0.663340
#
# Coordination Sequence:
#
# PCOD8135434 Si02
#       8
#     8   8   8   8   8   8   8   8
#     4  10  22  36  62 102 136 160 210 271 333 388
#     4  10  20  39  60  90 135 175 212 261 316 388
#     4  12  27  42  61  90 131 175 225 271 326 384
#     4  10  20  36  65  97 132 163 209 267 328 391
#     4  11  21  40  67  97 129 172 213 276 333 386
#     4  11  21  39  66  99 125 171 223 268 330 387
#     4  12  25  42  64  90 129 174 227 272 321 384
#     4  10  19  38  62  92 129 167 213 264 311 387
#
# _framework density 20.958794000000001
#
# number of rings (size 3 to 8) (size 9 to 14) (size 15 to 20)
#    0.000    1.250    5.000    1.875    1.750    1.500 
#    0.000    0.000    0.000    0.750    0.000    0.000 
#    0.000    0.000    0.000    0.000    0.000    0.000 
#
# Total GULP energy -396499.027847 kJ/mol
# GULP energy per Si atom -12390.594620 kJ/mol
# Density = 2.091109 g / cm^3
# Si number density = 20.958794 Si / 1000 Ang^3
#
#
#
# Elastic Constant Matrix: (Units=GPa)
#
#
# Indices 1 2 3 4 5 6 
#
# 1 117.5889 35.4821 42.2443 -0.0150 -7.1005 -0.0139
# 2 35.4821 36.3797 24.3851 -0.0078 0.3994 -0.0078
# 3 42.2443 24.3851 101.5973 -0.0083 -18.0034 -0.0090
# 4 -0.0150 -0.0078 -0.0083 26.6807 -0.0042 -10.0617
# 5 -7.1005 0.3994 -18.0034 -0.0042 36.0360 -0.0026
# 6 -0.0139 -0.0078 -0.0090 -10.0617 -0.0026 17.0756
#
#
#
# Elastic Compliance Matrix: (Units=1/GPa)
#
#
# Indices 1 2 3 4 5 6 
#
# 1 0.012723 -0.010779 -0.002455 0.000007 0.001400 0.000008
# 2 -0.010779 0.042635 -0.006814 0.000007 -0.006001 0.000011
# 3 -0.002455 -0.006814 0.013634 0.000004 0.006403 0.000005
# 4 0.000007 0.000007 0.000004 0.048188 0.000011 0.028395
# 5 0.001400 -0.006001 0.006403 0.000011 0.031291 0.000013
# 6 0.000008 0.000011 0.000005 0.028395 0.000013 0.075294
#
#
# Mechanical properties :
#
#
# Convention : Reuss Voigt Hill
#
# Bulk Modulus (GPa) = 34.60878 51.08768 42.84823
# Shear Modulus (GPa) = 18.28188 26.18875 22.23531
#
# Velocity S-wave (km/s) = 2.95664 3.53871 3.26069
# Velocity P-wave (km/s) = 5.31077 6.41287 5.88766
#
# Compressibility (1/GPa) = 0.02889440
#
# Stress axis : x y z
#
# Youngs Moduli (GPa) = 78.59577 23.45511 73.34663
#
# Poissons Ratio (x) = 0.25283 0.18008
# Poissons Ratio (y) = 0.84719 0.49982
# Poissons Ratio (z) = 0.19296 0.15983
#
# Static dielectric constant tensor:
#      x y z
#    x 4.114100 -0.000010 0.167580 
#    y -0.000010 3.387300 -0.000010 
#    z 0.167580 -0.000010 4.007510 
# 
# 
# High freq. dielectric constant tensor:
#      x y z
#    x 1.829620 0.000000 0.002540 
#    y 0.000000 1.773300 0.000000 
#    z 0.002540 0.000000 1.832090 
# 
# From -- ./inp_files/211981.got.cif
#   From: 2010.06.25/outbox.cif.g09.slc.cpg/sg15_106_cif.got.tgz:211981.got - 2010.06.28 07:06:18.
