data_PCOD8135988
_publ_section_title
;
Structure prediction by ZEFSAII (Michael W. Deem and Ramdas Pophale) SiO2 
 PCOD8135988
Probable space group: C 2/C
;
_chemical_formula_sum "Si O2"
_cell_formula_units_Z 48
_cell_length_a 12.908934
_cell_length_b 6.281605
_cell_length_c 22.166744
_cell_angle_alpha 90.000000
_cell_angle_beta 69.632033
_cell_angle_gamma 90.000000
_cell_volume 1685.091171
_symmetry_space_group_name_H-M "C 2/C"
_symmetry_group_IT_number 15
_symmetry_cell_setting 'monoclinic'
loop_
_space_group_symop_operation_xyz
x,y,z
-x,y,1/2-z
-x,-y,-z
x,-y,1/2+z
1/2+x,1/2+y,z
1/2-x,1/2+y,1/2-z
1/2-x,1/2-y,-z
1/2+x,1/2-y,1/2+z
loop_
_atom_site_type_symbol
_atom_site_label
_atom_site_fract_x
_atom_site_fract_y
_atom_site_fract_z
Si Si1 0.138539 0.033460 0.329923
Si Si2 0.042968 0.595474 0.126804
Si Si3 0.549857 0.534394 0.054646
Si Si4 0.844309 0.191936 0.790855
Si Si5 0.819680 0.609733 0.121455
Si Si6 0.209883 0.505758 0.002446
O O1 0.091847 0.905768 0.280230
O O2 0.188925 0.865437 0.368589
O O3 0.036831 0.161475 0.383334
O O4 0.235243 0.187465 0.288199
O O5 0.053921 0.805771 0.084566
O O6 0.078510 0.643062 0.188569
O O7 0.914756 0.522261 0.148736
O O8 0.129001 0.437868 0.074791
O O9 0.674296 0.633149 0.021750
O O10 0.500000 0.500000 0.000000
O O11 0.799320 0.999511 0.841715
O O12 0.854940 0.539248 0.046867
O O13 0.250000 0.750000 0.000000
#
# Coordination Sequence:
#
# PCOD8135988 Si02
#       6
#     8   8   8   8   8   8
#     4  11  26  44  73 105 139 194 242 300 369 445
#     4  10  23  42  74 103 142 189 234 298 367 435
#     4  10  21  39  67 102 140 182 235 293 362 424
#     4  12  23  49  73 100 151 183 245 307 362 438
#     4  11  23  45  70 104 142 190 237 293 369 435
#     4  10  19  41  70  99 140 189 226 295 366 416
#
# _framework density 28.485105000000001
#
# number of rings (size 3 to 8) (size 9 to 14) (size 15 to 20)
#    0.000    1.333    5.000    1.500    2.333    2.667 
#    3.000    4.167    0.000    0.000    0.000    0.000 
#    0.000    0.000    0.000    0.000    0.000    0.000 
#
# Total GULP energy -297443.458453 kJ/mol
# GULP energy per Si atom -12393.477436 kJ/mol
# Density = 2.842027 g / cm^3
# Si number density = 28.485105 Si / 1000 Ang^3
#
#
#
# Elastic Constant Matrix: (Units=GPa)
#
#
# Indices 1 2 3 4 5 6 
#
# 1 151.8459 -9.0321 55.5964 -0.0001 -10.7556 -0.0001
# 2 -9.0321 41.3758 -11.7464 -0.0003 -10.9721 -0.0004
# 3 55.5964 -11.7464 173.5929 -0.0001 -0.8345 -0.0001
# 4 -0.0001 -0.0003 -0.0001 44.6510 -0.0001 -1.7414
# 5 -10.7556 -10.9721 -0.8345 -0.0001 57.4731 -0.0001
# 6 -0.0001 -0.0004 -0.0001 -1.7414 -0.0001 38.4433
#
#
#
# Elastic Compliance Matrix: (Units=1/GPa)
#
#
# Indices 1 2 3 4 5 6 
#
# 1 0.007648 0.001448 -0.002343 0.000000 0.001674 0.000000
# 2 0.001448 0.026272 0.001339 0.000000 0.005306 0.000000
# 3 -0.002343 0.001339 0.006601 0.000000 -0.000087 0.000000
# 4 0.000000 0.000000 0.000000 0.022436 0.000000 0.001016
# 5 0.001674 0.005306 -0.000087 0.000000 0.018724 0.000000
# 6 0.000000 0.000000 0.000000 0.001016 0.000000 0.026058
#
#
# Mechanical properties :
#
#
# Convention : Reuss Voigt Hill
#
# Bulk Modulus (GPa) = 24.14871 48.49450 36.32160
# Shear Modulus (GPa) = 41.44037 50.24661 45.84349
#
# Velocity S-wave (km/s) = 3.81833 4.20451 4.01607
# Velocity P-wave (km/s) = 5.28542 6.37432 5.85524
#
# Compressibility (1/GPa) = 0.04141008
#
# Stress axis : x y z
#
# Youngs Moduli (GPa) = 130.74697 38.06310 151.48370
#
# Poissons Ratio (x) = -0.05512 0.35500
# Poissons Ratio (y) = -0.18934 -0.20290
# Poissons Ratio (z) = 0.30641 -0.05098
#
# Static dielectric constant tensor:
#      x y z
#    x 6.808240 0.000000 -1.222440 
#    y 0.000000 5.197720 0.000010 
#    z -1.222440 0.000010 11.152720 
# 
# 
# High freq. dielectric constant tensor:
#      x y z
#    x 2.158760 0.000000 -0.019720 
#    y 0.000000 2.164200 0.000000 
#    z -0.019720 0.000000 2.158270 
# 
# From -- ./inp_files/267671.got.cif
#   From: 2010.06.25/outbox.cif.g09.slc.cpg/sg15_134_cif.got.tgz:267671.got - 2010.06.28 07:06:18.
