data_PCOD8135979
_publ_section_title
;
Structure prediction by ZEFSAII (Michael W. Deem and Ramdas Pophale) SiO2 
 PCOD8135979
Probable space group: C 2/C
;
_chemical_formula_sum "Si O2"
_cell_formula_units_Z 64
_cell_length_a 21.610497
_cell_length_b 8.971609
_cell_length_c 18.939569
_cell_angle_alpha 90.000000
_cell_angle_beta 121.279539
_cell_angle_gamma 90.000000
_cell_volume 3138.272030
_symmetry_space_group_name_H-M "C 2/C"
_symmetry_group_IT_number 15
_symmetry_cell_setting 'monoclinic'
loop_
_space_group_symop_operation_xyz
x,y,z
-x,y,1/2-z
-x,-y,-z
x,-y,1/2+z
1/2+x,1/2+y,z
1/2-x,1/2+y,1/2-z
1/2-x,1/2-y,-z
1/2+x,1/2-y,1/2+z
loop_
_atom_site_type_symbol
_atom_site_label
_atom_site_fract_x
_atom_site_fract_y
_atom_site_fract_z
Si Si1 0.807433 0.400600 0.975649
Si Si2 0.173416 0.407182 0.348181
Si Si3 0.910833 0.907776 0.318268
Si Si4 0.961198 0.562248 0.546103
Si Si5 0.953675 0.396619 0.786437
Si Si6 0.173766 0.909325 0.092439
Si Si7 0.350463 0.585748 0.156527
Si Si8 0.946607 0.903331 0.576825
O O1 0.810930 0.253556 0.930448
O O2 0.727965 0.473237 0.918734
O O3 0.819974 0.365379 0.065207
O O4 0.877590 0.499156 0.994016
O O5 0.112367 0.521046 0.290138
O O6 0.247408 0.486489 0.365105
O O7 0.157060 0.243086 0.305666
O O8 0.930753 0.735011 0.324374
O O9 0.848992 0.915014 0.340116
O O10 0.877750 0.960260 0.225319
O O11 0.980234 0.003598 0.380890
O O12 0.961598 0.741959 0.550482
O O13 0.000000 0.500000 0.500000
O O14 0.000375 0.511858 0.640537
O O15 0.000000 0.327981 0.750000
O O16 0.111612 0.987686 0.008250
O O17 0.412173 0.605444 0.133839
#
# Coordination Sequence:
#
# PCOD8135979 Si02
#       8
#     8   8   8   8   8   8   8   8
#     4  10  19  41  69  91 117 160 219 260 303 379
#     4  11  20  40  72  88 114 162 222 263 300 369
#     4  12  27  38  57  96 137 165 199 259 320 375
#     4  11  23  39  67  98 122 159 210 263 317 363
#     4  12  23  40  59  92 131 163 203 261 315 367
#     4  10  21  39  64  93 120 160 210 264 312 360
#     4  11  20  40  68  93 114 167 220 253 304 381
#     4  11  20  42  66  87 125 168 212 248 306 392
#
# _framework density 20.393388000000002
#
# number of rings (size 3 to 8) (size 9 to 14) (size 15 to 20)
#    0.000    1.000    5.000    4.500    0.000    3.000 
#    0.000    3.125    0.000    0.000    0.000    0.000 
#    0.000    0.000    0.000    0.000    0.000    0.000 
#
# Total GULP energy -396605.720487 kJ/mol
# GULP energy per Si atom -12393.928765 kJ/mol
# Density = 2.034697 g / cm^3
# Si number density = 20.393388 Si / 1000 Ang^3
#
#
#
# Elastic Constant Matrix: (Units=GPa)
#
#
# Indices 1 2 3 4 5 6 
#
# 1 156.3427 30.0024 41.0029 0.0000 -0.1702 0.0000
# 2 30.0024 61.0073 23.1164 0.0000 9.4856 0.0000
# 3 41.0029 23.1164 76.3066 0.0000 5.5366 0.0000
# 4 0.0000 0.0000 0.0000 21.0651 0.0000 -10.7509
# 5 -0.1702 9.4856 5.5366 0.0000 39.3290 0.0000
# 6 0.0000 0.0000 0.0000 -10.7509 0.0000 17.3192
#
#
#
# Elastic Compliance Matrix: (Units=1/GPa)
#
#
# Indices 1 2 3 4 5 6 
#
# 1 0.007829 -0.002719 -0.003469 0.000000 0.001178 0.000000
# 2 -0.002719 0.020014 -0.004295 0.000000 -0.004234 0.000000
# 3 -0.003469 -0.004295 0.016363 0.000000 -0.001283 0.000000
# 4 0.000000 0.000000 0.000000 0.069486 0.000000 0.043133
# 5 0.001178 -0.004234 -0.001283 0.000000 0.026633 0.000000
# 6 0.000000 0.000000 0.000000 0.043133 0.000000 0.084514
#
#
# Mechanical properties :
#
#
# Convention : Reuss Voigt Hill
#
# Bulk Modulus (GPa) = 43.02681 53.54443 48.28562
# Shear Modulus (GPa) = 19.71986 28.84501 24.28243
#
# Velocity S-wave (km/s) = 3.11299 3.76497 3.45440
# Velocity P-wave (km/s) = 5.83654 6.72404 6.29595
#
# Compressibility (1/GPa) = 0.02324132
#
# Stress axis : x y z
#
# Youngs Moduli (GPa) = 127.73095 49.96408 61.11336
#
# Poissons Ratio (x) = 0.13585 0.21198
# Poissons Ratio (y) = 0.34730 0.26248
# Poissons Ratio (z) = 0.44305 0.21459
#
# Static dielectric constant tensor:
#      x y z
#    x 4.232190 0.000000 0.364260 
#    y 0.000000 3.363320 0.000000 
#    z 0.364260 0.000000 3.913460 
# 
# 
# High freq. dielectric constant tensor:
#      x y z
#    x 1.822180 0.000000 0.012630 
#    y 0.000000 1.757020 0.000000 
#    z 0.012630 0.000000 1.806490 
# 
# From -- ./inp_files/251912.got.cif
#   From: 2010.06.25/outbox.cif.g09.slc.cpg/sg15_126_cif.got.tgz:251912.got - 2010.06.28 07:06:18.
