data_PCOD8135094
_publ_section_title
;
Structure prediction by ZEFSAII (Michael W. Deem and Ramdas Pophale) SiO2 
 PCOD8135094
Probable space group: C 2/C
;
_chemical_formula_sum "Si O2"
_cell_formula_units_Z 48
_cell_length_a 9.236495
_cell_length_b 14.130194
_cell_length_c 18.184737
_cell_angle_alpha 90.000000
_cell_angle_beta 80.094556
_cell_angle_gamma 90.000000
_cell_volume 2337.973450
_symmetry_space_group_name_H-M "C 2/C"
_symmetry_group_IT_number 15
_symmetry_cell_setting 'monoclinic'
loop_
_space_group_symop_operation_xyz
x,y,z
-x,y,1/2-z
-x,-y,-z
x,-y,1/2+z
1/2+x,1/2+y,z
1/2-x,1/2+y,1/2-z
1/2-x,1/2-y,-z
1/2+x,1/2-y,1/2+z
loop_
_atom_site_type_symbol
_atom_site_label
_atom_site_fract_x
_atom_site_fract_y
_atom_site_fract_z
Si Si1 0.644597 0.020009 0.035340
Si Si2 0.368417 0.795131 0.865130
Si Si3 0.718291 0.405327 0.357487
Si Si4 0.303543 0.787610 0.711294
Si Si5 0.621255 0.597343 0.591216
Si Si6 0.163826 0.975924 0.724324
O O1 0.628046 0.111477 0.087373
O O2 0.670371 0.930040 0.086016
O O3 0.790707 0.033380 0.974087
O O4 0.500000 0.000000 0.000000
O O5 0.263657 0.797901 0.802003
O O6 0.526424 0.773034 0.817859
O O7 0.323997 0.706087 0.920202
O O8 0.770964 0.303736 0.320721
O O9 0.553767 0.408709 0.405517
O O10 0.735308 0.485438 0.293274
O O11 0.251699 0.887470 0.681300
O O12 0.662854 0.563862 0.669231
O O13 0.000000 0.937727 0.750000
#
# Coordination Sequence:
#
# PCOD8135094 Si02
#       6
#     8   8   8   8   8   8
#     4  12  24  40  57  96 130 158 192 249 316 357
#     4  10  20  37  64  85 118 160 203 247 297 361
#     4  10  21  40  64  86 118 163 207 241 294 363
#     4  10  19  38  61  91 115 155 207 254 297 345
#     4  10  21  40  63  86 118 164 203 245 296 370
#     4  10  19  37  61  89 117 153 208 255 293 350
#
# _framework density 20.5306
#
# number of rings (size 3 to 8) (size 9 to 14) (size 15 to 20)
#    0.000    1.667    3.333    2.000    0.000    0.000 
#    3.000    9.167    0.000    0.000    0.000    0.000 
#    0.000    0.000    0.000    0.000    0.000    0.000 
#
# Total GULP energy -297494.889670 kJ/mol
# GULP energy per Si atom -12395.620403 kJ/mol
# Density = 2.048387 g / cm^3
# Si number density = 20.530600 Si / 1000 Ang^3
#
#
#
# Elastic Constant Matrix: (Units=GPa)
#
#
# Indices 1 2 3 4 5 6 
#
# 1 54.8973 42.3308 40.7164 0.0000 19.9199 0.0000
# 2 42.3308 135.2030 44.3183 0.0000 10.5091 0.0000
# 3 40.7164 44.3183 101.5274 0.0000 18.3497 0.0000
# 4 0.0000 0.0000 0.0000 24.2063 0.0000 -0.5348
# 5 19.9199 10.5091 18.3497 0.0000 32.6054 0.0000
# 6 0.0000 0.0000 0.0000 -0.5348 0.0000 25.0882
#
#
#
# Elastic Compliance Matrix: (Units=1/GPa)
#
#
# Indices 1 2 3 4 5 6 
#
# 1 0.035196 -0.007148 -0.008377 0.000000 -0.014485 0.000000
# 2 -0.007148 0.010099 -0.001940 0.000000 0.002204 0.000000
# 3 -0.008377 -0.001940 0.014492 0.000000 -0.002413 0.000000
# 4 0.000000 0.000000 0.000000 0.041331 0.000000 0.000881
# 5 -0.014485 0.002204 -0.002413 0.000000 0.040167 0.000000
# 6 0.000000 0.000000 0.000000 0.000881 0.000000 0.039878
#
#
# Mechanical properties :
#
#
# Convention : Reuss Voigt Hill
#
# Bulk Modulus (GPa) = 40.22960 60.70653 50.46807
# Shear Modulus (GPa) = 22.28375 27.33079 24.80727
#
# Velocity S-wave (km/s) = 3.29810 3.65255 3.47984
# Velocity P-wave (km/s) = 5.84301 6.88630 6.38600
#
# Compressibility (1/GPa) = 0.02485732
#
# Stress axis : x y z
#
# Youngs Moduli (GPa) = 28.41195 99.02116 69.00356
#
# Poissons Ratio (x) = 0.70779 0.57805
# Poissons Ratio (y) = 0.20309 0.13387
# Poissons Ratio (z) = 0.23801 0.19210
#
# Static dielectric constant tensor:
#      x y z
#    x 3.505760 0.000000 -0.011110 
#    y 0.000000 3.752290 0.000000 
#    z -0.011110 0.000000 3.763340 
# 
# 
# High freq. dielectric constant tensor:
#      x y z
#    x 1.775580 0.000000 0.001990 
#    y 0.000000 1.815150 0.000000 
#    z 0.001990 0.000000 1.801400 
# 
# From -- ./inp_files/189220.got.cif
#   From: 2010.06.25/outbox.cif.g09.slc.cpg/sg15_95_cif.got.tgz:189220.got - 2010.06.28 07:06:18.
