data_PCOD8135159
_publ_section_title
;
Structure prediction by ZEFSAII (Michael W. Deem and Ramdas Pophale) SiO2 
 PCOD8135159
Probable space group: C 2/C
;
_chemical_formula_sum "Si O2"
_cell_formula_units_Z 44
_cell_length_a 15.909332
_cell_length_b 19.419448
_cell_length_c 6.508974
_cell_angle_alpha 90.000000
_cell_angle_beta 120.062922
_cell_angle_gamma 90.000000
_cell_volume 1740.428888
_symmetry_space_group_name_H-M "C 2/C"
_symmetry_group_IT_number 15
_symmetry_cell_setting 'monoclinic'
loop_
_space_group_symop_operation_xyz
x,y,z
-x,y,1/2-z
-x,-y,-z
x,-y,1/2+z
1/2+x,1/2+y,z
1/2-x,1/2+y,1/2-z
1/2-x,1/2-y,-z
1/2+x,1/2-y,1/2+z
loop_
_atom_site_type_symbol
_atom_site_label
_atom_site_fract_x
_atom_site_fract_y
_atom_site_fract_z
Si Si1 0.137443 0.596964 0.869996
Si Si2 0.500000 0.212467 0.750000
Si Si3 0.655073 0.584237 0.275206
Si Si4 0.900995 0.445911 0.725561
Si Si5 0.308011 0.570941 0.639087
Si Si6 0.471643 0.337115 0.454396
O O1 0.252897 0.603452 0.964977
O O2 0.119341 0.594225 0.092296
O O3 0.081632 0.666088 0.734957
O O4 0.090326 0.527916 0.712041
O O5 0.454770 0.259769 0.513585
O O6 0.638518 0.502862 0.284244
O O7 0.685163 0.600754 0.079864
O O8 0.558646 0.629121 0.200155
O O9 0.808586 0.433972 0.452972
O O10 0.000000 0.416724 0.750000
O O11 0.371488 0.619697 0.867839
O O12 0.500000 0.338420 0.250000
#
# Coordination Sequence:
#
# PCOD8135159 Si02
#       6
#     8   4   8   8   8   8
#     4  10  22  39  60  96 118 156 208 254 304 369
#     4  12  26  40  60  88 132 168 206 238 302 388
#     4   9  19  37  64  89 121 155 206 260 304 348
#     4  10  19  37  63  91 121 151 202 264 305 347
#     4   9  19  35  62  93 118 153 207 258 303 357
#     4  10  23  43  59  88 128 168 203 246 306 368
#
# _framework density 25.281127000000001
#
# number of rings (size 3 to 8) (size 9 to 14) (size 15 to 20)
#    0.000    2.182    0.909    1.091    2.545    1.455 
#    0.000   10.000    0.000    0.000    0.000    0.000 
#    0.000    0.000    0.000    0.000    0.000    0.000 
#
# Total GULP energy -272789.045969 kJ/mol
# GULP energy per Si atom -12399.502090 kJ/mol
# Density = 2.522359 g / cm^3
# Si number density = 25.281127 Si / 1000 Ang^3
#
#
#
# Elastic Constant Matrix: (Units=GPa)
#
#
# Indices 1 2 3 4 5 6 
#
# 1 110.8566 32.2424 24.2888 0.0000 35.5323 0.0000
# 2 32.2424 147.5940 47.0050 0.0000 35.4335 0.0000
# 3 24.2888 47.0050 65.5425 0.0000 20.0209 0.0000
# 4 0.0000 0.0000 0.0000 38.5596 0.0000 0.9632
# 5 35.5323 35.4335 20.0209 0.0000 27.0162 0.0000
# 6 0.0000 0.0000 0.0000 0.9632 0.0000 27.4793
#
#
#
# Elastic Compliance Matrix: (Units=1/GPa)
#
#
# Indices 1 2 3 4 5 6 
#
# 1 0.016112 0.002352 -0.000313 0.000000 -0.024043 0.000000
# 2 0.002352 0.011139 -0.004463 0.000000 -0.014396 0.000000
# 3 -0.000313 -0.004463 0.021535 0.000000 -0.009694 0.000000
# 4 0.000000 0.000000 0.000000 0.025957 0.000000 -0.000910
# 5 -0.024043 -0.014396 -0.009694 0.000000 0.094702 0.000000
# 6 0.000000 0.000000 0.000000 -0.000910 0.000000 0.036423
#
#
# Mechanical properties :
#
#
# Convention : Reuss Voigt Hill
#
# Bulk Modulus (GPa) = 22.75919 59.00730 40.88325
# Shear Modulus (GPa) = 22.18666 33.30816 27.74741
#
# Velocity S-wave (km/s) = 2.96564 3.63369 3.31653
# Velocity P-wave (km/s) = 4.55507 6.40282 5.55629
#
# Compressibility (1/GPa) = 0.04393829
#
# Stress axis : x y z
#
# Youngs Moduli (GPa) = 62.06687 89.77617 46.43602
#
# Poissons Ratio (x) = -0.21118 0.01455
# Poissons Ratio (y) = -0.14600 0.20723
# Poissons Ratio (z) = 0.01944 0.40064
#
# Static dielectric constant tensor:
#      x y z
#    x 4.789670 0.000000 0.271380 
#    y 0.000000 4.042540 0.000000 
#    z 0.271380 0.000000 5.164220 
# 
# 
# High freq. dielectric constant tensor:
#      x y z
#    x 2.039570 0.000000 -0.012120 
#    y 0.000000 1.953480 0.000000 
#    z -0.012120 0.000000 2.043430 
# 
# From -- ./inp_files/39343.got.cif
#   From: 2010.06.25/outbox.cif.g09.slc.cpg/sg15_20_cif.got.tgz:39343.got - 2010.06.28 07:06:18.
