data_PCOD8135924
_publ_section_title
;
Structure prediction by ZEFSAII (Michael W. Deem and Ramdas Pophale) SiO2 
 PCOD8135924
Probable space group: C 2/C
;
_chemical_formula_sum "Si O2"
_cell_formula_units_Z 40
_cell_length_a 9.976334
_cell_length_b 10.889535
_cell_length_c 16.295731
_cell_angle_alpha 90.000000
_cell_angle_beta 110.705812
_cell_angle_gamma 90.000000
_cell_volume 1655.980893
_symmetry_space_group_name_H-M "C 2/C"
_symmetry_group_IT_number 15
_symmetry_cell_setting 'monoclinic'
loop_
_space_group_symop_operation_xyz
x,y,z
-x,y,1/2-z
-x,-y,-z
x,-y,1/2+z
1/2+x,1/2+y,z
1/2-x,1/2+y,1/2-z
1/2-x,1/2-y,-z
1/2+x,1/2-y,1/2+z
loop_
_atom_site_type_symbol
_atom_site_label
_atom_site_fract_x
_atom_site_fract_y
_atom_site_fract_z
Si Si1 0.500000 0.281810 0.750000
Si Si2 0.000000 0.362411 0.750000
Si Si3 0.092014 0.222367 0.931914
Si Si4 0.363415 0.079358 0.803836
Si Si5 0.348011 0.526916 0.110193
Si Si6 0.926753 0.379487 0.017544
O O1 0.356900 0.198340 0.741947
O O2 0.542847 0.373541 0.832387
O O3 0.931634 0.282001 0.662827
O O4 0.876233 0.450432 0.759544
O O5 0.065929 0.075868 0.921512
O O6 0.975090 0.265667 0.972209
O O7 0.250000 0.250000 0.000000
O O8 0.234920 0.058548 0.839491
O O9 0.516377 0.124278 0.877487
O O10 0.243562 0.603248 0.027203
O O11 0.000000 0.500000 0.000000
#
# Coordination Sequence:
#
# PCOD8135924 Si02
#       6
#     4   4   8   8   8   8
#     4  11  27  40  58 102 125 159 220 260 312 387
#     4  11  21  36  64  98 121 171 218 250 328 375
#     4  12  21  37  69  98 125 171 218 256 318 389
#     4  10  22  42  64  86 129 168 208 267 313 375
#     4  11  23  40  62  89 130 161 208 267 313 375
#     4  10  19  41  63  91 125 169 212 259 323 375
#
# _framework density 24.154869000000001
#
# number of rings (size 3 to 8) (size 9 to 14) (size 15 to 20)
#    0.000    1.200    8.000    0.600    2.800    2.400 
#    0.000    1.000    0.000    0.000    0.000    0.000 
#    0.000    0.000    0.000    0.000    0.000    0.000 
#
# Total GULP energy -247793.152112 kJ/mol
# GULP energy per Si atom -12389.657606 kJ/mol
# Density = 2.409989 g / cm^3
# Si number density = 24.154869 Si / 1000 Ang^3
#
#
#
# Elastic Constant Matrix: (Units=GPa)
#
#
# Indices 1 2 3 4 5 6 
#
# 1 34.8307 28.1174 -4.7579 0.0000 -0.5294 0.0000
# 2 28.1174 147.2040 25.2742 0.0000 6.8703 0.0000
# 3 -4.7579 25.2742 95.7749 0.0000 11.4544 0.0000
# 4 0.0000 0.0000 0.0000 32.3380 0.0000 -0.4059
# 5 -0.5294 6.8703 11.4544 0.0000 30.5042 0.0000
# 6 0.0000 0.0000 0.0000 -0.4059 0.0000 35.0468
#
#
#
# Elastic Compliance Matrix: (Units=1/GPa)
#
#
# Indices 1 2 3 4 5 6 
#
# 1 0.035168 -0.007376 0.003583 0.000000 0.000926 0.000000
# 2 -0.007376 0.008688 -0.002523 0.000000 -0.001137 0.000000
# 3 0.003583 -0.002523 0.011737 0.000000 -0.003777 0.000000
# 4 0.000000 0.000000 0.000000 0.030928 0.000000 0.000358
# 5 0.000926 -0.001137 -0.003777 0.000000 0.034473 0.000000
# 6 0.000000 0.000000 0.000000 0.000358 0.000000 0.028537
#
#
# Mechanical properties :
#
#
# Convention : Reuss Voigt Hill
#
# Bulk Modulus (GPa) = 23.27718 41.67524 32.47621
# Shear Modulus (GPa) = 28.33118 34.85617 31.59368
#
# Velocity S-wave (km/s) = 3.42847 3.80284 3.62050
# Velocity P-wave (km/s) = 5.03291 6.04756 5.56341
#
# Compressibility (1/GPa) = 0.04296054
#
# Stress axis : x y z
#
# Youngs Moduli (GPa) = 28.43495 115.09532 85.20305
#
# Poissons Ratio (x) = 0.84892 -0.30526
# Poissons Ratio (y) = 0.20973 0.21498
# Poissons Ratio (z) = -0.10187 0.29041
#
# Static dielectric constant tensor:
#      x y z
#    x 3.614110 0.000000 -0.606760 
#    y 0.000000 4.877800 0.000000 
#    z -0.606760 0.000000 3.284250 
# 
# 
# High freq. dielectric constant tensor:
#      x y z
#    x 1.917280 0.000000 -0.008920 
#    y 0.000000 1.982570 0.000000 
#    z -0.008920 0.000000 1.967490 
# 
# From -- ./inp_files/196362.got.cif
#   From: 2010.06.25/outbox.cif.g09.slc.cpg/sg15_99_cif.got.tgz:196362.got - 2010.06.28 07:06:18.
