data_PCOD8135379
_publ_section_title
;
Structure prediction by ZEFSAII (Michael W. Deem and Ramdas Pophale) SiO2 
 PCOD8135379
Probable space group: C 2/C
;
_chemical_formula_sum "Si O2"
_cell_formula_units_Z 56
_cell_length_a 19.579471
_cell_length_b 10.460768
_cell_length_c 17.655144
_cell_angle_alpha 90.000000
_cell_angle_beta 47.910882
_cell_angle_gamma 90.000000
_cell_volume 2683.490542
_symmetry_space_group_name_H-M "C 2/C"
_symmetry_group_IT_number 15
_symmetry_cell_setting 'monoclinic'
loop_
_space_group_symop_operation_xyz
x,y,z
-x,y,1/2-z
-x,-y,-z
x,-y,1/2+z
1/2+x,1/2+y,z
1/2-x,1/2+y,1/2-z
1/2-x,1/2-y,-z
1/2+x,1/2-y,1/2+z
loop_
_atom_site_type_symbol
_atom_site_label
_atom_site_fract_x
_atom_site_fract_y
_atom_site_fract_z
Si Si1 0.898861 0.211949 0.545655
Si Si2 0.668192 0.553739 0.347631
Si Si3 0.039773 0.457771 0.642029
Si Si4 0.913032 0.740836 0.866688
Si Si5 0.362114 0.950941 0.198432
Si Si6 0.915683 0.298064 0.022268
Si Si7 0.303115 0.300565 0.816371
O O1 0.926129 0.190545 0.437763
O O2 0.805944 0.295743 0.618199
O O3 0.977877 0.289437 0.530122
O O4 0.885732 0.076633 0.596609
O O5 0.777193 0.543478 0.279924
O O6 0.631820 0.660508 0.432734
O O7 0.652626 0.590981 0.270731
O O8 0.099012 0.586831 0.612463
O O9 0.096033 0.346364 0.556125
O O10 0.000000 0.402320 0.750000
O O11 0.957357 0.481907 0.645067
O O12 0.826007 0.810657 0.889225
O O13 0.000000 0.771203 0.750000
O O14 0.361110 0.902875 0.112540
O O15 0.355230 0.830270 0.258479
#
# Coordination Sequence:
#
# PCOD8135379 Si02
#       7
#     8   8   8   8   8   8   8
#     4  11  22  38  65  88 123 161 204 247 298 369
#     4  10  23  39  59  91 123 155 202 249 306 361
#     4  11  21  37  63  87 121 155 208 245 293 356
#     4  11  20  37  61  92 118 156 206 256 296 343
#     4  10  19  38  61  84 117 158 202 250 287 362
#     4  11  22  38  61  89 117 161 201 245 304 358
#     4  10  20  37  59  92 124 155 202 253 301 348
#
# _framework density 20.868342999999999
#
# number of rings (size 3 to 8) (size 9 to 14) (size 15 to 20)
#    0.000    1.429    4.286    3.000    2.000    0.000 
#    0.000    2.857    0.000    0.000    0.000    0.000 
#    0.000    0.000    0.000    0.000    0.000    0.000 
#
# Total GULP energy -347098.863300 kJ/mol
# GULP energy per Si atom -12396.387975 kJ/mol
# Density = 2.082085 g / cm^3
# Si number density = 20.868343 Si / 1000 Ang^3
#
#
#
# Elastic Constant Matrix: (Units=GPa)
#
#
# Indices 1 2 3 4 5 6 
#
# 1 69.0885 42.9289 30.7645 0.0000 10.8451 0.0000
# 2 42.9289 62.2678 44.4133 0.0000 1.6973 0.0000
# 3 30.7645 44.4133 101.0819 0.0000 11.4909 0.0000
# 4 0.0000 0.0000 0.0000 37.3660 0.0000 7.5841
# 5 10.8451 1.6973 11.4909 0.0000 35.3042 0.0000
# 6 0.0000 0.0000 0.0000 7.5841 0.0000 12.6981
#
#
#
# Elastic Compliance Matrix: (Units=1/GPa)
#
#
# Indices 1 2 3 4 5 6 
#
# 1 0.027226 -0.019340 0.001097 0.000000 -0.007791 0.000000
# 2 -0.019340 0.037311 -0.011401 0.000000 0.007858 0.000000
# 3 0.001097 -0.011401 0.015103 0.000000 -0.004705 0.000000
# 4 0.000000 0.000000 0.000000 0.030454 0.000000 -0.018189
# 5 -0.007791 0.007858 -0.004705 0.000000 0.031872 0.000000
# 6 0.000000 0.000000 0.000000 -0.018189 0.000000 0.089615
#
#
# Mechanical properties :
#
#
# Convention : Reuss Voigt Hill
#
# Bulk Modulus (GPa) = 49.13494 52.07240 50.60367
# Shear Modulus (GPa) = 16.79808 24.69579 20.74693
#
# Velocity S-wave (km/s) = 2.84025 3.44380 3.15649
# Velocity P-wave (km/s) = 5.86109 6.38906 6.13076
#
# Compressibility (1/GPa) = 0.02035212
#
# Stress axis : x y z
#
# Youngs Moduli (GPa) = 36.72961 26.80191 66.21177
#
# Poissons Ratio (x) = 0.51836 -0.07264
# Poissons Ratio (y) = 0.71037 0.75485
# Poissons Ratio (z) = -0.04030 0.30556
#
# Static dielectric constant tensor:
#      x y z
#    x 3.694480 0.000000 0.062810 
#    y 0.000000 3.587500 0.000000 
#    z 0.062810 0.000000 4.060970 
# 
# 
# High freq. dielectric constant tensor:
#      x y z
#    x 1.798840 0.000000 0.000340 
#    y 0.000000 1.792810 0.000000 
#    z 0.000340 0.000000 1.836670 
# 
# From -- ./inp_files/210553.got.cif
#   From: 2010.06.25/outbox.cif.g09.slc.cpg/sg15_106_cif.got.tgz:210553.got - 2010.06.28 07:06:18.
