data_PCOD8135601
_publ_section_title
;
Structure prediction by ZEFSAII (Michael W. Deem and Ramdas Pophale) SiO2 
 PCOD8135601
Probable space group: C 2/C
;
_chemical_formula_sum "Si O2"
_cell_formula_units_Z 44
_cell_length_a 7.865129
_cell_length_b 32.876181
_cell_length_c 9.910525
_cell_angle_alpha 90.000000
_cell_angle_beta 120.500781
_cell_angle_gamma 90.000000
_cell_volume 2208.008677
_symmetry_space_group_name_H-M "C 2/C"
_symmetry_group_IT_number 15
_symmetry_cell_setting 'monoclinic'
loop_
_space_group_symop_operation_xyz
x,y,z
-x,y,1/2-z
-x,-y,-z
x,-y,1/2+z
1/2+x,1/2+y,z
1/2-x,1/2+y,1/2-z
1/2-x,1/2-y,-z
1/2+x,1/2-y,1/2+z
loop_
_atom_site_type_symbol
_atom_site_label
_atom_site_fract_x
_atom_site_fract_y
_atom_site_fract_z
Si Si1 0.000000 0.344250 0.250000
Si Si2 0.500000 0.251930 0.250000
Si Si3 0.000000 0.448827 0.750000
Si Si4 0.378998 0.803245 0.471515
Si Si5 0.644107 0.493957 0.179567
Si Si6 0.247433 0.113868 0.995640
Si Si7 0.322657 0.597281 0.837211
O O1 0.986532 0.316892 0.377988
O O2 0.822237 0.374574 0.134971
O O3 0.481665 0.225264 0.380106
O O4 0.688670 0.280070 0.340427
O O5 0.170777 0.475126 0.745230
O O6 0.908663 0.420111 0.597941
O O7 0.324213 0.840449 0.551838
O O8 0.500000 0.497871 0.250000
O O9 0.739434 0.449689 0.198527
O O10 0.500000 0.500000 0.000000
O O11 0.196364 0.114685 0.819144
O O12 0.042125 0.103129 0.988951
#
# Coordination Sequence:
#
# PCOD8135601 Si02
#       7
#     4   4   4   8   8   8   8
#     4  10  21  34  66  93 118 158 216 255 302 372
#     4  10  21  40  64  85 130 158 194 247 316 394
#     4  12  24  38  64  90 130 170 218 278 314 362
#     4  10  21  38  62  93 116 164 200 248 314 375
#     4  12  24  41  61  94 129 170 218 270 321 370
#     4  10  20  39  61  84 122 166 208 250 310 384
#     4  10  19  39  58  84 125 164 205 255 311 372
#
# _framework density 19.927458000000001
#
# number of rings (size 3 to 8) (size 9 to 14) (size 15 to 20)
#    0.000    1.455    3.636    3.273    0.000    6.545 
#    0.000    0.000    0.000    4.364    0.000    0.000 
#    0.000    0.000    0.000    0.000    0.000    0.000 
#
# Total GULP energy -272584.085207 kJ/mol
# GULP energy per Si atom -12390.185691 kJ/mol
# Density = 1.988210 g / cm^3
# Si number density = 19.927458 Si / 1000 Ang^3
#
#
#
# Elastic Constant Matrix: (Units=GPa)
#
#
# Indices 1 2 3 4 5 6 
#
# 1 115.5466 72.6291 52.6851 0.0000 2.3164 0.0000
# 2 72.6291 149.0699 44.4601 0.0000 4.2752 0.0000
# 3 52.6851 44.4601 83.7625 0.0000 2.2951 0.0000
# 4 0.0000 0.0000 0.0000 155.8679 0.0000 -140.2586
# 5 2.3164 4.2752 2.2951 0.0000 27.3869 0.0000
# 6 0.0000 0.0000 0.0000 -140.2586 0.0000 196.6219
#
#
#
# Elastic Compliance Matrix: (Units=1/GPa)
#
#
# Indices 1 2 3 4 5 6 
#
# 1 0.015036 -0.005355 -0.006618 0.000000 0.000119 0.000000
# 2 -0.005355 0.009899 -0.001860 0.000000 -0.000936 0.000000
# 3 -0.006618 -0.001860 0.017105 0.000000 -0.000583 0.000000
# 4 0.000000 0.000000 0.000000 0.017916 0.000000 0.012780
# 5 0.000119 -0.000936 -0.000583 0.000000 0.036699 0.000000
# 6 0.000000 0.000000 0.000000 0.012780 0.000000 0.014203
#
#
# Mechanical properties :
#
#
# Convention : Reuss Voigt Hill
#
# Bulk Modulus (GPa) = 69.57823 76.43641 73.00732
# Shear Modulus (GPa) = 34.88814 87.88232 61.38523
#
# Velocity S-wave (km/s) = 4.18874 6.64807 5.55619
# Velocity P-wave (km/s) = 7.64105 9.86761 8.82483
#
# Compressibility (1/GPa) = 0.01437231
#
# Stress axis : x y z
#
# Youngs Moduli (GPa) = 66.50749 101.01902 58.46399
#
# Poissons Ratio (x) = 0.54099 0.38692
# Poissons Ratio (y) = 0.35617 0.10876
# Poissons Ratio (z) = 0.44015 0.18793
#
# Static dielectric constant tensor:
#      x y z
#    x 4.108790 0.000000 0.551210 
#    y 0.000000 3.527950 0.000000 
#    z 0.551210 0.000000 3.673880 
# 
# 
# High freq. dielectric constant tensor:
#      x y z
#    x 1.762500 0.000000 0.015230 
#    y 0.000000 1.800480 0.000000 
#    z 0.015230 0.000000 1.773670 
# 
# From -- ./inp_files/25497.got.cif
#   From: 2010.06.25/outbox.cif.g09.slc.cpg/sg15_13_cif.got.tgz:25497.got - 2010.06.28 07:06:18.
