data_PCOD8135712
_publ_section_title
;
Structure prediction by ZEFSAII (Michael W. Deem and Ramdas Pophale) SiO2 
 PCOD8135712
Probable space group: C 2/C
;
_chemical_formula_sum "Si O2"
_cell_formula_units_Z 48
_cell_length_a 7.692117
_cell_length_b 21.755973
_cell_length_c 18.889871
_cell_angle_alpha 90.000000
_cell_angle_beta 44.907889
_cell_angle_gamma 90.000000
_cell_volume 2231.716755
_symmetry_space_group_name_H-M "C 2/C"
_symmetry_group_IT_number 15
_symmetry_cell_setting 'monoclinic'
loop_
_space_group_symop_operation_xyz
x,y,z
-x,y,1/2-z
-x,-y,-z
x,-y,1/2+z
1/2+x,1/2+y,z
1/2-x,1/2+y,1/2-z
1/2-x,1/2-y,-z
1/2+x,1/2-y,1/2+z
loop_
_atom_site_type_symbol
_atom_site_label
_atom_site_fract_x
_atom_site_fract_y
_atom_site_fract_z
Si Si1 0.364420 0.204646 0.356432
Si Si2 0.756934 0.668180 0.133471
Si Si3 0.554577 0.658276 0.642994
Si Si4 0.504906 0.069331 0.522150
Si Si5 0.051108 0.611196 0.816929
Si Si6 0.348297 0.703458 0.555293
O O1 0.500000 0.175120 0.250000
O O2 0.507390 0.178903 0.383499
O O3 0.347144 0.278394 0.352795
O O4 0.077905 0.184451 0.439209
O O5 0.500000 0.669139 0.250000
O O6 0.776195 0.724587 0.072562
O O7 0.774869 0.605207 0.082770
O O8 0.762523 0.607538 0.570033
O O9 0.335868 0.626848 0.751967
O O10 0.418542 0.679555 0.611897
O O11 0.531698 0.061524 0.600117
O O12 0.500000 0.000000 0.500000
O O13 0.000000 0.590203 0.750000
O O14 0.905113 0.670084 0.888251
#
# Coordination Sequence:
#
# PCOD8135712 Si02
#       6
#     8   8   8   8   8   8
#     4  11  20  34  63  97 127 163 199 255 325 371
#     4  11  23  39  59  94 130 162 206 260 314 369
#     4  10  19  41  63  88 125 164 207 250 309 377
#     4  12  25  42  64  88 123 173 212 249 303 369
#     4  10  23  40  67  94 121 159 210 260 308 376
#     4  10  19  39  64  94 125 157 202 260 326 369
#
# _framework density 21.508105
#
# number of rings (size 3 to 8) (size 9 to 14) (size 15 to 20)
#    0.000    1.333    3.333    5.000    2.333    2.000 
#    0.000    4.167    0.000    0.000    0.000    0.000 
#    0.000    0.000    0.000    0.000    0.000    0.000 
#
# Total GULP energy -297336.353003 kJ/mol
# GULP energy per Si atom -12389.014708 kJ/mol
# Density = 2.145915 g / cm^3
# Si number density = 21.508105 Si / 1000 Ang^3
#
#
#
# Elastic Constant Matrix: (Units=GPa)
#
#
# Indices 1 2 3 4 5 6 
#
# 1 54.8991 27.4466 24.1124 0.0000 -7.0769 0.0000
# 2 27.4466 109.6458 41.8690 0.0000 15.4020 0.0000
# 3 24.1124 41.8690 163.1391 0.0000 -9.7621 0.0000
# 4 0.0000 0.0000 0.0000 10.3775 0.0000 -2.2639
# 5 -7.0769 15.4020 -9.7621 0.0000 40.9339 0.0000
# 6 0.0000 0.0000 0.0000 -2.2639 0.0000 16.8957
#
#
#
# Elastic Compliance Matrix: (Units=1/GPa)
#
#
# Indices 1 2 3 4 5 6 
#
# 1 0.022552 -0.005891 -0.001476 0.000000 0.005763 0.000000
# 2 -0.005891 0.012534 -0.002728 0.000000 -0.006385 0.000000
# 3 -0.001476 -0.002728 0.007197 0.000000 0.002488 0.000000
# 4 0.000000 0.000000 0.000000 0.099264 0.000000 0.013300
# 5 0.005763 -0.006385 0.002488 0.000000 0.028422 0.000000
# 6 0.000000 0.000000 0.000000 0.013300 0.000000 0.060969
#
#
# Mechanical properties :
#
#
# Convention : Reuss Voigt Hill
#
# Bulk Modulus (GPa) = 45.26657 57.17112 51.21885
# Shear Modulus (GPa) = 19.34302 29.25849 24.30075
#
# Velocity S-wave (km/s) = 3.00215 3.69229 3.36496
# Velocity P-wave (km/s) = 5.75406 6.69449 6.24201
#
# Compressibility (1/GPa) = 0.02209136
#
# Stress axis : x y z
#
# Youngs Moduli (GPa) = 44.34230 79.78585 138.94754
#
# Poissons Ratio (x) = 0.47002 0.20515
# Poissons Ratio (y) = 0.26122 0.37906
# Poissons Ratio (z) = 0.06547 0.21766
#
# Static dielectric constant tensor:
#      x y z
#    x 4.070750 0.000000 0.015520 
#    y 0.000000 3.482240 0.000000 
#    z 0.015520 0.000000 4.350730 
# 
# 
# High freq. dielectric constant tensor:
#      x y z
#    x 1.854260 0.000000 0.002840 
#    y 0.000000 1.785780 0.000000 
#    z 0.002840 0.000000 1.877070 
# 
# From -- ./inp_files/136177.got.cif
#   From: 2010.06.25/outbox.cif.g09.slc.cpg/sg15_69_cif.got.tgz:136177.got - 2010.06.28 07:06:18.
