data_PCOD8135857
_publ_section_title
;
Structure prediction by ZEFSAII (Michael W. Deem and Ramdas Pophale) SiO2 
 PCOD8135857
Probable space group: C 2/C
;
_chemical_formula_sum "Si O2"
_cell_formula_units_Z 64
_cell_length_a 31.415249
_cell_length_b 9.764213
_cell_length_c 15.901677
_cell_angle_alpha 90.000000
_cell_angle_beta 40.449927
_cell_angle_gamma 90.000000
_cell_volume 3164.610823
_symmetry_space_group_name_H-M "C 2/C"
_symmetry_group_IT_number 15
_symmetry_cell_setting 'monoclinic'
loop_
_space_group_symop_operation_xyz
x,y,z
-x,y,1/2-z
-x,-y,-z
x,-y,1/2+z
1/2+x,1/2+y,z
1/2-x,1/2+y,1/2-z
1/2-x,1/2-y,-z
1/2+x,1/2-y,1/2+z
loop_
_atom_site_type_symbol
_atom_site_label
_atom_site_fract_x
_atom_site_fract_y
_atom_site_fract_z
Si Si1 0.001436 0.865929 0.941107
Si Si2 0.743354 0.726404 0.210781
Si Si3 0.364822 0.765124 0.256785
Si Si4 0.446861 0.449654 0.268480
Si Si5 0.882200 0.198191 0.713118
Si Si6 0.255092 0.423363 0.343345
Si Si7 0.189418 0.459149 0.613945
Si Si8 0.318909 0.589081 0.478087
O O1 0.059988 0.763970 0.879133
O O2 0.014515 0.917165 0.826617
O O3 0.932407 0.787031 0.058530
O O4 0.000000 0.000000 0.000000
O O5 0.674826 0.764816 0.270451
O O6 0.752499 0.561930 0.200264
O O7 0.742673 0.789795 0.304840
O O8 0.803717 0.791620 0.067611
O O9 0.333046 0.651094 0.364928
O O10 0.358771 0.910963 0.311956
O O11 0.500000 0.377179 0.250000
O O12 0.424427 0.343106 0.231223
O O13 0.381893 0.502728 0.415199
O O14 0.828569 0.082027 0.771795
O O15 0.845658 0.339301 0.782957
O O16 0.202467 0.417797 0.497774
O O17 0.257125 0.488683 0.560842
#
# Coordination Sequence:
#
# PCOD8135857 Si02
#       8
#     8   8   8   8   8   8   8   8
#     4   9  20  40  62  89 121 162 213 256 305 378
#     4  11  23  36  63  97 128 161 208 273 312 380
#     4  10  19  42  70  86 125 173 212 256 326 387
#     4  10  21  38  64  90 119 170 217 257 311 380
#     4  11  24  41  61  90 136 165 210 269 321 372
#     4  12  24  40  60  97 133 165 210 267 324 375
#     4  11  21  40  66  92 126 171 206 265 329 386
#     4  10  19  40  66  90 123 164 215 255 325 380
#
# _framework density 20.223655999999998
#
# number of rings (size 3 to 8) (size 9 to 14) (size 15 to 20)
#    0.000    1.500    3.750    2.625    5.250    0.500 
#    4.500    0.000    0.000    3.000    0.000    0.000 
#    0.000    0.000    0.000    0.000    0.000    0.000 
#
# Total GULP energy -396778.409381 kJ/mol
# GULP energy per Si atom -12399.325293 kJ/mol
# Density = 2.017763 g / cm^3
# Si number density = 20.223656 Si / 1000 Ang^3
#
#
#
# Elastic Constant Matrix: (Units=GPa)
#
#
# Indices 1 2 3 4 5 6 
#
# 1 85.9614 26.7843 21.7238 0.0000 -9.6625 0.0000
# 2 26.7843 90.8733 54.4999 -0.0001 -13.9951 -0.0001
# 3 21.7238 54.4999 132.9097 0.0001 -17.8596 0.0000
# 4 0.0000 -0.0001 0.0001 41.7860 0.0000 2.3316
# 5 -9.6625 -13.9951 -17.8596 0.0000 23.0867 0.0000
# 6 0.0000 -0.0001 0.0000 2.3316 0.0000 25.4920
#
#
#
# Elastic Compliance Matrix: (Units=1/GPa)
#
#
# Indices 1 2 3 4 5 6 
#
# 1 0.013072 -0.003092 -0.000430 0.000000 0.003264 0.000000
# 2 -0.003092 0.015798 -0.005423 0.000000 0.004087 0.000000
# 3 -0.000430 -0.005423 0.010437 0.000000 0.004606 0.000000
# 4 0.000000 0.000000 0.000000 0.024054 0.000000 -0.002200
# 5 0.003264 0.004087 0.004606 0.000000 0.050722 0.000000
# 6 0.000000 0.000000 0.000000 -0.002200 0.000000 0.039429
#
#
# Mechanical properties :
#
#
# Convention : Reuss Voigt Hill
#
# Bulk Modulus (GPa) = 46.69494 57.30670 52.00082
# Shear Modulus (GPa) = 28.00458 31.85536 29.92997
#
# Velocity S-wave (km/s) = 3.72525 3.97313 3.85118
# Velocity P-wave (km/s) = 6.45312 7.03176 6.74864
#
# Compressibility (1/GPa) = 0.02141560
#
# Stress axis : x y z
#
# Youngs Moduli (GPa) = 76.49812 63.30030 95.81307
#
# Poissons Ratio (x) = 0.19575 0.04120
# Poissons Ratio (y) = 0.23656 0.51962
# Poissons Ratio (z) = 0.03289 0.34329
#
# Static dielectric constant tensor:
#      x y z
#    x 3.459860 0.000000 -0.077360 
#    y 0.000000 3.587790 0.000000 
#    z -0.077360 0.000000 4.154800 
# 
# 
# High freq. dielectric constant tensor:
#      x y z
#    x 1.770320 0.000000 0.001040 
#    y 0.000000 1.779050 0.000000 
#    z 0.001040 0.000000 1.797120 
# 
# From -- ./inp_files/224611.got.cif
#   From: 2010.06.25/outbox.cif.g09.slc.cpg/sg15_113_cif.got.tgz:224611.got - 2010.06.28 07:06:18.
