data_PCOD8135952
_publ_section_title
;
Structure prediction by ZEFSAII (Michael W. Deem and Ramdas Pophale) SiO2 
 PCOD8135952
Probable space group: C 2/C
;
_chemical_formula_sum "Si O2"
_cell_formula_units_Z 56
_cell_length_a 9.477678
_cell_length_b 15.551692
_cell_length_c 21.393341
_cell_angle_alpha 90.000000
_cell_angle_beta 117.793793
_cell_angle_gamma 90.000000
_cell_volume 2789.463012
_symmetry_space_group_name_H-M "C 2/C"
_symmetry_group_IT_number 15
_symmetry_cell_setting 'monoclinic'
loop_
_space_group_symop_operation_xyz
x,y,z
-x,y,1/2-z
-x,-y,-z
x,-y,1/2+z
1/2+x,1/2+y,z
1/2-x,1/2+y,1/2-z
1/2-x,1/2-y,-z
1/2+x,1/2-y,1/2+z
loop_
_atom_site_type_symbol
_atom_site_label
_atom_site_fract_x
_atom_site_fract_y
_atom_site_fract_z
Si Si1 0.163923 0.178943 0.398667
Si Si2 0.672799 0.940276 0.659176
Si Si3 0.306956 0.352071 0.453566
Si Si4 0.923741 0.075694 0.670318
Si Si5 0.299779 0.039289 0.088017
Si Si6 0.644516 0.666490 0.966167
Si Si7 0.358998 0.420997 0.820614
O O1 0.297594 0.139878 0.380559
O O2 0.177971 0.281952 0.404082
O O3 0.194808 0.137460 0.472535
O O4 0.986917 0.155612 0.338425
O O5 0.488472 0.961650 0.624457
O O6 0.731847 0.912721 0.739501
O O7 0.762715 0.024817 0.653324
O O8 0.262099 0.442918 0.415266
O O9 0.478548 0.319541 0.466777
O O10 0.883076 0.152477 0.613847
O O11 0.000000 0.114174 0.750000
O O12 0.049292 0.011839 0.663341
O O13 0.234143 0.091794 0.133805
O O14 0.231674 0.081910 0.011090
O O15 0.750000 0.750000 0.000000
#
# Coordination Sequence:
#
# PCOD8135952 Si02
#       7
#     8   8   8   8   8   8   8
#     4  10  21  40  63  92 125 165 211 260 317 386
#     4  10  22  38  63  97 128 167 211 262 316 385
#     4  11  23  39  66  93 124 162 216 265 322 375
#     4   9  20  40  66  90 124 166 211 261 321 384
#     4  12  22  39  66  95 130 165 214 271 313 378
#     4  12  24  40  65  94 130 170 216 269 327 376
#     4  10  19  41  66  89 127 172 210 255 325 377
#
# _framework density 20.075548000000001
#
# number of rings (size 3 to 8) (size 9 to 14) (size 15 to 20)
#    0.000    1.429    2.857    4.714    0.000    4.571 
#    0.000    5.714    0.000    0.000    0.000    0.000 
#    0.000    0.000    0.000    0.000    0.000    0.000 
#
# Total GULP energy -347317.349948 kJ/mol
# GULP energy per Si atom -12404.191070 kJ/mol
# Density = 2.002986 g / cm^3
# Si number density = 20.075548 Si / 1000 Ang^3
#
#
#
# Elastic Constant Matrix: (Units=GPa)
#
#
# Indices 1 2 3 4 5 6 
#
# 1 113.4950 22.5787 43.2956 0.0000 0.7434 0.0000
# 2 22.5787 76.9263 42.5287 0.0000 -11.3619 0.0000
# 3 43.2956 42.5287 123.6028 0.0000 -10.2364 0.0000
# 4 0.0000 0.0000 0.0000 23.1998 0.0000 1.1972
# 5 0.7434 -11.3619 -10.2364 0.0000 24.2365 0.0000
# 6 0.0000 0.0000 0.0000 1.1972 0.0000 18.3510
#
#
#
# Elastic Compliance Matrix: (Units=1/GPa)
#
#
# Indices 1 2 3 4 5 6 
#
# 1 0.010403 -0.001592 -0.003300 0.000000 -0.002459 0.000000
# 2 -0.001592 0.017004 -0.004796 0.000000 0.005994 0.000000
# 3 -0.003300 -0.004796 0.011107 0.000000 0.002544 0.000000
# 4 0.000000 0.000000 0.000000 0.043249 0.000000 -0.002822
# 5 -0.002459 0.005994 0.002544 0.000000 0.045220 0.000000
# 6 0.000000 0.000000 0.000000 -0.002822 0.000000 0.054677
#
#
# Mechanical properties :
#
#
# Convention : Reuss Voigt Hill
#
# Bulk Modulus (GPa) = 52.25477 58.98113 55.61795
# Shear Modulus (GPa) = 24.10616 26.86552 25.48584
#
# Velocity S-wave (km/s) = 3.46898 3.66214 3.56686
# Velocity P-wave (km/s) = 6.49081 6.87932 6.68789
#
# Compressibility (1/GPa) = 0.01913701
#
# Stress axis : x y z
#
# Youngs Moduli (GPa) = 96.13014 58.81006 90.03142
#
# Poissons Ratio (x) = 0.09364 0.29707
# Poissons Ratio (y) = 0.15307 0.43183
# Poissons Ratio (z) = 0.31719 0.28208
#
# Static dielectric constant tensor:
#      x y z
#    x 3.670760 0.000000 -0.076590 
#    y 0.000000 3.413100 0.000000 
#    z -0.076590 0.000000 3.742310 
# 
# 
# High freq. dielectric constant tensor:
#      x y z
#    x 1.794270 0.000000 -0.006190 
#    y 0.000000 1.763910 0.000000 
#    z -0.006190 0.000000 1.790680 
# 
# From -- ./inp_files/264830.got.cif
#   From: 2010.06.25/outbox.cif.g09.slc.cpg/sg15_133_cif.got.tgz:264830.got - 2010.06.28 07:06:18.
