data_PCOD8135823
_publ_section_title
;
Structure prediction by ZEFSAII (Michael W. Deem and Ramdas Pophale) SiO2 
 PCOD8135823
Probable space group: C 2/C
;
_chemical_formula_sum "Si O2"
_cell_formula_units_Z 48
_cell_length_a 9.973502
_cell_length_b 15.489440
_cell_length_c 14.974564
_cell_angle_alpha 90.000000
_cell_angle_beta 75.562564
_cell_angle_gamma 90.000000
_cell_volume 2240.276074
_symmetry_space_group_name_H-M "C 2/C"
_symmetry_group_IT_number 15
_symmetry_cell_setting 'monoclinic'
loop_
_space_group_symop_operation_xyz
x,y,z
-x,y,1/2-z
-x,-y,-z
x,-y,1/2+z
1/2+x,1/2+y,z
1/2-x,1/2+y,1/2-z
1/2-x,1/2-y,-z
1/2+x,1/2-y,1/2+z
loop_
_atom_site_type_symbol
_atom_site_label
_atom_site_fract_x
_atom_site_fract_y
_atom_site_fract_z
Si Si1 0.939726 0.329029 0.669083
Si Si2 0.420994 0.090287 0.517883
Si Si3 0.190530 0.140797 0.104324
Si Si4 0.876542 0.047660 0.877757
Si Si5 0.357399 0.631159 0.687875
Si Si6 0.624215 0.172666 0.599851
O O1 0.794194 0.374459 0.670548
O O2 0.908039 0.228781 0.689623
O O3 0.000000 0.369488 0.750000
O O4 0.047816 0.346912 0.570886
O O5 0.256519 0.076373 0.543229
O O6 0.472778 0.133502 0.603172
O O7 0.500000 0.000000 0.500000
O O8 0.098294 0.227001 0.130264
O O9 0.098601 0.055241 0.117367
O O10 0.284497 0.158249 0.002895
O O11 0.850310 0.080151 0.781567
O O12 0.019570 0.087543 0.892075
O O13 0.207358 0.624848 0.665647
#
# Coordination Sequence:
#
# PCOD8135823 Si02
#       6
#     8   8   8   8   8   8
#     4  10  19  40  63  88 128 167 198 257 328 358
#     4  11  22  40  65  98 124 157 216 267 297 368
#     4   9  19  37  63  86 126 161 202 251 313 373
#     4  11  21  41  60  96 128 156 210 267 299 366
#     4  10  23  40  64  89 132 167 202 257 319 369
#     4   9  19  40  64  87 122 170 196 250 321 367
#
# _framework density 21.425930999999999
#
# number of rings (size 3 to 8) (size 9 to 14) (size 15 to 20)
#    0.000    2.000    5.000    1.000    0.000    3.333 
#    0.000    6.667    0.000    0.000    0.000    0.000 
#    0.000    0.000    0.000    0.000    0.000    0.000 
#
# Total GULP energy -297360.093242 kJ/mol
# GULP energy per Si atom -12390.003885 kJ/mol
# Density = 2.137717 g / cm^3
# Si number density = 21.425931 Si / 1000 Ang^3
#
#
#
# Elastic Constant Matrix: (Units=GPa)
#
#
# Indices 1 2 3 4 5 6 
#
# 1 46.3920 16.4963 12.0558 0.0000 4.0746 0.0000
# 2 16.4963 87.6293 17.1363 0.0000 2.7394 0.0000
# 3 12.0558 17.1363 64.3175 0.0000 13.4710 0.0000
# 4 0.0000 0.0000 0.0000 26.3707 0.0000 10.0118
# 5 4.0746 2.7394 13.4710 0.0000 37.0703 0.0000
# 6 0.0000 0.0000 0.0000 10.0118 0.0000 -0.6570
#
#
#
# Elastic Compliance Matrix: (Units=1/GPa)
#
#
# Indices 1 2 3 4 5 6 
#
# 1 0.023852 -0.003827 -0.003205 0.000000 -0.001174 0.000000
# 2 -0.003827 0.012656 -0.002757 0.000000 0.000487 0.000000
# 3 -0.003205 -0.002757 0.018148 0.000000 -0.006039 0.000000
# 4 0.000000 0.000000 0.000000 0.005589 0.000000 0.085162
# 5 -0.001174 0.000487 -0.006039 0.000000 0.029263 0.000000
# 6 0.000000 0.000000 0.000000 0.085162 0.000000 -0.224315
#
#
# Mechanical properties :
#
#
# Convention : Reuss Voigt Hill
#
# Bulk Modulus (GPa) = 28.50748 32.19062 30.34905
# Shear Modulus (GPa) = -48.29217 22.73348 -12.77935
#
# Velocity S-wave (km/s) = -4.75269 3.26087 -2.44487
# Velocity P-wave (km/s) = 4.09675 5.40689 2.49510
#
# Compressibility (1/GPa) = 0.03507852
#
# Stress axis : x y z
#
# Youngs Moduli (GPa) = 41.92481 79.01423 55.10254
#
# Poissons Ratio (x) = 0.30236 0.17663
# Poissons Ratio (y) = 0.16043 0.15190
# Poissons Ratio (z) = 0.13439 0.21782
#
# Static dielectric constant tensor:
#      x y z
#    x 4.362650 0.000000 0.286030 
#    y 0.000000 4.085040 0.000000 
#    z 0.286030 0.000000 3.954640 
# 
# 
# High freq. dielectric constant tensor:
#      x y z
#    x 1.834210 0.000000 0.015180 
#    y 0.000000 1.847540 0.000000 
#    z 0.015180 0.000000 1.819530 
# 
# From -- ./inp_files/143530.got.cif
#   From: 2010.06.25/outbox.cif.g09.slc.cpg/sg15_72_cif.got.tgz:143530.got - 2010.06.28 07:06:18.
