data_PCOD8135670
_publ_section_title
;
Structure prediction by ZEFSAII (Michael W. Deem and Ramdas Pophale) SiO2 
 PCOD8135670
Probable space group: C 2/C
;
_chemical_formula_sum "Si O2"
_cell_formula_units_Z 52
_cell_length_a 10.755670
_cell_length_b 15.103420
_cell_length_c 17.399743
_cell_angle_alpha 90.000000
_cell_angle_beta 76.006460
_cell_angle_gamma 90.000000
_cell_volume 2742.659707
_symmetry_space_group_name_H-M "C 2/C"
_symmetry_group_IT_number 15
_symmetry_cell_setting 'monoclinic'
loop_
_space_group_symop_operation_xyz
x,y,z
-x,y,1/2-z
-x,-y,-z
x,-y,1/2+z
1/2+x,1/2+y,z
1/2-x,1/2+y,1/2-z
1/2-x,1/2-y,-z
1/2+x,1/2-y,1/2+z
loop_
_atom_site_type_symbol
_atom_site_label
_atom_site_fract_x
_atom_site_fract_y
_atom_site_fract_z
Si Si1 0.088496 0.655297 0.842278
Si Si2 0.439922 0.403853 0.515077
Si Si3 0.360334 0.675533 0.267624
Si Si4 0.806189 0.202701 0.917792
Si Si5 0.299666 0.879516 0.841871
Si Si6 0.870351 0.230241 0.430137
Si Si7 0.500000 0.993614 0.250000
O O1 0.124087 0.731536 0.777669
O O2 0.196772 0.645693 0.891413
O O3 0.084428 0.564984 0.795225
O O4 0.951760 0.680275 0.901798
O O5 0.500000 0.500000 0.500000
O O6 0.416508 0.364075 0.432233
O O7 0.305311 0.410005 0.580175
O O8 0.535346 0.340635 0.546257
O O9 0.500000 0.628345 0.250000
O O10 0.261198 0.617040 0.234507
O O11 0.309765 0.690749 0.361134
O O12 0.855770 0.281532 0.854196
O O13 0.750000 0.250000 0.000000
O O14 0.415296 0.948020 0.820776
O O15 0.750000 0.250000 0.500000
#
# Coordination Sequence:
#
# PCOD8135670 Si02
#       7
#     8   8   8   8   8   8   4
#     4  10  19  39  63  87 122 169 198 254 309 371
#     4  11  23  39  63  92 122 157 211 267 300 366
#     4   9  16  39  63  77 114 170 202 234 309 369
#     4   9  18  42  64  79 120 171 193 239 326 366
#     4  10  22  40  60  83 127 165 202 249 314 375
#     4  11  21  35  64  95 121 162 206 249 318 364
#     4  12  24  36  62  98 122 154 216 260 296 362
#
# _framework density 18.959697999999999
#
# number of rings (size 3 to 8) (size 9 to 14) (size 15 to 20)
#    0.000    1.846    8.462    0.000    2.154    2.462 
#    0.000    4.615    0.000    0.000    0.000    0.000 
#    0.000    0.000    0.000    0.000    0.000    0.000 
#
# Total GULP energy -322263.583559 kJ/mol
# GULP energy per Si atom -12394.753214 kJ/mol
# Density = 1.891655 g / cm^3
# Si number density = 18.959698 Si / 1000 Ang^3
#
#
#
# Elastic Constant Matrix: (Units=GPa)
#
#
# Indices 1 2 3 4 5 6 
#
# 1 65.4381 40.7476 41.4837 0.0000 10.7149 0.0000
# 2 40.7476 86.3984 23.4028 0.0000 2.3429 0.0000
# 3 41.4837 23.4028 99.2124 0.0000 8.4136 0.0000
# 4 0.0000 0.0000 0.0000 28.5809 0.0000 4.1931
# 5 10.7149 2.3429 8.4136 0.0000 48.7158 0.0000
# 6 0.0000 0.0000 0.0000 4.1931 0.0000 31.9568
#
#
#
# Elastic Compliance Matrix: (Units=1/GPa)
#
#
# Indices 1 2 3 4 5 6 
#
# 1 0.028408 -0.010857 -0.008963 0.000000 -0.004178 0.000000
# 2 -0.010857 0.016514 0.000517 0.000000 0.001505 0.000000
# 3 -0.008963 0.000517 0.013741 0.000000 -0.000427 0.000000
# 4 0.000000 0.000000 0.000000 0.035675 0.000000 -0.004681
# 5 -0.004178 0.001505 -0.000427 0.000000 0.021448 0.000000
# 6 0.000000 0.000000 0.000000 -0.004681 0.000000 0.031906
#
#
# Mechanical properties :
#
#
# Convention : Reuss Voigt Hill
#
# Bulk Modulus (GPa) = 49.85801 51.36857 50.61329
# Shear Modulus (GPa) = 25.90875 31.54502 28.72688
#
# Velocity S-wave (km/s) = 3.70065 4.08339 3.89672
# Velocity P-wave (km/s) = 6.67935 7.02741 6.85559
#
# Compressibility (1/GPa) = 0.02005696
#
# Stress axis : x y z
#
# Youngs Moduli (GPa) = 35.20106 60.55491 72.77264
#
# Poissons Ratio (x) = 0.65744 0.65226
# Poissons Ratio (y) = 0.38217 -0.03759
# Poissons Ratio (z) = 0.31551 -0.03128
#
# Static dielectric constant tensor:
#      x y z
#    x 1.302760 0.000000 -0.216080 
#    y 0.000000 3.466310 0.000000 
#    z -0.216080 0.000000 3.264970 
# 
# 
# High freq. dielectric constant tensor:
#      x y z
#    x 1.729830 0.000000 0.024100 
#    y 0.000000 1.717280 0.000000 
#    z 0.024100 0.000000 1.741950 
# 
# From -- ./inp_files/197279.got.cif
#   From: 2010.06.25/outbox.cif.g09.slc.cpg/sg15_99_cif.got.tgz:197279.got - 2010.06.28 07:06:18.
