data_PCOD8135251
_publ_section_title
;
Structure prediction by ZEFSAII (Michael W. Deem and Ramdas Pophale) SiO2 
 PCOD8135251
Probable space group: C 2/C
;
_chemical_formula_sum "Si O2"
_cell_formula_units_Z 56
_cell_length_a 16.390728
_cell_length_b 15.399943
_cell_length_c 10.973269
_cell_angle_alpha 90.000000
_cell_angle_beta 74.504832
_cell_angle_gamma 90.000000
_cell_volume 2669.156598
_symmetry_space_group_name_H-M "C 2/C"
_symmetry_group_IT_number 15
_symmetry_cell_setting 'monoclinic'
loop_
_space_group_symop_operation_xyz
x,y,z
-x,y,1/2-z
-x,-y,-z
x,-y,1/2+z
1/2+x,1/2+y,z
1/2-x,1/2+y,1/2-z
1/2-x,1/2-y,-z
1/2+x,1/2-y,1/2+z
loop_
_atom_site_type_symbol
_atom_site_label
_atom_site_fract_x
_atom_site_fract_y
_atom_site_fract_z
Si Si1 0.694892 0.360554 0.813787
Si Si2 0.304784 0.935086 0.970199
Si Si3 0.147474 0.197153 0.938811
Si Si4 0.296467 0.689665 0.834141
Si Si5 0.787638 0.624323 0.039477
Si Si6 0.935912 0.293943 0.890948
Si Si7 0.015608 0.788150 0.881960
O O1 0.732876 0.429147 0.894568
O O2 0.732756 0.264995 0.818161
O O3 0.720854 0.395780 0.671920
O O4 0.593100 0.355161 0.854869
O O5 0.392157 0.888202 0.897246
O O6 0.261559 0.891099 0.105452
O O7 0.331641 0.033945 0.985059
O O8 0.140540 0.166201 0.801982
O O9 0.143547 0.303372 0.949052
O O10 0.237957 0.162233 0.944239
O O11 0.069606 0.158904 0.048257
O O12 0.358606 0.723192 0.916916
O O13 0.000000 0.283884 0.750000
O O14 0.976550 0.282647 0.009719
O O15 0.000000 0.748972 0.750000
#
# Coordination Sequence:
#
# PCOD8135251 Si02
#       7
#     8   8   8   8   8   8   8
#     4  10  20  39  62  89 118 162 210 249 313 372
#     4  11  22  39  67  93 122 164 209 266 310 366
#     4  10  22  39  63  88 123 174 206 247 318 381
#     4  10  19  37  67  91 118 165 214 252 303 374
#     4  10  23  40  59  90 127 161 211 256 305 381
#     4  11  21  39  66  97 128 161 210 263 312 378
#     4  12  21  38  65  90 125 164 207 257 311 386
#
# _framework density 20.980409000000002
#
# number of rings (size 3 to 8) (size 9 to 14) (size 15 to 20)
#    0.000    1.429    5.714    0.857    2.000    0.000 
#    0.000    2.143    6.286    0.000    0.000    0.000 
#    0.000    0.000    0.000    0.000    0.000    0.000 
#
# Total GULP energy -346948.926403 kJ/mol
# GULP energy per Si atom -12391.033086 kJ/mol
# Density = 2.093266 g / cm^3
# Si number density = 20.980409 Si / 1000 Ang^3
#
#
#
# Elastic Constant Matrix: (Units=GPa)
#
#
# Indices 1 2 3 4 5 6 
#
# 1 66.6591 -5.8770 19.4199 0.0000 0.4822 0.0000
# 2 -5.8770 55.8411 2.8712 0.0000 7.0964 0.0000
# 3 19.4199 2.8712 117.0008 0.0000 10.8265 0.0000
# 4 0.0000 0.0000 0.0000 21.4136 0.0000 -3.0231
# 5 0.4822 7.0964 10.8265 0.0000 40.5006 0.0000
# 6 0.0000 0.0000 0.0000 -3.0231 0.0000 12.9132
#
#
#
# Elastic Compliance Matrix: (Units=1/GPa)
#
#
# Indices 1 2 3 4 5 6 
#
# 1 0.015948 0.001790 -0.002711 0.000000 0.000221 0.000000
# 2 0.001790 0.018519 -0.000461 0.000000 -0.003143 0.000000
# 3 -0.002711 -0.000461 0.009226 0.000000 -0.002353 0.000000
# 4 0.000000 0.000000 0.000000 0.048295 0.000000 0.011306
# 5 0.000221 -0.003143 -0.002353 0.000000 0.025868 0.000000
# 6 0.000000 0.000000 0.000000 0.011306 0.000000 0.080087
#
#
# Mechanical properties :
#
#
# Convention : Reuss Voigt Hill
#
# Bulk Modulus (GPa) = 24.43284 30.25878 27.34581
# Shear Modulus (GPa) = 23.32620 29.83795 26.58208
#
# Velocity S-wave (km/s) = 3.33800 3.77527 3.56335
# Velocity P-wave (km/s) = 5.15045 5.78423 5.47651
#
# Compressibility (1/GPa) = 0.04092852
#
# Stress axis : x y z
#
# Youngs Moduli (GPa) = 62.70445 53.99734 108.38861
#
# Poissons Ratio (x) = -0.09664 0.29389
# Poissons Ratio (y) = -0.11222 0.04993
# Poissons Ratio (z) = 0.17002 0.02488
#
# Static dielectric constant tensor:
#      x y z
#    x 3.832510 0.000000 0.051590 
#    y 0.000000 3.289940 0.000000 
#    z 0.051590 0.000000 4.138040 
# 
# 
# High freq. dielectric constant tensor:
#      x y z
#    x 1.822500 0.000000 0.003190 
#    y 0.000000 1.764460 0.000000 
#    z 0.003190 0.000000 1.847070 
# 
# From -- ./inp_files/105280.got.cif
#   From: 2010.06.25/outbox.cif.g09.slc.cpg/sg15_53_cif.got.tgz:105280.got - 2010.06.28 07:06:18.
