data_PCOD8135499
_publ_section_title
;
Structure prediction by ZEFSAII (Michael W. Deem and Ramdas Pophale) SiO2 
 PCOD8135499
Probable space group: C 2/C
;
_chemical_formula_sum "Si O2"
_cell_formula_units_Z 52
_cell_length_a 19.026593
_cell_length_b 9.446733
_cell_length_c 26.347204
_cell_angle_alpha 90.000000
_cell_angle_beta 31.327967
_cell_angle_gamma 90.000000
_cell_volume 2462.221937
_symmetry_space_group_name_H-M "C 2/C"
_symmetry_group_IT_number 15
_symmetry_cell_setting 'monoclinic'
loop_
_space_group_symop_operation_xyz
x,y,z
-x,y,1/2-z
-x,-y,-z
x,-y,1/2+z
1/2+x,1/2+y,z
1/2-x,1/2+y,1/2-z
1/2-x,1/2-y,-z
1/2+x,1/2-y,1/2+z
loop_
_atom_site_type_symbol
_atom_site_label
_atom_site_fract_x
_atom_site_fract_y
_atom_site_fract_z
Si Si1 0.489416 0.655709 0.562676
Si Si2 0.047464 0.697905 0.595542
Si Si3 0.405568 0.525793 0.205173
Si Si4 0.125938 0.447342 0.830886
Si Si5 0.000000 0.925026 0.750000
Si Si6 0.225098 0.020908 0.362829
Si Si7 0.694451 0.820888 0.104439
O O1 0.494136 0.560961 0.610373
O O2 0.458889 0.816587 0.595755
O O3 0.635425 0.643660 0.444828
O O4 0.372211 0.601463 0.598138
O O5 0.146643 0.790129 0.499310
O O6 0.128531 0.626247 0.592293
O O7 0.932076 0.805201 0.685955
O O8 0.977433 0.576958 0.606004
O O9 0.245898 0.505815 0.294824
O O10 0.456491 0.475476 0.229472
O O11 0.186725 0.412457 0.737291
O O12 0.871202 0.827560 0.840409
O O13 0.325028 0.943814 0.341457
#
# Coordination Sequence:
#
# PCOD8135499 Si02
#       7
#     8   8   8   8   4   8   8
#     4  10  21  38  60  89 125 163 207 252 316 378
#     4  10  21  37  65  91 123 159 212 268 301 363
#     4  10  19  39  60  85 124 162 207 258 312 375
#     4  11  22  38  61  94 125 163 209 263 307 383
#     4  10  20  34  62  92 112 160 212 264 308 360
#     4  10  20  39  65  83 125 173 202 249 328 371
#     4  10  19  38  64  92 118 163 217 254 306 383
#
# _framework density 21.119135
#
# number of rings (size 3 to 8) (size 9 to 14) (size 15 to 20)
#    0.000    1.846    1.538    4.615    0.000    0.000 
#    2.769    3.846    0.000    0.000    0.000    0.000 
#    0.000    0.000    0.000    0.000    0.000    0.000 
#
# Total GULP energy -322409.015644 kJ/mol
# GULP energy per Si atom -12400.346756 kJ/mol
# Density = 2.107107 g / cm^3
# Si number density = 21.119135 Si / 1000 Ang^3
#
#
#
# Elastic Constant Matrix: (Units=GPa)
#
#
# Indices 1 2 3 4 5 6 
#
# 1 130.2317 33.1548 33.9192 -0.0010 4.0907 0.0006
# 2 33.1548 62.2083 17.8068 -0.0009 -6.7126 -0.0004
# 3 33.9192 17.8068 69.5763 -0.0005 -8.6154 0.0001
# 4 -0.0010 -0.0009 -0.0005 30.5805 0.0002 0.7089
# 5 4.0907 -6.7126 -8.6154 0.0002 29.3173 -0.0001
# 6 0.0006 -0.0004 0.0001 0.7089 -0.0001 34.3007
#
#
#
# Elastic Compliance Matrix: (Units=1/GPa)
#
#
# Indices 1 2 3 4 5 6 
#
# 1 0.010043 -0.004551 -0.004186 0.000000 -0.003673 0.000000
# 2 -0.004551 0.019627 -0.002252 0.000000 0.004467 0.000000
# 3 -0.004186 -0.002252 0.017640 0.000000 0.005252 0.000000
# 4 0.000000 0.000000 0.000000 0.032716 0.000000 -0.000676
# 5 -0.003673 0.004467 0.005252 0.000000 0.037188 0.000000
# 6 0.000000 0.000000 0.000000 -0.000676 0.000000 0.029168
#
#
# Mechanical properties :
#
#
# Convention : Reuss Voigt Hill
#
# Bulk Modulus (GPa) = 39.47389 47.97533 43.72461
# Shear Modulus (GPa) = 28.28000 30.64873 29.46436
#
# Velocity S-wave (km/s) = 3.66330 3.81363 3.73922
# Velocity P-wave (km/s) = 6.05183 6.49289 6.27623
#
# Compressibility (1/GPa) = 0.02533320
#
# Stress axis : x y z
#
# Youngs Moduli (GPa) = 99.57362 50.95067 56.68879
#
# Poissons Ratio (x) = 0.23185 0.23731
# Poissons Ratio (y) = 0.45312 0.12764
# Poissons Ratio (z) = 0.41684 0.11472
#
# Static dielectric constant tensor:
#      x y z
#    x 4.077360 0.000000 0.164650 
#    y 0.000000 3.350540 0.000000 
#    z 0.164650 0.000000 3.895080 
# 
# 
# High freq. dielectric constant tensor:
#      x y z
#    x 1.838360 0.000000 0.006290 
#    y 0.000000 1.787430 0.000000 
#    z 0.006290 0.000000 1.829470 
# 
# From -- ./inp_files/317353.got.cif
#   From: 2010.06.25/outbox.cif.g09.slc.cpg/sg15_159_cif.got.tgz:317353.got - 2010.06.28 07:06:18.
