data_PCOD8135509
_publ_section_title
;
Structure prediction by ZEFSAII (Michael W. Deem and Ramdas Pophale) SiO2 
 PCOD8135509
Probable space group: C 2/C
;
_chemical_formula_sum "Si O2"
_cell_formula_units_Z 44
_cell_length_a 26.918697
_cell_length_b 7.569865
_cell_length_c 12.395155
_cell_angle_alpha 90.000000
_cell_angle_beta 47.898329
_cell_angle_gamma 90.000000
_cell_volume 1874.012357
_symmetry_space_group_name_H-M "C 2/C"
_symmetry_group_IT_number 15
_symmetry_cell_setting 'monoclinic'
loop_
_space_group_symop_operation_xyz
x,y,z
-x,y,1/2-z
-x,-y,-z
x,-y,1/2+z
1/2+x,1/2+y,z
1/2-x,1/2+y,1/2-z
1/2-x,1/2-y,-z
1/2+x,1/2-y,1/2+z
loop_
_atom_site_type_symbol
_atom_site_label
_atom_site_fract_x
_atom_site_fract_y
_atom_site_fract_z
Si Si1 0.107147 0.457784 0.749625
Si Si2 0.756552 0.746581 0.727940
Si Si3 0.350238 0.576055 0.755671
Si Si4 0.500000 0.145005 0.250000
Si Si5 0.750889 0.457603 0.426588
Si Si6 0.096579 0.251196 0.437232
O O1 0.107617 0.253019 0.786744
O O2 0.181465 0.520084 0.601547
O O3 0.081624 0.579559 0.884412
O O4 0.055682 0.479423 0.725428
O O5 0.710288 0.593925 0.741904
O O6 0.745801 0.738310 0.877271
O O7 0.733180 0.925361 0.704140
O O8 0.835530 0.717914 0.592705
O O9 0.399896 0.425388 0.640492
O O10 0.316621 0.515526 0.917539
O O11 0.464199 0.269855 0.390365
#
# Coordination Sequence:
#
# PCOD8135509 Si02
#       6
#     8   8   8   4   8   8
#     4  10  24  42  66  94 130 176 218 266 319 380
#     4  10  19  38  64  98 131 163 205 262 339 381
#     4  11  22  42  66 101 135 159 222 268 330 390
#     4  12  24  48  68  84 142 176 224 268 310 378
#     4  10  20  38  64  98 133 161 204 273 323 392
#     4  11  24  43  67  99 128 178 214 266 325 388
#
# _framework density 23.479033999999999
#
# number of rings (size 3 to 8) (size 9 to 14) (size 15 to 20)
#    0.000    1.455    1.818    4.909    0.000    3.636 
#   13.091    1.818    0.000    0.000    0.000    0.000 
#    0.000    0.000    0.000    0.000    0.000    0.000 
#
# Total GULP energy -272652.956177 kJ/mol
# GULP energy per Si atom -12393.316190 kJ/mol
# Density = 2.342559 g / cm^3
# Si number density = 23.479034 Si / 1000 Ang^3
#
#
#
# Elastic Constant Matrix: (Units=GPa)
#
#
# Indices 1 2 3 4 5 6 
#
# 1 136.9055 35.3665 16.7686 0.0000 0.5785 -0.0002
# 2 35.3665 124.1862 61.3245 0.0001 -0.4361 -0.0006
# 3 16.7686 61.3245 130.5013 0.0000 -9.4043 -0.0002
# 4 0.0000 0.0001 0.0000 25.7520 0.0000 1.4949
# 5 0.5785 -0.4361 -9.4043 0.0000 15.5534 0.0000
# 6 -0.0002 -0.0006 -0.0002 1.4949 0.0000 19.5577
#
#
#
# Elastic Compliance Matrix: (Units=1/GPa)
#
#
# Indices 1 2 3 4 5 6 
#
# 1 0.007886 -0.002259 0.000023 0.000000 -0.000343 0.000000
# 2 -0.002259 0.011251 -0.005194 0.000000 -0.002741 0.000000
# 3 0.000023 -0.005194 0.010550 0.000000 0.006232 0.000000
# 4 0.000000 0.000000 0.000000 0.039005 0.000000 -0.002981
# 5 -0.000343 -0.002741 0.006232 0.000000 0.067999 0.000000
# 6 0.000000 0.000000 0.000000 -0.002981 0.000000 0.051359
#
#
# Mechanical properties :
#
#
# Convention : Reuss Voigt Hill
#
# Bulk Modulus (GPa) = 67.44057 68.72357 68.08207
# Shear Modulus (GPa) = 24.05560 30.71483 27.38521
#
# Velocity S-wave (km/s) = 3.20434 3.62080 3.41892
# Velocity P-wave (km/s) = 6.51740 6.84208 6.68171
#
# Compressibility (1/GPa) = 0.01482787
#
# Stress axis : x y z
#
# Youngs Moduli (GPa) = 126.80101 88.88044 94.78861
#
# Poissons Ratio (x) = 0.20075 -0.00221
# Poissons Ratio (y) = 0.28640 0.49237
# Poissons Ratio (z) = -0.00296 0.46168
#
# Static dielectric constant tensor:
#      x y z
#    x 4.418380 0.000000 0.199950 
#    y 0.000000 4.247530 0.000000 
#    z 0.199950 0.000000 4.015370 
# 
# 
# High freq. dielectric constant tensor:
#      x y z
#    x 1.933020 0.000000 0.013380 
#    y 0.000000 1.927170 0.000000 
#    z 0.013380 0.000000 1.915300 
# 
# From -- ./inp_files/121787.got.cif
#   From: 2010.06.25/outbox.cif.g09.slc.cpg/sg15_61_cif.got.tgz:121787.got - 2010.06.28 07:06:18.
