data_PCOD8135454
_publ_section_title
;
Structure prediction by ZEFSAII (Michael W. Deem and Ramdas Pophale) SiO2 
 PCOD8135454
Probable space group: C 2/C
;
_chemical_formula_sum "Si O2"
_cell_formula_units_Z 40
_cell_length_a 8.242172
_cell_length_b 21.051958
_cell_length_c 13.453318
_cell_angle_alpha 90.000000
_cell_angle_beta 51.547530
_cell_angle_gamma 90.000000
_cell_volume 1828.076117
_symmetry_space_group_name_H-M "C 2/C"
_symmetry_group_IT_number 15
_symmetry_cell_setting 'monoclinic'
loop_
_space_group_symop_operation_xyz
x,y,z
-x,y,1/2-z
-x,-y,-z
x,-y,1/2+z
1/2+x,1/2+y,z
1/2-x,1/2+y,1/2-z
1/2-x,1/2-y,-z
1/2+x,1/2-y,1/2+z
loop_
_atom_site_type_symbol
_atom_site_label
_atom_site_fract_x
_atom_site_fract_y
_atom_site_fract_z
Si Si1 0.203396 0.884818 0.236188
Si Si2 0.872580 0.346018 0.506862
Si Si3 0.273520 0.997167 0.856552
Si Si4 0.767429 0.275580 0.352270
Si Si5 0.585961 0.456167 0.617415
O O1 0.407131 0.881679 0.088113
O O2 0.235645 0.937023 0.310657
O O3 0.181596 0.814641 0.291557
O O4 0.000000 0.899655 0.250000
O O5 0.774951 0.324750 0.439909
O O6 0.886416 0.284154 0.572532
O O7 0.702274 0.394562 0.615272
O O8 0.500000 0.970133 0.750000
O O9 0.246918 0.004727 0.986254
O O10 0.111651 0.944088 0.879577
O O11 0.000000 0.248797 0.250000
O O12 0.500000 0.492484 0.750000
#
# Coordination Sequence:
#
# PCOD8135454 Si02
#       5
#     8   8   8   8   8
#     4  11  21  38  62  92 127 172 212 253 320 381
#     4  10  19  38  63  89 121 163 214 258 314 374
#     4  11  22  44  64  89 131 168 211 257 319 383
#     4   9  18  35  63  88 119 162 208 261 313 376
#     4  11  23  39  65  94 122 163 213 266 306 376
#
# _framework density 21.880928999999998
#
# number of rings (size 3 to 8) (size 9 to 14) (size 15 to 20)
#    0.000    1.600    4.000    1.800    0.000    1.600 
#    7.200    0.000    0.000    4.800    0.000    0.000 
#    0.000    0.000    0.000    0.000    0.000    0.000 
#
# Total GULP energy -247796.611083 kJ/mol
# GULP energy per Si atom -12389.830554 kJ/mol
# Density = 2.183113 g / cm^3
# Si number density = 21.880929 Si / 1000 Ang^3
#
#
#
# Elastic Constant Matrix: (Units=GPa)
#
#
# Indices 1 2 3 4 5 6 
#
# 1 60.6680 34.7116 31.1929 0.0000 -15.3348 0.0000
# 2 34.7116 62.7800 26.7452 0.0000 -12.8349 0.0000
# 3 31.1929 26.7452 139.9143 0.0000 -12.0016 0.0000
# 4 0.0000 0.0000 0.0000 -1.4079 0.0000 -4.6296
# 5 -15.3348 -12.8349 -12.0016 0.0000 39.5146 0.0000
# 6 0.0000 0.0000 0.0000 -4.6296 0.0000 16.5058
#
#
#
# Elastic Compliance Matrix: (Units=1/GPa)
#
#
# Indices 1 2 3 4 5 6 
#
# 1 0.026398 -0.012183 -0.003098 0.000000 0.005346 0.000000
# 2 -0.012183 0.023877 -0.001631 0.000000 0.002532 0.000000
# 3 -0.003098 -0.001631 0.008215 0.000000 0.000763 0.000000
# 4 0.000000 0.000000 0.000000 -0.369485 0.000000 -0.103634
# 5 0.005346 0.002532 0.000763 0.000000 0.028436 0.000000
# 6 0.000000 0.000000 0.000000 -0.103634 0.000000 0.031517
#
#
# Mechanical properties :
#
#
# Convention : Reuss Voigt Hill
#
# Bulk Modulus (GPa) = 40.54006 49.85128 45.19567
# Shear Modulus (GPa) = -23.92385 22.30332 -0.81026
#
# Velocity S-wave (km/s) = -3.31019 3.19612 -0.60919
# Velocity P-wave (km/s) = 1.98946 6.03760 4.49503
#
# Compressibility (1/GPa) = 0.02466696
#
# Stress axis : x y z
#
# Youngs Moduli (GPa) = 37.88195 41.88103 121.72727
#
# Poissons Ratio (x) = 0.51023 0.37709
# Poissons Ratio (y) = 0.46151 0.19853
# Poissons Ratio (z) = 0.11735 0.06830
#
# Static dielectric constant tensor:
#      x y z
#    x 3.697540 0.000000 -0.051680 
#    y 0.000000 3.707080 0.000000 
#    z -0.051680 0.000000 4.343250 
# 
# 
# High freq. dielectric constant tensor:
#      x y z
#    x 1.829500 0.000000 -0.006420 
#    y 0.000000 1.839300 0.000000 
#    z -0.006420 0.000000 1.881410 
# 
# From -- ./inp_files/135777.got.cif
#   From: 2010.06.25/outbox.cif.g09.slc.cpg/sg15_68_cif.got.tgz:135777.got - 2010.06.28 07:06:18.
