data_PCOD8135184
_publ_section_title
;
Structure prediction by ZEFSAII (Michael W. Deem and Ramdas Pophale) SiO2 
 PCOD8135184
Probable space group: C 2/C
;
_chemical_formula_sum "Si O2"
_cell_formula_units_Z 52
_cell_length_a 9.958483
_cell_length_b 17.453592
_cell_length_c 21.364155
_cell_angle_alpha 90.000000
_cell_angle_beta 42.697946
_cell_angle_gamma 90.000000
_cell_volume 2518.133856
_symmetry_space_group_name_H-M "C 2/C"
_symmetry_group_IT_number 15
_symmetry_cell_setting 'monoclinic'
loop_
_space_group_symop_operation_xyz
x,y,z
-x,y,1/2-z
-x,-y,-z
x,-y,1/2+z
1/2+x,1/2+y,z
1/2-x,1/2+y,1/2-z
1/2-x,1/2-y,-z
1/2+x,1/2-y,1/2+z
loop_
_atom_site_type_symbol
_atom_site_label
_atom_site_fract_x
_atom_site_fract_y
_atom_site_fract_z
Si Si1 0.542232 0.158486 0.911129
Si Si2 0.940258 0.228927 0.976922
Si Si3 0.681557 0.580018 0.418322
Si Si4 0.124472 0.943940 0.151966
Si Si5 0.500000 0.174949 0.250000
Si Si6 0.282112 0.461558 0.997785
Si Si7 0.361941 0.701767 0.707595
O O1 0.678160 0.089574 0.885704
O O2 0.644922 0.197833 0.814604
O O3 0.520165 0.218542 0.975751
O O4 0.331630 0.120420 0.963713
O O5 0.139525 0.227053 0.864944
O O6 0.750000 0.250000 0.000000
O O7 0.917032 0.141461 0.002991
O O8 0.815247 0.619576 0.320484
O O9 0.806426 0.519546 0.418904
O O10 0.511935 0.541107 0.436194
O O11 0.000000 0.986028 0.250000
O O12 0.985803 0.876746 0.171939
O O13 0.213203 0.003889 0.072992
O O14 0.510844 0.229891 0.305770
#
# Coordination Sequence:
#
# PCOD8135184 Si02
#       7
#     8   8   8   8   4   8   8
#     4  11  22  39  67  96 125 166 217 273 319 384
#     4  12  19  38  69  92 117 167 218 260 316 377
#     4  11  24  42  66  87 126 170 216 265 321 404
#     4  10  19  37  64  90 125 166 206 261 317 382
#     4  12  20  40  68  94 112 168 224 268 308 386
#     4  11  25  43  58  93 137 171 207 264 342 388
#     4  11  19  37  67  94 121 157 223 271 307 375
#
# _framework density 20.650212
#
# number of rings (size 3 to 8) (size 9 to 14) (size 15 to 20)
#    0.000    0.923    8.462    0.462    0.000    3.077 
#    2.769    0.000    0.000    0.000    0.000    0.000 
#    0.000    0.000    0.000    0.000    0.000    0.000 
#
# Total GULP energy -322130.254634 kJ/mol
# GULP energy per Si atom -12389.625178 kJ/mol
# Density = 2.060321 g / cm^3
# Si number density = 20.650212 Si / 1000 Ang^3
#
#
#
# Elastic Constant Matrix: (Units=GPa)
#
#
# Indices 1 2 3 4 5 6 
#
# 1 48.7746 20.9657 30.1209 -0.0023 5.4382 -0.0019
# 2 20.9657 74.1586 30.1228 -0.0013 3.5127 -0.0028
# 3 30.1209 30.1228 140.5257 -0.0038 18.2298 -0.0070
# 4 -0.0023 -0.0013 -0.0038 29.9751 -0.0003 -3.1715
# 5 5.4382 3.5127 18.2298 -0.0003 20.4100 0.0075
# 6 -0.0019 -0.0028 -0.0070 -3.1715 0.0075 26.4092
#
#
#
# Elastic Compliance Matrix: (Units=1/GPa)
#
#
# Indices 1 2 3 4 5 6 
#
# 1 0.025599 -0.005499 -0.004011 0.000001 -0.002292 0.000001
# 2 -0.005499 0.015954 -0.002347 0.000000 0.000816 0.000000
# 3 -0.004011 -0.002347 0.009374 0.000001 -0.006900 0.000004
# 4 0.000001 0.000000 0.000001 0.033790 -0.000002 0.004058
# 5 -0.002292 0.000816 -0.006900 -0.000002 0.055629 -0.000018
# 6 0.000001 0.000000 0.000004 0.004058 -0.000018 0.038353
#
#
# Mechanical properties :
#
#
# Convention : Reuss Voigt Hill
#
# Bulk Modulus (GPa) = 36.74775 47.31976 42.03376
# Shear Modulus (GPa) = 23.64243 27.50883 25.57563
#
# Velocity S-wave (km/s) = 3.38731 3.65380 3.52307
# Velocity P-wave (km/s) = 5.75608 6.38475 6.07855
#
# Compressibility (1/GPa) = 0.02721255
#
# Stress axis : x y z
#
# Youngs Moduli (GPa) = 39.06432 62.67999 106.67765
#
# Poissons Ratio (x) = 0.34470 0.42786
# Poissons Ratio (y) = 0.21483 0.25037
# Poissons Ratio (z) = 0.15668 0.14711
#
# Static dielectric constant tensor:
#      x y z
#    x 3.485810 0.000010 0.242350 
#    y 0.000010 3.709380 0.000010 
#    z 0.242350 0.000010 4.106590 
# 
# 
# High freq. dielectric constant tensor:
#      x y z
#    x 1.775540 0.000000 0.018730 
#    y 0.000000 1.803780 0.000000 
#    z 0.018730 0.000000 1.824150 
# 
# From -- ./inp_files/233010.got.cif
#   From: 2010.06.25/outbox.cif.g09.slc.cpg/sg15_117_cif.got.tgz:233010.got - 2010.06.28 07:06:18.
