data_PCOD8135239
_publ_section_title
;
Structure prediction by ZEFSAII (Michael W. Deem and Ramdas Pophale) SiO2 
 PCOD8135239
Probable space group: C 2/C
;
_chemical_formula_sum "Si O2"
_cell_formula_units_Z 48
_cell_length_a 10.957623
_cell_length_b 14.887494
_cell_length_c 15.800229
_cell_angle_alpha 90.000000
_cell_angle_beta 62.222199
_cell_angle_gamma 90.000000
_cell_volume 2280.487020
_symmetry_space_group_name_H-M "C 2/C"
_symmetry_group_IT_number 15
_symmetry_cell_setting 'monoclinic'
loop_
_space_group_symop_operation_xyz
x,y,z
-x,y,1/2-z
-x,-y,-z
x,-y,1/2+z
1/2+x,1/2+y,z
1/2-x,1/2+y,1/2-z
1/2-x,1/2-y,-z
1/2+x,1/2-y,1/2+z
loop_
_atom_site_type_symbol
_atom_site_label
_atom_site_fract_x
_atom_site_fract_y
_atom_site_fract_z
Si Si1 0.319155 0.033700 0.971340
Si Si2 0.556766 0.459588 0.145088
Si Si3 0.372354 0.138601 0.235042
Si Si4 0.750350 0.816421 0.342060
Si Si5 0.240432 0.954410 0.306169
Si Si6 0.493700 0.864719 0.973745
O O1 0.310446 0.054802 0.874826
O O2 0.420349 0.951078 0.956144
O O3 0.390825 0.117616 0.992746
O O4 0.168348 0.019671 0.060671
O O5 0.500000 0.506619 0.250000
O O6 0.622520 0.363505 0.150334
O O7 0.424709 0.444839 0.127581
O O8 0.500000 0.107422 0.250000
O O9 0.285675 0.215306 0.308347
O O10 0.425617 0.181633 0.129662
O O11 0.277597 0.050606 0.251908
O O12 0.705994 0.877231 0.275480
O O13 0.622233 0.802800 0.446990
#
# Coordination Sequence:
#
# PCOD8135239 Si02
#       6
#     8   8   8   8   8   8
#     4  10  19  37  66  93 121 167 208 257 310 372
#     4   9  18  37  59  90 125 163 198 254 311 357
#     4  12  23  41  66  96 120 162 218 257 302 377
#     4  10  24  42  65  91 129 163 203 267 310 363
#     4  11  21  38  66  94 124 165 211 253 310 374
#     4  10  21  39  63  91 127 162 207 258 317 357
#
# _framework density 21.048137000000001
#
# number of rings (size 3 to 8) (size 9 to 14) (size 15 to 20)
#    0.000    1.667    1.667    6.000    0.000    0.667 
#    9.000    0.833   14.667    0.000    0.000    0.000 
#    0.000    0.000    0.000    0.000    0.000    0.000 
#
# Total GULP energy -297527.178254 kJ/mol
# GULP energy per Si atom -12396.965761 kJ/mol
# Density = 2.100023 g / cm^3
# Si number density = 21.048137 Si / 1000 Ang^3
#
#
#
# Elastic Constant Matrix: (Units=GPa)
#
#
# Indices 1 2 3 4 5 6 
#
# 1 97.6133 8.4597 38.5941 0.0000 13.7738 0.0000
# 2 8.4597 43.7846 3.1128 0.0000 -2.4673 0.0000
# 3 38.5941 3.1128 113.7365 0.0000 -3.4539 0.0000
# 4 0.0000 0.0000 0.0000 29.9312 0.0000 -1.8879
# 5 13.7738 -2.4673 -3.4539 0.0000 34.6381 0.0000
# 6 0.0000 0.0000 0.0000 -1.8879 0.0000 2.5536
#
#
#
# Elastic Compliance Matrix: (Units=1/GPa)
#
#
# Indices 1 2 3 4 5 6 
#
# 1 0.013086 -0.002534 -0.004548 0.000000 -0.005838 0.000000
# 2 -0.002534 0.023460 0.000300 0.000000 0.002709 0.000000
# 3 -0.004548 0.000300 0.010415 0.000000 0.002869 0.000000
# 4 0.000000 0.000000 0.000000 0.035044 0.000000 0.025909
# 5 -0.005838 0.002709 0.002869 0.000000 0.031670 0.000000
# 6 0.000000 0.000000 0.000000 0.025909 0.000000 0.410752
#
#
# Mechanical properties :
#
#
# Convention : Reuss Voigt Hill
#
# Bulk Modulus (GPa) = 29.94375 39.49639 34.72007
# Shear Modulus (GPa) = 9.10541 27.08912 18.09727
#
# Velocity S-wave (km/s) = 2.08216 3.59138 2.93542
# Velocity P-wave (km/s) = 4.47635 6.00024 5.29342
#
# Compressibility (1/GPa) = 0.03339595
#
# Stress axis : x y z
#
# Youngs Moduli (GPa) = 76.41632 42.62575 96.01932
#
# Poissons Ratio (x) = 0.10801 0.43674
# Poissons Ratio (y) = 0.19364 -0.02881
# Poissons Ratio (z) = 0.34758 -0.01279
#
# Static dielectric constant tensor:
#      x y z
#    x 3.988670 0.000000 -0.083630 
#    y 0.000000 3.267020 0.000000 
#    z -0.083630 0.000000 4.067690 
# 
# 
# High freq. dielectric constant tensor:
#      x y z
#    x 1.831430 0.000000 -0.005950 
#    y 0.000000 1.777240 0.000000 
#    z -0.005950 0.000000 1.846370 
# 
# From -- ./inp_files/144088.got.cif
#   From: 2010.06.25/outbox.cif.g09.slc.cpg/sg15_73_cif.got.tgz:144088.got - 2010.06.28 07:06:18.
