data_PCOD8135801
_publ_section_title
;
Structure prediction by ZEFSAII (Michael W. Deem and Ramdas Pophale) SiO2 
 PCOD8135801
Probable space group: C 2/C
;
_chemical_formula_sum "Si O2"
_cell_formula_units_Z 64
_cell_length_a 11.358659
_cell_length_b 22.882513
_cell_length_c 12.760825
_cell_angle_alpha 90.000000
_cell_angle_beta 105.765368
_cell_angle_gamma 90.000000
_cell_volume 3191.958251
_symmetry_space_group_name_H-M "C 2/C"
_symmetry_group_IT_number 15
_symmetry_cell_setting 'monoclinic'
loop_
_space_group_symop_operation_xyz
x,y,z
-x,y,1/2-z
-x,-y,-z
x,-y,1/2+z
1/2+x,1/2+y,z
1/2-x,1/2+y,1/2-z
1/2-x,1/2-y,-z
1/2+x,1/2-y,1/2+z
loop_
_atom_site_type_symbol
_atom_site_label
_atom_site_fract_x
_atom_site_fract_y
_atom_site_fract_z
Si Si1 0.778709 0.814005 0.962586
Si Si2 0.233729 0.472569 0.156615
Si Si3 0.418055 0.124926 0.978354
Si Si4 0.053046 0.896899 0.372322
Si Si5 0.127818 0.681763 0.741660
Si Si6 0.707222 0.588489 0.625580
Si Si7 0.365150 0.314845 0.744806
Si Si8 0.804648 0.599078 0.421552
O O1 0.829958 0.818521 0.857846
O O2 0.750000 0.750000 0.000000
O O3 0.657234 0.855148 0.936807
O O4 0.879342 0.841758 0.062912
O O5 0.120400 0.438173 0.076809
O O6 0.357794 0.452561 0.126256
O O7 0.243280 0.460616 0.283032
O O8 0.207239 0.541054 0.149827
O O9 0.378700 0.175362 0.885398
O O10 0.559317 0.124196 0.040669
O O11 0.000000 0.874117 0.250000
O O12 0.939920 0.915095 0.418954
O O13 0.246632 0.650188 0.817242
O O14 0.139852 0.747128 0.787422
O O15 0.000000 0.653225 0.750000
O O16 0.760729 0.578826 0.524551
O O17 0.500000 0.339658 0.750000
O O18 0.273393 0.349549 0.648258
#
# Coordination Sequence:
#
# PCOD8135801 Si02
#       8
#     8   8   8   8   8   8   8   8
#     4  11  22  41  63  89 131 167 197 268 330 359
#     4   9  22  39  61  90 129 163 210 269 315 375
#     4  10  21  41  63  92 121 171 213 251 325 387
#     4   9  20  39  62  92 117 166 225 248 307 398
#     4  10  19  40  61  88 128 161 211 259 319 378
#     4  10  21  38  66  89 119 169 210 265 313 376
#     4  11  26  41  60  94 130 168 206 267 316 376
#     4  12  24  40  63  97 123 166 219 258 315 381
#
# _framework density 20.050388000000002
#
# number of rings (size 3 to 8) (size 9 to 14) (size 15 to 20)
#    0.000    1.750    2.500    1.875    0.000    6.000 
#    0.000    1.250    0.000    0.000    0.000    0.000 
#    0.000    0.000    0.000    0.000    0.000    0.000 
#
# Total GULP energy -396715.389984 kJ/mol
# GULP energy per Si atom -12397.355937 kJ/mol
# Density = 2.000475 g / cm^3
# Si number density = 20.050388 Si / 1000 Ang^3
#
#
#
# Elastic Constant Matrix: (Units=GPa)
#
#
# Indices 1 2 3 4 5 6 
#
# 1 123.3218 28.5071 50.4046 0.0000 0.2986 0.0000
# 2 28.5071 97.8568 39.6156 0.0000 12.8495 0.0000
# 3 50.4046 39.6156 88.3554 0.0000 -3.6741 0.0000
# 4 0.0000 0.0000 0.0000 15.1861 0.0000 -2.2427
# 5 0.2986 12.8495 -3.6741 0.0000 41.7439 0.0000
# 6 0.0000 0.0000 0.0000 -2.2427 0.0000 19.3800
#
#
#
# Elastic Compliance Matrix: (Units=1/GPa)
#
#
# Indices 1 2 3 4 5 6 
#
# 1 0.010629 -0.000718 -0.005756 0.000000 -0.000362 0.000000
# 2 -0.000718 0.013375 -0.005779 0.000000 -0.004620 0.000000
# 3 -0.005756 -0.005779 0.017332 0.000000 0.003346 0.000000
# 4 0.000000 0.000000 0.000000 0.066995 0.000000 0.007753
# 5 -0.000362 -0.004620 0.003346 0.000000 0.025675 0.000000
# 6 0.000000 0.000000 0.000000 0.007753 0.000000 0.052497
#
#
# Mechanical properties :
#
#
# Convention : Reuss Voigt Hill
#
# Bulk Modulus (GPa) = 59.42581 60.73204 60.07892
# Shear Modulus (GPa) = 23.08212 27.99577 25.53895
#
# Velocity S-wave (km/s) = 3.39662 3.74072 3.57282
# Velocity P-wave (km/s) = 6.71456 7.00092 6.85923
#
# Compressibility (1/GPa) = 0.01682771
#
# Stress axis : x y z
#
# Youngs Moduli (GPa) = 94.08648 74.76901 57.69709
#
# Poissons Ratio (x) = 0.05372 0.33212
# Poissons Ratio (y) = 0.06760 0.33343
# Poissons Ratio (z) = 0.54158 0.43209
#
# Static dielectric constant tensor:
#      x y z
#    x 4.066350 0.000000 -0.109190 
#    y 0.000000 3.446510 0.000000 
#    z -0.109190 0.000000 3.599800 
# 
# 
# High freq. dielectric constant tensor:
#      x y z
#    x 1.802060 0.000000 -0.004630 
#    y 0.000000 1.770180 0.000000 
#    z -0.004630 0.000000 1.775900 
# 
# From -- ./inp_files/91296.got.cif
#   From: 2010.06.25/outbox.cif.g09.slc.cpg/sg15_46_cif.got.tgz:91296.got - 2010.06.28 07:06:18.
