data_PCOD8135529
_publ_section_title
;
Structure prediction by ZEFSAII (Michael W. Deem and Ramdas Pophale) SiO2 
 PCOD8135529
Probable space group: C 2/C
;
_chemical_formula_sum "Si O2"
_cell_formula_units_Z 36
_cell_length_a 11.780243
_cell_length_b 13.256135
_cell_length_c 14.598844
_cell_angle_alpha 90.000000
_cell_angle_beta 37.484025
_cell_angle_gamma 90.000000
_cell_volume 1387.327234
_symmetry_space_group_name_H-M "C 2/C"
_symmetry_group_IT_number 15
_symmetry_cell_setting 'monoclinic'
loop_
_space_group_symop_operation_xyz
x,y,z
-x,y,1/2-z
-x,-y,-z
x,-y,1/2+z
1/2+x,1/2+y,z
1/2-x,1/2+y,1/2-z
1/2-x,1/2-y,-z
1/2+x,1/2-y,1/2+z
loop_
_atom_site_type_symbol
_atom_site_label
_atom_site_fract_x
_atom_site_fract_y
_atom_site_fract_z
Si Si1 0.868789 0.836997 0.100078
Si Si2 0.000000 0.645023 0.750000
Si Si3 0.435614 0.809949 0.892411
Si Si4 0.414102 0.459823 0.667986
Si Si5 0.793517 0.484176 0.524123
O O1 0.684332 0.793608 0.165035
O O2 0.914678 0.758340 0.150252
O O3 0.824961 0.950259 0.164858
O O4 0.041650 0.856811 0.918009
O O5 0.058872 0.583472 0.622841
O O6 0.500000 0.842288 0.750000
O O7 0.250000 0.750000 0.000000
O O8 0.394617 0.909236 0.978410
O O9 0.607742 0.503610 0.583741
O O10 0.264950 0.432594 0.842339
#
# Coordination Sequence:
#
# PCOD8135529 Si02
#       5
#     8   4   8   8   8
#     4  10  21  38  61  98 140 177 225 280 340 401
#     4  10  22  40  64  96 142 180 226 274 332 428
#     4  12  23  38  67 106 139 173 222 295 343 390
#     4   9  19  37  64  92 135 178 224 282 330 408
#     4  10  19  38  66 100 130 178 228 279 345 398
#
# _framework density 25.949176999999999
#
# number of rings (size 3 to 8) (size 9 to 14) (size 15 to 20)
#    0.000    1.778    3.333    1.333    0.000    0.889 
#    0.000    2.222    0.000    5.333    2.889    0.000 
#    0.000    2.000    0.000    0.000    0.000    0.000 
#
# Total GULP energy -223114.707303 kJ/mol
# GULP energy per Si atom -12395.261517 kJ/mol
# Density = 2.589012 g / cm^3
# Si number density = 25.949177 Si / 1000 Ang^3
#
#
#
# Elastic Constant Matrix: (Units=GPa)
#
#
# Indices 1 2 3 4 5 6 
#
# 1 123.1560 25.7909 32.3939 -0.0035 -6.7309 0.0006
# 2 25.7909 53.9800 26.0768 -0.0097 1.4733 0.0017
# 3 32.3939 26.0768 175.8877 -0.0151 35.6965 0.0036
# 4 -0.0035 -0.0097 -0.0151 16.6477 0.0054 -1.8936
# 5 -6.7309 1.4733 35.6965 0.0054 47.7423 -0.0008
# 6 0.0006 0.0017 0.0036 -1.8936 -0.0008 13.4163
#
#
#
# Elastic Compliance Matrix: (Units=1/GPa)
#
#
# Indices 1 2 3 4 5 6 
#
# 1 0.009525 -0.003778 -0.001757 -0.000003 0.002773 0.000000
# 2 -0.003778 0.021597 -0.002668 0.000009 0.000796 -0.000001
# 3 -0.001757 -0.002668 0.007590 0.000007 -0.005840 -0.000001
# 4 -0.000003 0.000009 0.000007 0.061048 -0.000012 0.008616
# 5 0.002773 0.000796 -0.005840 -0.000012 0.025679 0.000001
# 6 0.000000 -0.000001 -0.000001 0.008616 0.000001 0.075752
#
#
# Mechanical properties :
#
#
# Convention : Reuss Voigt Hill
#
# Bulk Modulus (GPa) = 44.82862 57.94964 51.38913
# Shear Modulus (GPa) = 22.21912 33.47874 27.84893
#
# Velocity S-wave (km/s) = 2.92936 3.59578 3.27954
# Velocity P-wave (km/s) = 5.36233 6.29444 5.84699
#
# Compressibility (1/GPa) = 0.02230718
#
# Stress axis : x y z
#
# Youngs Moduli (GPa) = 104.99180 46.30212 131.75582
#
# Poissons Ratio (x) = 0.17491 0.23148
# Poissons Ratio (y) = 0.39662 0.35148
# Poissons Ratio (z) = 0.18446 0.12352
#
# Static dielectric constant tensor:
#      x y z
#    x 4.617250 -0.000010 -0.045960 
#    y -0.000010 3.673880 0.000030 
#    z -0.045960 0.000030 4.861060 
# 
# 
# High freq. dielectric constant tensor:
#      x y z
#    x 2.044920 0.000000 0.000620 
#    y 0.000000 2.003650 0.000000 
#    z 0.000620 0.000000 2.055720 
# 
# From -- ./inp_files/144013.got.cif
#   From: 2010.06.25/outbox.cif.g09.slc.cpg/sg15_73_cif.got.tgz:144013.got - 2010.06.28 07:06:18.
