data_PCOD8135751
_publ_section_title
;
Structure prediction by ZEFSAII (Michael W. Deem and Ramdas Pophale) SiO2 
 PCOD8135751
Probable space group: C 2/C
;
_chemical_formula_sum "Si O2"
_cell_formula_units_Z 48
_cell_length_a 11.811958
_cell_length_b 9.680982
_cell_length_c 20.811577
_cell_angle_alpha 90.000000
_cell_angle_beta 69.080122
_cell_angle_gamma 90.000000
_cell_volume 2222.955012
_symmetry_space_group_name_H-M "C 2/C"
_symmetry_group_IT_number 15
_symmetry_cell_setting 'monoclinic'
loop_
_space_group_symop_operation_xyz
x,y,z
-x,y,1/2-z
-x,-y,-z
x,-y,1/2+z
1/2+x,1/2+y,z
1/2-x,1/2+y,1/2-z
1/2-x,1/2-y,-z
1/2+x,1/2-y,1/2+z
loop_
_atom_site_type_symbol
_atom_site_label
_atom_site_fract_x
_atom_site_fract_y
_atom_site_fract_z
Si Si1 0.257683 0.418760 0.926488
Si Si2 0.683207 0.063332 0.735197
Si Si3 0.629678 0.170996 0.009913
Si Si4 0.046570 0.481109 0.135096
Si Si5 0.421167 0.263485 0.971746
Si Si6 0.143860 0.120922 0.230653
O O1 0.164504 0.541578 0.958803
O O2 0.378170 0.409266 0.948328
O O3 0.295839 0.432136 0.846247
O O4 0.182973 0.279362 0.956340
O O5 0.584982 0.007752 0.806187
O O6 0.647980 0.023078 0.669962
O O7 0.692209 0.228445 0.740497
O O8 0.812038 0.989333 0.724512
O O9 0.544787 0.275275 0.986938
O O10 0.750000 0.250000 0.000000
O O11 0.564982 0.117799 0.087929
O O12 0.061284 0.343553 0.090299
O O13 0.000000 0.123353 0.250000
#
# Coordination Sequence:
#
# PCOD8135751 Si02
#       6
#     8   8   8   8   8   8
#     4  10  21  39  66  90 124 174 215 264 339 392
#     4  11  23  42  71  93 133 179 226 271 337 410
#     4  11  24  39  63 101 133 165 225 280 329 400
#     4  10  20  43  66  90 127 183 214 265 343 397
#     4  10  19  39  67  87 123 173 215 258 336 392
#     4  12  24  45  66  99 135 178 223 278 337 396
#
# _framework density 21.592879
#
# number of rings (size 3 to 8) (size 9 to 14) (size 15 to 20)
#    0.000    1.333    3.333    4.000    0.000    4.667 
#    9.000    0.000    0.000    0.000    0.000    0.000 
#    0.000    0.000    0.000    0.000    0.000    0.000 
#
# Total GULP energy -297526.049375 kJ/mol
# GULP energy per Si atom -12396.918724 kJ/mol
# Density = 2.154373 g / cm^3
# Si number density = 21.592879 Si / 1000 Ang^3
#
#
#
# Elastic Constant Matrix: (Units=GPa)
#
#
# Indices 1 2 3 4 5 6 
#
# 1 136.6006 42.7862 17.6087 0.0000 26.6598 0.0000
# 2 42.7862 54.2957 9.1370 0.0000 4.3506 0.0000
# 3 17.6087 9.1370 102.1520 0.0000 6.0829 0.0000
# 4 0.0000 0.0000 0.0000 10.5686 0.0000 -0.0521
# 5 26.6598 4.3506 6.0829 0.0000 22.7730 0.0000
# 6 0.0000 0.0000 0.0000 -0.0521 0.0000 43.5090
#
#
#
# Elastic Compliance Matrix: (Units=1/GPa)
#
#
# Indices 1 2 3 4 5 6 
#
# 1 0.012726 -0.008879 -0.000623 0.000000 -0.013035 0.000000
# 2 -0.008879 0.025123 -0.001067 0.000000 0.005880 0.000000
# 3 -0.000623 -0.001067 0.010097 0.000000 -0.001764 0.000000
# 4 0.000000 0.000000 0.000000 0.094621 0.000000 0.000113
# 5 -0.013035 0.005880 -0.001764 0.000000 0.058520 0.000000
# 6 0.000000 0.000000 0.000000 0.000113 0.000000 0.022984
#
#
# Mechanical properties :
#
#
# Convention : Reuss Voigt Hill
#
# Bulk Modulus (GPa) = 37.30215 48.01247 42.65731
# Shear Modulus (GPa) = 19.67381 30.27121 24.97251
#
# Velocity S-wave (km/s) = 3.02176 3.74827 3.40445
# Velocity P-wave (km/s) = 5.43023 6.40439 5.93733
#
# Compressibility (1/GPa) = 0.02680811
#
# Stress axis : x y z
#
# Youngs Moduli (GPa) = 78.57824 39.80418 99.03732
#
# Poissons Ratio (x) = 0.35343 0.06173
# Poissons Ratio (y) = 0.69771 0.10564
# Poissons Ratio (z) = 0.04898 0.04246
#
# Static dielectric constant tensor:
#      x y z
#    x 4.113030 0.000000 0.086010 
#    y 0.000000 3.550570 0.000000 
#    z 0.086010 0.000000 4.065290 
# 
# 
# High freq. dielectric constant tensor:
#      x y z
#    x 1.858810 0.000000 0.005650 
#    y 0.000000 1.816740 0.000000 
#    z 0.005650 0.000000 1.859370 
# 
# From -- ./inp_files/196505.got.cif
#   From: 2010.06.25/outbox.cif.g09.slc.cpg/sg15_99_cif.got.tgz:196505.got - 2010.06.28 07:06:18.
