data_PCOD8135680
_publ_section_title
;
Structure prediction by ZEFSAII (Michael W. Deem and Ramdas Pophale) SiO2 
 PCOD8135680
Probable space group: C 2/C
;
_chemical_formula_sum "Si O2"
_cell_formula_units_Z 64
_cell_length_a 14.057003
_cell_length_b 16.490544
_cell_length_c 17.159844
_cell_angle_alpha 90.000000
_cell_angle_beta 133.870666
_cell_angle_gamma 90.000000
_cell_volume 2867.607507
_symmetry_space_group_name_H-M "C 2/C"
_symmetry_group_IT_number 15
_symmetry_cell_setting 'monoclinic'
loop_
_space_group_symop_operation_xyz
x,y,z
-x,y,1/2-z
-x,-y,-z
x,-y,1/2+z
1/2+x,1/2+y,z
1/2-x,1/2+y,1/2-z
1/2-x,1/2-y,-z
1/2+x,1/2-y,1/2+z
loop_
_atom_site_type_symbol
_atom_site_label
_atom_site_fract_x
_atom_site_fract_y
_atom_site_fract_z
Si Si1 0.390084 0.759719 0.887166
Si Si2 0.090209 0.881063 0.500732
Si Si3 0.663548 0.962817 0.258895
Si Si4 0.006732 0.325936 0.408562
Si Si5 0.937037 0.017530 0.362850
Si Si6 0.760451 0.657378 0.575566
Si Si7 0.127960 0.358513 0.776066
Si Si8 0.998524 0.829702 0.835245
O O1 0.272146 0.715193 0.868073
O O2 0.340216 0.800024 0.778892
O O3 0.508758 0.698876 0.933391
O O4 0.445557 0.831157 0.975099
O O5 0.245516 0.860608 0.594362
O O6 0.056026 0.952213 0.417695
O O7 0.034227 0.921949 0.547687
O O8 0.571670 0.906700 0.153605
O O9 0.803744 0.966349 0.295642
O O10 0.682933 0.926426 0.356510
O O11 0.597755 0.050898 0.228448
O O12 0.126568 0.306404 0.416108
O O13 0.929779 0.239407 0.352148
O O14 0.918616 0.084448 0.284070
O O15 0.638312 0.641355 0.450169
O O16 0.000000 0.326312 0.750000
O O17 0.000000 0.792678 0.750000
#
# Coordination Sequence:
#
# PCOD8135680 Si02
#       8
#     8   8   8   8   8   8   8   8
#     4  11  23  41  67  96 125 166 218 264 320 382
#     4  10  20  40  67  86 120 165 213 262 311 375
#     4  11  23  40  65  89 132 172 213 256 323 386
#     4  11  24  38  62  98 134 164 198 271 333 384
#     4  10  19  39  63  92 119 168 222 249 305 395
#     4  11  21  40  64  97 130 164 206 258 330 395
#     4  11  26  43  64  94 123 173 223 261 315 380
#     4  11  21  36  61  96 128 161 211 267 322 375
#
# _framework density 22.318258
#
# number of rings (size 3 to 8) (size 9 to 14) (size 15 to 20)
#    0.000    1.250    3.750    4.875    1.750    5.000 
#    0.000    3.125    0.000    0.000    0.000    0.000 
#    0.000    0.000    0.000    0.000    0.000    0.000 
#
# Total GULP energy -396527.890166 kJ/mol
# GULP energy per Si atom -12391.496568 kJ/mol
# Density = 2.226746 g / cm^3
# Si number density = 22.318258 Si / 1000 Ang^3
#
#
#
# Elastic Constant Matrix: (Units=GPa)
#
#
# Indices 1 2 3 4 5 6 
#
# 1 71.7211 25.8390 21.8963 0.0000 4.8554 0.0000
# 2 25.8390 97.9546 15.2053 0.0000 3.7797 0.0000
# 3 21.8963 15.2053 43.0659 0.0000 1.2786 0.0000
# 4 0.0000 0.0000 0.0000 38.1395 0.0000 2.3335
# 5 4.8554 3.7797 1.2786 0.0000 27.0548 0.0000
# 6 0.0000 0.0000 0.0000 2.3335 0.0000 30.9691
#
#
#
# Elastic Compliance Matrix: (Units=1/GPa)
#
#
# Indices 1 2 3 4 5 6 
#
# 1 0.017675 -0.003373 -0.007726 0.000000 -0.002336 0.000000
# 2 -0.003373 0.011492 -0.002316 0.000000 -0.000891 0.000000
# 3 -0.007726 -0.002316 0.027955 0.000000 0.000389 0.000000
# 4 0.000000 0.000000 0.000000 0.026341 0.000000 -0.001985
# 5 -0.002336 -0.000891 0.000389 0.000000 0.037487 0.000000
# 6 0.000000 0.000000 0.000000 -0.001985 0.000000 0.032440
#
#
# Mechanical properties :
#
#
# Convention : Reuss Voigt Hill
#
# Bulk Modulus (GPa) = 33.01301 37.62479 35.31890
# Shear Modulus (GPa) = 26.27173 29.21943 27.74558
#
# Velocity S-wave (km/s) = 3.43467 3.62223 3.52970
# Velocity P-wave (km/s) = 5.52751 5.86421 5.69835
#
# Compressibility (1/GPa) = 0.03029109
#
# Stress axis : x y z
#
# Youngs Moduli (GPa) = 56.57689 87.01353 35.77192
#
# Poissons Ratio (x) = 0.29349 0.27639
# Poissons Ratio (y) = 0.19083 0.08286
# Poissons Ratio (z) = 0.43714 0.20155
#
# Static dielectric constant tensor:
#      x y z
#    x 3.799430 0.000000 0.084920 
#    y 0.000000 4.268310 0.000000 
#    z 0.084920 0.000000 3.925510 
# 
# 
# High freq. dielectric constant tensor:
#      x y z
#    x 1.843640 0.000000 0.022240 
#    y 0.000000 1.891270 0.000000 
#    z 0.022240 0.000000 1.869220 
# 
# From -- ./inp_files/205739.got.cif
#   From: 2010.06.25/outbox.cif.g09.slc.cpg/sg15_103_cif.got.tgz:205739.got - 2010.06.28 07:06:18.
