data_PCOD8135732
_publ_section_title
;
Structure prediction by ZEFSAII (Michael W. Deem and Ramdas Pophale) SiO2 
 PCOD8135732
Probable space group: C 2/C
;
_chemical_formula_sum "Si O2"
_cell_formula_units_Z 44
_cell_length_a 8.769695
_cell_length_b 19.005196
_cell_length_c 13.341218
_cell_angle_alpha 90.000000
_cell_angle_beta 56.849633
_cell_angle_gamma 90.000000
_cell_volume 1861.664539
_symmetry_space_group_name_H-M "C 2/C"
_symmetry_group_IT_number 15
_symmetry_cell_setting 'monoclinic'
loop_
_space_group_symop_operation_xyz
x,y,z
-x,y,1/2-z
-x,-y,-z
x,-y,1/2+z
1/2+x,1/2+y,z
1/2-x,1/2+y,1/2-z
1/2-x,1/2-y,-z
1/2+x,1/2-y,1/2+z
loop_
_atom_site_type_symbol
_atom_site_label
_atom_site_fract_x
_atom_site_fract_y
_atom_site_fract_z
Si Si1 0.422376 0.284571 0.171021
Si Si2 0.500000 0.603078 0.250000
Si Si3 0.298666 0.814624 0.549551
Si Si4 0.641138 0.413282 0.036436
Si Si5 0.791946 0.988852 0.681093
Si Si6 0.634492 0.892763 0.346640
O O1 0.500000 0.260159 0.250000
O O2 0.385868 0.213362 0.122134
O O3 0.568985 0.332588 0.057266
O O4 0.237128 0.327939 0.256377
O O5 0.396551 0.649065 0.369495
O O6 0.663941 0.561234 0.242005
O O7 0.250000 0.750000 0.500000
O O8 0.431386 0.869052 0.445888
O O9 0.469298 0.463701 0.103354
O O10 0.762403 0.420559 0.091686
O O11 0.755896 0.439794 0.898122
O O12 0.626427 0.040920 0.772451
#
# Coordination Sequence:
#
# PCOD8135732 Si02
#       6
#     8   4   8   8   8   8
#     4   9  20  40  66  97 132 174 222 277 338 403
#     4  12  24  40  64  86 136 176 220 278 336 396
#     4  12  26  41  64  98 137 176 223 275 342 406
#     4   9  18  37  69  94 129 174 220 280 330 389
#     4  10  19  39  65  94 132 176 221 269 338 390
#     4  10  21  41  67  96 131 173 227 276 327 411
#
# _framework density 23.634763
#
# number of rings (size 3 to 8) (size 9 to 14) (size 15 to 20)
#    0.000    1.818    1.818    3.273    0.000    5.091 
#    0.000    0.000    8.000    0.000    0.000    0.000 
#    0.000    0.000    0.000    0.000    0.000    0.000 
#
# Total GULP energy -272740.312777 kJ/mol
# GULP energy per Si atom -12397.286944 kJ/mol
# Density = 2.358097 g / cm^3
# Si number density = 23.634763 Si / 1000 Ang^3
#
#
#
# Elastic Constant Matrix: (Units=GPa)
#
#
# Indices 1 2 3 4 5 6 
#
# 1 55.3892 25.2386 36.4449 0.0000 0.9585 0.0000
# 2 25.2386 95.9508 63.9495 0.0000 -6.3440 0.0000
# 3 36.4449 63.9495 140.6489 0.0000 -9.6027 0.0000
# 4 0.0000 0.0000 0.0000 51.0404 0.0000 10.1512
# 5 0.9585 -6.3440 -9.6027 0.0000 38.4014 0.0000
# 6 0.0000 0.0000 0.0000 10.1512 0.0000 15.3487
#
#
#
# Elastic Compliance Matrix: (Units=1/GPa)
#
#
# Indices 1 2 3 4 5 6 
#
# 1 0.022493 -0.002981 -0.004624 0.000000 -0.002210 0.000000
# 2 -0.002981 0.015372 -0.006143 0.000000 0.001078 0.000000
# 3 -0.004624 -0.006143 0.011232 0.000000 0.001909 0.000000
# 4 0.000000 0.000000 0.000000 0.022560 0.000000 -0.014920
# 5 -0.002210 0.001078 0.001909 0.000000 0.026751 0.000000
# 6 0.000000 0.000000 0.000000 -0.014920 0.000000 0.075020
#
#
# Mechanical properties :
#
#
# Convention : Reuss Voigt Hill
#
# Bulk Modulus (GPa) = 46.29559 60.36166 53.32863
# Shear Modulus (GPa) = 24.02423 32.04849 28.03636
#
# Velocity S-wave (km/s) = 3.19169 3.68637 3.44791
# Velocity P-wave (km/s) = 5.76306 6.61165 6.20189
#
# Compressibility (1/GPa) = 0.02160033
#
# Stress axis : x y z
#
# Youngs Moduli (GPa) = 44.45827 65.05499 89.03497
#
# Poissons Ratio (x) = 0.19392 0.41170
# Poissons Ratio (y) = 0.13252 0.54695
# Poissons Ratio (z) = 0.20557 0.39964
#
# Static dielectric constant tensor:
#      x y z
#    x 4.051190 0.000000 0.084170 
#    y 0.000000 4.538530 0.000000 
#    z 0.084170 0.000000 4.529040 
# 
# 
# High freq. dielectric constant tensor:
#      x y z
#    x 1.920870 0.000000 0.014590 
#    y 0.000000 1.937370 0.000000 
#    z 0.014590 0.000000 1.937160 
# 
# From -- ./inp_files/134731.got.cif
#   From: 2010.06.25/outbox.cif.g09.slc.cpg/sg15_68_cif.got.tgz:134731.got - 2010.06.28 07:06:18.
