data_PCOD8135955
_publ_section_title
;
Structure prediction by ZEFSAII (Michael W. Deem and Ramdas Pophale) SiO2 
 PCOD8135955
Probable space group: C 2/C
;
_chemical_formula_sum "Si O2"
_cell_formula_units_Z 52
_cell_length_a 16.588062
_cell_length_b 14.756211
_cell_length_c 10.392656
_cell_angle_alpha 90.000000
_cell_angle_beta 65.283192
_cell_angle_gamma 90.000000
_cell_volume 2310.826176
_symmetry_space_group_name_H-M "C 2/C"
_symmetry_group_IT_number 15
_symmetry_cell_setting 'monoclinic'
loop_
_space_group_symop_operation_xyz
x,y,z
-x,y,1/2-z
-x,-y,-z
x,-y,1/2+z
1/2+x,1/2+y,z
1/2-x,1/2+y,1/2-z
1/2-x,1/2-y,-z
1/2+x,1/2-y,1/2+z
loop_
_atom_site_type_symbol
_atom_site_label
_atom_site_fract_x
_atom_site_fract_y
_atom_site_fract_z
Si Si1 0.574907 0.314193 0.597812
Si Si2 0.159892 0.280792 0.497316
Si Si3 0.795296 0.068553 0.614218
Si Si4 0.105802 0.352055 0.918558
Si Si5 0.712992 0.744602 0.200275
Si Si6 0.786776 0.481526 0.071243
Si Si7 0.500000 0.816275 0.750000
O O1 0.500000 0.343963 0.750000
O O2 0.602813 0.392789 0.475816
O O3 0.550474 0.217213 0.548799
O O4 0.669677 0.304596 0.607972
O O5 0.250000 0.250000 0.500000
O O6 0.147858 0.234447 0.366204
O O7 0.160306 0.389016 0.482911
O O8 0.075275 0.251275 0.638459
O O9 0.724602 0.150086 0.659944
O O10 0.782160 0.018987 0.761327
O O11 0.771660 0.998853 0.516633
O O12 0.194319 0.298877 0.819007
O O13 0.134088 0.445364 0.966168
O O14 0.046620 0.375427 0.831919
#
# Coordination Sequence:
#
# PCOD8135955 Si02
#       7
#     8   8   8   8   8   8   4
#     4  11  21  39  66  97 132 172 233 280 336 416
#     4  11  24  41  64  95 136 179 220 279 351 409
#     4  10  21  38  66  94 126 176 220 277 341 408
#     4  11  21  40  66  96 129 178 223 277 344 400
#     4  10  19  41  66  91 125 172 231 272 335 404
#     4  11  22  41  68  95 133 175 229 281 344 412
#     4  12  24  40  64  98 138 176 224 280 340 418
#
# _framework density 22.502773999999999
#
# number of rings (size 3 to 8) (size 9 to 14) (size 15 to 20)
#    0.000    1.231    4.615    2.769    0.000    0.615 
#    1.385    0.769    1.692    0.000    0.000    0.000 
#    0.000    0.000    0.000    0.000    0.000    0.000 
#
# Total GULP energy -322234.954625 kJ/mol
# GULP energy per Si atom -12393.652101 kJ/mol
# Density = 2.245156 g / cm^3
# Si number density = 22.502774 Si / 1000 Ang^3
#
#
#
# Elastic Constant Matrix: (Units=GPa)
#
#
# Indices 1 2 3 4 5 6 
#
# 1 74.9832 19.8891 27.8292 0.0000 8.5501 0.0000
# 2 19.8891 41.5672 9.1581 0.0000 9.8910 0.0000
# 3 27.8292 9.1581 150.9452 0.0000 -4.7449 0.0000
# 4 0.0000 0.0000 0.0000 27.2237 0.0000 4.0838
# 5 8.5501 9.8910 -4.7449 0.0000 40.6493 0.0000
# 6 0.0000 0.0000 0.0000 4.0838 0.0000 19.6676
#
#
#
# Elastic Compliance Matrix: (Units=1/GPa)
#
#
# Indices 1 2 3 4 5 6 
#
# 1 0.016356 -0.006734 -0.002673 0.000000 -0.002114 0.000000
# 2 -0.006734 0.028778 -0.000683 0.000000 -0.005666 0.000000
# 3 -0.002673 -0.000683 0.007209 0.000000 0.001570 0.000000
# 4 0.000000 0.000000 0.000000 0.037914 0.000000 -0.007872
# 5 -0.002114 -0.005666 0.001570 0.000000 0.026607 0.000000
# 6 0.000000 0.000000 0.000000 -0.007872 0.000000 0.052480
#
#
# Mechanical properties :
#
#
# Convention : Reuss Voigt Hill
#
# Bulk Modulus (GPa) = 31.09204 42.36093 36.72648
# Shear Modulus (GPa) = 24.96963 31.54940 28.25952
#
# Velocity S-wave (km/s) = 3.33472 3.74842 3.54760
# Velocity P-wave (km/s) = 5.35482 6.13187 5.75647
#
# Compressibility (1/GPa) = 0.03216258
#
# Stress axis : x y z
#
# Youngs Moduli (GPa) = 61.14086 34.74874 138.72414
#
# Poissons Ratio (x) = 0.23399 0.37085
# Poissons Ratio (y) = 0.41172 0.09469
# Poissons Ratio (z) = 0.16345 0.02372
#
# Static dielectric constant tensor:
#      x y z
#    x 3.775810 0.000000 0.163820 
#    y 0.000000 3.942920 0.000000 
#    z 0.163820 0.000000 4.588960 
# 
# 
# High freq. dielectric constant tensor:
#      x y z
#    x 1.864440 0.000000 0.011410 
#    y 0.000000 1.857090 0.000000 
#    z 0.011410 0.000000 1.913370 
# 
# From -- ./inp_files/105223.got.cif
#   From: 2010.06.25/outbox.cif.g09.slc.cpg/sg15_53_cif.got.tgz:105223.got - 2010.06.28 07:06:18.
