data_PCOD8135919
_publ_section_title
;
Structure prediction by ZEFSAII (Michael W. Deem and Ramdas Pophale) SiO2 
 PCOD8135919
Probable space group: C 2/C
;
_chemical_formula_sum "Si O2"
_cell_formula_units_Z 56
_cell_length_a 8.148252
_cell_length_b 12.199200
_cell_length_c 27.955923
_cell_angle_alpha 90.000000
_cell_angle_beta 114.945044
_cell_angle_gamma 90.000000
_cell_volume 2519.644977
_symmetry_space_group_name_H-M "C 2/C"
_symmetry_group_IT_number 15
_symmetry_cell_setting 'monoclinic'
loop_
_space_group_symop_operation_xyz
x,y,z
-x,y,1/2-z
-x,-y,-z
x,-y,1/2+z
1/2+x,1/2+y,z
1/2-x,1/2+y,1/2-z
1/2-x,1/2-y,-z
1/2+x,1/2-y,1/2+z
loop_
_atom_site_type_symbol
_atom_site_label
_atom_site_fract_x
_atom_site_fract_y
_atom_site_fract_z
Si Si1 0.934896 0.961847 0.440457
Si Si2 0.372588 0.182116 0.872184
Si Si3 0.248890 0.741266 0.056281
Si Si4 0.769212 0.014174 0.097361
Si Si5 0.109736 0.548607 0.717974
Si Si6 0.940457 0.071103 0.291620
Si Si7 0.810943 0.385995 0.652630
O O1 0.862527 0.838206 0.433249
O O2 0.779140 0.038810 0.399370
O O3 0.000000 0.000000 0.500000
O O4 0.107698 0.962250 0.428191
O O5 0.542930 0.260165 0.902607
O O6 0.391586 0.145376 0.820033
O O7 0.193221 0.256928 0.862839
O O8 0.381725 0.076692 0.908475
O O9 0.171807 0.624971 0.066445
O O10 0.250000 0.750000 0.000000
O O11 0.877441 0.029547 0.160351
O O12 0.318758 0.529388 0.756829
O O13 0.000000 0.593449 0.750000
O O14 0.008836 0.435485 0.687487
O O15 0.811494 0.129548 0.314171
O O16 0.000000 0.137169 0.250000
#
# Coordination Sequence:
#
# PCOD8135919 Si02
#       7
#     8   8   8   8   8   8   8
#     4  11  21  44  69  94 135 168 214 280 332 390
#     4  12  23  43  68  98 135 173 223 276 323 402
#     4  12  24  46  72  93 131 179 219 280 339 389
#     4  11  25  43  66 102 131 170 226 270 330 401
#     4  10  22  40  63  94 136 179 221 264 330 394
#     4  10  19  41  62  92 140 167 223 271 318 396
#     4  10  22  40  64  95 133 176 217 269 335 390
#
# _framework density 22.225353999999999
#
# number of rings (size 3 to 8) (size 9 to 14) (size 15 to 20)
#    0.000    1.143    7.143    0.000    0.000    2.286 
#    7.714    1.429    0.000    0.000    0.000    0.000 
#    0.000    0.000    0.000    0.000    0.000    0.000 
#
# Total GULP energy -346975.133986 kJ/mol
# GULP energy per Si atom -12391.969071 kJ/mol
# Density = 2.217477 g / cm^3
# Si number density = 22.225354 Si / 1000 Ang^3
#
#
#
# Elastic Constant Matrix: (Units=GPa)
#
#
# Indices 1 2 3 4 5 6 
#
# 1 37.1234 21.6692 12.6419 0.0000 -6.3938 0.0000
# 2 21.6692 146.2413 32.8892 0.0000 -14.1627 0.0000
# 3 12.6419 32.8892 123.3797 0.0000 -18.5190 0.0000
# 4 0.0000 0.0000 0.0000 29.8315 0.0000 -3.3318
# 5 -6.3938 -14.1627 -18.5190 0.0000 30.6519 0.0000
# 6 0.0000 0.0000 0.0000 -3.3318 0.0000 38.8983
#
#
#
# Elastic Compliance Matrix: (Units=1/GPa)
#
#
# Indices 1 2 3 4 5 6 
#
# 1 0.030303 -0.003790 -0.001549 0.000000 0.003634 0.000000
# 2 -0.003790 0.007913 -0.001420 0.000000 0.002008 0.000000
# 3 -0.001549 -0.001420 0.009343 0.000000 0.004665 0.000000
# 4 0.000000 0.000000 0.000000 0.033845 0.000000 0.002899
# 5 0.003634 0.002008 0.004665 0.000000 0.037129 0.000000
# 6 0.000000 0.000000 0.000000 0.002899 0.000000 0.025956
#
#
# Mechanical properties :
#
#
# Convention : Reuss Voigt Hill
#
# Bulk Modulus (GPa) = 29.37624 49.01611 39.19618
# Shear Modulus (GPa) = 29.52403 35.84597 32.68500
#
# Velocity S-wave (km/s) = 3.64867 4.02038 3.83902
# Velocity P-wave (km/s) = 5.56745 6.60706 6.10941
#
# Compressibility (1/GPa) = 0.03404112
#
# Stress axis : x y z
#
# Youngs Moduli (GPa) = 33.00035 126.36931 107.03763
#
# Poissons Ratio (x) = 0.47891 0.16583
# Poissons Ratio (y) = 0.12506 0.15196
# Poissons Ratio (z) = 0.05113 0.17941
#
# Static dielectric constant tensor:
#      x y z
#    x 3.935210 0.000000 -0.280970 
#    y 0.000000 3.943860 0.000000 
#    z -0.280970 0.000000 4.039040 
# 
# 
# High freq. dielectric constant tensor:
#      x y z
#    x 1.860130 0.000000 -0.011020 
#    y 0.000000 1.867700 0.000000 
#    z -0.011020 0.000000 1.892930 
# 
# From -- ./inp_files/288076.got.cif
#   From: 2010.06.25/outbox.cif.g09.slc.cpg/sg15_145_cif.got.tgz:288076.got - 2010.06.28 07:06:18.
