data_PCOD8135073
_publ_section_title
;
Structure prediction by ZEFSAII (Michael W. Deem and Ramdas Pophale) SiO2 
 PCOD8135073
Probable space group: C 2/C
;
_chemical_formula_sum "Si O2"
_cell_formula_units_Z 52
_cell_length_a 14.001813
_cell_length_b 11.499768
_cell_length_c 18.702657
_cell_angle_alpha 90.000000
_cell_angle_beta 60.650098
_cell_angle_gamma 90.000000
_cell_volume 2624.914515
_symmetry_space_group_name_H-M "C 2/C"
_symmetry_group_IT_number 15
_symmetry_cell_setting 'monoclinic'
loop_
_space_group_symop_operation_xyz
x,y,z
-x,y,1/2-z
-x,-y,-z
x,-y,1/2+z
1/2+x,1/2+y,z
1/2-x,1/2+y,1/2-z
1/2-x,1/2-y,-z
1/2+x,1/2-y,1/2+z
loop_
_atom_site_type_symbol
_atom_site_label
_atom_site_fract_x
_atom_site_fract_y
_atom_site_fract_z
Si Si1 0.436892 0.345562 0.067390
Si Si2 0.217407 0.278562 0.346948
Si Si3 0.119664 0.409892 0.673695
Si Si4 0.500000 0.302276 0.750000
Si Si5 0.208236 0.355868 0.197540
Si Si6 0.467245 0.595082 0.113027
Si Si7 0.860301 0.683620 0.479184
O O1 0.315517 0.293519 0.124440
O O2 0.440801 0.460209 0.114847
O O3 0.531835 0.262916 0.061407
O O4 0.444873 0.370394 0.979947
O O5 0.334194 0.218188 0.322553
O O6 0.224774 0.363678 0.277006
O O7 0.165119 0.357749 0.430132
O O8 0.141396 0.168746 0.358693
O O9 0.196208 0.513449 0.673120
O O10 0.117961 0.418004 0.586889
O O11 0.000000 0.425606 0.750000
O O12 0.395092 0.220409 0.785376
O O13 0.485813 0.382688 0.824970
O O14 0.750000 0.750000 0.500000
#
# Coordination Sequence:
#
# PCOD8135073 Si02
#       7
#     8   8   8   4   8   8   8
#     4  10  19  37  61  83 106 153 187 225 284 331
#     4   9  19  38  57  80 112 149 184 233 279 331
#     4  11  20  36  57  85 113 146 189 233 281 332
#     4  10  22  40  54  84 118 146 184 236 280 326
#     4  11  21  36  60  81 114 153 184 226 287 336
#     4   9  19  36  60  80 111 142 192 231 269 332
#     4   9  20  37  59  85 114 143 187 238 275 328
#
# _framework density 19.810169999999999
#
# number of rings (size 3 to 8) (size 9 to 14) (size 15 to 20)
#    0.000    2.154    2.308    0.923    2.154    0.615 
#    6.923    0.769    3.385    0.000    0.000    0.000 
#    0.000    0.000    0.000    0.000    0.000    0.000 
#
# Total GULP energy -322238.782192 kJ/mol
# GULP energy per Si atom -12393.799315 kJ/mol
# Density = 1.976508 g / cm^3
# Si number density = 19.810170 Si / 1000 Ang^3
#
#
#
# Elastic Constant Matrix: (Units=GPa)
#
#
# Indices 1 2 3 4 5 6 
#
# 1 104.7586 22.8164 67.9442 0.0000 -6.1054 0.0000
# 2 22.8164 54.6268 40.1986 0.0000 12.3157 0.0000
# 3 67.9442 40.1986 147.2325 0.0000 8.8237 0.0000
# 4 0.0000 0.0000 0.0000 25.6942 0.0000 7.6181
# 5 -6.1054 12.3157 8.8237 0.0000 50.3616 0.0000
# 6 0.0000 0.0000 0.0000 7.6181 0.0000 26.1751
#
#
#
# Elastic Compliance Matrix: (Units=1/GPa)
#
#
# Indices 1 2 3 4 5 6 
#
# 1 0.014209 -0.002144 -0.006171 0.000000 0.003328 0.000000
# 2 -0.002144 0.024315 -0.005333 0.000000 -0.005271 0.000000
# 3 -0.006171 -0.005333 0.011180 0.000000 -0.001403 0.000000
# 4 0.000000 0.000000 0.000000 0.042595 0.000000 -0.012397
# 5 0.003328 -0.005271 -0.001403 0.000000 0.021795 0.000000
# 6 0.000000 0.000000 0.000000 -0.012397 0.000000 0.041812
#
#
# Mechanical properties :
#
#
# Convention : Reuss Voigt Hill
#
# Bulk Modulus (GPa) = 44.62904 63.17072 53.89988
# Shear Modulus (GPa) = 26.22303 32.15674 29.18988
#
# Velocity S-wave (km/s) = 3.64224 4.03332 3.84276
# Velocity P-wave (km/s) = 6.34548 7.32444 6.85247
#
# Compressibility (1/GPa) = 0.02240693
#
# Stress axis : x y z
#
# Youngs Moduli (GPa) = 70.37663 41.12752 89.44451
#
# Poissons Ratio (x) = 0.08817 0.55199
# Poissons Ratio (y) = 0.15088 0.47703
# Poissons Ratio (z) = 0.43432 0.21935
#
# Static dielectric constant tensor:
#      x y z
#    x 3.771660 0.000000 0.161550 
#    y 0.000000 3.225840 0.000000 
#    z 0.161550 0.000000 4.200330 
# 
# 
# High freq. dielectric constant tensor:
#      x y z
#    x 1.779660 0.000000 -0.002680 
#    y 0.000000 1.731690 0.000000 
#    z -0.002680 0.000000 1.794600 
# 
# From -- ./inp_files/243309.got.cif
#   From: 2010.06.25/outbox.cif.g09.slc.cpg/sg15_122_cif.got.tgz:243309.got - 2010.06.28 07:06:18.
