data_PCOD8135086
_publ_section_title
;
Structure prediction by ZEFSAII (Michael W. Deem and Ramdas Pophale) SiO2 
 PCOD8135086
Probable space group: C 2/C
;
_chemical_formula_sum "Si O2"
_cell_formula_units_Z 52
_cell_length_a 22.037049
_cell_length_b 12.876565
_cell_length_c 12.111584
_cell_angle_alpha 90.000000
_cell_angle_beta 131.508044
_cell_angle_gamma 90.000000
_cell_volume 2573.692152
_symmetry_space_group_name_H-M "C 2/C"
_symmetry_group_IT_number 15
_symmetry_cell_setting 'monoclinic'
loop_
_space_group_symop_operation_xyz
x,y,z
-x,y,1/2-z
-x,-y,-z
x,-y,1/2+z
1/2+x,1/2+y,z
1/2-x,1/2+y,1/2-z
1/2-x,1/2-y,-z
1/2+x,1/2-y,1/2+z
loop_
_atom_site_type_symbol
_atom_site_label
_atom_site_fract_x
_atom_site_fract_y
_atom_site_fract_z
Si Si1 0.083337 0.788216 0.801096
Si Si2 0.643018 0.150141 0.563191
Si Si3 0.370112 0.926208 0.211383
Si Si4 0.500000 0.938523 0.750000
Si Si5 0.768037 0.019065 0.589513
Si Si6 0.407173 0.497586 0.106368
Si Si7 0.862257 0.129069 0.348507
O O1 0.138780 0.686478 0.858999
O O2 0.118877 0.879855 0.921989
O O3 0.071205 0.837491 0.663278
O O4 0.000000 0.747669 0.750000
O O5 0.627179 0.084499 0.654259
O O6 0.563102 0.135309 0.391296
O O7 0.661496 0.270691 0.608249
O O8 0.725151 0.110481 0.605125
O O9 0.450931 0.987487 0.274169
O O10 0.290245 0.986733 0.080626
O O11 0.850092 0.060566 0.628156
O O12 0.785614 0.921354 0.692076
O O13 0.500000 0.483196 0.250000
O O14 0.398048 0.457972 0.971620
#
# Coordination Sequence:
#
# PCOD8135086 Si02
#       7
#     8   8   8   4   8   8   8
#     4   9  19  35  58  85 112 149 193 241 282 344
#     4  10  22  37  61  88 121 155 195 243 293 353
#     4  10  19  37  61  87 119 151 198 245 289 348
#     4  10  20  36  62  88 120 158 192 240 298 342
#     4  10  22  38  59  87 116 157 196 246 294 343
#     4  10  22  38  58  79 117 155 195 242 288 353
#     4  10  22  38  57  85 120 154 196 242 295 348
#
# _framework density 20.204436000000001
#
# number of rings (size 3 to 8) (size 9 to 14) (size 15 to 20)
#    0.000    2.154    0.769    1.385    1.077   12.923 
#    0.000    0.000    0.000    0.000    0.000    0.000 
#    0.000    0.000    0.000    0.000    0.000    0.000 
#
# Total GULP energy -322240.928738 kJ/mol
# GULP energy per Si atom -12393.881875 kJ/mol
# Density = 2.015845 g / cm^3
# Si number density = 20.204436 Si / 1000 Ang^3
#
#
#
# Elastic Constant Matrix: (Units=GPa)
#
#
# Indices 1 2 3 4 5 6 
#
# 1 108.2875 27.1750 28.3365 0.0000 9.5420 0.0000
# 2 27.1750 71.5700 27.6331 0.0000 -6.8660 0.0000
# 3 28.3365 27.6331 84.9765 0.0000 -1.3986 0.0000
# 4 0.0000 0.0000 0.0000 22.6767 0.0000 -12.8673
# 5 9.5420 -6.8660 -1.3986 0.0000 29.6871 0.0000
# 6 0.0000 0.0000 0.0000 -12.8673 0.0000 29.2202
#
#
#
# Elastic Compliance Matrix: (Units=1/GPa)
#
#
# Indices 1 2 3 4 5 6 
#
# 1 0.011256 -0.003701 -0.002625 0.000000 -0.004597 0.000000
# 2 -0.003701 0.017557 -0.004392 0.000000 0.005043 0.000000
# 3 -0.002625 -0.004392 0.014080 0.000000 0.000491 0.000000
# 4 0.000000 0.000000 0.000000 0.058787 0.000000 0.025887
# 5 -0.004597 0.005043 0.000491 0.000000 0.036352 0.000000
# 6 0.000000 0.000000 0.000000 0.025887 0.000000 0.045622
#
#
# Mechanical properties :
#
#
# Convention : Reuss Voigt Hill
#
# Bulk Modulus (GPa) = 46.60867 47.90256 47.25562
# Shear Modulus (GPa) = 23.55786 28.42943 25.99365
#
# Velocity S-wave (km/s) = 3.41834 3.75519 3.59072
# Velocity P-wave (km/s) = 6.22083 6.52398 6.37421
#
# Compressibility (1/GPa) = 0.02145523
#
# Stress axis : x y z
#
# Youngs Moduli (GPa) = 88.84449 56.95650 71.02367
#
# Poissons Ratio (x) = 0.21080 0.18647
# Poissons Ratio (y) = 0.32882 0.31195
# Poissons Ratio (z) = 0.23326 0.25016
#
# Static dielectric constant tensor:
#      x y z
#    x 3.864450 0.000000 -0.118190 
#    y 0.000000 3.663250 0.000000 
#    z -0.118190 0.000000 3.493340 
# 
# 
# High freq. dielectric constant tensor:
#      x y z
#    x 1.802740 0.000000 -0.009570 
#    y 0.000000 1.782930 0.000000 
#    z -0.009570 0.000000 1.772950 
# 
# From -- ./inp_files/112657.got.cif
#   From: 2010.06.25/outbox.cif.g09.slc.cpg/sg15_57_cif.got.tgz:112657.got - 2010.06.28 07:06:18.
