data_PCOD8135945
_publ_section_title
;
Structure prediction by ZEFSAII (Michael W. Deem and Ramdas Pophale) SiO2 
 PCOD8135945
Probable space group: C 2/C
;
_chemical_formula_sum "Si O2"
_cell_formula_units_Z 48
_cell_length_a 5.426034
_cell_length_b 23.006239
_cell_length_c 16.941785
_cell_angle_alpha 90.000000
_cell_angle_beta 97.617080
_cell_angle_gamma 90.000000
_cell_volume 2096.226043
_symmetry_space_group_name_H-M "C 2/C"
_symmetry_group_IT_number 15
_symmetry_cell_setting 'monoclinic'
loop_
_space_group_symop_operation_xyz
x,y,z
-x,y,1/2-z
-x,-y,-z
x,-y,1/2+z
1/2+x,1/2+y,z
1/2-x,1/2+y,1/2-z
1/2-x,1/2-y,-z
1/2+x,1/2-y,1/2+z
loop_
_atom_site_type_symbol
_atom_site_label
_atom_site_fract_x
_atom_site_fract_y
_atom_site_fract_z
Si Si1 0.832088 0.080640 0.165572
Si Si2 0.402951 0.654315 0.880518
Si Si3 0.157936 0.821745 0.949659
Si Si4 0.334902 0.548516 0.666340
Si Si5 0.500000 0.154979 0.250000
Si Si6 0.000000 0.621562 0.750000
Si Si7 0.652225 0.229873 0.387728
O O1 0.934919 0.119494 0.098040
O O2 0.584925 0.112628 0.183558
O O3 0.000000 0.081204 0.250000
O O4 0.780487 0.015858 0.129636
O O5 0.523192 0.589775 0.889622
O O6 0.622100 0.701072 0.874074
O O7 0.216681 0.660782 0.797591
O O8 0.262754 0.664215 0.957413
O O9 0.392975 0.791088 0.918300
O O10 0.909895 0.780805 0.946013
O O11 0.500000 0.539701 0.750000
O O12 0.082182 0.579926 0.681405
O O13 0.690494 0.197930 0.304159
#
# Coordination Sequence:
#
# PCOD8135945 Si02
#       7
#     8   8   8   8   4   4   8
#     4  10  19  41  65  92 131 167 226 273 334 394
#     4  11  25  41  65  94 136 171 224 271 335 396
#     4  11  25  43  67  99 133 179 213 277 332 392
#     4   9  21  39  64  92 126 175 217 281 328 386
#     4  10  21  36  66  92 124 171 220 270 320 404
#     4  10  23  42  62  98 128 177 226 276 332 392
#     4  11  25  41  67  99 133 174 217 270 331 395
#
# _framework density 22.898292000000001
#
# number of rings (size 3 to 8) (size 9 to 14) (size 15 to 20)
#    0.000    1.667    1.667    1.500    8.167    0.667 
#    0.000    0.833    0.000    0.000    0.000    0.000 
#    0.000    0.000    0.000    0.000    0.000    0.000 
#
# Total GULP energy -297375.808679 kJ/mol
# GULP energy per Si atom -12390.658695 kJ/mol
# Density = 2.284617 g / cm^3
# Si number density = 22.898292 Si / 1000 Ang^3
#
#
#
# Elastic Constant Matrix: (Units=GPa)
#
#
# Indices 1 2 3 4 5 6 
#
# 1 92.4171 30.5539 21.9665 0.0000 -0.3883 0.0000
# 2 30.5539 168.0242 55.7048 0.0000 0.2593 0.0000
# 3 21.9665 55.7048 81.1970 0.0000 4.9856 0.0000
# 4 0.0000 0.0000 0.0000 67.3323 0.0000 17.0926
# 5 -0.3883 0.2593 4.9856 0.0000 25.3988 0.0000
# 6 0.0000 0.0000 0.0000 17.0926 0.0000 20.9678
#
#
#
# Elastic Compliance Matrix: (Units=1/GPa)
#
#
# Indices 1 2 3 4 5 6 
#
# 1 0.011827 -0.001395 -0.002282 0.000000 0.000643 0.000000
# 2 -0.001395 0.007892 -0.005092 0.000000 0.000898 0.000000
# 3 -0.002282 -0.005092 0.016626 0.000000 -0.003246 0.000000
# 4 0.000000 0.000000 0.000000 0.018727 0.000000 -0.015266
# 5 0.000643 0.000898 -0.003246 0.000000 0.040010 0.000000
# 6 0.000000 0.000000 0.000000 -0.015266 0.000000 0.060137
#
#
# Mechanical properties :
#
#
# Convention : Reuss Voigt Hill
#
# Bulk Modulus (GPa) = 53.17293 62.00985 57.59139
# Shear Modulus (GPa) = 27.92909 38.30064 33.11487
#
# Velocity S-wave (km/s) = 3.49621 4.09423 3.80698
# Velocity P-wave (km/s) = 6.29045 7.03489 6.67306
#
# Compressibility (1/GPa) = 0.01880656
#
# Stress axis : x y z
#
# Youngs Moduli (GPa) = 84.55353 126.71148 60.14788
#
# Poissons Ratio (x) = 0.17677 0.13725
# Poissons Ratio (y) = 0.11796 0.30627
# Poissons Ratio (z) = 0.19295 0.64521
#
# Static dielectric constant tensor:
#      x y z
#    x 3.980620 0.000000 -0.061090 
#    y 0.000000 4.620310 0.000000 
#    z -0.061090 0.000000 4.112820 
# 
# 
# High freq. dielectric constant tensor:
#      x y z
#    x 1.888560 0.000000 -0.003620 
#    y 0.000000 1.916050 0.000000 
#    z -0.003620 0.000000 1.891210 
# 
# From -- ./inp_files/185315.got.cif
#   From: 2010.06.25/outbox.cif.g09.slc.cpg/sg15_93_cif.got.tgz:185315.got - 2010.06.28 07:06:18.
