data_PCOD8135633
_publ_section_title
;
Structure prediction by ZEFSAII (Michael W. Deem and Ramdas Pophale) SiO2 
 PCOD8135633
Probable space group: C 2/C
;
_chemical_formula_sum "Si O2"
_cell_formula_units_Z 56
_cell_length_a 11.892438
_cell_length_b 14.267892
_cell_length_c 19.340940
_cell_angle_alpha 90.000000
_cell_angle_beta 119.707247
_cell_angle_gamma 90.000000
_cell_volume 2850.444122
_symmetry_space_group_name_H-M "C 2/C"
_symmetry_group_IT_number 15
_symmetry_cell_setting 'monoclinic'
loop_
_space_group_symop_operation_xyz
x,y,z
-x,y,1/2-z
-x,-y,-z
x,-y,1/2+z
1/2+x,1/2+y,z
1/2-x,1/2+y,1/2-z
1/2-x,1/2-y,-z
1/2+x,1/2-y,1/2+z
loop_
_atom_site_type_symbol
_atom_site_label
_atom_site_fract_x
_atom_site_fract_y
_atom_site_fract_z
Si Si1 0.500000 0.869777 0.250000
Si Si2 0.127894 0.617799 0.517476
Si Si3 0.539929 0.945372 0.410097
Si Si4 0.313437 0.703900 0.171940
Si Si5 0.445083 0.721638 0.933455
Si Si6 0.000000 0.051019 0.250000
Si Si7 0.589219 0.439834 0.407309
Si Si8 0.313899 0.629270 0.020354
O O1 0.497607 0.936117 0.317108
O O2 0.373698 0.804120 0.210212
O O3 0.079768 0.551796 0.439979
O O4 0.282666 0.621149 0.568752
O O5 0.079473 0.581707 0.577091
O O6 0.076445 0.721933 0.487143
O O7 0.659457 0.876687 0.463671
O O8 0.159395 0.713706 0.140030
O O9 0.378842 0.618965 0.235490
O O10 0.346731 0.675214 0.103564
O O11 0.478847 0.625931 0.905142
O O12 0.372315 0.698224 0.982040
O O13 0.032205 0.981306 0.320682
O O14 0.623486 0.525994 0.468654
#
# Coordination Sequence:
#
# PCOD8135633 Si02
#       8
#     4   8   8   8   8   4   8   8
#     4  11  20  34  57  96 118 142 199 276 302 327
#     4  10  22  38  62  86 122 167 201 236 301 378
#     4  10  20  37  60  89 117 156 204 251 303 349
#     4  10  20  35  62  87 115 151 202 255 299 343
#     4  12  20  36  62  93 112 150 208 255 285 351
#     4   9  22  42  55  80 126 162 197 238 304 365
#     4  10  23  39  59  86 125 164 192 238 305 368
#     4  10  19  39  61  86 116 152 205 252 294 355
#
# _framework density 19.646061
#
# number of rings (size 3 to 8) (size 9 to 14) (size 15 to 20)
#    0.000    1.714    2.857    2.143    2.000    1.143 
#    0.000    0.714    0.000    1.714    0.000    0.000 
#    0.000    0.000    0.000    0.000    0.000    0.000 
#
# Total GULP energy -347139.066983 kJ/mol
# GULP energy per Si atom -12397.823821 kJ/mol
# Density = 1.960135 g / cm^3
# Si number density = 19.646061 Si / 1000 Ang^3
#
#
#
# Elastic Constant Matrix: (Units=GPa)
#
#
# Indices 1 2 3 4 5 6 
#
# 1 69.4522 29.0225 24.5227 0.0000 15.8469 0.0000
# 2 29.0225 77.4397 14.7844 0.0000 3.8734 0.0000
# 3 24.5227 14.7844 77.7695 0.0000 4.8338 0.0000
# 4 0.0000 0.0000 0.0000 22.1417 0.0000 2.9288
# 5 15.8469 3.8734 4.8338 0.0000 26.7519 0.0000
# 6 0.0000 0.0000 0.0000 2.9288 0.0000 38.2192
#
#
#
# Elastic Compliance Matrix: (Units=1/GPa)
#
#
# Indices 1 2 3 4 5 6 
#
# 1 0.021280 -0.006519 -0.004800 0.000000 -0.010795 0.000000
# 2 -0.006519 0.015456 -0.000995 0.000000 0.001804 0.000000
# 3 -0.004800 -0.000995 0.014539 0.000000 0.000360 0.000000
# 4 0.000000 0.000000 0.000000 0.045626 0.000000 -0.003496
# 5 -0.010795 0.001804 0.000360 0.000000 0.043449 0.000000
# 6 0.000000 0.000000 0.000000 -0.003496 0.000000 0.026433
#
#
# Mechanical properties :
#
#
# Convention : Reuss Voigt Hill
#
# Bulk Modulus (GPa) = 37.52673 40.14675 38.83674
# Shear Modulus (GPa) = 24.96341 27.84466 26.40404
#
# Velocity S-wave (km/s) = 3.56850 3.76881 3.67002
# Velocity P-wave (km/s) = 6.01014 6.27837 6.14572
#
# Compressibility (1/GPa) = 0.02664767
#
# Stress axis : x y z
#
# Youngs Moduli (GPa) = 46.99165 64.69908 68.78155
#
# Poissons Ratio (x) = 0.42178 0.33015
# Poissons Ratio (y) = 0.30634 0.06842
# Poissons Ratio (z) = 0.22556 0.06436
#
# Static dielectric constant tensor:
#      x y z
#    x 3.528460 0.000000 0.257100 
#    y 0.000000 3.685070 0.000000 
#    z 0.257100 0.000000 3.625470 
# 
# 
# High freq. dielectric constant tensor:
#      x y z
#    x 1.749040 0.000000 0.020130 
#    y 0.000000 1.774100 0.000000 
#    z 0.020130 0.000000 1.756710 
# 
# From -- ./inp_files/197979.got.cif
#   From: 2010.06.25/outbox.cif.g09.slc.cpg/sg15_99_cif.got.tgz:197979.got - 2010.06.28 07:06:18.
