data_PCOD8135338
_publ_section_title
;
Structure prediction by ZEFSAII (Michael W. Deem and Ramdas Pophale) SiO2 
 PCOD8135338
Probable space group: C 2/C
;
_chemical_formula_sum "Si O2"
_cell_formula_units_Z 64
_cell_length_a 9.061196
_cell_length_b 22.801413
_cell_length_c 29.772451
_cell_angle_alpha 90.000000
_cell_angle_beta 149.352490
_cell_angle_gamma 90.000000
_cell_volume 3135.619424
_symmetry_space_group_name_H-M "C 2/C"
_symmetry_group_IT_number 15
_symmetry_cell_setting 'monoclinic'
loop_
_space_group_symop_operation_xyz
x,y,z
-x,y,1/2-z
-x,-y,-z
x,-y,1/2+z
1/2+x,1/2+y,z
1/2-x,1/2+y,1/2-z
1/2-x,1/2-y,-z
1/2+x,1/2-y,1/2+z
loop_
_atom_site_type_symbol
_atom_site_label
_atom_site_fract_x
_atom_site_fract_y
_atom_site_fract_z
Si Si1 0.084952 0.134541 0.495353
Si Si2 0.246809 0.975523 0.988635
Si Si3 0.670498 0.686557 0.158596
Si Si4 0.685716 0.391510 0.482199
Si Si5 0.592471 0.519702 0.821407
Si Si6 0.312705 0.406987 0.616544
Si Si7 0.187171 0.320686 0.186789
Si Si8 0.713098 0.613469 0.699013
O O1 0.050707 0.069844 0.465456
O O2 0.426082 0.146897 0.592523
O O3 0.947219 0.180281 0.423336
O O4 0.906650 0.137390 0.494830
O O5 0.273445 0.954144 0.944384
O O6 0.103294 0.039414 0.957362
O O7 0.565428 0.975651 0.091163
O O8 0.493569 0.647169 0.146824
O O9 0.632180 0.752246 0.165580
O O10 0.000000 0.665966 0.250000
O O11 0.507342 0.359206 0.395615
O O12 0.025756 0.380520 0.564342
O O13 0.500000 0.546136 0.750000
O O14 0.508062 0.450007 0.803208
O O15 0.439238 0.557367 0.819330
O O16 0.500000 0.340164 0.250000
O O17 0.194107 0.336327 0.241335
O O18 0.000000 0.589895 0.750000
#
# Coordination Sequence:
#
# PCOD8135338 Si02
#       8
#     8   8   8   8   8   8   8   8
#     4  11  22  40  66  93 127 167 210 255 317 373
#     4  10  19  38  59  88 130 169 198 247 306 381
#     4  10  25  46  65  86 119 169 220 265 310 370
#     4  11  21  38  61  99 131 161 200 257 322 381
#     4  11  21  35  59  93 125 165 210 243 309 380
#     4  10  21  41  63  84 130 172 202 251 313 378
#     4  11  24  43  67  93 121 163 219 266 308 373
#     4  12  22  37  61  97 133 155 200 267 320 363
#
# _framework density 20.410640999999998
#
# number of rings (size 3 to 8) (size 9 to 14) (size 15 to 20)
#    0.000    1.250    3.750    3.375    1.750    2.500 
#    0.000    3.750    0.000    0.000    0.000    0.000 
#    0.000    0.000    0.000    0.000    0.000    0.000 
#
# Total GULP energy -396738.687508 kJ/mol
# GULP energy per Si atom -12398.083985 kJ/mol
# Density = 2.036419 g / cm^3
# Si number density = 20.410641 Si / 1000 Ang^3
#
#
#
# Elastic Constant Matrix: (Units=GPa)
#
#
# Indices 1 2 3 4 5 6 
#
# 1 114.4847 33.7796 42.5456 0.0087 -1.4073 0.0041
# 2 33.7796 83.3332 38.0355 0.0273 -1.2272 0.0244
# 3 42.5456 38.0355 94.3677 0.0399 -6.8904 0.0270
# 4 0.0087 0.0273 0.0399 27.5732 0.0142 0.3743
# 5 -1.4073 -1.2272 -6.8904 0.0142 34.1082 0.0015
# 6 0.0041 0.0244 0.0270 0.3743 0.0015 17.2695
#
#
#
# Elastic Compliance Matrix: (Units=1/GPa)
#
#
# Indices 1 2 3 4 5 6 
#
# 1 0.010967 -0.002672 -0.003899 0.000005 -0.000431 0.000007
# 2 -0.002672 0.015372 -0.005033 -0.000007 -0.000574 -0.000013
# 3 -0.003899 -0.005033 0.014573 -0.000016 0.002602 -0.000015
# 4 0.000005 -0.000007 -0.000016 0.036278 -0.000018 -0.000786
# 5 -0.000431 -0.000574 0.002602 -0.000018 0.029806 -0.000005
# 6 0.000007 -0.000013 -0.000015 -0.000786 -0.000005 0.057923
#
#
# Mechanical properties :
#
#
# Convention : Reuss Voigt Hill
#
# Bulk Modulus (GPa) = 56.48434 57.87856 57.18145
# Shear Modulus (GPa) = 25.76954 27.64516 26.70735
#
# Velocity S-wave (km/s) = 3.55710 3.68428 3.62125
# Velocity P-wave (km/s) = 6.67867 6.82035 6.74988
#
# Compressibility (1/GPa) = 0.01770402
#
# Stress axis : x y z
#
# Youngs Moduli (GPa) = 91.18362 65.05359 68.61940
#
# Poissons Ratio (x) = 0.17384 0.26753
# Poissons Ratio (y) = 0.24367 0.34535
# Poissons Ratio (z) = 0.35551 0.32740
#
# Static dielectric constant tensor:
#      x y z
#    x 3.729270 -0.000040 -0.156580 
#    y -0.000040 3.602650 -0.000020 
#    z -0.156580 -0.000020 3.901640 
# 
# 
# High freq. dielectric constant tensor:
#      x y z
#    x 1.804780 0.000000 -0.003990 
#    y 0.000000 1.782240 0.000000 
#    z -0.003990 0.000000 1.803410 
# 
# From -- ./inp_files/309149.got.cif
#   From: 2010.06.25/outbox.cif.g09.slc.cpg/sg15_155_cif.got.tgz:309149.got - 2010.06.28 07:06:18.
