data_PCOD8135128
_publ_section_title
;
Structure prediction by ZEFSAII (Michael W. Deem and Ramdas Pophale) SiO2 
 PCOD8135128
Probable space group: C 2/C
;
_chemical_formula_sum "Si O2"
_cell_formula_units_Z 56
_cell_length_a 17.213635
_cell_length_b 8.021118
_cell_length_c 19.826209
_cell_angle_alpha 90.000000
_cell_angle_beta 59.957512
_cell_angle_gamma 90.000000
_cell_volume 2369.690951
_symmetry_space_group_name_H-M "C 2/C"
_symmetry_group_IT_number 15
_symmetry_cell_setting 'monoclinic'
loop_
_space_group_symop_operation_xyz
x,y,z
-x,y,1/2-z
-x,-y,-z
x,-y,1/2+z
1/2+x,1/2+y,z
1/2-x,1/2+y,1/2-z
1/2-x,1/2-y,-z
1/2+x,1/2-y,1/2+z
loop_
_atom_site_type_symbol
_atom_site_label
_atom_site_fract_x
_atom_site_fract_y
_atom_site_fract_z
Si Si1 0.496736 0.879335 0.064147
Si Si2 0.857343 0.916209 0.816479
Si Si3 0.782989 0.547789 0.835447
Si Si4 0.093213 0.160369 0.927679
Si Si5 0.058102 0.429276 0.664350
Si Si6 0.819492 0.490815 0.667796
Si Si7 0.494479 0.558884 0.846983
O O1 0.391215 0.857228 0.129394
O O2 0.552442 0.953261 0.101817
O O3 0.543661 0.708474 0.019395
O O4 0.500000 0.000000 0.000000
O O5 0.835908 0.722047 0.818980
O O6 0.762907 0.015109 0.848302
O O7 0.925173 0.974965 0.729158
O O8 0.902512 0.957200 0.869875
O O9 0.681344 0.552905 0.907307
O O10 0.837878 0.417723 0.857914
O O11 0.780524 0.484425 0.759854
O O12 0.127184 0.318773 0.868936
O O13 0.021237 0.055970 0.914365
O O14 0.000000 0.512357 0.750000
O O15 0.018552 0.248512 0.668925
#
# Coordination Sequence:
#
# PCOD8135128 Si02
#       7
#     8   8   8   8   8   8   8
#     4  10  20  36  64  91 124 162 203 258 311 365
#     4  10  23  34  58  94 131 155 200 271 312 340
#     4  11  23  37  63  95 123 158 214 262 295 370
#     4  10  21  41  61  90 123 163 202 257 316 364
#     4  12  21  36  67  94 115 158 224 249 293 377
#     4  10  19  37  62  93 116 164 212 244 300 373
#     4  11  20  37  57  88 124 159 204 250 312 357
#
# _framework density 23.631774
#
# number of rings (size 3 to 8) (size 9 to 14) (size 15 to 20)
#    0.000    1.429    7.143    0.000    2.000    0.571 
#    0.000    0.714    0.000    3.429    0.000    0.000 
#    0.000    0.000    0.000    0.000    0.000    0.000 
#
# Total GULP energy -347046.027362 kJ/mol
# GULP energy per Si atom -12394.500977 kJ/mol
# Density = 2.357799 g / cm^3
# Si number density = 23.631774 Si / 1000 Ang^3
#
#
#
# Elastic Constant Matrix: (Units=GPa)
#
#
# Indices 1 2 3 4 5 6 
#
# 1 174.2362 27.8064 9.3045 0.0001 -4.3078 0.0003
# 2 27.8064 41.6752 4.3057 0.0001 5.2945 0.0003
# 3 9.3045 4.3057 29.7803 0.0001 8.6094 0.0001
# 4 0.0001 0.0001 0.0001 7.9496 0.0000 -9.5558
# 5 -4.3078 5.2945 8.6094 0.0000 41.5774 0.0001
# 6 0.0003 0.0003 0.0001 -9.5558 0.0001 32.8479
#
#
#
# Elastic Compliance Matrix: (Units=1/GPa)
#
#
# Indices 1 2 3 4 5 6 
#
# 1 0.006584 -0.004405 -0.001893 0.000000 0.001635 0.000000
# 2 -0.004405 0.027558 -0.001555 -0.000001 -0.003644 0.000000
# 3 -0.001893 -0.001555 0.036585 -0.000001 -0.007574 0.000000
# 4 0.000000 -0.000001 -0.000001 0.193434 0.000000 0.056272
# 5 0.001635 -0.003644 -0.007574 0.000000 0.026253 0.000000
# 6 0.000000 0.000000 0.000000 0.056272 0.000000 0.046813
#
#
# Mechanical properties :
#
#
# Convention : Reuss Voigt Hill
#
# Bulk Modulus (GPa) = 18.17475 36.50278 27.33877
# Shear Modulus (GPa) = 13.46720 30.09332 21.78026
#
# Velocity S-wave (km/s) = 2.38980 3.57238 3.03916
# Velocity P-wave (km/s) = 3.91438 5.70052 4.88970
#
# Compressibility (1/GPa) = 0.05502140
#
# Stress axis : x y z
#
# Youngs Moduli (GPa) = 151.88708 36.28745 27.33363
#
# Poissons Ratio (x) = 0.15985 0.05174
# Poissons Ratio (y) = 0.66906 0.04250
# Poissons Ratio (z) = 0.28750 0.05642
#
# Static dielectric constant tensor:
#      x y z
#    x 4.973050 0.000000 -0.192880 
#    y 0.000000 4.251500 0.000000 
#    z -0.192880 0.000000 4.417300 
# 
# 
# High freq. dielectric constant tensor:
#      x y z
#    x 1.960520 0.000000 0.001220 
#    y 0.000000 1.924010 0.000000 
#    z 0.001220 0.000000 1.912290 
# 
# From -- ./inp_files/247359.got.cif
#   From: 2010.06.25/outbox.cif.g09.slc.cpg/sg15_124_cif.got.tgz:247359.got - 2010.06.28 07:06:18.
