data_PCOD8135780
_publ_section_title
;
Structure prediction by ZEFSAII (Michael W. Deem and Ramdas Pophale) SiO2 
 PCOD8135780
Probable space group: C 2/C
;
_chemical_formula_sum "Si O2"
_cell_formula_units_Z 56
_cell_length_a 29.477178
_cell_length_b 9.001778
_cell_length_c 17.108321
_cell_angle_alpha 90.000000
_cell_angle_beta 37.737953
_cell_angle_gamma 90.000000
_cell_volume 2778.492417
_symmetry_space_group_name_H-M "C 2/C"
_symmetry_group_IT_number 15
_symmetry_cell_setting 'monoclinic'
loop_
_space_group_symop_operation_xyz
x,y,z
-x,y,1/2-z
-x,-y,-z
x,-y,1/2+z
1/2+x,1/2+y,z
1/2-x,1/2+y,1/2-z
1/2-x,1/2-y,-z
1/2+x,1/2-y,1/2+z
loop_
_atom_site_type_symbol
_atom_site_label
_atom_site_fract_x
_atom_site_fract_y
_atom_site_fract_z
Si Si1 0.078823 0.434956 0.371207
Si Si2 0.696749 0.054979 0.830835
Si Si3 0.631877 0.687304 0.187106
Si Si4 0.419551 0.596176 0.825700
Si Si5 0.281711 0.346406 0.608613
Si Si6 0.788288 0.588176 0.032012
Si Si7 0.336006 0.843342 0.854165
O O1 0.116706 0.408395 0.403641
O O2 0.080791 0.283940 0.316037
O O3 0.122704 0.558826 0.265426
O O4 0.000000 0.500000 0.500000
O O5 0.749231 0.996612 0.690028
O O6 0.728652 0.209403 0.818897
O O7 0.692695 0.926819 0.902402
O O8 0.580472 0.563478 0.216924
O O9 0.664981 0.780311 0.070009
O O10 0.700361 0.614467 0.140981
O O11 0.500000 0.633585 0.750000
O O12 0.392785 0.712145 0.796548
O O13 0.365454 0.609315 0.973819
O O14 0.241322 0.297566 0.582443
O O15 0.815320 0.432936 0.959769
#
# Coordination Sequence:
#
# PCOD8135780 Si02
#       7
#     8   8   8   8   8   8   8
#     4  10  24  42  61  90 129 166 211 252 327 382
#     4  11  23  37  65  94 121 162 206 272 305 371
#     4  10  22  40  65  91 126 169 209 263 313 377
#     4  12  25  40  64  96 132 165 213 262 322 385
#     4  11  23  41  63  95 126 159 217 258 320 372
#     4  10  19  39  70  92 118 162 224 259 306 370
#     4  10  21  42  67  89 120 175 209 261 307 392
#
# _framework density 20.154813000000001
#
# number of rings (size 3 to 8) (size 9 to 14) (size 15 to 20)
#    0.000    1.429    2.857    2.143    6.000    1.143 
#    2.571    3.571    0.000    0.000    0.000    0.000 
#    0.000    0.000    0.000    0.000    0.000    0.000 
#
# Total GULP energy -347177.610514 kJ/mol
# GULP energy per Si atom -12399.200376 kJ/mol
# Density = 2.010894 g / cm^3
# Si number density = 20.154813 Si / 1000 Ang^3
#
#
#
# Elastic Constant Matrix: (Units=GPa)
#
#
# Indices 1 2 3 4 5 6 
#
# 1 116.0427 40.8558 46.7384 -0.0013 -8.8530 0.0008
# 2 40.8558 99.2562 29.5152 -0.0007 -7.6133 0.0023
# 3 46.7384 29.5152 94.2748 0.0005 -10.2483 0.0009
# 4 -0.0013 -0.0007 0.0005 30.5315 -0.0003 9.3908
# 5 -8.8530 -7.6133 -10.2483 -0.0003 33.4618 -0.0002
# 6 0.0008 0.0023 0.0009 9.3908 -0.0002 36.4079
#
#
#
# Elastic Compliance Matrix: (Units=1/GPa)
#
#
# Indices 1 2 3 4 5 6 
#
# 1 0.011759 -0.003381 -0.004672 0.000001 0.000911 0.000000
# 2 -0.003381 0.012156 -0.001992 0.000000 0.001261 -0.000001
# 3 -0.004672 -0.001992 0.013824 0.000000 0.002544 0.000000
# 4 0.000001 0.000000 0.000000 0.035575 0.000000 -0.009176
# 5 0.000911 0.001261 0.002544 0.000000 0.031192 0.000000
# 6 0.000000 -0.000001 0.000000 -0.009176 0.000000 0.029833
#
#
# Mechanical properties :
#
#
# Convention : Reuss Voigt Hill
#
# Bulk Modulus (GPa) = 56.66505 60.42139 58.54322
# Shear Modulus (GPa) = 31.18877 32.91119 32.04998
#
# Velocity S-wave (km/s) = 3.93804 4.04532 3.99204
# Velocity P-wave (km/s) = 6.98953 7.20161 7.09636
#
# Compressibility (1/GPa) = 0.01764756
#
# Stress axis : x y z
#
# Youngs Moduli (GPa) = 85.03919 82.26493 72.33778
#
# Poissons Ratio (x) = 0.27815 0.33798
# Poissons Ratio (y) = 0.28753 0.14412
# Poissons Ratio (z) = 0.39733 0.16390
#
# Static dielectric constant tensor:
#      x y z
#    x 3.771750 -0.000010 0.107620 
#    y -0.000010 3.747970 0.000020 
#    z 0.107620 0.000020 3.737850 
# 
# 
# High freq. dielectric constant tensor:
#      x y z
#    x 1.789930 0.000000 0.015750 
#    y 0.000000 1.800560 0.000000 
#    z 0.015750 0.000000 1.776370 
# 
# From -- ./inp_files/213797.got.cif
#   From: 2010.06.25/outbox.cif.g09.slc.cpg/sg15_107_cif.got.tgz:213797.got - 2010.06.28 07:06:18.
