data_PCOD8135784
_publ_section_title
;
Structure prediction by ZEFSAII (Michael W. Deem and Ramdas Pophale) SiO2 
 PCOD8135784
Probable space group: C 2/C
;
_chemical_formula_sum "Si O2"
_cell_formula_units_Z 64
_cell_length_a 22.616211
_cell_length_b 8.175899
_cell_length_c 27.546582
_cell_angle_alpha 90.000000
_cell_angle_beta 32.268109
_cell_angle_gamma 90.000000
_cell_volume 2719.369317
_symmetry_space_group_name_H-M "C 2/C"
_symmetry_group_IT_number 15
_symmetry_cell_setting 'monoclinic'
loop_
_space_group_symop_operation_xyz
x,y,z
-x,y,1/2-z
-x,-y,-z
x,-y,1/2+z
1/2+x,1/2+y,z
1/2-x,1/2+y,1/2-z
1/2-x,1/2-y,-z
1/2+x,1/2-y,1/2+z
loop_
_atom_site_type_symbol
_atom_site_label
_atom_site_fract_x
_atom_site_fract_y
_atom_site_fract_z
Si Si1 0.488988 0.915390 0.939469
Si Si2 0.199990 0.978467 0.502263
Si Si3 0.089146 0.725234 0.912832
Si Si4 0.382520 0.106632 0.309845
Si Si5 0.916861 0.753451 0.762564
Si Si6 0.658522 0.269564 0.256313
Si Si7 0.973181 0.066224 0.130487
Si Si8 0.725165 0.890851 0.948813
O O1 0.564398 0.844573 0.844642
O O2 0.570255 0.038452 0.910911
O O3 0.450191 0.768652 0.003321
O O4 0.382901 0.012232 0.992899
O O5 0.215168 0.991016 0.549489
O O6 0.198553 0.790624 0.485836
O O7 0.081230 0.046903 0.566422
O O8 0.294570 0.092551 0.414209
O O9 0.216693 0.774697 0.815304
O O10 0.019104 0.850267 0.927932
O O11 0.500000 0.154272 0.250000
O O12 0.348322 0.250993 0.297167
O O13 0.382864 0.935140 0.280896
O O14 0.972959 0.795082 0.672524
O O15 0.810897 0.871174 0.844671
O O16 0.000000 0.773745 0.750000
O O17 0.635450 0.455020 0.288861
#
# Coordination Sequence:
#
# PCOD8135784 Si02
#       8
#     8   8   8   8   8   8   8   8
#     4  11  24  47  72  96 136 182 230 292 346 417
#     4  10  21  38  70 104 136 175 232 287 350 416
#     4  11  26  48  69  95 132 181 242 282 346 415
#     4  10  23  43  67  98 138 182 223 285 354 425
#     4  10  20  39  70 101 135 178 233 283 339 415
#     4  12  27  44  67 100 138 181 227 288 354 419
#     4  12  24  43  67 102 137 177 231 289 345 426
#     4  10  19  39  72 104 134 179 232 289 345 419
#
# _framework density 23.534867999999999
#
# number of rings (size 3 to 8) (size 9 to 14) (size 15 to 20)
#    0.000    1.250    2.500    3.000    3.500    2.000 
#    4.500    1.250    0.000    0.000    0.000    0.000 
#    0.000    0.000    0.000    0.000    0.000    0.000 
#
# Total GULP energy -396794.948973 kJ/mol
# GULP energy per Si atom -12399.842155 kJ/mol
# Density = 2.348130 g / cm^3
# Si number density = 23.534868 Si / 1000 Ang^3
#
#
#
# Elastic Constant Matrix: (Units=GPa)
#
#
# Indices 1 2 3 4 5 6 
#
# 1 121.8202 16.2884 44.1733 0.0456 -5.0623 -0.0501
# 2 16.2884 41.4762 8.6511 0.0503 2.5128 -0.0541
# 3 44.1733 8.6511 111.0533 0.0164 -13.0957 -0.0305
# 4 0.0456 0.0503 0.0164 31.7865 -0.0053 -0.0085
# 5 -5.0623 2.5128 -13.0957 -0.0053 40.9429 0.0228
# 6 -0.0501 -0.0541 -0.0305 -0.0085 0.0228 25.0672
#
#
#
# Elastic Compliance Matrix: (Units=1/GPa)
#
#
# Indices 1 2 3 4 5 6 
#
# 1 0.009982 -0.003164 -0.003695 -0.000007 0.000247 0.000008
# 2 -0.003164 0.025703 -0.001014 -0.000036 -0.002293 0.000050
# 3 -0.003695 -0.001014 0.010919 0.000002 0.003098 0.000001
# 4 -0.000007 -0.000036 0.000002 0.031460 0.000006 0.000011
# 5 0.000247 -0.002293 0.003098 0.000006 0.025586 -0.000024
# 6 0.000008 0.000050 0.000001 0.000011 -0.000024 0.039893
#
#
# Mechanical properties :
#
#
# Convention : Reuss Voigt Hill
#
# Bulk Modulus (GPa) = 32.40696 45.84169 39.12432
# Shear Modulus (GPa) = 29.48533 33.24178 31.36356
#
# Velocity S-wave (km/s) = 3.54338 3.76233 3.65450
# Velocity P-wave (km/s) = 5.52634 6.19629 5.87088
#
# Compressibility (1/GPa) = 0.03085757
#
# Stress axis : x y z
#
# Youngs Moduli (GPa) = 100.18045 38.90524 91.58611
#
# Poissons Ratio (x) = 0.12311 0.33840
# Poissons Ratio (y) = 0.31700 0.09287
# Poissons Ratio (z) = 0.37016 0.03945
#
# Static dielectric constant tensor:
#      x y z
#    x 4.175890 -0.000020 -0.016450 
#    y -0.000020 3.915770 0.000020 
#    z -0.016450 0.000020 4.410060 
# 
# 
# High freq. dielectric constant tensor:
#      x y z
#    x 1.932120 -0.000010 -0.002190 
#    y -0.000010 1.913100 0.000010 
#    z -0.002190 0.000010 1.945170 
# 
# From -- ./inp_files/318617.got.cif
#   From: 2010.06.25/outbox.cif.g09.slc.cpg/sg15_160_cif.got.tgz:318617.got - 2010.06.28 07:06:18.
