data_PCOD8135826
_publ_section_title
;
Structure prediction by ZEFSAII (Michael W. Deem and Ramdas Pophale) SiO2 
 PCOD8135826
Probable space group: C 2/C
;
_chemical_formula_sum "Si O2"
_cell_formula_units_Z 56
_cell_length_a 19.648289
_cell_length_b 12.019702
_cell_length_c 11.656617
_cell_angle_alpha 90.000000
_cell_angle_beta 79.069156
_cell_angle_gamma 90.000000
_cell_volume 2702.956809
_symmetry_space_group_name_H-M "C 2/C"
_symmetry_group_IT_number 15
_symmetry_cell_setting 'monoclinic'
loop_
_space_group_symop_operation_xyz
x,y,z
-x,y,1/2-z
-x,-y,-z
x,-y,1/2+z
1/2+x,1/2+y,z
1/2-x,1/2+y,1/2-z
1/2-x,1/2-y,-z
1/2+x,1/2-y,1/2+z
loop_
_atom_site_type_symbol
_atom_site_label
_atom_site_fract_x
_atom_site_fract_y
_atom_site_fract_z
Si Si1 0.040196 0.630871 0.126402
Si Si2 0.696501 0.280246 0.839017
Si Si3 0.156847 0.453004 0.448214
Si Si4 0.189996 0.040760 0.526568
Si Si5 0.149194 0.785030 0.201974
Si Si6 0.400744 0.176520 0.067441
Si Si7 0.320127 0.702782 0.424696
O O1 0.087741 0.734986 0.144924
O O2 0.000000 0.581603 0.250000
O O3 0.983472 0.667062 0.050270
O O4 0.091388 0.540320 0.056264
O O5 0.658471 0.162123 0.876320
O O6 0.666391 0.379726 0.928320
O O7 0.777545 0.275534 0.845504
O O8 0.684144 0.308010 0.710539
O O9 0.226988 0.469386 0.495616
O O10 0.140199 0.563562 0.378159
O O11 0.159914 0.088515 0.656734
O O12 0.161279 0.916513 0.524899
O O13 0.128140 0.775326 0.341140
O O14 0.381338 0.213089 0.944124
O O15 0.250000 0.750000 0.500000
#
# Coordination Sequence:
#
# PCOD8135826 Si02
#       7
#     8   8   8   8   8   8   8
#     4  10  21  38  63  91 130 171 213 255 307 394
#     4  11  22  39  67  95 125 165 212 268 314 379
#     4  11  20  40  65  96 128 165 212 266 324 374
#     4  11  22  39  69  91 125 164 218 268 315 375
#     4  10  19  40  63  92 117 168 215 254 307 377
#     4  11  24  39  60  96 134 166 206 257 330 380
#     4  12  25  40  59  99 135 160 204 272 323 369
#
# _framework density 20.718050000000002
#
# number of rings (size 3 to 8) (size 9 to 14) (size 15 to 20)
#    0.000    1.143    5.714    1.286    2.000    3.429 
#    0.000    1.429    0.000    0.000    0.000    0.000 
#    0.000    0.000    0.000    0.000    0.000    0.000 
#
# Total GULP energy -347003.387756 kJ/mol
# GULP energy per Si atom -12392.978134 kJ/mol
# Density = 2.067090 g / cm^3
# Si number density = 20.718050 Si / 1000 Ang^3
#
#
#
# Elastic Constant Matrix: (Units=GPa)
#
#
# Indices 1 2 3 4 5 6 
#
# 1 103.5128 30.3062 35.9837 0.0000 11.5905 0.0000
# 2 30.3062 127.2843 44.8414 0.0000 11.2131 0.0000
# 3 35.9837 44.8414 88.4864 0.0000 2.4487 0.0000
# 4 0.0000 0.0000 0.0000 24.3351 0.0000 0.6771
# 5 11.5905 11.2131 2.4487 0.0000 35.6887 0.0000
# 6 0.0000 0.0000 0.0000 0.6771 0.0000 15.0116
#
#
#
# Elastic Compliance Matrix: (Units=1/GPa)
#
#
# Indices 1 2 3 4 5 6 
#
# 1 0.011777 -0.001054 -0.004166 0.000000 -0.003208 0.000000
# 2 -0.001054 0.009920 -0.004531 0.000000 -0.002464 0.000000
# 3 -0.004166 -0.004531 0.015243 0.000000 0.001731 0.000000
# 4 0.000000 0.000000 0.000000 0.041144 0.000000 -0.001856
# 5 -0.003208 -0.002464 0.001731 0.000000 0.029717 0.000000
# 6 0.000000 0.000000 0.000000 -0.001856 0.000000 0.066699
#
#
# Mechanical properties :
#
#
# Convention : Reuss Voigt Hill
#
# Bulk Modulus (GPa) = 57.34161 60.17178 58.75670
# Shear Modulus (GPa) = 25.02311 28.88391 26.95351
#
# Velocity S-wave (km/s) = 3.47910 3.73787 3.61081
# Velocity P-wave (km/s) = 6.62390 6.90906 6.76798
#
# Compressibility (1/GPa) = 0.01743934
#
# Stress axis : x y z
#
# Youngs Moduli (GPa) = 84.91393 100.80166 65.60174
#
# Poissons Ratio (x) = 0.10621 0.27332
# Poissons Ratio (y) = 0.08947 0.29722
# Poissons Ratio (z) = 0.35378 0.45670
#
# Static dielectric constant tensor:
#      x y z
#    x 3.776890 0.000000 -0.008560 
#    y 0.000000 3.841280 0.000000 
#    z -0.008560 0.000000 3.930190 
# 
# 
# High freq. dielectric constant tensor:
#      x y z
#    x 1.797690 0.000000 0.006430 
#    y 0.000000 1.806110 0.000000 
#    z 0.006430 0.000000 1.801970 
# 
# From -- ./inp_files/110975.got.cif
#   From: 2010.06.25/outbox.cif.g09.slc.cpg/sg15_56_cif.got.tgz:110975.got - 2010.06.28 07:06:18.
