data_PCOD8135622
_publ_section_title
;
Structure prediction by ZEFSAII (Michael W. Deem and Ramdas Pophale) SiO2 
 PCOD8135622
Probable space group: C 2/C
;
_chemical_formula_sum "Si O2"
_cell_formula_units_Z 64
_cell_length_a 24.279533
_cell_length_b 8.913290
_cell_length_c 14.752640
_cell_angle_alpha 90.000000
_cell_angle_beta 74.526123
_cell_angle_gamma 90.000000
_cell_volume 3076.900775
_symmetry_space_group_name_H-M "C 2/C"
_symmetry_group_IT_number 15
_symmetry_cell_setting 'monoclinic'
loop_
_space_group_symop_operation_xyz
x,y,z
-x,y,1/2-z
-x,-y,-z
x,-y,1/2+z
1/2+x,1/2+y,z
1/2-x,1/2+y,1/2-z
1/2-x,1/2-y,-z
1/2+x,1/2-y,1/2+z
loop_
_atom_site_type_symbol
_atom_site_label
_atom_site_fract_x
_atom_site_fract_y
_atom_site_fract_z
Si Si1 0.931512 0.146191 0.037617
Si Si2 0.978913 0.943240 0.857526
Si Si3 0.873092 0.410957 0.976618
Si Si4 0.723695 0.977491 0.341105
Si Si5 0.667932 0.446901 0.443971
Si Si6 0.223972 0.701983 0.677678
Si Si7 0.698086 0.677813 0.575106
Si Si8 0.879844 0.276374 0.413537
O O1 0.973416 0.144928 0.104907
O O2 0.874814 0.053877 0.094741
O O3 0.915846 0.319529 0.023432
O O4 0.956978 0.076259 0.932817
O O5 0.930248 0.824155 0.850299
O O6 0.000000 0.006501 0.750000
O O7 0.852601 0.300843 0.903676
O O8 0.903257 0.554308 0.917461
O O9 0.818779 0.477481 0.055099
O O10 0.693015 0.885873 0.273593
O O11 0.780757 0.875864 0.335844
O O12 0.744272 0.144691 0.308032
O O13 0.728209 0.420885 0.370476
O O14 0.676922 0.527244 0.536152
O O15 0.637056 0.289199 0.480046
O O16 0.177279 0.728268 0.621688
O O17 0.750000 0.750000 0.500000
#
# Coordination Sequence:
#
# PCOD8135622 Si02
#       8
#     8   8   8   8   8   8   8   8
#     4   9  22  43  68  93 122 168 217 265 326 382
#     4  10  23  44  69  94 120 165 220 272 320 385
#     4  10  21  39  61  86 123 162 209 259 319 385
#     4  11  24  34  52  88 131 168 201 256 305 383
#     4  10  19  39  60  82 120 165 206 248 313 384
#     4  12  24  35  56  94 130 165 206 253 316 386
#     4   9  18  34  54  76 113 165 202 236 290 369
#     4  11  22  39  64  87 121 171 206 260 324 381
#
# _framework density 20.800149000000001
#
# number of rings (size 3 to 8) (size 9 to 14) (size 15 to 20)
#    0.000    1.750    2.500    1.875    8.750    0.500 
#    0.000    0.625    0.000    0.000    0.000    0.000 
#    0.000    0.000    0.000    0.000    0.000    0.000 
#
# Total GULP energy -396510.155402 kJ/mol
# GULP energy per Si atom -12390.942356 kJ/mol
# Density = 2.075281 g / cm^3
# Si number density = 20.800149 Si / 1000 Ang^3
#
#
#
# Elastic Constant Matrix: (Units=GPa)
#
#
# Indices 1 2 3 4 5 6 
#
# 1 84.8603 19.2566 13.0815 0.0000 1.4137 0.0000
# 2 19.2566 115.6416 19.6354 0.0000 4.0346 0.0000
# 3 13.0815 19.6354 60.8808 0.0000 0.3474 0.0000
# 4 0.0000 0.0000 0.0000 21.2498 0.0000 3.1683
# 5 1.4137 4.0346 0.3474 0.0000 15.6927 0.0000
# 6 0.0000 0.0000 0.0000 3.1683 0.0000 21.1588
#
#
#
# Elastic Compliance Matrix: (Units=1/GPa)
#
#
# Indices 1 2 3 4 5 6 
#
# 1 0.012509 -0.001698 -0.002137 0.000000 -0.000643 0.000000
# 2 -0.001698 0.009462 -0.002674 0.000000 -0.002220 0.000000
# 3 -0.002137 -0.002674 0.017744 0.000000 0.000487 0.000000
# 4 0.000000 0.000000 0.000000 0.048134 0.000000 -0.007208
# 5 -0.000643 -0.002220 0.000487 0.000000 0.064342 0.000000
# 6 0.000000 0.000000 0.000000 -0.007208 0.000000 0.048341
#
#
# Mechanical properties :
#
#
# Convention : Reuss Voigt Hill
#
# Bulk Modulus (GPa) = 37.45567 40.59219 39.02393
# Shear Modulus (GPa) = 22.47709 25.58087 24.02898
#
# Velocity S-wave (km/s) = 3.29085 3.51071 3.40256
# Velocity P-wave (km/s) = 5.69965 5.99926 5.85138
#
# Compressibility (1/GPa) = 0.02669823
#
# Stress axis : x y z
#
# Youngs Moduli (GPa) = 79.93964 105.68982 56.35601
#
# Poissons Ratio (x) = 0.17944 0.12041
# Poissons Ratio (y) = 0.13572 0.15070
# Poissons Ratio (z) = 0.17080 0.28263
#
# Static dielectric constant tensor:
#      x y z
#    x 3.640260 0.000000 0.114460 
#    y 0.000000 3.924530 0.000000 
#    z 0.114460 0.000000 3.421340 
# 
# 
# High freq. dielectric constant tensor:
#      x y z
#    x 1.803380 0.000000 0.013490 
#    y 0.000000 1.826790 0.000000 
#    z 0.013490 0.000000 1.781330 
# 
# From -- ./inp_files/176600.got.cif
#   From: 2010.06.25/outbox.cif.g09.slc.cpg/sg15_89_cif.got.tgz:176600.got - 2010.06.28 07:06:18.
