data_PCOD8135488
_publ_section_title
;
Structure prediction by ZEFSAII (Michael W. Deem and Ramdas Pophale) SiO2 
 PCOD8135488
Probable space group: C 2/C
;
_chemical_formula_sum "Si O2"
_cell_formula_units_Z 52
_cell_length_a 28.309410
_cell_length_b 18.045661
_cell_length_c 15.555712
_cell_angle_alpha 90.000000
_cell_angle_beta 18.161360
_cell_angle_gamma 90.000000
_cell_volume 2476.978376
_symmetry_space_group_name_H-M "C 2/C"
_symmetry_group_IT_number 15
_symmetry_cell_setting 'monoclinic'
loop_
_space_group_symop_operation_xyz
x,y,z
-x,y,1/2-z
-x,-y,-z
x,-y,1/2+z
1/2+x,1/2+y,z
1/2-x,1/2+y,1/2-z
1/2-x,1/2-y,-z
1/2+x,1/2-y,1/2+z
loop_
_atom_site_type_symbol
_atom_site_label
_atom_site_fract_x
_atom_site_fract_y
_atom_site_fract_z
Si Si1 0.245991 0.498680 0.464167
Si Si2 0.604743 0.725777 0.148367
Si Si3 0.948542 0.749857 0.569270
Si Si4 0.993092 0.627535 0.163249
Si Si5 0.500000 0.449815 0.250000
Si Si6 0.961915 0.091938 0.993947
Si Si7 0.227163 0.069858 0.914958
O O1 0.130253 0.438087 0.628193
O O2 0.295837 0.560547 0.308185
O O3 0.179171 0.542641 0.662489
O O4 0.405488 0.465394 0.217044
O O5 0.500000 0.750897 0.250000
O O6 0.542311 0.765525 0.343621
O O7 0.775455 0.752466 0.835851
O O8 0.610968 0.635738 0.144545
O O9 0.014232 0.831607 0.445777
O O10 0.042526 0.691601 0.346951
O O11 0.000000 0.657648 0.250000
O O12 0.158162 0.596607 0.856230
O O13 0.454438 0.395229 0.405163
O O14 0.357613 0.501505 0.478859
#
# Coordination Sequence:
#
# PCOD8135488 Si02
#       7
#     8   8   8   8   4   8   8
#     4  10  21  39  63  88 114 164 207 266 311 364
#     4  10  20  40  67  87 118 168 212 250 308 376
#     4  10  23  40  59  92 127 162 208 261 303 382
#     4  11  24  39  60  90 131 167 203 255 324 373
#     4  10  20  34  60  90 114 154 200 248 308 366
#     4  10  21  38  61  84 124 156 207 254 312 371
#     4  10  19  38  64  88 117 155 211 258 299 378
#
# _framework density 20.993320000000001
#
# number of rings (size 3 to 8) (size 9 to 14) (size 15 to 20)
#    0.000    1.846    2.308    1.385    1.077    3.077 
#    5.538    0.769    0.000    0.000    0.000    0.000 
#    0.000    0.000    0.000    0.000    0.000    0.000 
#
# Total GULP energy -322180.508316 kJ/mol
# GULP energy per Si atom -12391.558012 kJ/mol
# Density = 2.094554 g / cm^3
# Si number density = 20.993320 Si / 1000 Ang^3
#
#
#
# Elastic Constant Matrix: (Units=GPa)
#
#
# Indices 1 2 3 4 5 6 
#
# 1 123.1496 16.7279 40.7688 -0.0006 24.3128 0.0005
# 2 16.7279 58.3715 20.8818 -0.0022 16.2182 0.0013
# 3 40.7688 20.8818 78.1085 -0.0024 27.8029 0.0009
# 4 -0.0006 -0.0022 -0.0024 24.2815 -0.0007 11.6204
# 5 24.3128 16.2182 27.8029 -0.0007 33.1248 0.0011
# 6 0.0005 0.0013 0.0009 11.6204 0.0011 23.0221
#
#
#
# Elastic Compliance Matrix: (Units=1/GPa)
#
#
# Indices 1 2 3 4 5 6 
#
# 1 0.010241 -0.000439 -0.003749 0.000000 -0.004155 0.000000
# 2 -0.000439 0.020235 -0.002522 0.000002 -0.007468 -0.000002
# 3 -0.003749 -0.002522 0.019986 0.000002 -0.012788 -0.000001
# 4 0.000000 0.000002 0.000002 0.054300 0.000000 -0.027408
# 5 -0.004155 -0.007468 -0.012788 0.000000 0.047629 -0.000001
# 6 0.000000 -0.000002 -0.000001 -0.027408 -0.000001 0.057271
#
#
# Mechanical properties :
#
#
# Convention : Reuss Voigt Hill
#
# Bulk Modulus (GPa) = 26.99720 46.26518 36.63119
# Shear Modulus (GPa) = 21.23779 28.16908 24.70344
#
# Velocity S-wave (km/s) = 3.18409 3.66705 3.43407
# Velocity P-wave (km/s) = 5.13865 6.32578 5.76287
#
# Compressibility (1/GPa) = 0.03704088
#
# Stress axis : x y z
#
# Youngs Moduli (GPa) = 97.64375 49.42009 50.03549
#
# Poissons Ratio (x) = 0.02171 0.18758
# Poissons Ratio (y) = 0.04289 0.12620
# Poissons Ratio (z) = 0.36607 0.12465
#
# Static dielectric constant tensor:
#      x y z
#    x 3.885510 0.000000 0.424620 
#    y 0.000000 3.762910 0.000000 
#    z 0.424620 0.000000 3.768690 
# 
# 
# High freq. dielectric constant tensor:
#      x y z
#    x 1.816790 0.000000 0.025530 
#    y 0.000000 1.814470 0.000000 
#    z 0.025530 0.000000 1.812860 
# 
# From -- ./inp_files/182846.got.cif
#   From: 2010.06.25/outbox.cif.g09.slc.cpg/sg15_92_cif.got.tgz:182846.got - 2010.06.28 07:06:18.
