data_PCOD8135683
_publ_section_title
;
Structure prediction by ZEFSAII (Michael W. Deem and Ramdas Pophale) SiO2 
 PCOD8135683
Probable space group: C 2/C
;
_chemical_formula_sum "Si O2"
_cell_formula_units_Z 56
_cell_length_a 10.606711
_cell_length_b 17.444436
_cell_length_c 15.714024
_cell_angle_alpha 90.000000
_cell_angle_beta 57.266304
_cell_angle_gamma 90.000000
_cell_volume 2445.798579
_symmetry_space_group_name_H-M "C 2/C"
_symmetry_group_IT_number 15
_symmetry_cell_setting 'monoclinic'
loop_
_space_group_symop_operation_xyz
x,y,z
-x,y,1/2-z
-x,-y,-z
x,-y,1/2+z
1/2+x,1/2+y,z
1/2-x,1/2+y,1/2-z
1/2-x,1/2-y,-z
1/2+x,1/2-y,1/2+z
loop_
_atom_site_type_symbol
_atom_site_label
_atom_site_fract_x
_atom_site_fract_y
_atom_site_fract_z
Si Si1 0.288613 0.608973 0.998224
Si Si2 0.247766 0.059508 0.302037
Si Si3 0.157718 0.592105 0.666707
Si Si4 0.477214 0.353939 0.848681
Si Si5 0.196517 0.456969 0.969159
Si Si6 0.440509 0.300503 0.045376
Si Si7 0.541857 0.862378 0.894429
O O1 0.308545 0.570803 0.082129
O O2 0.133733 0.655694 0.052277
O O3 0.276118 0.540903 0.931836
O O4 0.432721 0.664903 0.936294
O O5 0.381221 0.117295 0.224088
O O6 0.101615 0.077815 0.298870
O O7 0.299508 0.971178 0.276880
O O8 0.127606 0.549007 0.588403
O O9 0.287642 0.653630 0.612267
O O10 0.000000 0.631456 0.750000
O O11 0.500000 0.308518 0.750000
O O12 0.314810 0.389990 0.911554
O O13 0.497740 0.300707 0.925535
O O14 0.069171 0.437839 0.944605
O O15 0.393626 0.214894 0.087828
#
# Coordination Sequence:
#
# PCOD8135683 Si02
#       7
#     8   8   8   8   8   8   8
#     4  10  21  41  66  88 128 172 214 265 321 389
#     4  10  20  38  68  91 120 171 220 253 323 390
#     4  10  21  42  64  91 126 165 210 263 324 382
#     4  10  19  39  63  95 127 166 208 265 325 383
#     4  10  21  38  65  96 120 166 218 269 312 389
#     4  10  24  41  64  95 132 172 213 267 329 390
#     4  12  22  39  64  98 131 168 221 269 321 379
#
# _framework density 22.896405999999999
#
# number of rings (size 3 to 8) (size 9 to 14) (size 15 to 20)
#    0.000    1.714    1.429    3.857    0.000    5.714 
#    7.714    0.000    6.286    0.000    0.000    0.000 
#    0.000    0.000    0.000    0.000    0.000    0.000 
#
# Total GULP energy -346962.659675 kJ/mol
# GULP energy per Si atom -12391.523560 kJ/mol
# Density = 2.284429 g / cm^3
# Si number density = 22.896406 Si / 1000 Ang^3
#
#
#
# Elastic Constant Matrix: (Units=GPa)
#
#
# Indices 1 2 3 4 5 6 
#
# 1 86.0332 3.3273 27.2487 0.0000 -12.3550 0.0000
# 2 3.3273 87.4422 36.0198 0.0000 2.9672 0.0000
# 3 27.2487 36.0198 67.0995 0.0000 -9.5370 0.0000
# 4 0.0000 0.0000 0.0000 22.0922 0.0000 -1.6785
# 5 -12.3550 2.9672 -9.5370 0.0000 36.3231 0.0000
# 6 0.0000 0.0000 0.0000 -1.6785 0.0000 25.9131
#
#
#
# Elastic Compliance Matrix: (Units=1/GPa)
#
#
# Indices 1 2 3 4 5 6 
#
# 1 0.013968 0.001969 -0.006313 0.000000 0.002933 0.000000
# 2 0.001969 0.015375 -0.009491 0.000000 -0.003078 0.000000
# 3 -0.006313 -0.009491 0.023234 0.000000 0.004728 0.000000
# 4 0.000000 0.000000 0.000000 0.045489 0.000000 0.002946
# 5 0.002933 -0.003078 0.004728 0.000000 0.030021 0.000000
# 6 0.000000 0.000000 0.000000 0.002946 0.000000 0.038781
#
#
# Mechanical properties :
#
#
# Convention : Reuss Voigt Hill
#
# Bulk Modulus (GPa) = 40.14708 41.52962 40.83835
# Shear Modulus (GPa) = 24.65016 28.46429 26.55723
#
# Velocity S-wave (km/s) = 3.28471 3.52970 3.40940
# Velocity P-wave (km/s) = 5.65315 5.89823 5.77699
#
# Compressibility (1/GPa) = 0.02490841
#
# Stress axis : x y z
#
# Youngs Moduli (GPa) = 71.59357 65.04000 43.04123
#
# Poissons Ratio (x) = -0.12808 0.27170
# Poissons Ratio (y) = -0.14099 0.40849
# Poissons Ratio (z) = 0.45194 0.61728
#
# Static dielectric constant tensor:
#      x y z
#    x 4.385230 0.000000 0.110710 
#    y 0.000000 3.824720 0.000000 
#    z 0.110710 0.000000 4.142690 
# 
# 
# High freq. dielectric constant tensor:
#      x y z
#    x 1.919380 0.000000 -0.008920 
#    y 0.000000 1.878440 0.000000 
#    z -0.008920 0.000000 1.891300 
# 
# From -- ./inp_files/198213.got.cif
#   From: 2010.06.25/outbox.cif.g09.slc.cpg/sg15_100_cif.got.tgz:198213.got - 2010.06.28 07:06:18.
