data_PCOD8135805
_publ_section_title
;
Structure prediction by ZEFSAII (Michael W. Deem and Ramdas Pophale) SiO2 
 PCOD8135805
Probable space group: C 2/C
;
_chemical_formula_sum "Si O2"
_cell_formula_units_Z 48
_cell_length_a 27.464415
_cell_length_b 13.116681
_cell_length_c 14.282529
_cell_angle_alpha 90.000000
_cell_angle_beta 27.665936
_cell_angle_gamma 90.000000
_cell_volume 2388.980872
_symmetry_space_group_name_H-M "C 2/C"
_symmetry_group_IT_number 15
_symmetry_cell_setting 'monoclinic'
loop_
_space_group_symop_operation_xyz
x,y,z
-x,y,1/2-z
-x,-y,-z
x,-y,1/2+z
1/2+x,1/2+y,z
1/2-x,1/2+y,1/2-z
1/2-x,1/2-y,-z
1/2+x,1/2-y,1/2+z
loop_
_atom_site_type_symbol
_atom_site_label
_atom_site_fract_x
_atom_site_fract_y
_atom_site_fract_z
Si Si1 0.000000 0.604921 0.250000
Si Si2 0.335324 0.036336 0.249170
Si Si3 0.835326 0.988713 0.310040
Si Si4 0.000000 0.732447 0.750000
Si Si5 0.832512 0.564181 0.039744
Si Si6 0.970337 0.343064 0.003367
Si Si7 0.504673 0.649962 0.055238
O O1 0.900067 0.534845 0.398530
O O2 0.982523 0.673660 0.371137
O O3 0.236369 0.052094 0.483994
O O4 0.302924 0.066478 0.199344
O O5 0.425984 0.112612 0.125647
O O6 0.374057 0.919154 0.188736
O O7 0.772517 0.057760 0.342270
O O8 0.885743 0.889935 0.174337
O O9 0.925529 0.056609 0.202869
O O10 0.100797 0.663350 0.603744
O O11 0.030317 0.803218 0.611949
O O12 0.949173 0.232902 0.082787
#
# Coordination Sequence:
#
# PCOD8135805 Si02
#       7
#     4   8   8   4   8   8   8
#     4   9  18  36  65  90 126 150 207 262 307 358
#     4  10  20  38  67  90 125 156 207 265 306 363
#     4  11  25  44  59  88 133 169 205 248 311 374
#     4  11  22  42  69  90 122 156 215 262 303 370
#     4  10  20  39  66  94 115 164 205 258 316 358
#     4  10  19  40  61  95 121 163 204 260 314 356
#     4  11  26  43  59  91 130 172 203 250 308 372
#
# _framework density 20.092248999999999
#
# number of rings (size 3 to 8) (size 9 to 14) (size 15 to 20)
#    0.000    1.667    3.333    1.000    2.333    3.333 
#    6.000    0.000    0.000    0.000    0.000    0.000 
#    0.000    0.000    0.000    0.000    0.000    0.000 
#
# Total GULP energy -297699.022117 kJ/mol
# GULP energy per Si atom -12404.125922 kJ/mol
# Density = 2.004652 g / cm^3
# Si number density = 20.092249 Si / 1000 Ang^3
#
#
#
# Elastic Constant Matrix: (Units=GPa)
#
#
# Indices 1 2 3 4 5 6 
#
# 1 57.3725 13.9212 27.2943 0.0000 12.5373 0.0000
# 2 13.9212 72.0640 22.5758 0.0000 14.1642 0.0000
# 3 27.2943 22.5758 109.1645 0.0000 18.4023 0.0000
# 4 0.0000 0.0000 0.0000 20.4540 0.0000 -1.1712
# 5 12.5373 14.1642 18.4023 0.0000 34.4652 0.0000
# 6 0.0000 0.0000 0.0000 -1.1712 0.0000 9.0385
#
#
#
# Elastic Compliance Matrix: (Units=1/GPa)
#
#
# Indices 1 2 3 4 5 6 
#
# 1 0.020816 -0.001840 -0.004039 0.000000 -0.004660 0.000000
# 2 -0.001840 0.015794 -0.002005 0.000000 -0.004751 0.000000
# 3 -0.004039 -0.002005 0.011207 0.000000 -0.003691 0.000000
# 4 0.000000 0.000000 0.000000 0.049256 0.000000 0.006383
# 5 -0.004660 -0.004751 -0.003691 0.000000 0.034633 0.000000
# 6 0.000000 0.000000 0.000000 0.006383 0.000000 0.111465
#
#
# Mechanical properties :
#
#
# Convention : Reuss Voigt Hill
#
# Bulk Modulus (GPa) = 31.20223 40.68705 35.94464
# Shear Modulus (GPa) = 18.54447 24.44551 21.49499
#
# Velocity S-wave (km/s) = 3.04133 3.49185 3.27435
# Velocity P-wave (km/s) = 5.28168 6.04578 5.67660
#
# Compressibility (1/GPa) = 0.03204899
#
# Stress axis : x y z
#
# Youngs Moduli (GPa) = 48.03997 63.31506 89.22906
#
# Poissons Ratio (x) = 0.11651 0.36036
# Poissons Ratio (y) = 0.08840 0.17893
# Poissons Ratio (z) = 0.19401 0.12697
#
# Static dielectric constant tensor:
#      x y z
#    x 3.699150 0.000000 0.191730 
#    y 0.000000 3.478770 0.000000 
#    z 0.191730 0.000000 3.613900 
# 
# 
# High freq. dielectric constant tensor:
#      x y z
#    x 1.790450 0.000000 0.016190 
#    y 0.000000 1.768330 0.000000 
#    z 0.016190 0.000000 1.782110 
# 
# From -- ./inp_files/177784.got.cif
#   From: 2010.06.25/outbox.cif.g09.slc.cpg/sg15_89_cif.got.tgz:177784.got - 2010.06.28 07:06:18.
