data_PCOD8135193
_publ_section_title
;
Structure prediction by ZEFSAII (Michael W. Deem and Ramdas Pophale) SiO2 
 PCOD8135193
Probable space group: C 2/C
;
_chemical_formula_sum "Si O2"
_cell_formula_units_Z 52
_cell_length_a 8.603752
_cell_length_b 16.565655
_cell_length_c 18.741881
_cell_angle_alpha 90.000000
_cell_angle_beta 91.463686
_cell_angle_gamma 90.000000
_cell_volume 2670.348509
_symmetry_space_group_name_H-M "C 2/C"
_symmetry_group_IT_number 15
_symmetry_cell_setting 'monoclinic'
loop_
_space_group_symop_operation_xyz
x,y,z
-x,y,1/2-z
-x,-y,-z
x,-y,1/2+z
1/2+x,1/2+y,z
1/2-x,1/2+y,1/2-z
1/2-x,1/2-y,-z
1/2+x,1/2-y,1/2+z
loop_
_atom_site_type_symbol
_atom_site_label
_atom_site_fract_x
_atom_site_fract_y
_atom_site_fract_z
Si Si1 0.500000 0.428715 0.750000
Si Si2 0.852954 0.832094 0.873050
Si Si3 0.923708 0.923256 0.532638
Si Si4 0.934936 0.340567 0.329610
Si Si5 0.129877 0.599157 0.954380
Si Si6 0.733380 0.993053 0.661168
Si Si7 0.448961 0.077706 0.091419
O O1 0.457592 0.373358 0.814888
O O2 0.344420 0.480708 0.731145
O O3 0.842071 0.738383 0.853389
O O4 0.677418 0.863226 0.875701
O O5 0.948879 0.855098 0.945642
O O6 0.807115 0.878493 0.476397
O O7 0.826775 0.965480 0.593775
O O8 0.000000 0.000000 0.500000
O O9 0.813939 0.413210 0.339335
O O10 0.000000 0.335772 0.250000
O O11 0.080495 0.348961 0.385170
O O12 0.129818 0.505012 0.934392
O O13 0.020870 0.618585 0.021343
O O14 0.574896 0.939684 0.656108
#
# Coordination Sequence:
#
# PCOD8135193 Si02
#       7
#     4   8   8   8   8   8   8
#     4  10  22  40  60  86 118 162 212 242 292 366
#     4  11  22  37  62  89 124 157 194 257 308 348
#     4  10  19  37  64  93 116 153 208 256 294 357
#     4  11  24  39  58  88 127 162 195 251 306 357
#     4   9  19  37  60  88 118 151 203 246 297 358
#     4   9  22  38  62  87 116 160 210 243 296 364
#     4   9  18  36  62  90 112 152 202 250 293 359
#
# _framework density 19.473115
#
# number of rings (size 3 to 8) (size 9 to 14) (size 15 to 20)
#    0.000    2.154    2.308    0.923    4.308    1.231 
#    0.000    1.538    0.000    0.000    0.000    0.000 
#    0.000    0.000    0.000    0.000    0.000    0.000 
#
# Total GULP energy -322213.351819 kJ/mol
# GULP energy per Si atom -12392.821224 kJ/mol
# Density = 1.942879 g / cm^3
# Si number density = 19.473115 Si / 1000 Ang^3
#
#
#
# Elastic Constant Matrix: (Units=GPa)
#
#
# Indices 1 2 3 4 5 6 
#
# 1 131.9217 56.2777 46.2238 0.0000 24.6457 0.0000
# 2 56.2777 108.4787 36.2853 0.0000 5.3832 0.0000
# 3 46.2238 36.2853 77.5694 0.0000 22.3427 0.0000
# 4 0.0000 0.0000 0.0000 16.7119 0.0000 -1.4570
# 5 24.6457 5.3832 22.3427 0.0000 37.5805 0.0000
# 6 0.0000 0.0000 0.0000 -1.4570 0.0000 21.3387
#
#
#
# Elastic Compliance Matrix: (Units=1/GPa)
#
#
# Indices 1 2 3 4 5 6 
#
# 1 0.011687 -0.004704 -0.003319 0.000000 -0.005018 0.000000
# 2 -0.004704 0.012921 -0.004340 0.000000 0.003814 0.000000
# 3 -0.003319 -0.004340 0.019419 0.000000 -0.008747 0.000000
# 4 0.000000 0.000000 0.000000 0.060196 0.000000 0.004110
# 5 -0.005018 0.003814 -0.008747 0.000000 0.034554 0.000000
# 6 0.000000 0.000000 0.000000 0.004110 0.000000 0.047144
#
#
# Mechanical properties :
#
#
# Convention : Reuss Voigt Hill
#
# Bulk Modulus (GPa) = 51.80764 66.17148 58.98956
# Shear Modulus (GPa) = 23.03294 27.07174 25.05234
#
# Velocity S-wave (km/s) = 3.44293 3.73260 3.59069
# Velocity P-wave (km/s) = 6.51671 7.25473 6.89560
#
# Compressibility (1/GPa) = 0.01930217
#
# Stress axis : x y z
#
# Youngs Moduli (GPa) = 85.56297 77.39227 51.49674
#
# Poissons Ratio (x) = 0.36407 0.17090
# Poissons Ratio (y) = 0.40250 0.22348
# Poissons Ratio (z) = 0.28396 0.33586
#
# Static dielectric constant tensor:
#      x y z
#    x 3.835700 0.000000 0.341460 
#    y 0.000000 3.313150 0.000000 
#    z 0.341460 0.000000 3.808840 
# 
# 
# High freq. dielectric constant tensor:
#      x y z
#    x 1.767030 0.000000 0.010300 
#    y 0.000000 1.733300 0.000000 
#    z 0.010300 0.000000 1.761100 
# 
# From -- ./inp_files/231242.got.cif
#   From: 2010.06.25/outbox.cif.g09.slc.cpg/sg15_116_cif.got.tgz:231242.got - 2010.06.28 07:06:18.
