data_PCOD8135775
_publ_section_title
;
Structure prediction by ZEFSAII (Michael W. Deem and Ramdas Pophale) SiO2 
 PCOD8135775
Probable space group: C 2/C
;
_chemical_formula_sum "Si O2"
_cell_formula_units_Z 44
_cell_length_a 11.562515
_cell_length_b 16.029414
_cell_length_c 20.880603
_cell_angle_alpha 90.000000
_cell_angle_beta 146.192063
_cell_angle_gamma 90.000000
_cell_volume 2153.319547
_symmetry_space_group_name_H-M "C 2/C"
_symmetry_group_IT_number 15
_symmetry_cell_setting 'monoclinic'
loop_
_space_group_symop_operation_xyz
x,y,z
-x,y,1/2-z
-x,-y,-z
x,-y,1/2+z
1/2+x,1/2+y,z
1/2-x,1/2+y,1/2-z
1/2-x,1/2-y,-z
1/2+x,1/2-y,1/2+z
loop_
_atom_site_type_symbol
_atom_site_label
_atom_site_fract_x
_atom_site_fract_y
_atom_site_fract_z
Si Si1 0.000000 0.720367 0.750000
Si Si2 0.575871 0.810410 0.543124
Si Si3 0.992300 0.877744 0.322134
Si Si4 0.326503 0.216195 0.116588
Si Si5 0.518960 0.116040 0.634284
Si Si6 0.375114 0.932894 0.550682
O O1 0.798649 0.777818 0.669789
O O2 0.944599 0.663368 0.663464
O O3 0.406095 0.735336 0.464820
O O4 0.593091 0.843716 0.478458
O O5 0.512398 0.888534 0.558645
O O6 0.765840 0.878266 0.245675
O O7 0.000000 0.886385 0.250000
O O8 0.110299 0.792605 0.403029
O O9 0.139660 0.951187 0.417255
O O10 0.500000 0.229693 0.250000
O O11 0.358605 0.124073 0.105812
O O12 0.471672 0.018753 0.617695
#
# Coordination Sequence:
#
# PCOD8135775 Si02
#       6
#     4   8   8   8   8   8
#     4  12  28  44  62  94 144 172 202 260 332 394
#     4  11  23  44  69  90 126 178 222 251 314 394
#     4  10  19  40  68  89 123 167 221 264 299 381
#     4  10  19  39  69  92 121 166 222 261 308 381
#     4  12  24  44  63 100 133 166 210 271 327 374
#     4  11  23  38  68 100 124 162 221 270 325 362
#
# _framework density 20.433565999999999
#
# number of rings (size 3 to 8) (size 9 to 14) (size 15 to 20)
#    0.000    1.091    5.455    5.455    1.273    1.455 
#    3.273    1.818    0.000    0.000    0.000    0.000 
#    0.000    0.000    0.000    0.000    0.000    0.000 
#
# Total GULP energy -272742.465845 kJ/mol
# GULP energy per Si atom -12397.384811 kJ/mol
# Density = 2.038706 g / cm^3
# Si number density = 20.433566 Si / 1000 Ang^3
#
#
#
# Elastic Constant Matrix: (Units=GPa)
#
#
# Indices 1 2 3 4 5 6 
#
# 1 53.2531 25.2903 4.7922 0.0001 -1.2304 0.0000
# 2 25.2903 96.4832 31.2846 0.0000 0.6988 0.0000
# 3 4.7922 31.2846 100.3351 -0.0003 22.8745 0.0000
# 4 0.0001 0.0000 -0.0003 27.3553 0.0000 -7.3195
# 5 -1.2304 0.6988 22.8745 0.0000 27.8526 0.0000
# 6 0.0000 0.0000 0.0000 -7.3195 0.0000 25.1664
#
#
#
# Elastic Compliance Matrix: (Units=1/GPa)
#
#
# Indices 1 2 3 4 5 6 
#
# 1 0.021514 -0.005863 0.000677 0.000000 0.000541 0.000000
# 2 -0.005863 0.013376 -0.004620 0.000000 0.003200 0.000000
# 3 0.000677 -0.004620 0.013954 0.000000 -0.011314 0.000000
# 4 0.000000 0.000000 0.000000 0.039641 0.000000 0.011529
# 5 0.000541 0.003200 -0.011314 0.000000 0.045139 0.000000
# 6 0.000000 0.000000 0.000000 0.011529 0.000000 0.043089
#
#
# Mechanical properties :
#
#
# Convention : Reuss Voigt Hill
#
# Bulk Modulus (GPa) = 34.20823 41.42284 37.81554
# Shear Modulus (GPa) = 24.26365 28.65513 26.45939
#
# Velocity S-wave (km/s) = 3.44966 3.74887 3.60237
# Velocity P-wave (km/s) = 5.71353 6.24937 5.98745
#
# Compressibility (1/GPa) = 0.02923273
#
# Stress axis : x y z
#
# Youngs Moduli (GPa) = 46.48117 74.75983 71.66241
#
# Poissons Ratio (x) = 0.43830 -0.04852
# Poissons Ratio (y) = 0.27251 0.33109
# Poissons Ratio (z) = -0.03147 0.34540
#
# Static dielectric constant tensor:
#      x y z
#    x 3.243540 0.000000 -0.755760 
#    y 0.000000 3.589600 0.000000 
#    z -0.755760 0.000000 2.876740 
# 
# 
# High freq. dielectric constant tensor:
#      x y z
#    x 1.789520 0.000000 -0.007150 
#    y 0.000000 1.783250 0.000000 
#    z -0.007150 0.000000 1.822160 
# 
# From -- ./inp_files/270501.got.cif
#   From: 2010.06.25/outbox.cif.g09.slc.cpg/sg15_136_cif.got.tgz:270501.got - 2010.06.28 07:06:18.
