data_PCOD8135570
_publ_section_title
;
Structure prediction by ZEFSAII (Michael W. Deem and Ramdas Pophale) SiO2 
 PCOD8135570
Probable space group: C 2/C
;
_chemical_formula_sum "Si O2"
_cell_formula_units_Z 60
_cell_length_a 14.744906
_cell_length_b 11.134110
_cell_length_c 18.590718
_cell_angle_alpha 90.000000
_cell_angle_beta 114.579675
_cell_angle_gamma 90.000000
_cell_volume 2775.497595
_symmetry_space_group_name_H-M "C 2/C"
_symmetry_group_IT_number 15
_symmetry_cell_setting 'monoclinic'
loop_
_space_group_symop_operation_xyz
x,y,z
-x,y,1/2-z
-x,-y,-z
x,-y,1/2+z
1/2+x,1/2+y,z
1/2-x,1/2+y,1/2-z
1/2-x,1/2-y,-z
1/2+x,1/2-y,1/2+z
loop_
_atom_site_type_symbol
_atom_site_label
_atom_site_fract_x
_atom_site_fract_y
_atom_site_fract_z
Si Si1 0.301632 0.135327 0.182129
Si Si2 0.302525 0.925138 0.960659
Si Si3 0.528373 0.266350 0.984047
Si Si4 0.808912 0.296324 0.451282
Si Si5 0.759241 0.196665 0.192281
Si Si6 0.200219 0.083204 0.580591
Si Si7 0.500000 0.008331 0.250000
Si Si8 0.457873 0.773945 0.308221
O O1 0.265012 0.264278 0.139607
O O2 0.317484 0.141592 0.274134
O O3 0.409936 0.090629 0.189710
O O4 0.216890 0.047469 0.119832
O O5 0.225059 0.892488 0.870425
O O6 0.328570 0.063313 0.962288
O O7 0.400499 0.846689 0.972928
O O8 0.259464 0.894593 0.025173
O O9 0.419615 0.260728 0.984111
O O10 0.521899 0.268343 0.896200
O O11 0.583118 0.389035 0.027940
O O12 0.750000 0.250000 0.500000
O O13 0.738446 0.327954 0.154633
O O14 0.849686 0.215872 0.277991
O O15 0.460906 0.920475 0.301697
O O16 0.500000 0.713545 0.250000
#
# Coordination Sequence:
#
# PCOD8135570 Si02
#       8
#     8   8   8   8   8   8   4   8
#     4  12  25  44  68 100 141 179 226 289 343 415
#     4  11  24  44  74  99 138 179 238 285 343 417
#     4  11  23  42  73 100 136 186 238 278 349 410
#     4  12  27  45  63 100 145 187 228 283 346 423
#     4  11  23  40  69 102 133 170 232 290 331 392
#     4  11  23  47  68 105 140 176 227 298 349 404
#     4  10  24  40  74  92 136 182 226 280 348 398
#     4  10  19  38  69 104 126 168 233 282 337 398
#
# _framework density 21.617746
#
# number of rings (size 3 to 8) (size 9 to 14) (size 15 to 20)
#    0.400    0.533    4.000    4.400    3.733    2.667 
#    0.000    0.000    4.400    0.000    0.000    0.000 
#    0.000    0.000    0.000    0.000    0.000    0.000 
#
# Total GULP energy -371654.206011 kJ/mol
# GULP energy per Si atom -12388.473534 kJ/mol
# Density = 2.156854 g / cm^3
# Si number density = 21.617746 Si / 1000 Ang^3
#
#
#
# Elastic Constant Matrix: (Units=GPa)
#
#
# Indices 1 2 3 4 5 6 
#
# 1 111.4455 36.0555 38.3835 0.0000 2.1349 0.0000
# 2 36.0555 64.4953 39.8696 0.0000 7.3776 0.0000
# 3 38.3835 39.8696 130.1099 0.0000 -5.0162 0.0000
# 4 0.0000 0.0000 0.0000 34.8526 0.0000 3.4228
# 5 2.1349 7.3776 -5.0162 0.0000 46.6056 0.0000
# 6 0.0000 0.0000 0.0000 3.4228 0.0000 24.1908
#
#
#
# Elastic Compliance Matrix: (Units=1/GPa)
#
#
# Indices 1 2 3 4 5 6 
#
# 1 0.011258 -0.005254 -0.001706 0.000000 0.000132 0.000000
# 2 -0.005254 0.022228 -0.005410 0.000000 -0.003860 0.000000
# 3 -0.001706 -0.005410 0.009924 0.000000 0.002003 0.000000
# 4 0.000000 0.000000 0.000000 0.029097 0.000000 -0.004117
# 5 0.000132 -0.003860 0.002003 0.000000 0.022277 0.000000
# 6 0.000000 0.000000 0.000000 -0.004117 0.000000 0.041921
#
#
# Mechanical properties :
#
#
# Convention : Reuss Voigt Hill
#
# Bulk Modulus (GPa) = 53.56303 59.40753 56.48528
# Shear Modulus (GPa) = 29.82069 33.91260 31.86665
#
# Velocity S-wave (km/s) = 3.71813 3.96503 3.84356
# Velocity P-wave (km/s) = 6.57752 6.96437 6.77371
#
# Compressibility (1/GPa) = 0.01866959
#
# Stress axis : x y z
#
# Youngs Moduli (GPa) = 88.82661 44.98755 100.76393
#
# Poissons Ratio (x) = 0.23637 0.17191
# Poissons Ratio (y) = 0.46671 0.54516
# Poissons Ratio (z) = 0.15154 0.24339
#
# Static dielectric constant tensor:
#      x y z
#    x 4.129010 0.000000 -0.036310 
#    y 0.000000 4.200990 0.000000 
#    z -0.036310 0.000000 4.051130 
# 
# 
# High freq. dielectric constant tensor:
#      x y z
#    x 1.839980 0.000000 0.001360 
#    y 0.000000 1.836490 0.000000 
#    z 0.001360 0.000000 1.864700 
# 
# From -- ./inp_files/204490.got.cif
#   From: 2010.06.25/outbox.cif.g09.slc.cpg/sg15_103_cif.got.tgz:204490.got - 2010.06.28 07:06:18.
