data_PCOD8135246
_publ_section_title
;
Structure prediction by ZEFSAII (Michael W. Deem and Ramdas Pophale) SiO2 
 PCOD8135246
Probable space group: C 2/C
;
_chemical_formula_sum "Si O2"
_cell_formula_units_Z 32
_cell_length_a 12.076652
_cell_length_b 14.530746
_cell_length_c 8.553564
_cell_angle_alpha 90.000000
_cell_angle_beta 71.566095
_cell_angle_gamma 90.000000
_cell_volume 1423.985163
_symmetry_space_group_name_H-M "C 2/C"
_symmetry_group_IT_number 15
_symmetry_cell_setting 'monoclinic'
loop_
_space_group_symop_operation_xyz
x,y,z
-x,y,1/2-z
-x,-y,-z
x,-y,1/2+z
1/2+x,1/2+y,z
1/2-x,1/2+y,1/2-z
1/2-x,1/2-y,-z
1/2+x,1/2-y,1/2+z
loop_
_atom_site_type_symbol
_atom_site_label
_atom_site_fract_x
_atom_site_fract_y
_atom_site_fract_z
Si Si1 0.542382 0.405034 0.555049
Si Si2 0.488790 0.215689 0.072197
Si Si3 0.897995 0.558617 0.630718
Si Si4 0.305425 0.909589 0.500562
O O1 0.500000 0.397367 0.750000
O O2 0.500000 0.500000 0.500000
O O3 0.489613 0.322086 0.477392
O O4 0.680769 0.387267 0.483905
O O5 0.500000 0.199423 0.250000
O O6 0.595595 0.161461 0.940971
O O7 0.363292 0.176662 0.066936
O O8 0.785901 0.498980 0.622646
O O9 0.896140 0.564637 0.819595
O O10 0.000000 0.500000 0.500000
#
# Coordination Sequence:
#
# PCOD8135246 Si02
#       4
#     8   8   8   8
#     4  12  26  45  63  89 128 171 212 258 310 375
#     4  11  23  41  65  95 126 163 210 262 314 374
#     4  10  19  37  66  97 124 158 205 262 315 370
#     4  11  22  41  66  95 127 166 207 258 318 373
#
# _framework density 22.472142999999999
#
# number of rings (size 3 to 8) (size 9 to 14) (size 15 to 20)
#    0.000    1.000    0.000   10.500    0.000    0.000 
#    0.000    3.750    0.000    0.000    0.000    0.000 
#    0.000    0.000    0.000    0.000    0.000    0.000 
#
# Total GULP energy -198299.881977 kJ/mol
# GULP energy per Si atom -12393.742624 kJ/mol
# Density = 2.242100 g / cm^3
# Si number density = 22.472143 Si / 1000 Ang^3
#
#
#
# Elastic Constant Matrix: (Units=GPa)
#
#
# Indices 1 2 3 4 5 6 
#
# 1 58.1819 37.6020 46.1711 0.0000 6.9633 0.0000
# 2 37.6020 185.1298 47.1134 0.0000 22.5002 0.0000
# 3 46.1711 47.1134 152.7601 0.0000 30.8042 0.0000
# 4 0.0000 0.0000 0.0000 37.9278 0.0000 12.8417
# 5 6.9633 22.5002 30.8042 0.0000 37.6370 0.0000
# 6 0.0000 0.0000 0.0000 12.8417 0.0000 31.9284
#
#
#
# Elastic Compliance Matrix: (Units=1/GPa)
#
#
# Indices 1 2 3 4 5 6 
#
# 1 0.024711 -0.003639 -0.007022 0.000000 0.003351 0.000000
# 2 -0.003639 0.006588 -0.000328 0.000000 -0.002997 0.000000
# 3 -0.007022 -0.000328 0.010142 0.000000 -0.006806 0.000000
# 4 0.000000 0.000000 0.000000 0.030522 0.000000 -0.012276
# 5 0.003351 -0.002997 -0.006806 0.000000 0.033312 0.000000
# 6 0.000000 0.000000 0.000000 -0.012276 0.000000 0.036258
#
#
# Mechanical properties :
#
#
# Convention : Reuss Voigt Hill
#
# Bulk Modulus (GPa) = 51.37857 73.09388 62.23623
# Shear Modulus (GPa) = 29.41197 39.17768 34.29482
#
# Velocity S-wave (km/s) = 3.62169 4.17992 3.91078
# Velocity P-wave (km/s) = 6.35623 7.47614 6.93882
#
# Compressibility (1/GPa) = 0.01946337
#
# Stress axis : x y z
#
# Youngs Moduli (GPa) = 40.46793 151.78080 98.59942
#
# Poissons Ratio (x) = 0.55238 0.69238
# Poissons Ratio (y) = 0.14728 0.03230
# Poissons Ratio (z) = 0.28417 0.04972
#
# Static dielectric constant tensor:
#      x y z
#    x 4.501350 0.000000 0.279560 
#    y 0.000000 4.707010 0.000000 
#    z 0.279560 0.000000 4.088120 
# 
# 
# High freq. dielectric constant tensor:
#      x y z
#    x 1.872100 0.000000 0.018080 
#    y 0.000000 1.895640 0.000000 
#    z 0.018080 0.000000 1.898800 
# 
# From -- ./inp_files/27865.got.cif
#   From: 2010.06.25/outbox.cif.g09.slc.cpg/sg15_14_cif.got.tgz:27865.got - 2010.06.28 07:06:18.
