data_PCOD8135299
_publ_section_title
;
Structure prediction by ZEFSAII (Michael W. Deem and Ramdas Pophale) SiO2 
 PCOD8135299
Probable space group: C 2/C
;
_chemical_formula_sum "Si O2"
_cell_formula_units_Z 52
_cell_length_a 19.601876
_cell_length_b 15.951255
_cell_length_c 12.120260
_cell_angle_alpha 90.000000
_cell_angle_beta 140.573567
_cell_angle_gamma 90.000000
_cell_volume 2406.786762
_symmetry_space_group_name_H-M "C 2/C"
_symmetry_group_IT_number 15
_symmetry_cell_setting 'monoclinic'
loop_
_space_group_symop_operation_xyz
x,y,z
-x,y,1/2-z
-x,-y,-z
x,-y,1/2+z
1/2+x,1/2+y,z
1/2-x,1/2+y,1/2-z
1/2-x,1/2-y,-z
1/2+x,1/2-y,1/2+z
loop_
_atom_site_type_symbol
_atom_site_label
_atom_site_fract_x
_atom_site_fract_y
_atom_site_fract_z
Si Si1 0.368213 0.921791 0.415287
Si Si2 0.953860 0.838639 0.300503
Si Si3 0.612039 0.097878 0.951242
Si Si4 0.764623 0.942181 0.456469
Si Si5 0.439008 0.188966 0.411064
Si Si6 0.500000 0.501052 0.750000
Si Si7 0.211766 0.626026 0.457259
O O1 0.272057 0.906035 0.207581
O O2 0.476897 0.886728 0.497777
O O3 0.351641 0.871396 0.507074
O O4 0.371558 0.020172 0.445771
O O5 0.986889 0.783539 0.450151
O O6 0.000577 0.935308 0.358395
O O7 0.827540 0.840029 0.128213
O O8 0.000000 0.791192 0.250000
O O9 0.500000 0.084594 0.750000
O O10 0.711657 0.111263 0.990861
O O11 0.607569 0.180995 0.023134
O O12 0.715311 0.033929 0.409580
O O13 0.894720 0.942273 0.621662
O O14 0.345760 0.184531 0.203262
#
# Coordination Sequence:
#
# PCOD8135299 Si02
#       7
#     8   8   8   8   8   4   8
#     4  11  20  33  57  86 122 153 197 254 310 366
#     4   9  20  37  56  85 117 156 207 249 290 359
#     4  11  21  33  54  90 127 153 195 250 315 373
#     4  10  19  38  57  88 122 159 204 251 311 357
#     4  12  20  33  56  89 124 158 188 255 312 365
#     4   8  20  40  62  84 122 158 218 252 284 360
#     4  10  20  34  55  88 118 152 202 250 307 353
#
# _framework density 21.605568999999999
#
# number of rings (size 3 to 8) (size 9 to 14) (size 15 to 20)
#    0.462    1.231    3.077    4.154    0.000    0.000 
#    0.000    8.462    0.000    0.923   10.000    0.000 
#    0.000    0.000    0.000    0.000    0.000    0.000 
#
# Total GULP energy -322166.261956 kJ/mol
# GULP energy per Si atom -12391.010075 kJ/mol
# Density = 2.155639 g / cm^3
# Si number density = 21.605569 Si / 1000 Ang^3
#
#
#
# Elastic Constant Matrix: (Units=GPa)
#
#
# Indices 1 2 3 4 5 6 
#
# 1 114.9063 17.8035 59.8641 0.0000 8.5639 0.0000
# 2 17.8035 20.0515 10.2551 0.0000 -4.6138 0.0000
# 3 59.8641 10.2551 70.2676 0.0000 -6.1743 0.0000
# 4 0.0000 0.0000 0.0000 21.9727 0.0000 9.3905
# 5 8.5639 -4.6138 -6.1743 0.0000 34.5793 0.0000
# 6 0.0000 0.0000 0.0000 9.3905 0.0000 46.0726
#
#
#
# Elastic Compliance Matrix: (Units=1/GPa)
#
#
# Indices 1 2 3 4 5 6 
#
# 1 0.019183 -0.011177 -0.015503 0.000000 -0.009010 0.000000
# 2 -0.011177 0.061609 0.001520 0.000000 0.011260 0.000000
# 3 -0.015503 0.001520 0.028012 0.000000 0.009044 0.000000
# 4 0.000000 0.000000 0.000000 0.049854 0.000000 -0.010161
# 5 -0.009010 0.011260 0.009044 0.000000 0.034268 0.000000
# 6 0.000000 0.000000 0.000000 -0.010161 0.000000 0.023776
#
#
# Mechanical properties :
#
#
# Convention : Reuss Voigt Hill
#
# Bulk Modulus (GPa) = 17.09887 42.34121 29.72004
# Shear Modulus (GPa) = 17.45103 28.34508 22.89806
#
# Velocity S-wave (km/s) = 2.84511 3.62599 3.25902
# Velocity P-wave (km/s) = 4.32714 6.09675 5.28651
#
# Compressibility (1/GPa) = 0.05848340
#
# Stress axis : x y z
#
# Youngs Moduli (GPa) = 52.12960 16.23152 35.69866
#
# Poissons Ratio (x) = 0.18141 0.55345
# Poissons Ratio (y) = 0.58263 -0.05425
# Poissons Ratio (z) = 0.80819 -0.02467
#
# Static dielectric constant tensor:
#      x y z
#    x 3.091580 0.000000 0.260880 
#    y 0.000000 3.787040 0.000000 
#    z 0.260880 0.000000 3.506490 
# 
# 
# High freq. dielectric constant tensor:
#      x y z
#    x 1.860720 0.000000 0.004500 
#    y 0.000000 1.816660 0.000000 
#    z 0.004500 0.000000 1.824840 
# 
# From -- ./inp_files/113719.got.cif
#   From: 2010.06.25/outbox.cif.g09.slc.cpg/sg15_57_cif.got.tgz:113719.got - 2010.06.28 07:06:18.
