data_PCOD8135753
_publ_section_title
;
Structure prediction by ZEFSAII (Michael W. Deem and Ramdas Pophale) SiO2 
 PCOD8135753
Probable space group: C 2/C
;
_chemical_formula_sum "Si O2"
_cell_formula_units_Z 48
_cell_length_a 8.935081
_cell_length_b 23.332789
_cell_length_c 12.043488
_cell_angle_alpha 90.000000
_cell_angle_beta 69.631685
_cell_angle_gamma 90.000000
_cell_volume 2353.840038
_symmetry_space_group_name_H-M "C 2/C"
_symmetry_group_IT_number 15
_symmetry_cell_setting 'monoclinic'
loop_
_space_group_symop_operation_xyz
x,y,z
-x,y,1/2-z
-x,-y,-z
x,-y,1/2+z
1/2+x,1/2+y,z
1/2-x,1/2+y,1/2-z
1/2-x,1/2-y,-z
1/2+x,1/2-y,1/2+z
loop_
_atom_site_type_symbol
_atom_site_label
_atom_site_fract_x
_atom_site_fract_y
_atom_site_fract_z
Si Si1 0.687751 0.331194 0.223214
Si Si2 0.811300 0.297919 0.784421
Si Si3 0.315495 0.606452 0.327849
Si Si4 0.177659 0.523182 0.188126
Si Si5 0.214204 0.881842 0.989769
Si Si6 0.848213 0.910678 0.072519
O O1 0.500000 0.329864 0.250000
O O2 0.753920 0.266627 0.212806
O O3 0.729194 0.362749 0.327306
O O4 0.767761 0.366348 0.100858
O O5 0.767145 0.334190 0.686835
O O6 0.722396 0.324040 0.914667
O O7 0.000000 0.299620 0.750000
O O8 0.500000 0.609362 0.250000
O O9 0.238603 0.552401 0.285296
O O10 0.283661 0.599652 0.466116
O O11 0.168463 0.570389 0.091726
O O12 0.298761 0.472995 0.127287
O O13 0.000000 0.498498 0.250000
O O14 0.038292 0.908217 0.028394
#
# Coordination Sequence:
#
# PCOD8135753 Si02
#       6
#     8   8   8   8   8   8
#     4   9  21  37  63  93 125 162 207 247 294 369
#     4  10  20  40  64  93 124 164 204 249 304 358
#     4  11  22  39  67  90 123 159 208 254 307 364
#     4  11  25  42  63  89 125 161 206 254 311 365
#     4  10  19  39  67  90 119 166 211 244 294 373
#     4  11  23  40  62  95 122 161 207 254 307 360
#
# _framework density 20.392208
#
# number of rings (size 3 to 8) (size 9 to 14) (size 15 to 20)
#    0.000    1.667    3.333    3.000    2.333    2.000 
#    3.000    0.833    0.000    0.000    0.000    0.000 
#    0.000    0.000    0.000    0.000    0.000    0.000 
#
# Total GULP energy -297658.118883 kJ/mol
# GULP energy per Si atom -12402.421620 kJ/mol
# Density = 2.034579 g / cm^3
# Si number density = 20.392208 Si / 1000 Ang^3
#
#
#
# Elastic Constant Matrix: (Units=GPa)
#
#
# Indices 1 2 3 4 5 6 
#
# 1 72.0184 35.3927 39.6266 0.0000 8.8756 0.0000
# 2 35.3927 141.8220 79.4465 0.0000 12.7388 0.0000
# 3 39.6266 79.4465 162.9540 0.0000 26.3660 0.0000
# 4 0.0000 0.0000 0.0000 22.4641 0.0000 -14.5143
# 5 8.8756 12.7388 26.3660 0.0000 32.9883 0.0000
# 6 0.0000 0.0000 0.0000 -14.5143 0.0000 12.7628
#
#
#
# Elastic Compliance Matrix: (Units=1/GPa)
#
#
# Indices 1 2 3 4 5 6 
#
# 1 0.016761 -0.002615 -0.002567 0.000000 -0.001448 0.000000
# 2 -0.002615 0.010108 -0.004335 0.000000 0.000265 0.000000
# 3 -0.002567 -0.004335 0.009753 0.000000 -0.005431 0.000000
# 4 0.000000 0.000000 0.000000 0.167846 0.000000 0.190881
# 5 -0.001448 0.000265 -0.005431 0.000000 0.034941 0.000000
# 6 0.000000 0.000000 0.000000 0.190881 0.000000 0.295429
#
#
# Mechanical properties :
#
#
# Convention : Reuss Voigt Hill
#
# Bulk Modulus (GPa) = 56.85384 76.19179 66.52282
# Shear Modulus (GPa) = 8.93278 28.46495 18.69886
#
# Velocity S-wave (km/s) = 2.09523 3.74019 3.03142
# Velocity P-wave (km/s) = 5.81326 7.48975 6.70412
#
# Compressibility (1/GPa) = 0.01758896
#
# Stress axis : x y z
#
# Youngs Moduli (GPa) = 59.66160 98.92771 102.53141
#
# Poissons Ratio (x) = 0.25869 0.26317
# Poissons Ratio (y) = 0.15601 0.44450
# Poissons Ratio (z) = 0.15313 0.42887
#
# Static dielectric constant tensor:
#      x y z
#    x 3.517900 0.000000 0.098540 
#    y 0.000000 3.850700 0.000000 
#    z 0.098540 0.000000 3.997360 
# 
# 
# High freq. dielectric constant tensor:
#      x y z
#    x 1.772960 0.000000 -0.001630 
#    y 0.000000 1.804320 0.000000 
#    z -0.001630 0.000000 1.809030 
# 
# From -- ./inp_files/79779.got.cif
#   From: 2010.06.25/outbox.cif.g09.slc.cpg/sg15_40_cif.got.tgz:79779.got - 2010.06.28 07:06:18.
