data_PCOD8135755
_publ_section_title
;
Structure prediction by ZEFSAII (Michael W. Deem and Ramdas Pophale) SiO2 
 PCOD8135755
Probable space group: C 2/C
;
_chemical_formula_sum "Si O2"
_cell_formula_units_Z 60
_cell_length_a 15.614546
_cell_length_b 11.469664
_cell_length_c 23.652499
_cell_angle_alpha 90.000000
_cell_angle_beta 43.676669
_cell_angle_gamma 90.000000
_cell_volume 2925.338265
_symmetry_space_group_name_H-M "C 2/C"
_symmetry_group_IT_number 15
_symmetry_cell_setting 'monoclinic'
loop_
_space_group_symop_operation_xyz
x,y,z
-x,y,1/2-z
-x,-y,-z
x,-y,1/2+z
1/2+x,1/2+y,z
1/2-x,1/2+y,1/2-z
1/2-x,1/2-y,-z
1/2+x,1/2-y,1/2+z
loop_
_atom_site_type_symbol
_atom_site_label
_atom_site_fract_x
_atom_site_fract_y
_atom_site_fract_z
Si Si1 0.251962 0.723321 0.330963
Si Si2 0.198745 0.676066 0.815369
Si Si3 0.553787 0.563267 0.816547
Si Si4 0.446020 0.966535 0.586171
Si Si5 0.000000 0.880810 0.750000
Si Si6 0.697826 0.860852 0.664780
Si Si7 0.531430 0.815668 0.644201
Si Si8 0.616685 0.451822 0.410764
O O1 0.289764 0.765147 0.250884
O O2 0.183082 0.600508 0.360333
O O3 0.378268 0.702479 0.306237
O O4 0.151836 0.815642 0.404345
O O5 0.321193 0.603136 0.774364
O O6 0.080789 0.590827 0.871109
O O7 0.191331 0.773726 0.868286
O O8 0.487842 0.463496 0.810988
O O9 0.469097 0.677512 0.867650
O O10 0.587689 0.511084 0.860739
O O11 0.536855 0.889584 0.583041
O O12 0.500000 0.000000 0.500000
O O13 0.653958 0.834850 0.622321
O O14 0.588710 0.856602 0.763190
O O15 0.754613 0.988526 0.633461
O O16 0.500000 0.500000 0.500000
#
# Coordination Sequence:
#
# PCOD8135755 Si02
#       8
#     8   8   8   8   4   8   8   8
#     4  11  24  42  66  98 128 175 227 270 329 400
#     4  10  20  40  69  90 125 171 220 265 325 394
#     4  10  19  39  67  91 123 167 219 265 320 389
#     4  12  24  41  65 101 141 170 214 281 344 394
#     4  12  22  40  70 100 126 162 230 294 314 380
#     4  10  20  37  68  94 116 165 228 267 311 385
#     4  10  20  39  65  97 123 160 227 278 309 388
#     4  11  24  42  62  86 134 177 208 257 336 414
#
# _framework density 20.510448
#
# number of rings (size 3 to 8) (size 9 to 14) (size 15 to 20)
#    0.000    1.333    5.333    4.000    1.867    2.133 
#    2.400    2.000    0.000    0.000    0.000    0.000 
#    0.000    0.000    0.000    0.000    0.000    0.000 
#
# Total GULP energy -371824.102115 kJ/mol
# GULP energy per Si atom -12394.136737 kJ/mol
# Density = 2.046376 g / cm^3
# Si number density = 20.510448 Si / 1000 Ang^3
#
#
#
# Elastic Constant Matrix: (Units=GPa)
#
#
# Indices 1 2 3 4 5 6 
#
# 1 129.9773 51.9290 26.3610 0.0000 9.0592 0.0000
# 2 51.9290 106.9573 42.7899 0.0000 4.9402 0.0000
# 3 26.3610 42.7899 67.2297 0.0000 9.0012 0.0000
# 4 0.0000 0.0000 0.0000 10.7445 0.0000 1.6971
# 5 9.0592 4.9402 9.0012 0.0000 16.4960 0.0000
# 6 0.0000 0.0000 0.0000 1.6971 0.0000 43.5927
#
#
#
# Elastic Compliance Matrix: (Units=1/GPa)
#
#
# Indices 1 2 3 4 5 6 
#
# 1 0.009815 -0.004365 -0.000565 0.000000 -0.003775 0.000000
# 2 -0.004365 0.014491 -0.007823 0.000000 0.002326 0.000000
# 3 -0.000565 -0.007823 0.021274 0.000000 -0.008955 0.000000
# 4 0.000000 0.000000 0.000000 0.093647 0.000000 -0.003646
# 5 -0.003775 0.002326 -0.008955 0.000000 0.066884 0.000000
# 6 0.000000 0.000000 0.000000 -0.003646 0.000000 0.023082
#
#
# Mechanical properties :
#
#
# Convention : Reuss Voigt Hill
#
# Bulk Modulus (GPa) = 49.81510 60.70269 55.25889
# Shear Modulus (GPa) = 19.12851 26.37227 22.75039
#
# Velocity S-wave (km/s) = 3.05720 3.58969 3.33409
# Velocity P-wave (km/s) = 6.06649 6.84408 6.46698
#
# Compressibility (1/GPa) = 0.02007424
#
# Stress axis : x y z
#
# Youngs Moduli (GPa) = 101.88207 69.00783 47.00556
#
# Poissons Ratio (x) = 0.30122 0.02656
# Poissons Ratio (y) = 0.44472 0.36773
# Poissons Ratio (z) = 0.05756 0.53985
#
# Static dielectric constant tensor:
#      x y z
#    x 3.866800 0.000000 0.023860 
#    y 0.000000 4.010150 0.000000 
#    z 0.023860 0.000000 3.335080 
# 
# 
# High freq. dielectric constant tensor:
#      x y z
#    x 1.802640 0.000000 0.008470 
#    y 0.000000 1.817430 0.000000 
#    z 0.008470 0.000000 1.762440 
# 
# From -- ./inp_files/277261.got.cif
#   From: 2010.06.25/outbox.cif.g09.slc.cpg/sg15_139_cif.got.tgz:277261.got - 2010.06.28 07:06:18.
