data_PCOD8135558
_publ_section_title
;
Structure prediction by ZEFSAII (Michael W. Deem and Ramdas Pophale) SiO2 
 PCOD8135558
Probable space group: C 2/C
;
_chemical_formula_sum "Si O2"
_cell_formula_units_Z 64
_cell_length_a 30.394173
_cell_length_b 21.670974
_cell_length_c 14.880957
_cell_angle_alpha 90.000000
_cell_angle_beta 18.912485
_cell_angle_gamma 90.000000
_cell_volume 3176.948927
_symmetry_space_group_name_H-M "C 2/C"
_symmetry_group_IT_number 15
_symmetry_cell_setting 'monoclinic'
loop_
_space_group_symop_operation_xyz
x,y,z
-x,y,1/2-z
-x,-y,-z
x,-y,1/2+z
1/2+x,1/2+y,z
1/2-x,1/2+y,1/2-z
1/2-x,1/2-y,-z
1/2+x,1/2-y,1/2+z
loop_
_atom_site_type_symbol
_atom_site_label
_atom_site_fract_x
_atom_site_fract_y
_atom_site_fract_z
Si Si1 0.160587 0.189719 0.174899
Si Si2 0.441632 0.689210 0.459533
Si Si3 0.319499 0.768666 0.957309
Si Si4 0.330340 0.435301 0.157311
Si Si5 0.551353 0.106785 0.250008
Si Si6 0.491372 0.347966 0.162785
Si Si7 0.763793 0.422689 0.357378
Si Si8 0.453022 0.481644 0.187633
O O1 0.028807 0.213401 0.375059
O O2 0.126297 0.169445 0.344077
O O3 0.250000 0.250000 0.000000
O O4 0.229648 0.132604 0.990706
O O5 0.500000 0.707056 0.250000
O O6 0.431876 0.616120 0.500364
O O7 0.292261 0.717937 0.750788
O O8 0.415266 0.829148 0.762845
O O9 0.396423 0.710400 0.845415
O O10 0.250000 0.750000 0.000000
O O11 0.184878 0.438135 0.490593
O O12 0.298803 0.409015 0.119323
O O13 0.421536 0.497703 0.987258
O O14 0.500000 0.124420 0.250000
O O15 0.428054 0.070935 0.538042
O O16 0.500000 0.365758 0.250000
O O17 0.427221 0.408831 0.241808
O O18 0.694976 0.487719 0.514877
O O19 0.500000 0.500000 0.000000
#
# Coordination Sequence:
#
# PCOD8135558 Si02
#       8
#     8   8   8   8   8   8   8   8
#     4  12  24  38  62  97 132 161 217 268 328 388
#     4  11  20  37  63  94 120 170 213 266 314 384
#     4  11  23  39  61  90 133 168 210 258 333 400
#     4  10  19  38  67  94 123 164 222 264 319 381
#     4   9  21  37  64  95 125 161 213 272 328 380
#     4  12  26  43  63  94 132 176 211 272 333 392
#     4  11  20  39  64  95 123 166 215 274 313 382
#     4  12  23  41  67  95 127 170 230 273 321 387
#
# _framework density 20.145115000000001
#
# number of rings (size 3 to 8) (size 9 to 14) (size 15 to 20)
#    0.000    1.000    5.000    2.250    3.500    0.000 
#    0.000    0.625    2.750    0.750    0.000    0.000 
#    0.000    0.000    0.000    0.000    0.000    0.000 
#
# Total GULP energy -396522.478041 kJ/mol
# GULP energy per Si atom -12391.327439 kJ/mol
# Density = 2.009926 g / cm^3
# Si number density = 20.145115 Si / 1000 Ang^3
#
#
#
# Elastic Constant Matrix: (Units=GPa)
#
#
# Indices 1 2 3 4 5 6 
#
# 1 59.9823 -7.9996 25.8140 -0.0005 17.5401 0.0008
# 2 -7.9996 89.3225 50.7142 -0.0026 8.4982 0.0023
# 3 25.8140 50.7142 142.7883 0.0014 13.5895 0.0020
# 4 -0.0005 -0.0026 0.0014 31.6721 0.0008 4.1628
# 5 17.5401 8.4982 13.5895 0.0008 34.4730 0.0002
# 6 0.0008 0.0023 0.0020 4.1628 0.0002 18.8334
#
#
#
# Elastic Compliance Matrix: (Units=1/GPa)
#
#
# Indices 1 2 3 4 5 6 
#
# 1 0.023013 0.006114 -0.005272 0.000002 -0.011138 -0.000001
# 2 0.006114 0.015728 -0.006261 0.000002 -0.004520 -0.000002
# 3 -0.005272 -0.006261 0.010159 -0.000001 0.000221 0.000000
# 4 0.000002 0.000002 -0.000001 0.032518 -0.000002 -0.007188
# 5 -0.011138 -0.004520 0.000221 -0.000002 0.035702 0.000001
# 6 -0.000001 -0.000002 0.000000 -0.007188 0.000001 0.054686
#
#
# Mechanical properties :
#
#
# Convention : Reuss Voigt Hill
#
# Bulk Modulus (GPa) = 26.27335 47.68338 36.97837
# Shear Modulus (GPa) = 25.59749 31.90000 28.74875
#
# Velocity S-wave (km/s) = 3.56849 3.98365 3.78177
# Velocity P-wave (km/s) = 5.48172 6.69930 6.12086
#
# Compressibility (1/GPa) = 0.03806138
#
# Stress axis : x y z
#
# Youngs Moduli (GPa) = 43.45428 63.58152 98.43291
#
# Poissons Ratio (x) = -0.38872 0.51892
# Poissons Ratio (y) = -0.26567 0.61631
# Poissons Ratio (z) = 0.22908 0.39810
#
# Static dielectric constant tensor:
#      x y z
#    x 3.699360 0.000020 -0.061180 
#    y 0.000020 2.816810 -0.000160 
#    z -0.061180 -0.000160 4.208630 
# 
# 
# High freq. dielectric constant tensor:
#      x y z
#    x 1.781830 0.000000 0.010310 
#    y 0.000000 1.772680 0.000000 
#    z 0.010310 0.000000 1.799970 
# 
# From -- ./inp_files/183100.got.cif
#   From: 2010.06.25/outbox.cif.g09.slc.cpg/sg15_92_cif.got.tgz:183100.got - 2010.06.28 07:06:18.
