data_PCOD8135588
_publ_section_title
;
Structure prediction by ZEFSAII (Michael W. Deem and Ramdas Pophale) SiO2 
 PCOD8135588
Probable space group: C 2/C
;
_chemical_formula_sum "Si O2"
_cell_formula_units_Z 56
_cell_length_a 16.230729
_cell_length_b 9.831521
_cell_length_c 24.892906
_cell_angle_alpha 90.000000
_cell_angle_beta 42.836366
_cell_angle_gamma 90.000000
_cell_volume 2700.746156
_symmetry_space_group_name_H-M "C 2/C"
_symmetry_group_IT_number 15
_symmetry_cell_setting 'monoclinic'
loop_
_space_group_symop_operation_xyz
x,y,z
-x,y,1/2-z
-x,-y,-z
x,-y,1/2+z
1/2+x,1/2+y,z
1/2-x,1/2+y,1/2-z
1/2-x,1/2-y,-z
1/2+x,1/2-y,1/2+z
loop_
_atom_site_type_symbol
_atom_site_label
_atom_site_fract_x
_atom_site_fract_y
_atom_site_fract_z
Si Si1 0.395756 0.531592 0.478260
Si Si2 0.953959 0.200915 0.554097
Si Si3 0.277433 0.083948 0.184437
Si Si4 0.556694 0.709873 0.337739
Si Si5 0.172573 0.308413 0.391407
Si Si6 0.667833 0.914290 0.632414
Si Si7 0.075960 0.494962 0.283871
O O1 0.405309 0.611101 0.529111
O O2 0.487311 0.403495 0.431334
O O3 0.431294 0.631114 0.412073
O O4 0.257745 0.477411 0.544284
O O5 0.843604 0.280253 0.633202
O O6 0.055132 0.308450 0.485903
O O7 0.136378 0.117729 0.259679
O O8 0.332809 0.041151 0.214413
O O9 0.287130 0.963664 0.136319
O O10 0.637778 0.735814 0.352149
O O11 0.520034 0.848176 0.325416
O O12 0.281862 0.228480 0.368602
O O13 0.536765 0.898345 0.666485
O O14 0.648643 0.014050 0.692937
#
# Coordination Sequence:
#
# PCOD8135588 Si02
#       7
#     8   8   8   8   8   8   8
#     4   9  19  33  56  79 110 149 186 233 289 345
#     4   9  18  32  55  81 109 146 186 233 293 328
#     4  11  20  32  58  86 114 134 197 251 272 319
#     4  10  20  32  53  90 106 139 202 240 275 326
#     4   9  19  34  53  81 111 149 190 230 286 349
#     4  10  19  39  55  75 115 156 185 219 300 358
#     4  10  22  34  57  83 109 152 191 233 285 349
#
# _framework density 20.735011
#
# number of rings (size 3 to 8) (size 9 to 14) (size 15 to 20)
#    0.000    2.286    1.429    2.143    4.000    0.571 
#    0.000    2.857    0.000   12.000    0.000    0.000 
#    0.000    0.000    0.000    0.000    0.000    0.000 
#
# Total GULP energy -347089.293650 kJ/mol
# GULP energy per Si atom -12396.046202 kJ/mol
# Density = 2.068782 g / cm^3
# Si number density = 20.735011 Si / 1000 Ang^3
#
#
#
# Elastic Constant Matrix: (Units=GPa)
#
#
# Indices 1 2 3 4 5 6 
#
# 1 38.0212 5.9297 2.1109 0.0000 -10.7799 0.0000
# 2 5.9297 80.0594 31.1132 0.0000 -2.1225 0.0001
# 3 2.1109 31.1132 102.5209 0.0000 -10.5038 0.0000
# 4 0.0000 0.0000 0.0000 36.3391 0.0000 -3.6946
# 5 -10.7799 -2.1225 -10.5038 0.0000 21.6759 0.0000
# 6 0.0000 0.0001 0.0000 -3.6946 0.0000 19.4906
#
#
#
# Elastic Compliance Matrix: (Units=1/GPa)
#
#
# Indices 1 2 3 4 5 6 
#
# 1 0.031174 -0.002578 0.001792 0.000000 0.016119 0.000000
# 2 -0.002578 0.014385 -0.004524 0.000000 -0.002066 0.000000
# 3 0.001792 -0.004524 0.011718 0.000000 0.006127 0.000000
# 4 0.000000 0.000000 0.000000 0.028059 0.000000 0.005319
# 5 0.016119 -0.002066 0.006127 0.000000 0.056917 0.000000
# 6 0.000000 0.000000 0.000000 0.005319 0.000000 0.052315
#
#
# Mechanical properties :
#
#
# Convention : Reuss Voigt Hill
#
# Bulk Modulus (GPa) = 21.43322 33.21213 27.32267
# Shear Modulus (GPa) = 22.65098 27.59764 25.12431
#
# Velocity S-wave (km/s) = 3.30874 3.65220 3.48470
# Velocity P-wave (km/s) = 4.99561 5.81695 5.42186
#
# Compressibility (1/GPa) = 0.04665655
#
# Stress axis : x y z
#
# Youngs Moduli (GPa) = 32.07813 69.51624 85.33941
#
# Poissons Ratio (x) = 0.17921 -0.15293
# Poissons Ratio (y) = 0.08270 0.38609
# Poissons Ratio (z) = -0.05749 0.31451
#
# Static dielectric constant tensor:
#      x y z
#    x 3.326590 0.000000 -0.041000 
#    y 0.000000 3.785280 0.000000 
#    z -0.041000 0.000000 3.910460 
# 
# 
# High freq. dielectric constant tensor:
#      x y z
#    x 1.766840 0.000000 -0.007520 
#    y 0.000000 1.806570 0.000000 
#    z -0.007520 0.000000 1.825700 
# 
# From -- ./inp_files/298513.got.cif
#   From: 2010.06.25/outbox.cif.g09.slc.cpg/sg15_150_cif.got.tgz:298513.got - 2010.06.28 07:06:18.
