data_PCOD8135639
_publ_section_title
;
Structure prediction by ZEFSAII (Michael W. Deem and Ramdas Pophale) SiO2 
 PCOD8135639
Probable space group: C 2/C
;
_chemical_formula_sum "Si O2"
_cell_formula_units_Z 64
_cell_length_a 14.592103
_cell_length_b 18.160059
_cell_length_c 16.104353
_cell_angle_alpha 90.000000
_cell_angle_beta 131.131125
_cell_angle_gamma 90.000000
_cell_volume 3214.343559
_symmetry_space_group_name_H-M "C 2/C"
_symmetry_group_IT_number 15
_symmetry_cell_setting 'monoclinic'
loop_
_space_group_symop_operation_xyz
x,y,z
-x,y,1/2-z
-x,-y,-z
x,-y,1/2+z
1/2+x,1/2+y,z
1/2-x,1/2+y,1/2-z
1/2-x,1/2-y,-z
1/2+x,1/2-y,1/2+z
loop_
_atom_site_type_symbol
_atom_site_label
_atom_site_fract_x
_atom_site_fract_y
_atom_site_fract_z
Si Si1 0.479879 0.620017 0.829732
Si Si2 0.803501 0.748220 0.250921
Si Si3 0.631173 0.113447 0.112283
Si Si4 0.236252 0.973777 0.282853
Si Si5 0.621726 0.059229 0.470325
Si Si6 0.348361 0.140401 0.736119
Si Si7 0.384761 0.896497 0.083846
Si Si8 0.766249 0.176154 0.458867
O O1 0.500000 0.591445 0.750000
O O2 0.399165 0.693561 0.773076
O O3 0.401624 0.552435 0.822413
O O4 0.603245 0.636154 0.953073
O O5 0.876412 0.692397 0.351477
O O6 0.704639 0.788298 0.249343
O O7 0.743767 0.699485 0.142785
O O8 0.500347 0.076246 0.050024
O O9 0.739693 0.061247 0.212720
O O10 0.663742 0.126371 0.035132
O O11 0.271270 0.948642 0.397691
O O12 0.321330 0.934661 0.267627
O O13 0.659002 0.121660 0.425720
O O14 0.602092 0.985137 0.405866
O O15 0.492082 0.147476 0.825853
O O16 0.300991 0.130775 0.611859
O O17 0.750000 0.250000 0.500000
#
# Coordination Sequence:
#
# PCOD8135639 Si02
#       8
#     8   8   8   8   8   8   8   8
#     4  11  21  39  61  87 124 174 191 240 324 381
#     4  11  26  36  61  90 123 163 204 258 309 377
#     4  11  22  38  61  94 124 151 211 269 309 358
#     4  10  19  39  61  88 125 160 199 252 316 373
#     4  11  20  35  65  98 121 151 205 267 313 361
#     4  10  20  39  57  87 119 161 204 251 321 361
#     4  10  21  36  66  84 113 162 209 261 303 361
#     4  12  23  37  60  96 133 156 203 253 322 388
#
# _framework density 19.910751999999999
#
# number of rings (size 3 to 8) (size 9 to 14) (size 15 to 20)
#    0.000    1.250    5.000    2.250    3.500    0.500 
#    0.000    0.625    2.750    0.000    0.000    0.000 
#    0.000    0.000    0.000    0.000    0.000    0.000 
#
# Total GULP energy -396539.500175 kJ/mol
# GULP energy per Si atom -12391.859380 kJ/mol
# Density = 1.986543 g / cm^3
# Si number density = 19.910752 Si / 1000 Ang^3
#
#
#
# Elastic Constant Matrix: (Units=GPa)
#
#
# Indices 1 2 3 4 5 6 
#
# 1 77.4391 29.5185 35.6547 0.0000 -12.5944 0.0000
# 2 29.5185 53.4884 14.4687 0.0000 -0.8479 0.0000
# 3 35.6547 14.4687 72.4473 0.0000 -13.0159 0.0000
# 4 0.0000 0.0000 0.0000 26.0491 0.0000 -2.9804
# 5 -12.5944 -0.8479 -13.0159 0.0000 35.3176 0.0000
# 6 0.0000 0.0000 0.0000 -2.9804 0.0000 33.2732
#
#
#
# Elastic Compliance Matrix: (Units=1/GPa)
#
#
# Indices 1 2 3 4 5 6 
#
# 1 0.020617 -0.009277 -0.007510 0.000000 0.004362 0.000000
# 2 -0.009277 0.023974 -0.000764 0.000000 -0.003014 0.000000
# 3 -0.007510 -0.000764 0.018385 0.000000 0.004079 0.000000
# 4 0.000000 0.000000 0.000000 0.038787 0.000000 0.003474
# 5 0.004362 -0.003014 0.004079 0.000000 0.031301 0.000000
# 6 0.000000 0.000000 0.000000 0.003474 0.000000 0.030365
#
#
# Mechanical properties :
#
#
# Convention : Reuss Voigt Hill
#
# Bulk Modulus (GPa) = 35.87634 40.29539 38.08587
# Shear Modulus (GPa) = 24.05910 27.17683 25.61797
#
# Velocity S-wave (km/s) = 3.47990 3.69851 3.59087
# Velocity P-wave (km/s) = 5.84842 6.20649 6.03011
#
# Compressibility (1/GPa) = 0.02787352
#
# Stress axis : x y z
#
# Youngs Moduli (GPa) = 48.50412 41.71150 54.39339
#
# Poissons Ratio (x) = 0.38696 0.40850
# Poissons Ratio (y) = 0.44998 0.04155
# Poissons Ratio (z) = 0.36427 0.03186
#
# Static dielectric constant tensor:
#      x y z
#    x 3.975460 0.000000 -0.424020 
#    y 0.000000 3.582170 0.000000 
#    z -0.424020 0.000000 3.860620 
# 
# 
# High freq. dielectric constant tensor:
#      x y z
#    x 1.777380 0.000000 -0.018000 
#    y 0.000000 1.769930 0.000000 
#    z -0.018000 0.000000 1.763080 
# 
# From -- ./inp_files/155225.got.cif
#   From: 2010.06.25/outbox.cif.g09.slc.cpg/sg15_78_cif.got.tgz:155225.got - 2010.06.28 07:06:18.
