data_PCOD8135533
_publ_section_title
;
Structure prediction by ZEFSAII (Michael W. Deem and Ramdas Pophale) SiO2 
 PCOD8135533
Probable space group: C 2/C
;
_chemical_formula_sum "Si O2"
_cell_formula_units_Z 40
_cell_length_a 11.045890
_cell_length_b 11.193832
_cell_length_c 19.821965
_cell_angle_alpha 90.000000
_cell_angle_beta 46.777355
_cell_angle_gamma 90.000000
_cell_volume 1785.968486
_symmetry_space_group_name_H-M "C 2/C"
_symmetry_group_IT_number 15
_symmetry_cell_setting 'monoclinic'
loop_
_space_group_symop_operation_xyz
x,y,z
-x,y,1/2-z
-x,-y,-z
x,-y,1/2+z
1/2+x,1/2+y,z
1/2-x,1/2+y,1/2-z
1/2-x,1/2-y,-z
1/2+x,1/2-y,1/2+z
loop_
_atom_site_type_symbol
_atom_site_label
_atom_site_fract_x
_atom_site_fract_y
_atom_site_fract_z
Si Si1 0.651838 0.459125 0.830832
Si Si2 0.800543 0.113854 0.471711
Si Si3 0.198372 0.397108 0.590741
Si Si4 0.513314 0.707303 0.899247
Si Si5 0.814716 0.157325 0.321267
O O1 0.490430 0.394522 0.924353
O O2 0.793710 0.437173 0.833598
O O3 0.596032 0.593075 0.832010
O O4 0.722024 0.409544 0.734269
O O5 0.750000 0.250000 0.500000
O O6 0.802237 0.073191 0.391988
O O7 0.679775 0.021262 0.556096
O O8 0.364376 0.327996 0.505224
O O9 0.044853 0.307678 0.633275
O O10 0.666013 0.749378 0.887963
O O11 0.000000 0.216677 0.250000
#
# Coordination Sequence:
#
# PCOD8135533 Si02
#       5
#     8   8   8   8   8
#     4  10  21  41  60  90 131 161 203 267 321 366
#     4  10  19  38  66  88 124 163 211 256 310 388
#     4  10  21  39  67  92 118 173 209 259 322 370
#     4  10  21  42  62  90 127 159 219 258 309 393
#     4  10  22  40  57  92 123 164 200 259 326 365
#
# _framework density 22.396811
#
# number of rings (size 3 to 8) (size 9 to 14) (size 15 to 20)
#    0.000    2.000    0.000    4.800    0.000    1.600 
#   32.400    0.000    0.000    0.000    0.000    0.000 
#    0.000    0.000    0.000    0.000    0.000    0.000 
#
# Total GULP energy -247763.327430 kJ/mol
# GULP energy per Si atom -12388.166371 kJ/mol
# Density = 2.234583 g / cm^3
# Si number density = 22.396811 Si / 1000 Ang^3
#
#
#
# Elastic Constant Matrix: (Units=GPa)
#
#
# Indices 1 2 3 4 5 6 
#
# 1 126.9905 59.3160 33.1674 0.0000 12.5530 0.0000
# 2 59.3160 136.8355 26.3538 0.0000 7.8519 0.0000
# 3 33.1674 26.3538 57.5117 0.0000 27.2343 0.0000
# 4 0.0000 0.0000 0.0000 13.4906 0.0000 -3.7299
# 5 12.5530 7.8519 27.2343 0.0000 35.5895 0.0000
# 6 0.0000 0.0000 0.0000 -3.7299 0.0000 39.2879
#
#
#
# Elastic Compliance Matrix: (Units=1/GPa)
#
#
# Indices 1 2 3 4 5 6 
#
# 1 0.010851 -0.003810 -0.004858 0.000000 0.000731 0.000000
# 2 -0.003810 0.009414 -0.002775 0.000000 0.001390 0.000000
# 3 -0.004858 -0.002775 0.031930 0.000000 -0.022109 0.000000
# 4 0.000000 0.000000 0.000000 0.076124 0.000000 0.007227
# 5 0.000731 0.001390 -0.022109 0.000000 0.044452 0.000000
# 6 0.000000 0.000000 0.000000 0.007227 0.000000 0.026139
#
#
# Mechanical properties :
#
#
# Convention : Reuss Voigt Hill
#
# Bulk Modulus (GPa) = 34.11877 62.11245 48.11561
# Shear Modulus (GPa) = 21.59210 31.17364 26.38287
#
# Velocity S-wave (km/s) = 3.10832 3.73484 3.43589
# Velocity P-wave (km/s) = 5.30556 6.81114 6.10494
#
# Compressibility (1/GPa) = 0.02930938
#
# Stress axis : x y z
#
# Youngs Moduli (GPa) = 92.15963 106.22155 31.31815
#
# Poissons Ratio (x) = 0.40470 0.15214
# Poissons Ratio (y) = 0.35112 0.08691
# Poissons Ratio (z) = 0.44770 0.29478
#
# Static dielectric constant tensor:
#      x y z
#    x 4.459240 0.000000 0.007830 
#    y 0.000000 4.030450 0.000000 
#    z 0.007830 0.000000 3.855000 
# 
# 
# High freq. dielectric constant tensor:
#      x y z
#    x 1.893880 0.000000 0.008790 
#    y 0.000000 1.867500 0.000000 
#    z 0.008790 0.000000 1.872190 
# 
# From -- ./inp_files/195910.got.cif
#   From: 2010.06.25/outbox.cif.g09.slc.cpg/sg15_98_cif.got.tgz:195910.got - 2010.06.28 07:06:18.
