data_PCOD8135450
_publ_section_title
;
Structure prediction by ZEFSAII (Michael W. Deem and Ramdas Pophale) SiO2 
 PCOD8135450
Probable space group: C 2/C
;
_chemical_formula_sum "Si O2"
_cell_formula_units_Z 56
_cell_length_a 16.048795
_cell_length_b 9.240994
_cell_length_c 19.384428
_cell_angle_alpha 90.000000
_cell_angle_beta 113.686972
_cell_angle_gamma 90.000000
_cell_volume 2632.648731
_symmetry_space_group_name_H-M "C 2/C"
_symmetry_group_IT_number 15
_symmetry_cell_setting 'monoclinic'
loop_
_space_group_symop_operation_xyz
x,y,z
-x,y,1/2-z
-x,-y,-z
x,-y,1/2+z
1/2+x,1/2+y,z
1/2-x,1/2+y,1/2-z
1/2-x,1/2-y,-z
1/2+x,1/2-y,1/2+z
loop_
_atom_site_type_symbol
_atom_site_label
_atom_site_fract_x
_atom_site_fract_y
_atom_site_fract_z
Si Si1 0.783551 0.962127 0.861252
Si Si2 0.342615 0.664070 0.520132
Si Si3 0.379929 0.272310 0.359638
Si Si4 0.425048 0.728975 0.331703
Si Si5 0.404732 0.033007 0.253738
Si Si6 0.022812 0.954022 0.332593
Si Si7 0.995114 0.332085 0.496677
O O1 0.831042 0.849798 0.823297
O O2 0.675047 0.934902 0.828176
O O3 0.789995 0.128683 0.835285
O O4 0.827380 0.948324 0.951921
O O5 0.250000 0.750000 0.500000
O O6 0.375749 0.579445 0.601830
O O7 0.416985 0.782209 0.523597
O O8 0.378342 0.135039 0.309110
O O9 0.456242 0.388466 0.366161
O O10 0.406084 0.220870 0.444907
O O11 0.496169 0.623050 0.316658
O O12 0.481206 0.778437 0.415899
O O13 0.403871 0.866272 0.276763
O O14 0.500000 0.076045 0.250000
O O15 0.000000 0.882687 0.250000
O O16 0.000000 0.500000 0.500000
#
# Coordination Sequence:
#
# PCOD8135450 Si02
#       7
#     8   8   8   8   8   8   8
#     4  10  23  41  62  89 126 165 212 261 310 379
#     4  10  23  39  63  94 126 163 213 262 316 380
#     4  10  21  38  63  89 118 166 212 249 312 379
#     4  10  21  41  62  91 123 165 212 262 314 377
#     4  12  24  37  63  92 129 164 206 265 317 373
#     4  10  21  39  63  92 126 165 206 262 319 376
#     4  10  19  38  63  88 117 160 209 257 306 371
#
# _framework density 21.271353000000001
#
# number of rings (size 3 to 8) (size 9 to 14) (size 15 to 20)
#    0.000    1.714    1.429    2.571    6.000    3.429 
#    2.571    1.429    0.000    6.000    0.000    0.000 
#    0.000    0.000    0.000    0.000    0.000    0.000 
#
# Total GULP energy -346915.069193 kJ/mol
# GULP energy per Si atom -12389.823900 kJ/mol
# Density = 2.122294 g / cm^3
# Si number density = 21.271353 Si / 1000 Ang^3
#
#
#
# Elastic Constant Matrix: (Units=GPa)
#
#
# Indices 1 2 3 4 5 6 
#
# 1 78.2035 27.3075 38.8296 0.0000 18.8639 0.0000
# 2 27.3075 123.9032 37.3162 0.0000 9.4540 0.0000
# 3 38.8296 37.3162 134.8687 0.0000 15.7133 0.0000
# 4 0.0000 0.0000 0.0000 31.0419 0.0000 0.7588
# 5 18.8639 9.4540 15.7133 0.0000 31.5009 0.0000
# 6 0.0000 0.0000 0.0000 0.7588 0.0000 26.4870
#
#
#
# Elastic Compliance Matrix: (Units=1/GPa)
#
#
# Indices 1 2 3 4 5 6 
#
# 1 0.017144 -0.002144 -0.003420 0.000000 -0.007917 0.000000
# 2 -0.002144 0.009141 -0.001849 0.000000 -0.000537 0.000000
# 3 -0.003420 -0.001849 0.009139 0.000000 -0.001955 0.000000
# 4 0.000000 0.000000 0.000000 0.032237 0.000000 -0.000924
# 5 -0.007917 -0.000537 -0.001955 0.000000 0.037623 0.000000
# 6 0.000000 0.000000 0.000000 -0.000924 0.000000 0.037781
#
#
# Mechanical properties :
#
#
# Convention : Reuss Voigt Hill
#
# Bulk Modulus (GPa) = 48.55232 60.43131 54.49181
# Shear Modulus (GPa) = 30.34769 33.37413 31.86091
#
# Velocity S-wave (km/s) = 3.78126 3.96532 3.87438
# Velocity P-wave (km/s) = 6.47600 7.03110 6.75925
#
# Compressibility (1/GPa) = 0.02059634
#
# Stress axis : x y z
#
# Youngs Moduli (GPa) = 58.33050 109.39307 109.42333
#
# Poissons Ratio (x) = 0.23457 0.37424
# Poissons Ratio (y) = 0.12508 0.20236
# Poissons Ratio (z) = 0.19950 0.20231
#
# Static dielectric constant tensor:
#      x y z
#    x 3.668750 0.000000 0.151130 
#    y 0.000000 4.162380 0.000000 
#    z 0.151130 0.000000 3.980450 
# 
# 
# High freq. dielectric constant tensor:
#      x y z
#    x 1.806130 0.000000 0.008910 
#    y 0.000000 1.845410 0.000000 
#    z 0.008910 0.000000 1.845850 
# 
# From -- ./inp_files/247586.got.cif
#   From: 2010.06.25/outbox.cif.g09.slc.cpg/sg15_124_cif.got.tgz:247586.got - 2010.06.28 07:06:18.
