data_PCOD8135907
_publ_section_title
;
Structure prediction by ZEFSAII (Michael W. Deem and Ramdas Pophale) SiO2 
 PCOD8135907
Probable space group: C 2/C
;
_chemical_formula_sum "Si O2"
_cell_formula_units_Z 52
_cell_length_a 16.680889
_cell_length_b 7.641807
_cell_length_c 26.434765
_cell_angle_alpha 90.000000
_cell_angle_beta 126.621472
_cell_angle_gamma 90.000000
_cell_volume 2704.497653
_symmetry_space_group_name_H-M "C 2/C"
_symmetry_group_IT_number 15
_symmetry_cell_setting 'monoclinic'
loop_
_space_group_symop_operation_xyz
x,y,z
-x,y,1/2-z
-x,-y,-z
x,-y,1/2+z
1/2+x,1/2+y,z
1/2-x,1/2+y,1/2-z
1/2-x,1/2-y,-z
1/2+x,1/2-y,1/2+z
loop_
_atom_site_type_symbol
_atom_site_label
_atom_site_fract_x
_atom_site_fract_y
_atom_site_fract_z
Si Si1 0.476787 0.465902 0.637388
Si Si2 0.065949 0.167109 0.540784
Si Si3 0.861009 0.314120 0.035653
Si Si4 0.630965 0.164221 0.229808
Si Si5 0.187647 0.939326 0.177016
Si Si6 0.000000 0.103379 0.750000
Si Si7 0.960054 0.663631 0.090129
O O1 0.426507 0.290079 0.600446
O O2 0.593489 0.454990 0.665421
O O3 0.459619 0.475866 0.691018
O O4 0.425112 0.642605 0.594909
O O5 0.101837 0.274343 0.506294
O O6 0.161935 0.102240 0.608955
O O7 0.006199 0.307855 0.551968
O O8 0.000000 0.000000 0.500000
O O9 0.871391 0.521660 0.051725
O O10 0.750000 0.250000 0.000000
O O11 0.700826 0.270353 0.217243
O O12 0.588174 0.277633 0.260139
O O13 0.539888 0.088352 0.161421
O O14 0.703858 0.025537 0.282680
#
# Coordination Sequence:
#
# PCOD8135907 Si02
#       7
#     8   8   8   8   8   4   8
#     4   9  20  42  57  82 125 153 189 250 298 346
#     4  10  19  41  60  82 123 159 193 242 294 353
#     4  12  24  39  59  90 120 157 201 242 296 357
#     4   9  19  36  61  86 113 149 196 242 301 345
#     4   9  19  35  62  85 111 152 198 239 288 354
#     4   8  18  40  58  80 122 150 186 242 306 346
#     4   9  21  40  63  82 120 157 197 248 292 349
#
# _framework density 19.227229000000001
#
# number of rings (size 3 to 8) (size 9 to 14) (size 15 to 20)
#    0.000    3.077    3.077    0.462    2.154    3.077 
#   13.846    3.077    0.000    0.000    0.000    0.000 
#    0.000    0.000    0.000    0.000    0.000    0.000 
#
# Total GULP energy -322110.444741 kJ/mol
# GULP energy per Si atom -12388.863259 kJ/mol
# Density = 1.918347 g / cm^3
# Si number density = 19.227229 Si / 1000 Ang^3
#
#
#
# Elastic Constant Matrix: (Units=GPa)
#
#
# Indices 1 2 3 4 5 6 
#
# 1 46.9555 12.6237 31.2568 0.0000 -15.9163 0.0000
# 2 12.6237 57.2969 24.7112 0.0000 1.1378 0.0000
# 3 31.2568 24.7112 89.8961 0.0000 -21.9978 0.0000
# 4 0.0000 0.0000 0.0000 26.1888 0.0000 5.6182
# 5 -15.9163 1.1378 -21.9978 0.0000 39.0812 0.0000
# 6 0.0000 0.0000 0.0000 5.6182 0.0000 21.8418
#
#
#
# Elastic Compliance Matrix: (Units=1/GPa)
#
#
# Indices 1 2 3 4 5 6 
#
# 1 0.029964 -0.003545 -0.007460 0.000000 0.008107 0.000000
# 2 -0.003545 0.020839 -0.005796 0.000000 -0.005313 0.000000
# 3 -0.007460 -0.005796 0.016942 0.000000 0.006667 0.000000
# 4 0.000000 0.000000 0.000000 0.040414 0.000000 -0.010395
# 5 0.008107 -0.005313 0.006667 0.000000 0.032797 0.000000
# 6 0.000000 0.000000 0.000000 -0.010395 0.000000 0.048458
#
#
# Mechanical properties :
#
#
# Convention : Reuss Voigt Hill
#
# Bulk Modulus (GPa) = 29.28828 36.81466 33.05147
# Shear Modulus (GPa) = 21.33126 25.79279 23.56203
#
# Velocity S-wave (km/s) = 3.33442 3.66658 3.50444
# Velocity P-wave (km/s) = 5.48546 6.09211 5.79673
#
# Compressibility (1/GPa) = 0.03414335
#
# Stress axis : x y z
#
# Youngs Moduli (GPa) = 33.37353 47.98646 59.02351
#
# Poissons Ratio (x) = 0.17013 0.44031
# Poissons Ratio (y) = 0.11832 0.34209
# Poissons Ratio (z) = 0.24897 0.27812
#
# Static dielectric constant tensor:
#      x y z
#    x 3.337500 0.000000 -0.207990 
#    y 0.000000 3.385850 0.000000 
#    z -0.207990 0.000000 3.659880 
# 
# 
# High freq. dielectric constant tensor:
#      x y z
#    x 1.729550 0.000000 -0.016840 
#    y 0.000000 1.733650 0.000000 
#    z -0.016840 0.000000 1.759830 
# 
# From -- ./inp_files/272917.got.cif
#   From: 2010.06.25/outbox.cif.g09.slc.cpg/sg15_137_cif.got.tgz:272917.got - 2010.06.28 07:06:18.
