data_PCOD8135143
_publ_section_title
;
Structure prediction by ZEFSAII (Michael W. Deem and Ramdas Pophale) SiO2 
 PCOD8135143
Probable space group: C 2/C
;
_chemical_formula_sum "Si O2"
_cell_formula_units_Z 60
_cell_length_a 11.804817
_cell_length_b 28.133689
_cell_length_c 8.799439
_cell_angle_alpha 90.000000
_cell_angle_beta 75.215493
_cell_angle_gamma 90.000000
_cell_volume 2825.654672
_symmetry_space_group_name_H-M "C 2/C"
_symmetry_group_IT_number 15
_symmetry_cell_setting 'monoclinic'
loop_
_space_group_symop_operation_xyz
x,y,z
-x,y,1/2-z
-x,-y,-z
x,-y,1/2+z
1/2+x,1/2+y,z
1/2-x,1/2+y,1/2-z
1/2-x,1/2-y,-z
1/2+x,1/2-y,1/2+z
loop_
_atom_site_type_symbol
_atom_site_label
_atom_site_fract_x
_atom_site_fract_y
_atom_site_fract_z
Si Si1 0.806174 0.337113 0.904954
Si Si2 0.357437 0.907632 0.622279
Si Si3 0.637030 0.449154 0.240987
Si Si4 0.863738 0.155089 0.782863
Si Si5 0.019688 0.324047 0.065455
Si Si6 0.000000 0.476826 0.750000
Si Si7 0.113315 0.253399 0.814149
Si Si8 0.761789 0.487059 0.470683
O O1 0.819372 0.383560 0.794691
O O2 0.803198 0.290467 0.800647
O O3 0.682301 0.338040 0.029945
O O4 0.906385 0.334690 0.000299
O O5 0.393590 0.868137 0.487734
O O6 0.463367 0.943837 0.621064
O O7 0.257303 0.940527 0.581657
O O8 0.500000 0.453328 0.250000
O O9 0.680471 0.395357 0.266210
O O10 0.662311 0.480871 0.378405
O O11 0.720761 0.466292 0.074973
O O12 0.826176 0.201001 0.691718
O O13 0.000000 0.150483 0.750000
O O14 0.000000 0.318226 0.250000
O O15 0.079338 0.274697 0.989727
O O16 0.110074 0.507963 0.652582
O O17 0.000000 0.245612 0.750000
#
# Coordination Sequence:
#
# PCOD8135143 Si02
#       8
#     8   8   8   8   8   4   8   8
#     4  10  19  37  63  88 125 167 200 249 316 385
#     4  11  22  38  62  96 131 164 207 254 321 394
#     4  11  26  45  65  87 124 176 222 265 310 375
#     4  10  21  37  65  86 115 156 220 260 305 363
#     4  10  21  34  62  93 133 165 194 249 317 393
#     4  12  22  40  62 100 132 164 202 272 328 382
#     4   8  17  37  60  91 119 157 207 251 310 381
#     4  12  26  41  66  94 129 167 216 270 326 379
#
# _framework density 21.234019
#
# number of rings (size 3 to 8) (size 9 to 14) (size 15 to 20)
#    0.000    1.600    2.667    2.800    2.800    0.000 
#    0.000    0.667    8.800    0.000    0.000    0.000 
#    0.000    0.000    0.000    0.000    0.000    0.000 
#
# Total GULP energy -371783.957306 kJ/mol
# GULP energy per Si atom -12392.798577 kJ/mol
# Density = 2.118569 g / cm^3
# Si number density = 21.234019 Si / 1000 Ang^3
#
#
#
# Elastic Constant Matrix: (Units=GPa)
#
#
# Indices 1 2 3 4 5 6 
#
# 1 73.3223 37.1091 44.1230 0.0000 -10.2741 0.0000
# 2 37.1091 155.3452 67.8172 0.0000 -5.0682 0.0000
# 3 44.1230 67.8172 148.5693 0.0000 -8.9210 0.0000
# 4 0.0000 0.0000 0.0000 20.7118 0.0000 -3.7162
# 5 -10.2741 -5.0682 -8.9210 0.0000 37.1133 0.0000
# 6 0.0000 0.0000 0.0000 -3.7162 0.0000 23.1809
#
#
#
# Elastic Compliance Matrix: (Units=1/GPa)
#
#
# Indices 1 2 3 4 5 6 
#
# 1 0.017740 -0.002391 -0.003959 0.000000 0.003633 0.000000
# 2 -0.002391 0.008363 -0.003124 0.000000 -0.000271 0.000000
# 3 -0.003959 -0.003124 0.009376 0.000000 0.000731 0.000000
# 4 0.000000 0.000000 0.000000 0.049712 0.000000 0.007969
# 5 0.003633 -0.000271 0.000731 0.000000 0.028089 0.000000
# 6 0.000000 0.000000 0.000000 0.007969 0.000000 0.044417
#
#
# Mechanical properties :
#
#
# Convention : Reuss Voigt Hill
#
# Bulk Modulus (GPa) = 60.48755 75.03730 67.76243
# Shear Modulus (GPa) = 27.44917 31.41370 29.43144
#
# Velocity S-wave (km/s) = 3.59931 3.85048 3.72701
# Velocity P-wave (km/s) = 6.76915 7.42854 7.10650
#
# Compressibility (1/GPa) = 0.01653233
#
# Stress axis : x y z
#
# Youngs Moduli (GPa) = 56.37006 119.57007 106.65017
#
# Poissons Ratio (x) = 0.28588 0.42223
# Poissons Ratio (y) = 0.13477 0.33315
# Poissons Ratio (z) = 0.22317 0.37351
#
# Static dielectric constant tensor:
#      x y z
#    x 3.531840 0.000000 -0.110610 
#    y 0.000000 4.544660 0.000000 
#    z -0.110610 0.000000 3.900900 
# 
# 
# High freq. dielectric constant tensor:
#      x y z
#    x 1.802790 0.000000 -0.010450 
#    y 0.000000 1.853070 0.000000 
#    z -0.010450 0.000000 1.829220 
# 
# From -- ./inp_files/35211.got.cif
#   From: 2010.06.25/outbox.cif.g09.slc.cpg/sg15_18_cif.got.tgz:35211.got - 2010.06.28 07:06:18.
