data_PCOD8135925
_publ_section_title
;
Structure prediction by ZEFSAII (Michael W. Deem and Ramdas Pophale) SiO2 
 PCOD8135925
Probable space group: C 2/C
;
_chemical_formula_sum "Si O2"
_cell_formula_units_Z 60
_cell_length_a 11.861237
_cell_length_b 24.339603
_cell_length_c 18.172525
_cell_angle_alpha 90.000000
_cell_angle_beta 30.381390
_cell_angle_gamma 90.000000
_cell_volume 2653.369431
_symmetry_space_group_name_H-M "C 2/C"
_symmetry_group_IT_number 15
_symmetry_cell_setting 'monoclinic'
loop_
_space_group_symop_operation_xyz
x,y,z
-x,y,1/2-z
-x,-y,-z
x,-y,1/2+z
1/2+x,1/2+y,z
1/2-x,1/2+y,1/2-z
1/2-x,1/2-y,-z
1/2+x,1/2-y,1/2+z
loop_
_atom_site_type_symbol
_atom_site_label
_atom_site_fract_x
_atom_site_fract_y
_atom_site_fract_z
Si Si1 0.000000 0.677135 0.250000
Si Si2 0.427128 0.094773 0.023432
Si Si3 0.834840 0.050387 0.603086
Si Si4 0.618595 0.632002 0.798282
Si Si5 0.867373 0.526554 0.925576
Si Si6 0.198171 0.248127 0.324415
Si Si7 0.337772 0.094044 0.463022
Si Si8 0.261149 0.290073 0.858122
O O1 0.801258 0.717105 0.336353
O O2 0.927019 0.638529 0.356662
O O3 0.673071 0.102333 0.853833
O O4 0.313247 0.046066 0.039945
O O5 0.469393 0.082106 0.085208
O O6 0.269245 0.146966 0.101219
O O7 0.925664 0.105175 0.594425
O O8 0.630139 0.026368 0.764690
O O9 0.754424 0.066597 0.565261
O O10 0.000000 0.000000 0.500000
O O11 0.669041 0.696439 0.770786
O O12 0.394775 0.620167 0.876334
O O13 0.778414 0.464901 0.961371
O O14 0.235872 0.211086 0.231617
O O15 0.938370 0.256256 0.490934
O O16 0.500000 0.266803 0.750000
#
# Coordination Sequence:
#
# PCOD8135925 Si02
#       8
#     4   8   8   8   8   8   8   8
#     4  12  26  40  74 104 138 180 228 300 346 424
#     4  10  23  44  63  96 138 176 229 280 348 418
#     4  10  19  41  63  95 133 172 233 279 340 414
#     4  10  23  39  70  97 131 182 222 285 348 420
#     4  10  22  40  66  96 133 181 224 285 344 416
#     4  11  25  46  71 105 141 183 237 290 360 415
#     4  12  22  41  66 102 135 174 228 282 358 413
#     4  11  24  49  69 100 141 189 235 288 347 424
#
# _framework density 22.612757999999999
#
# number of rings (size 3 to 8) (size 9 to 14) (size 15 to 20)
#    0.000    1.333    2.667    2.800    3.733    1.067 
#   14.400    1.333    0.000    0.000    0.000    0.000 
#    0.000    0.000    0.000    0.000    0.000    0.000 
#
# Total GULP energy -371786.309845 kJ/mol
# GULP energy per Si atom -12392.876995 kJ/mol
# Density = 2.256129 g / cm^3
# Si number density = 22.612758 Si / 1000 Ang^3
#
#
#
# Elastic Constant Matrix: (Units=GPa)
#
#
# Indices 1 2 3 4 5 6 
#
# 1 118.7699 57.4375 35.4608 -0.0037 11.1529 -0.0059
# 2 57.4375 117.5517 38.8532 -0.0046 1.9395 0.0031
# 3 35.4608 38.8532 93.0805 -0.0033 -2.4987 -0.0410
# 4 -0.0037 -0.0046 -0.0033 15.6931 0.0160 7.8610
# 5 11.1529 1.9395 -2.4987 0.0160 33.3999 0.0093
# 6 -0.0059 0.0031 -0.0410 7.8610 0.0093 33.8464
#
#
#
# Elastic Compliance Matrix: (Units=1/GPa)
#
#
# Indices 1 2 3 4 5 6 
#
# 1 0.011936 -0.004907 -0.002603 0.000005 -0.003895 -0.000001
# 2 -0.004907 0.011912 -0.003083 0.000004 0.000716 -0.000007
# 3 -0.002603 -0.003083 0.013077 -0.000009 0.002027 0.000017
# 4 0.000005 0.000004 -0.000009 0.072112 -0.000032 -0.016748
# 5 -0.003895 0.000716 0.002027 -0.000032 0.031351 0.000001
# 6 -0.000001 -0.000007 0.000017 -0.016748 0.000001 0.033435
#
#
# Mechanical properties :
#
#
# Convention : Reuss Voigt Hill
#
# Bulk Modulus (GPa) = 63.54762 65.87834 64.71298
# Shear Modulus (GPa) = 24.96795 29.76458 27.36626
#
# Velocity S-wave (km/s) = 3.32649 3.63198 3.48259
# Velocity P-wave (km/s) = 6.55115 6.83995 6.69711
#
# Compressibility (1/GPa) = 0.01573623
#
# Stress axis : x y z
#
# Youngs Moduli (GPa) = 83.78071 83.94878 76.47177
#
# Poissons Ratio (x) = 0.41196 0.19909
# Poissons Ratio (y) = 0.41114 0.23580
# Poissons Ratio (z) = 0.21812 0.25886
#
# Static dielectric constant tensor:
#      x y z
#    x 4.488980 -0.000090 -0.041670 
#    y -0.000090 3.998210 0.000150 
#    z -0.041670 0.000150 4.141480 
# 
# 
# High freq. dielectric constant tensor:
#      x y z
#    x 1.902390 0.000000 -0.001740 
#    y 0.000000 1.883620 0.000010 
#    z -0.001740 0.000010 1.889410 
# 
# From -- ./inp_files/201231.got.cif
#   From: 2010.06.25/outbox.cif.g09.slc.cpg/sg15_101_cif.got.tgz:201231.got - 2010.06.28 07:06:18.
