data_PCOD8135920
_publ_section_title
;
Structure prediction by ZEFSAII (Michael W. Deem and Ramdas Pophale) SiO2 
 PCOD8135920
Probable space group: C 2/C
;
_chemical_formula_sum "Si O2"
_cell_formula_units_Z 60
_cell_length_a 19.561043
_cell_length_b 12.409666
_cell_length_c 28.658689
_cell_angle_alpha 90.000000
_cell_angle_beta 155.392270
_cell_angle_gamma 90.000000
_cell_volume 2896.828247
_symmetry_space_group_name_H-M "C 2/C"
_symmetry_group_IT_number 15
_symmetry_cell_setting 'monoclinic'
loop_
_space_group_symop_operation_xyz
x,y,z
-x,y,1/2-z
-x,-y,-z
x,-y,1/2+z
1/2+x,1/2+y,z
1/2-x,1/2+y,1/2-z
1/2-x,1/2-y,-z
1/2+x,1/2-y,1/2+z
loop_
_atom_site_type_symbol
_atom_site_label
_atom_site_fract_x
_atom_site_fract_y
_atom_site_fract_z
Si Si1 0.404135 0.938823 0.089190
Si Si2 0.617816 0.884850 0.767616
Si Si3 0.697213 0.031947 0.566722
Si Si4 0.500000 0.690547 0.750000
Si Si5 0.859298 0.034613 0.350689
Si Si6 0.672667 0.910436 0.644853
Si Si7 0.259037 0.563651 0.918069
Si Si8 0.716152 0.826437 0.301197
O O1 0.540428 0.845737 0.167529
O O2 0.488931 0.051488 0.155569
O O3 0.282257 0.904738 0.054744
O O4 0.309571 0.952344 0.981826
O O5 0.541643 0.768318 0.731990
O O6 0.779650 0.873887 0.835226
O O7 0.667918 0.951908 0.845735
O O8 0.838304 0.118611 0.642031
O O9 0.522505 0.087110 0.468636
O O10 0.739511 0.962237 0.638505
O O11 0.766056 0.027438 0.243645
O O12 0.844542 0.918554 0.365896
O O13 0.047358 0.058028 0.461592
O O14 0.718523 0.786428 0.674545
O O15 0.197504 0.659623 0.845751
#
# Coordination Sequence:
#
# PCOD8135920 Si02
#       8
#     8   8   8   4   8   8   8   8
#     4  10  20  45  64  96 132 166 230 274 329 379
#     4  10  19  41  63 101 132 161 221 278 320 397
#     4  11  27  46  62  97 139 178 211 286 331 405
#     4  12  26  40  70  98 138 174 216 276 358 382
#     4  10  22  40  65 100 127 175 226 270 317 404
#     4  11  25  47  65  91 142 174 225 267 330 407
#     4  10  20  38  68  97 131 163 224 287 313 384
#     4  10  21  41  69  95 124 183 215 272 337 389
#
# _framework density 20.712308
#
# number of rings (size 3 to 8) (size 9 to 14) (size 15 to 20)
#    0.000    1.867    4.000    2.800    5.600    2.667 
#    2.400    1.333    0.000    0.000    0.000    0.000 
#    0.000    0.000    0.000    0.000    0.000    0.000 
#
# Total GULP energy -371911.015057 kJ/mol
# GULP energy per Si atom -12397.033835 kJ/mol
# Density = 2.066517 g / cm^3
# Si number density = 20.712308 Si / 1000 Ang^3
#
#
#
# Elastic Constant Matrix: (Units=GPa)
#
#
# Indices 1 2 3 4 5 6 
#
# 1 101.9830 25.5870 32.4610 -0.0280 -7.1766 0.0016
# 2 25.5870 74.8016 26.5469 -0.0806 6.7464 0.0143
# 3 32.4610 26.5469 85.7502 -0.2434 1.3189 0.0360
# 4 -0.0280 -0.0806 -0.2434 17.2910 0.0695 9.6404
# 5 -7.1766 6.7464 1.3189 0.0695 40.6322 -0.0010
# 6 0.0016 0.0143 0.0360 9.6404 -0.0010 27.7501
#
#
#
# Elastic Compliance Matrix: (Units=1/GPa)
#
#
# Indices 1 2 3 4 5 6 
#
# 1 0.011909 -0.003038 -0.003610 -0.000074 0.002725 0.000031
# 2 -0.003038 0.016021 -0.003762 0.000039 -0.003075 -0.000017
# 3 -0.003610 -0.003762 0.014201 0.000233 -0.000474 -0.000097
# 4 -0.000074 0.000039 0.000233 0.071731 -0.000150 -0.024920
# 5 0.002725 -0.003075 -0.000474 -0.000150 0.025619 0.000055
# 6 0.000031 -0.000017 -0.000097 -0.024920 0.000055 0.044693
#
#
# Mechanical properties :
#
#
# Convention : Reuss Voigt Hill
#
# Bulk Modulus (GPa) = 46.92648 47.96941 47.44795
# Shear Modulus (GPa) = 23.57419 28.99731 26.28575
#
# Velocity S-wave (km/s) = 3.37734 3.74572 3.56629
# Velocity P-wave (km/s) = 6.15744 6.47436 6.31789
#
# Compressibility (1/GPa) = 0.02130993
#
# Stress axis : x y z
#
# Youngs Moduli (GPa) = 83.97356 62.42000 70.41824
#
# Poissons Ratio (x) = 0.18965 0.25418
# Poissons Ratio (y) = 0.25514 0.26492
# Poissons Ratio (z) = 0.30310 0.23483
#
# Static dielectric constant tensor:
#      x y z
#    x 4.081570 0.000000 0.001660 
#    y 0.000000 3.427190 -0.000020 
#    z 0.001660 -0.000020 3.777010 
# 
# 
# High freq. dielectric constant tensor:
#      x y z
#    x 1.829500 0.000000 0.006390 
#    y 0.000000 1.776470 0.000000 
#    z 0.006390 0.000000 1.812190 
# 
# From -- ./inp_files/298967.got.cif
#   From: 2010.06.25/outbox.cif.g09.slc.cpg/sg15_150_cif.got.tgz:298967.got - 2010.06.28 07:06:18.
