data_PCOD8135023
_publ_section_title
;
Structure prediction by ZEFSAII (Michael W. Deem and Ramdas Pophale) SiO2 
 PCOD8135023
Probable space group: C 2/C
;
_chemical_formula_sum "Si O2"
_cell_formula_units_Z 64
_cell_length_a 16.249335
_cell_length_b 11.896759
_cell_length_c 28.777202
_cell_angle_alpha 90.000000
_cell_angle_beta 143.564395
_cell_angle_gamma 90.000000
_cell_volume 3303.999751
_symmetry_space_group_name_H-M "C 2/C"
_symmetry_group_IT_number 15
_symmetry_cell_setting 'monoclinic'
loop_
_space_group_symop_operation_xyz
x,y,z
-x,y,1/2-z
-x,-y,-z
x,-y,1/2+z
1/2+x,1/2+y,z
1/2-x,1/2+y,1/2-z
1/2-x,1/2-y,-z
1/2+x,1/2-y,1/2+z
loop_
_atom_site_type_symbol
_atom_site_label
_atom_site_fract_x
_atom_site_fract_y
_atom_site_fract_z
Si Si1 0.743313 0.244619 0.180346
Si Si2 0.528957 0.897861 0.405298
Si Si3 0.079803 0.386736 0.676073
Si Si4 0.507633 0.682873 0.345132
Si Si5 0.256675 0.998540 0.669839
Si Si6 0.315300 0.037144 0.092752
Si Si7 0.812674 0.722560 0.448024
Si Si8 0.951453 0.947898 0.549544
O O1 0.633321 0.219632 0.171570
O O2 0.883379 0.170520 0.251488
O O3 0.784123 0.375412 0.199940
O O4 0.671478 0.208157 0.099841
O O5 0.456849 0.781574 0.357407
O O6 0.605683 0.878657 0.489413
O O7 0.422047 0.002820 0.359040
O O8 0.640172 0.923858 0.414780
O O9 0.181857 0.410805 0.765422
O O10 0.922461 0.364781 0.624347
O O11 0.650925 0.713323 0.386095
O O12 0.522305 0.571400 0.383527
O O13 0.334208 0.980638 0.656287
O O14 0.093836 0.976900 0.588416
O O15 0.153540 0.054686 0.005161
O O16 0.876899 0.842109 0.491287
#
# Coordination Sequence:
#
# PCOD8135023 Si02
#       8
#     8   8   8   8   8   8   8   8
#     4  12  23  34  57  92 118 150 199 246 290 356
#     4   9  18  34  56  78 115 152 183 233 295 351
#     4  10  22  38  55  87 120 158 189 241 300 354
#     4  11  17  34  57  85 114 148 188 244 295 344
#     4  12  22  36  60  88 116 150 203 248 287 352
#     4  10  19  37  60  81 115 153 194 232 296 344
#     4  11  20  34  57  89 116 147 193 243 303 346
#     4  11  20  35  59  87 114 147 195 251 292 335
#
# _framework density 19.370462
#
# number of rings (size 3 to 8) (size 9 to 14) (size 15 to 20)
#    0.750    0.500    6.250    1.875    0.000    1.500 
#    0.000    0.625    0.000    0.000    6.500    0.000 
#    0.000    0.000    0.000    0.000    0.000    0.000 
#
# Total GULP energy -396481.777789 kJ/mol
# GULP energy per Si atom -12390.055556 kJ/mol
# Density = 1.932637 g / cm^3
# Si number density = 19.370462 Si / 1000 Ang^3
#
#
#
# Elastic Constant Matrix: (Units=GPa)
#
#
# Indices 1 2 3 4 5 6 
#
# 1 94.7874 19.0328 37.4621 0.0000 -7.5712 0.0000
# 2 19.0328 18.0287 3.9537 0.0000 -6.7996 0.0000
# 3 37.4621 3.9537 113.3510 0.0000 -4.0244 0.0000
# 4 0.0000 0.0000 0.0000 17.9438 0.0000 5.5378
# 5 -7.5712 -6.7996 -4.0244 0.0000 39.5672 0.0000
# 6 0.0000 0.0000 0.0000 5.5378 0.0000 27.2447
#
#
#
# Elastic Compliance Matrix: (Units=1/GPa)
#
#
# Indices 1 2 3 4 5 6 
#
# 1 0.015423 -0.015336 -0.004567 0.000000 -0.000149 0.000000
# 2 -0.015336 0.074895 0.002819 0.000000 0.010223 0.000000
# 3 -0.004567 0.002819 0.010257 0.000000 0.000654 0.000000
# 4 0.000000 0.000000 0.000000 0.059459 0.000000 -0.012086
# 5 -0.000149 0.010223 0.000654 0.000000 0.027068 0.000000
# 6 0.000000 0.000000 0.000000 -0.012086 0.000000 0.039161
#
#
# Mechanical properties :
#
#
# Convention : Reuss Voigt Hill
#
# Bulk Modulus (GPa) = 15.05911 38.56269 26.81090
# Shear Modulus (GPa) = 17.69497 27.99905 22.84701
#
# Velocity S-wave (km/s) = 3.02570 3.80603 3.43808
# Velocity P-wave (km/s) = 4.47187 6.26624 5.44350
#
# Compressibility (1/GPa) = 0.06640500
#
# Stress axis : x y z
#
# Youngs Moduli (GPa) = 64.83993 13.35209 97.49850
#
# Poissons Ratio (x) = 0.20477 0.44532
# Poissons Ratio (y) = 0.99439 -0.27486
# Poissons Ratio (z) = 0.29616 -0.03764
#
# Static dielectric constant tensor:
#      x y z
#    x 3.410520 0.000000 -0.004770 
#    y 0.000000 3.061050 0.000000 
#    z -0.004770 0.000000 3.757290 
# 
# 
# High freq. dielectric constant tensor:
#      x y z
#    x 1.742510 0.000000 0.000820 
#    y 0.000000 1.698580 0.000000 
#    z 0.000820 0.000000 1.775230 
# 
# From -- ./inp_files/296417.got.cif
#   From: 2010.06.25/outbox.cif.g09.slc.cpg/sg15_149_cif.got.tgz:296417.got - 2010.06.28 07:06:18.
