data_PCOD8135411
_publ_section_title
;
Structure prediction by ZEFSAII (Michael W. Deem and Ramdas Pophale) SiO2 
 PCOD8135411
Probable space group: C 2/C
;
_chemical_formula_sum "Si O2"
_cell_formula_units_Z 56
_cell_length_a 11.745402
_cell_length_b 15.198894
_cell_length_c 19.907873
_cell_angle_alpha 90.000000
_cell_angle_beta 56.124684
_cell_angle_gamma 90.000000
_cell_volume 2950.631145
_symmetry_space_group_name_H-M "C 2/C"
_symmetry_group_IT_number 15
_symmetry_cell_setting 'monoclinic'
loop_
_space_group_symop_operation_xyz
x,y,z
-x,y,1/2-z
-x,-y,-z
x,-y,1/2+z
1/2+x,1/2+y,z
1/2-x,1/2+y,1/2-z
1/2-x,1/2-y,-z
1/2+x,1/2-y,1/2+z
loop_
_atom_site_type_symbol
_atom_site_label
_atom_site_fract_x
_atom_site_fract_y
_atom_site_fract_z
Si Si1 0.814458 0.492513 0.504827
Si Si2 0.142246 0.946091 0.439158
Si Si3 0.801105 0.177922 0.932564
Si Si4 0.842195 0.749806 0.288025
Si Si5 0.899302 0.574842 0.111815
Si Si6 0.408094 0.721868 0.626262
Si Si7 0.154058 0.449364 0.720318
O O1 0.734108 0.436541 0.475636
O O2 0.743168 0.585221 0.527211
O O3 0.799455 0.445278 0.581926
O O4 0.971895 0.508973 0.433853
O O5 0.127648 0.843355 0.422967
O O6 0.228758 0.991024 0.351101
O O7 0.000000 0.000000 0.500000
O O8 0.750850 0.195610 0.872026
O O9 0.963377 0.179028 0.879978
O O10 0.750000 0.250000 0.000000
O O11 0.798967 0.772656 0.224861
O O12 0.817713 0.648316 0.315327
O O13 0.000000 0.770461 0.250000
O O14 0.939287 0.678170 0.091698
O O15 0.825443 0.551154 0.205841
O O16 0.000000 0.479878 0.750000
#
# Coordination Sequence:
#
# PCOD8135411 Si02
#       7
#     8   8   8   8   8   8   8
#     4  11  22  37  60  90 119 154 200 245 303 351
#     4  12  24  37  59  94 125 157 194 254 315 358
#     4  11  18  32  59  89 119 145 195 253 302 350
#     4   8  18  32  55  83 110 152 196 245 287 340
#     4  10  22  40  61  86 115 162 203 249 285 362
#     4  10  21  37  56  84 120 155 198 241 300 357
#     4  10  19  38  62  84 119 156 205 244 294 357
#
# _framework density 18.978988999999999
#
# number of rings (size 3 to 8) (size 9 to 14) (size 15 to 20)
#    0.000    1.714    4.286    1.714    2.000    0.571 
#    0.000    0.714    0.000    0.000    0.000    0.000 
#    0.000    0.000    0.000    0.000    0.000    0.000 
#
# Total GULP energy -346875.961841 kJ/mol
# GULP energy per Si atom -12388.427209 kJ/mol
# Density = 1.893579 g / cm^3
# Si number density = 18.978989 Si / 1000 Ang^3
#
#
#
# Elastic Constant Matrix: (Units=GPa)
#
#
# Indices 1 2 3 4 5 6 
#
# 1 79.0509 23.0019 36.1753 0.0000 22.8781 0.0000
# 2 23.0019 45.0192 18.6212 0.0000 11.1845 0.0000
# 3 36.1753 18.6212 93.8354 0.0000 21.3140 0.0000
# 4 0.0000 0.0000 0.0000 27.6366 0.0000 9.4407
# 5 22.8781 11.1845 21.3140 0.0000 36.2221 0.0000
# 6 0.0000 0.0000 0.0000 9.4407 0.0000 27.0812
#
#
#
# Elastic Compliance Matrix: (Units=1/GPa)
#
#
# Indices 1 2 3 4 5 6 
#
# 1 0.018423 -0.005823 -0.004285 0.000000 -0.007317 0.000000
# 2 -0.005823 0.026977 -0.002369 0.000000 -0.003258 0.000000
# 3 -0.004285 -0.002369 0.013849 0.000000 -0.004711 0.000000
# 4 0.000000 0.000000 0.000000 0.041075 0.000000 -0.014319
# 5 -0.007317 -0.003258 -0.004711 0.000000 0.036007 0.000000
# 6 0.000000 0.000000 0.000000 -0.014319 0.000000 0.041918
#
#
# Mechanical properties :
#
#
# Convention : Reuss Voigt Hill
#
# Bulk Modulus (GPa) = 29.15758 41.50024 35.32891
# Shear Modulus (GPa) = 23.29554 27.52847 25.41200
#
# Velocity S-wave (km/s) = 3.50728 3.81264 3.66314
# Velocity P-wave (km/s) = 5.63895 6.42616 6.04538
#
# Compressibility (1/GPa) = 0.03429640
#
# Stress axis : x y z
#
# Youngs Moduli (GPa) = 54.28088 37.06866 72.20712
#
# Poissons Ratio (x) = 0.21584 0.30940
# Poissons Ratio (y) = 0.31606 0.17103
# Poissons Ratio (z) = 0.23259 0.08780
#
# Static dielectric constant tensor:
#      x y z
#    x 3.595990 0.000000 0.207520 
#    y 0.000000 -0.269260 0.000000 
#    z 0.207520 0.000000 3.730160 
# 
# 
# High freq. dielectric constant tensor:
#      x y z
#    x 1.704180 0.000000 0.019120 
#    y 0.000000 1.729250 0.000000 
#    z 0.019120 0.000000 1.756530 
# 
# From -- ./inp_files/199067.got.cif
#   From: 2010.06.25/outbox.cif.g09.slc.cpg/sg15_100_cif.got.tgz:199067.got - 2010.06.28 07:06:18.
