data_PCOD8135721
_publ_section_title
;
Structure prediction by ZEFSAII (Michael W. Deem and Ramdas Pophale) SiO2 
 PCOD8135721
Probable space group: C 2/C
;
_chemical_formula_sum "Si O2"
_cell_formula_units_Z 56
_cell_length_a 23.567347
_cell_length_b 9.548031
_cell_length_c 15.460688
_cell_angle_alpha 90.000000
_cell_angle_beta 50.635776
_cell_angle_gamma 90.000000
_cell_volume 2689.711628
_symmetry_space_group_name_H-M "C 2/C"
_symmetry_group_IT_number 15
_symmetry_cell_setting 'monoclinic'
loop_
_space_group_symop_operation_xyz
x,y,z
-x,y,1/2-z
-x,-y,-z
x,-y,1/2+z
1/2+x,1/2+y,z
1/2-x,1/2+y,1/2-z
1/2-x,1/2-y,-z
1/2+x,1/2-y,1/2+z
loop_
_atom_site_type_symbol
_atom_site_label
_atom_site_fract_x
_atom_site_fract_y
_atom_site_fract_z
Si Si1 0.315416 0.993126 0.915233
Si Si2 0.214505 0.155226 0.222181
Si Si3 0.199798 0.445200 0.264869
Si Si4 0.153222 0.024134 0.124638
Si Si5 0.635871 0.231235 0.512722
Si Si6 0.060342 0.380600 0.933301
Si Si7 0.428136 0.241950 0.265120
O O1 0.360123 0.849972 0.863950
O O2 0.298383 0.059337 0.839596
O O3 0.366013 0.103072 0.917714
O O4 0.236878 0.964910 0.036683
O O5 0.187652 0.284620 0.308985
O O6 0.153025 0.120457 0.210479
O O7 0.226494 0.016051 0.268016
O O8 0.286658 0.225004 0.110209
O O9 0.136159 0.538256 0.364147
O O10 0.128339 0.118841 0.067654
O O11 0.094625 0.901703 0.195773
O O12 0.566640 0.218359 0.512631
O O13 0.052959 0.287892 0.853852
O O14 0.000000 0.500000 0.000000
O O15 0.500000 0.204708 0.250000
#
# Coordination Sequence:
#
# PCOD8135721 Si02
#       7
#     8   8   8   8   8   8   8
#     4  10  19  39  65  91 118 165 207 256 313 377
#     4  10  20  35  58  93 126 152 199 258 315 368
#     4  10  20  35  62  92 120 157 203 255 311 366
#     4  11  21  38  64  91 127 158 204 265 320 365
#     4  10  19  39  65  89 123 155 207 254 314 376
#     4  10  23  43  64  86 121 172 216 249 301 385
#     4  11  25  42  59  90 129 161 212 259 311 377
#
# _framework density 20.820076
#
# number of rings (size 3 to 8) (size 9 to 14) (size 15 to 20)
#    0.000    1.714    2.857    2.143    6.000    0.000 
#    7.714    1.429    0.000    0.000    0.000    0.000 
#    0.000    0.000    0.000    0.000    0.000    0.000 
#
# Total GULP energy -347050.408608 kJ/mol
# GULP energy per Si atom -12394.657450 kJ/mol
# Density = 2.077269 g / cm^3
# Si number density = 20.820076 Si / 1000 Ang^3
#
#
#
# Elastic Constant Matrix: (Units=GPa)
#
#
# Indices 1 2 3 4 5 6 
#
# 1 121.7361 52.0383 36.5958 -0.0001 32.6026 0.0001
# 2 52.0383 128.8866 39.1508 -0.0005 23.9563 0.0006
# 3 36.5958 39.1508 57.3250 0.0000 24.1987 0.0002
# 4 -0.0001 -0.0005 0.0000 36.1105 0.0000 6.1863
# 5 32.6026 23.9563 24.1987 0.0000 29.3770 -0.0001
# 6 0.0001 0.0006 0.0002 6.1863 -0.0001 33.3971
#
#
#
# Elastic Compliance Matrix: (Units=1/GPa)
#
#
# Indices 1 2 3 4 5 6 
#
# 1 0.012686 -0.002606 -0.001951 0.000000 -0.010346 0.000000
# 2 -0.002606 0.010609 -0.004830 0.000000 -0.001780 0.000000
# 3 -0.001951 -0.004830 0.029760 0.000000 -0.018410 0.000000
# 4 0.000000 0.000000 0.000000 0.028600 0.000000 -0.005298
# 5 -0.010346 -0.001780 -0.018410 0.000000 0.062140 0.000000
# 6 0.000000 0.000000 0.000000 -0.005298 0.000000 0.030924
#
#
# Mechanical properties :
#
#
# Convention : Reuss Voigt Hill
#
# Bulk Modulus (GPa) = 29.17138 62.61305 45.89222
# Shear Modulus (GPa) = 24.39954 31.78776 28.09365
#
# Velocity S-wave (km/s) = 3.42705 3.91165 3.67734
# Velocity P-wave (km/s) = 5.44988 7.10915 6.33408
#
# Compressibility (1/GPa) = 0.03428017
#
# Stress axis : x y z
#
# Youngs Moduli (GPa) = 78.82674 94.25775 33.60170
#
# Poissons Ratio (x) = 0.24566 0.06556
# Poissons Ratio (y) = 0.20544 0.16231
# Poissons Ratio (z) = 0.15380 0.45530
#
# Static dielectric constant tensor:
#      x y z
#    x -0.405720 -0.000070 0.796310 
#    y -0.000070 4.003470 0.000010 
#    z 0.796310 0.000010 3.574710 
# 
# 
# High freq. dielectric constant tensor:
#      x y z
#    x 1.812040 0.000000 0.026090 
#    y 0.000000 1.823040 0.000000 
#    z 0.026090 0.000000 1.791060 
# 
# From -- ./inp_files/172283.got.cif
#   From: 2010.06.25/outbox.cif.g09.slc.cpg/sg15_87_cif.got.tgz:172283.got - 2010.06.28 07:06:18.
