data_PCOD8135986
_publ_section_title
;
Structure prediction by ZEFSAII (Michael W. Deem and Ramdas Pophale) SiO2 
 PCOD8135986
Probable space group: C 2/C
;
_chemical_formula_sum "Si O2"
_cell_formula_units_Z 56
_cell_length_a 30.453886
_cell_length_b 10.448507
_cell_length_c 22.303380
_cell_angle_alpha 90.000000
_cell_angle_beta 20.659141
_cell_angle_gamma 90.000000
_cell_volume 2503.834695
_symmetry_space_group_name_H-M "C 2/C"
_symmetry_group_IT_number 15
_symmetry_cell_setting 'monoclinic'
loop_
_space_group_symop_operation_xyz
x,y,z
-x,y,1/2-z
-x,-y,-z
x,-y,1/2+z
1/2+x,1/2+y,z
1/2-x,1/2+y,1/2-z
1/2-x,1/2-y,-z
1/2+x,1/2-y,1/2+z
loop_
_atom_site_type_symbol
_atom_site_label
_atom_site_fract_x
_atom_site_fract_y
_atom_site_fract_z
Si Si1 0.899202 0.714659 0.477167
Si Si2 0.000000 0.293996 0.250000
Si Si3 0.726709 0.782755 0.117501
Si Si4 0.410704 0.009966 0.775143
Si Si5 0.387264 0.676353 0.121425
Si Si6 0.000000 0.904917 0.250000
Si Si7 0.857439 0.909569 0.208878
Si Si8 0.661490 0.479030 0.644258
O O1 0.860445 0.776915 0.589229
O O2 0.776370 0.647795 0.610701
O O3 0.011615 0.614054 0.344502
O O4 0.928376 0.816983 0.388947
O O5 0.875965 0.208113 0.417033
O O6 0.000237 0.387053 0.191895
O O7 0.663031 0.919314 0.184832
O O8 0.695982 0.756057 0.226003
O O9 0.671101 0.674194 0.143594
O O10 0.302335 0.964850 0.959546
O O11 0.349216 0.527269 0.173352
O O12 0.534980 0.689263 0.949506
O O13 0.089286 0.995947 0.174732
O O14 0.904836 0.955566 0.214377
#
# Coordination Sequence:
#
# PCOD8135986 Si02
#       8
#     8   4   8   8   8   4   8   8
#     4  12  25  41  68  99 135 181 227 287 337 410
#     4  10  19  41  70  98 132 181 227 274 356 396
#     4  10  23  42  70  98 137 178 223 286 334 414
#     4  11  23  39  65 101 135 175 226 285 341 393
#     4  10  23  44  65  95 132 185 220 273 342 406
#     4  12  25  41  68 102 130 179 237 286 340 400
#     4  10  22  44  67  89 136 181 226 268 346 407
#     4  10  21  41  67  98 131 175 227 283 334 403
#
# _framework density 22.365693
#
# number of rings (size 3 to 8) (size 9 to 14) (size 15 to 20)
#    0.000    1.429    1.429    5.571    2.000    6.286 
#    2.571    1.429    0.000    0.000    0.000    0.000 
#    0.000    0.000    0.000    0.000    0.000    0.000 
#
# Total GULP energy -347072.488268 kJ/mol
# GULP energy per Si atom -12395.446010 kJ/mol
# Density = 2.231479 g / cm^3
# Si number density = 22.365693 Si / 1000 Ang^3
#
#
#
# Elastic Constant Matrix: (Units=GPa)
#
#
# Indices 1 2 3 4 5 6 
#
# 1 136.9763 51.4279 48.4237 -0.0003 15.2059 -0.0003
# 2 51.4279 63.9854 34.6751 -0.0036 9.0550 -0.0013
# 3 48.4237 34.6751 110.1795 -0.0026 11.9644 -0.0009
# 4 -0.0003 -0.0036 -0.0026 16.9221 -0.0005 6.1752
# 5 15.2059 9.0550 11.9644 -0.0005 36.4646 -0.0002
# 6 -0.0003 -0.0013 -0.0009 6.1752 -0.0002 14.4593
#
#
#
# Elastic Compliance Matrix: (Units=1/GPa)
#
#
# Indices 1 2 3 4 5 6 
#
# 1 0.011129 -0.007385 -0.002346 -0.000002 -0.002037 0.000000
# 2 -0.007385 0.024030 -0.004151 0.000004 -0.001525 0.000000
# 3 -0.002346 -0.004151 0.011609 0.000001 -0.001800 0.000000
# 4 -0.000002 0.000004 0.000001 0.070004 0.000000 -0.029897
# 5 -0.002037 -0.001525 -0.001800 0.000000 0.029243 0.000000
# 6 0.000000 0.000000 0.000000 -0.029897 0.000000 0.081928
#
#
# Mechanical properties :
#
#
# Convention : Reuss Voigt Hill
#
# Bulk Modulus (GPa) = 52.62165 64.46607 58.54386
# Shear Modulus (GPa) = 19.08102 25.34352 22.21227
#
# Velocity S-wave (km/s) = 2.92402 3.36987 3.15483
# Velocity P-wave (km/s) = 5.91429 6.63533 6.28516
#
# Compressibility (1/GPa) = 0.01900359
#
# Stress axis : x y z
#
# Youngs Moduli (GPa) = 89.85805 41.61499 86.14111
#
# Poissons Ratio (x) = 0.30733 0.20205
# Poissons Ratio (y) = 0.66362 0.35758
# Poissons Ratio (z) = 0.21077 0.17275
#
# Static dielectric constant tensor:
#      x y z
#    x 3.931710 0.000000 0.103210 
#    y 0.000000 3.899710 0.000000 
#    z 0.103210 0.000000 4.172440 
# 
# 
# High freq. dielectric constant tensor:
#      x y z
#    x 1.877550 0.000000 0.007530 
#    y 0.000000 1.870940 0.000000 
#    z 0.007530 0.000000 1.893260 
# 
# From -- ./inp_files/284622.got.cif
#   From: 2010.06.25/outbox.cif.g09.slc.cpg/sg15_143_cif.got.tgz:284622.got - 2010.06.28 07:06:18.
