data_PCOD8135207
_publ_section_title
;
Structure prediction by ZEFSAII (Michael W. Deem and Ramdas Pophale) SiO2 
 PCOD8135207
Probable space group: C 2/C
;
_chemical_formula_sum "Si O2"
_cell_formula_units_Z 52
_cell_length_a 11.368290
_cell_length_b 14.528286
_cell_length_c 16.091071
_cell_angle_alpha 90.000000
_cell_angle_beta 65.415493
_cell_angle_gamma 90.000000
_cell_volume 2416.711991
_symmetry_space_group_name_H-M "C 2/C"
_symmetry_group_IT_number 15
_symmetry_cell_setting 'monoclinic'
loop_
_space_group_symop_operation_xyz
x,y,z
-x,y,1/2-z
-x,-y,-z
x,-y,1/2+z
1/2+x,1/2+y,z
1/2-x,1/2+y,1/2-z
1/2-x,1/2-y,-z
1/2+x,1/2-y,1/2+z
loop_
_atom_site_type_symbol
_atom_site_label
_atom_site_fract_x
_atom_site_fract_y
_atom_site_fract_z
Si Si1 0.586066 0.231739 0.862829
Si Si2 0.029584 0.933501 0.833746
Si Si3 0.222753 0.096534 0.996541
Si Si4 0.786334 0.475006 0.835705
Si Si5 0.135630 0.274952 0.742463
Si Si6 0.383630 0.226482 0.056634
Si Si7 0.000000 0.607523 0.750000
O O1 0.577631 0.328885 0.818800
O O2 0.740725 0.208489 0.815191
O O3 0.489443 0.167946 0.836861
O O4 0.528123 0.232940 0.973375
O O5 0.144956 0.993327 0.838946
O O6 0.000000 0.968210 0.750000
O O7 0.905445 0.946465 0.926923
O O8 0.193454 0.179934 0.941026
O O9 0.288252 0.009659 0.931092
O O10 0.312402 0.135804 0.043119
O O11 0.838749 0.371509 0.812431
O O12 0.879345 0.544720 0.761125
O O13 0.113793 0.288620 0.846431
O O14 0.000000 0.231838 0.750000
#
# Coordination Sequence:
#
# PCOD8135207 Si02
#       7
#     8   8   8   8   8   8   4
#     4  10  21  38  68  93 121 170 225 267 301 383
#     4  10  20  37  62  95 131 169 207 265 326 380
#     4  10  19  37  64  97 121 161 225 267 301 384
#     4  11  22  36  58  90 133 169 202 264 327 373
#     4  11  24  42  59  92 137 169 201 269 343 383
#     4  10  21  38  67  96 122 166 225 267 307 381
#     4  12  20  40  62  96 122 168 224 262 298 388
#
# _framework density 21.516838
#
# number of rings (size 3 to 8) (size 9 to 14) (size 15 to 20)
#    0.000    1.538    3.077    3.231    2.154    0.615 
#    0.000    7.692    0.000    3.692    0.000    0.000 
#    0.000    0.000    0.000    0.000    0.000    0.000 
#
# Total GULP energy -322266.253700 kJ/mol
# GULP energy per Si atom -12394.855912 kJ/mol
# Density = 2.146786 g / cm^3
# Si number density = 21.516838 Si / 1000 Ang^3
#
#
#
# Elastic Constant Matrix: (Units=GPa)
#
#
# Indices 1 2 3 4 5 6 
#
# 1 130.3735 22.7349 51.2252 0.0000 -9.6358 0.0000
# 2 22.7349 53.5836 22.7273 0.0000 -0.0499 0.0000
# 3 51.2252 22.7273 99.7354 0.0000 -9.1187 0.0000
# 4 0.0000 0.0000 0.0000 31.3668 0.0000 -2.3591
# 5 -9.6358 -0.0499 -9.1187 0.0000 33.4523 0.0000
# 6 0.0000 0.0000 0.0000 -2.3591 0.0000 25.7809
#
#
#
# Elastic Compliance Matrix: (Units=1/GPa)
#
#
# Indices 1 2 3 4 5 6 
#
# 1 0.009937 -0.002340 -0.004419 0.000000 0.001654 0.000000
# 2 -0.002340 0.021264 -0.003797 0.000000 -0.001677 0.000000
# 3 -0.004419 -0.003797 0.013378 0.000000 0.002368 0.000000
# 4 0.000000 0.000000 0.000000 0.032102 0.000000 0.002938
# 5 0.001654 -0.001677 0.002368 0.000000 0.031013 0.000000
# 6 0.000000 0.000000 0.000000 0.002938 0.000000 0.039057
#
#
# Mechanical properties :
#
#
# Convention : Reuss Voigt Hill
#
# Bulk Modulus (GPa) = 42.61411 53.00749 47.81080
# Shear Modulus (GPa) = 28.45981 30.58699 29.52340
#
# Velocity S-wave (km/s) = 3.64081 3.77442 3.70821
# Velocity P-wave (km/s) = 6.12552 6.60937 6.37204
#
# Compressibility (1/GPa) = 0.02346640
#
# Stress axis : x y z
#
# Youngs Moduli (GPa) = 100.63406 47.02716 74.74919
#
# Poissons Ratio (x) = 0.11005 0.33033
# Poissons Ratio (y) = 0.23550 0.28383
# Poissons Ratio (z) = 0.44473 0.17856
#
# Static dielectric constant tensor:
#      x y z
#    x 4.177820 0.000000 -0.296530 
#    y 0.000000 3.635180 0.000000 
#    z -0.296530 0.000000 3.791350 
# 
# 
# High freq. dielectric constant tensor:
#      x y z
#    x 1.846410 0.000000 -0.023240 
#    y 0.000000 1.817000 0.000000 
#    z -0.023240 0.000000 1.848370 
# 
# From -- ./inp_files/144178.got.cif
#   From: 2010.06.25/outbox.cif.g09.slc.cpg/sg15_73_cif.got.tgz:144178.got - 2010.06.28 07:06:18.
