data_PCOD8135154
_publ_section_title
;
Structure prediction by ZEFSAII (Michael W. Deem and Ramdas Pophale) SiO2 
 PCOD8135154
Probable space group: C 2/C
;
_chemical_formula_sum "Si O2"
_cell_formula_units_Z 52
_cell_length_a 16.220366
_cell_length_b 33.614769
_cell_length_c 5.152446
_cell_angle_alpha 90.000000
_cell_angle_beta 112.733515
_cell_angle_gamma 90.000000
_cell_volume 2591.088110
_symmetry_space_group_name_H-M "C 2/C"
_symmetry_group_IT_number 15
_symmetry_cell_setting 'monoclinic'
loop_
_space_group_symop_operation_xyz
x,y,z
-x,y,1/2-z
-x,-y,-z
x,-y,1/2+z
1/2+x,1/2+y,z
1/2-x,1/2+y,1/2-z
1/2-x,1/2-y,-z
1/2+x,1/2-y,1/2+z
loop_
_atom_site_type_symbol
_atom_site_label
_atom_site_fract_x
_atom_site_fract_y
_atom_site_fract_z
Si Si1 0.500000 0.026583 0.250000
Si Si2 0.500000 0.472078 0.250000
Si Si3 0.659988 0.587814 0.853519
Si Si4 0.746324 0.285606 0.798900
Si Si5 0.843184 0.139716 0.159456
Si Si6 0.308910 0.026970 0.001765
Si Si7 0.404389 0.745917 0.747811
Si Si8 0.000000 0.810801 0.750000
O O1 0.594176 0.049630 0.378406
O O2 0.500000 0.000000 0.500000
O O3 0.500000 0.500000 0.500000
O O4 0.417170 0.443249 0.181533
O O5 0.642347 0.619624 0.604484
O O6 0.744335 0.562991 0.865903
O O7 0.681444 0.608566 0.150583
O O8 0.737534 0.327706 0.937475
O O9 0.656684 0.280260 0.518416
O O10 0.841568 0.283205 0.759504
O O11 0.750000 0.250000 0.000000
O O12 0.937292 0.160858 0.349481
O O13 0.294126 0.994375 0.759242
O O14 0.500000 0.761489 0.750000
O O15 0.429674 0.716140 0.009386
#
# Coordination Sequence:
#
# PCOD8135154 Si02
#       8
#     4   4   8   8   8   8   8   4
#     4   8  16  30  58  90 107 135 196 263 294 341
#     4  12  24  43  66  94 136 177 222 267 314 406
#     4  12  25  40  60  95 131 177 208 260 335 400
#     4  11  23  39  64  93 124 168 224 278 340 398
#     4  12  25  40  63  92 136 165 220 274 333 393
#     4  10  19  37  63  90 120 159 212 259 307 376
#     4  11  21  38  65  93 121 158 223 283 334 391
#     4  12  22  39  62  94 117 172 214 292 322 381
#
# _framework density 20.068788000000001
#
# number of rings (size 3 to 8) (size 9 to 14) (size 15 to 20)
#    0.000    0.923    3.077    4.615    2.154    0.000 
#    0.000    0.000    1.692    0.000    0.000    0.000 
#    0.000    0.000    0.000    0.000    0.000    0.000 
#
# Total GULP energy -322107.406582 kJ/mol
# GULP energy per Si atom -12388.746407 kJ/mol
# Density = 2.002311 g / cm^3
# Si number density = 20.068788 Si / 1000 Ang^3
#
#
#
# Elastic Constant Matrix: (Units=GPa)
#
#
# Indices 1 2 3 4 5 6 
#
# 1 155.2242 61.8217 34.7080 0.0000 12.8647 0.0000
# 2 61.8217 109.9467 35.4398 0.0000 1.4490 0.0000
# 3 34.7080 35.4398 106.6596 0.0000 -3.4049 0.0000
# 4 0.0000 0.0000 0.0000 28.2947 0.0000 -14.9371
# 5 12.8647 1.4490 -3.4049 0.0000 42.4808 0.0000
# 6 0.0000 0.0000 0.0000 -14.9371 0.0000 60.8766
#
#
#
# Elastic Compliance Matrix: (Units=1/GPa)
#
#
# Indices 1 2 3 4 5 6 
#
# 1 0.008742 -0.004410 -0.001463 0.000000 -0.002614 0.000000
# 2 -0.004410 0.012427 -0.002672 0.000000 0.000697 0.000000
# 3 -0.001463 -0.002672 0.010784 0.000000 0.001399 0.000000
# 4 0.000000 0.000000 0.000000 0.040601 0.000000 0.009962
# 5 -0.002614 0.000697 0.001399 0.000000 0.024420 0.000000
# 6 0.000000 0.000000 0.000000 0.009962 0.000000 0.018871
#
#
# Mechanical properties :
#
#
# Convention : Reuss Voigt Hill
#
# Bulk Modulus (GPa) = 67.27611 70.64105 68.95858
# Shear Modulus (GPa) = 36.26080 42.32117 39.29098
#
# Velocity S-wave (km/s) = 4.25529 4.59715 4.42952
# Velocity P-wave (km/s) = 7.59861 7.96582 7.78438
#
# Compressibility (1/GPa) = 0.01486412
#
# Stress axis : x y z
#
# Youngs Moduli (GPa) = 114.38549 80.47084 92.72860
#
# Poissons Ratio (x) = 0.35485 0.13567
# Poissons Ratio (y) = 0.50440 0.24776
# Poissons Ratio (z) = 0.16736 0.21501
#
# Static dielectric constant tensor:
#      x y z
#    x 4.533220 0.000000 0.104900 
#    y 0.000000 3.511290 0.000000 
#    z 0.104900 0.000000 3.715190 
# 
# 
# High freq. dielectric constant tensor:
#      x y z
#    x 1.809480 0.000000 -0.007400 
#    y 0.000000 1.756820 0.000000 
#    z -0.007400 0.000000 1.791680 
# 
# From -- ./inp_files/12088.got.cif
#   From: 2010.06.25/outbox.cif.g09.slc.cpg/sg15_7_cif.got.tgz:12088.got - 2010.06.28 07:06:18.
