data_PCOD8135848
_publ_section_title
;
Structure prediction by ZEFSAII (Michael W. Deem and Ramdas Pophale) SiO2 
 PCOD8135848
Probable space group: C 2/C
;
_chemical_formula_sum "Si O2"
_cell_formula_units_Z 44
_cell_length_a 18.309267
_cell_length_b 15.132140
_cell_length_c 7.692379
_cell_angle_alpha 90.000000
_cell_angle_beta 72.844131
_cell_angle_gamma 90.000000
_cell_volume 2036.410506
_symmetry_space_group_name_H-M "C 2/C"
_symmetry_group_IT_number 15
_symmetry_cell_setting 'monoclinic'
loop_
_space_group_symop_operation_xyz
x,y,z
-x,y,1/2-z
-x,-y,-z
x,-y,1/2+z
1/2+x,1/2+y,z
1/2-x,1/2+y,1/2-z
1/2-x,1/2-y,-z
1/2+x,1/2-y,1/2+z
loop_
_atom_site_type_symbol
_atom_site_label
_atom_site_fract_x
_atom_site_fract_y
_atom_site_fract_z
Si Si1 0.311849 0.678149 0.401207
Si Si2 0.804846 0.618205 0.527010
Si Si3 0.345802 0.311377 0.472850
Si Si4 0.819387 0.429165 0.402367
Si Si5 0.500000 0.728611 0.750000
Si Si6 0.437385 0.205882 0.943809
O O1 0.250000 0.750000 0.500000
O O2 0.329647 0.678186 0.186130
O O3 0.269868 0.585972 0.478000
O O4 0.390073 0.701925 0.448027
O O5 0.712570 0.627967 0.594169
O O6 0.838452 0.707857 0.420356
O O7 0.832255 0.534380 0.395430
O O8 0.835174 0.607139 0.699834
O O9 0.431656 0.336994 0.357831
O O10 0.879670 0.377948 0.482688
O O11 0.478041 0.790931 0.602254
O O12 0.500000 0.194411 0.750000
#
# Coordination Sequence:
#
# PCOD8135848 Si02
#       6
#     8   8   8   8   4   8
#     4  10  19  40  65  89 127 169 220 269 310 377
#     4  11  23  40  65  95 126 169 223 268 321 374
#     4  11  23  41  66  94 127 175 218 266 320 396
#     4  11  23  40  65  96 129 166 219 277 317 377
#     4  12  24  38  66  96 130 176 216 254 334 392
#     4  11  22  42  62  95 137 172 212 262 325 398
#
# _framework density 21.606645
#
# number of rings (size 3 to 8) (size 9 to 14) (size 15 to 20)
#    0.000    1.091    5.455    2.182   10.182    0.000 
#    1.636    1.818    2.000    3.273    0.000    0.000 
#    0.000    0.000    0.000    0.000    0.000    0.000 
#
# Total GULP energy -272716.780446 kJ/mol
# GULP energy per Si atom -12396.217293 kJ/mol
# Density = 2.155747 g / cm^3
# Si number density = 21.606645 Si / 1000 Ang^3
#
#
#
# Elastic Constant Matrix: (Units=GPa)
#
#
# Indices 1 2 3 4 5 6 
#
# 1 105.4092 3.0971 27.6693 0.0000 7.5702 0.0000
# 2 3.0971 41.2975 -2.3844 0.0000 9.2428 0.0000
# 3 27.6693 -2.3844 95.7175 0.0000 1.0042 0.0000
# 4 0.0000 0.0000 0.0000 22.0415 0.0000 6.0375
# 5 7.5702 9.2428 1.0042 0.0000 49.4543 0.0000
# 6 0.0000 0.0000 0.0000 6.0375 0.0000 17.4041
#
#
#
# Elastic Compliance Matrix: (Units=1/GPa)
#
#
# Indices 1 2 3 4 5 6 
#
# 1 0.010396 -0.000637 -0.003006 0.000000 -0.001411 0.000000
# 2 -0.000637 0.025355 0.000865 0.000000 -0.004659 0.000000
# 3 -0.003006 0.000865 0.011337 0.000000 0.000068 0.000000
# 4 0.000000 0.000000 0.000000 0.050133 0.000000 -0.017391
# 5 -0.001411 -0.004659 0.000068 0.000000 0.021306 0.000000
# 6 0.000000 0.000000 0.000000 -0.017391 0.000000 0.063491
#
#
# Mechanical properties :
#
#
# Convention : Reuss Voigt Hill
#
# Bulk Modulus (GPa) = 24.07874 33.24313 28.66094
# Shear Modulus (GPa) = 24.82389 32.04945 28.43667
#
# Velocity S-wave (km/s) = 3.39322 3.85556 3.63176
# Velocity P-wave (km/s) = 5.14978 5.93628 5.55697
#
# Compressibility (1/GPa) = 0.04153042
#
# Stress axis : x y z
#
# Youngs Moduli (GPa) = 96.19047 39.44001 88.20463
#
# Poissons Ratio (x) = 0.02514 0.26517
# Poissons Ratio (y) = 0.06131 -0.07628
# Poissons Ratio (z) = 0.28918 -0.03411
#
# Static dielectric constant tensor:
#      x y z
#    x 3.212490 0.000000 0.848340 
#    y 0.000000 3.947880 0.000000 
#    z 0.848340 0.000000 3.070420 
# 
# 
# High freq. dielectric constant tensor:
#      x y z
#    x 1.854000 0.000000 0.004020 
#    y 0.000000 1.806830 0.000000 
#    z 0.004020 0.000000 1.862070 
# 
# From -- ./inp_files/46992.got.cif
#   From: 2010.06.25/outbox.cif.g09.slc.cpg/sg15_24_cif.got.tgz:46992.got - 2010.06.28 07:06:18.
