data_PCOD8135724
_publ_section_title
;
Structure prediction by ZEFSAII (Michael W. Deem and Ramdas Pophale) SiO2 
 PCOD8135724
Probable space group: C 2/C
;
_chemical_formula_sum "Si O2"
_cell_formula_units_Z 64
_cell_length_a 13.892142
_cell_length_b 11.863456
_cell_length_c 18.807622
_cell_angle_alpha 90.000000
_cell_angle_beta 71.174178
_cell_angle_gamma 90.000000
_cell_volume 2933.842158
_symmetry_space_group_name_H-M "C 2/C"
_symmetry_group_IT_number 15
_symmetry_cell_setting 'monoclinic'
loop_
_space_group_symop_operation_xyz
x,y,z
-x,y,1/2-z
-x,-y,-z
x,-y,1/2+z
1/2+x,1/2+y,z
1/2-x,1/2+y,1/2-z
1/2-x,1/2-y,-z
1/2+x,1/2-y,1/2+z
loop_
_atom_site_type_symbol
_atom_site_label
_atom_site_fract_x
_atom_site_fract_y
_atom_site_fract_z
Si Si1 0.943236 0.379565 0.851281
Si Si2 0.569490 0.873293 0.946836
Si Si3 0.249727 0.093845 0.185925
Si Si4 0.601954 0.884724 0.094794
Si Si5 0.933629 0.135550 0.374983
Si Si6 0.118128 0.028974 0.817720
Si Si7 0.132162 0.261567 0.751077
Si Si8 0.838631 0.867219 0.046204
O O1 0.910744 0.510630 0.848559
O O2 0.861079 0.289500 0.836168
O O3 0.961050 0.358409 0.931909
O O4 0.054037 0.361681 0.790608
O O5 0.651722 0.948214 0.882530
O O6 0.625066 0.753194 0.936100
O O7 0.551620 0.920937 0.030428
O O8 0.153745 0.105185 0.158641
O O9 0.267839 0.212004 0.225763
O O10 0.222985 0.002761 0.253036
O O11 0.546029 0.770521 0.134031
O O12 0.720262 0.857584 0.054621
O O13 0.900787 0.095606 0.461610
O O14 0.034383 0.068454 0.328114
O O15 0.082891 0.142577 0.784681
O O16 0.140522 0.044087 0.895860
#
# Coordination Sequence:
#
# PCOD8135724 Si02
#       8
#     8   8   8   8   8   8   8   8
#     4  10  21  37  62  90 121 164 207 248 305 379
#     4  10  19  39  65  90 120 166 207 251 317 367
#     4  11  21  40  62  91 122 166 208 248 317 369
#     4  11  20  40  66  92 125 161 213 260 305 369
#     4  11  23  38  64 101 119 163 213 263 314 357
#     4  12  24  39  66  92 130 162 210 267 304 383
#     4  10  23  43  59  89 126 173 202 246 332 373
#     4  11  20  42  67  87 127 168 209 256 314 376
#
# _framework density 21.814398000000001
#
# number of rings (size 3 to 8) (size 9 to 14) (size 15 to 20)
#    0.000    1.250    5.000    2.625    3.500    0.000 
#    9.000    0.000    0.000    1.500    0.000    0.000 
#    0.000    0.000    0.000    0.000    0.000    0.000 
#
# Total GULP energy -396443.458728 kJ/mol
# GULP energy per Si atom -12388.858085 kJ/mol
# Density = 2.176475 g / cm^3
# Si number density = 21.814398 Si / 1000 Ang^3
#
#
#
# Elastic Constant Matrix: (Units=GPa)
#
#
# Indices 1 2 3 4 5 6 
#
# 1 56.5613 21.6848 24.5341 0.0000 22.1198 0.0000
# 2 21.6848 106.9659 43.7453 0.0000 -2.6598 0.0000
# 3 24.5341 43.7453 90.1102 0.0000 8.2371 0.0000
# 4 0.0000 0.0000 0.0000 41.9153 0.0000 -0.9663
# 5 22.1198 -2.6598 8.2371 0.0000 38.8162 0.0000
# 6 0.0000 0.0000 0.0000 -0.9663 0.0000 23.3389
#
#
#
# Elastic Compliance Matrix: (Units=1/GPa)
#
#
# Indices 1 2 3 4 5 6 
#
# 1 0.026720 -0.004187 -0.003900 0.000000 -0.014686 0.000000
# 2 -0.004187 0.012481 -0.005319 0.000000 0.004370 0.000000
# 3 -0.003900 -0.005319 0.014860 0.000000 -0.001295 0.000000
# 4 0.000000 0.000000 0.000000 0.023880 0.000000 0.000989
# 5 -0.014686 0.004370 -0.001295 0.000000 0.034706 0.000000
# 6 0.000000 0.000000 0.000000 0.000989 0.000000 0.042888
#
#
# Mechanical properties :
#
#
# Convention : Reuss Voigt Hill
#
# Bulk Modulus (GPa) = 36.69733 48.17398 42.43565
# Shear Modulus (GPa) = 26.11915 31.72562 28.92238
#
# Velocity S-wave (km/s) = 3.46401 3.81772 3.64516
# Velocity P-wave (km/s) = 5.73220 6.44708 6.10012
#
# Compressibility (1/GPa) = 0.02724994
#
# Stress axis : x y z
#
# Youngs Moduli (GPa) = 37.42487 80.11879 67.29555
#
# Poissons Ratio (x) = 0.33547 0.26244
# Poissons Ratio (y) = 0.15670 0.35793
# Poissons Ratio (z) = 0.14595 0.42613
#
# Static dielectric constant tensor:
#      x y z
#    x 4.233190 0.000000 0.626670 
#    y 0.000000 3.824250 0.000000 
#    z 0.626670 0.000000 4.529440 
# 
# 
# High freq. dielectric constant tensor:
#      x y z
#    x 1.855830 0.000000 0.039190 
#    y 0.000000 1.841500 0.000000 
#    z 0.039190 0.000000 1.858210 
# 
# From -- ./inp_files/243709.got.cif
#   From: 2010.06.25/outbox.cif.g09.slc.cpg/sg15_122_cif.got.tgz:243709.got - 2010.06.28 07:06:18.
