data_PCOD8135573
_publ_section_title
;
Structure prediction by ZEFSAII (Michael W. Deem and Ramdas Pophale) SiO2 
 PCOD8135573
Probable space group: C 2/C
;
_chemical_formula_sum "Si O2"
_cell_formula_units_Z 64
_cell_length_a 24.453316
_cell_length_b 15.629108
_cell_length_c 22.052261
_cell_angle_alpha 90.000000
_cell_angle_beta 21.820180
_cell_angle_gamma 90.000000
_cell_volume 3132.648008
_symmetry_space_group_name_H-M "C 2/C"
_symmetry_group_IT_number 15
_symmetry_cell_setting 'monoclinic'
loop_
_space_group_symop_operation_xyz
x,y,z
-x,y,1/2-z
-x,-y,-z
x,-y,1/2+z
1/2+x,1/2+y,z
1/2-x,1/2+y,1/2-z
1/2-x,1/2-y,-z
1/2+x,1/2-y,1/2+z
loop_
_atom_site_type_symbol
_atom_site_label
_atom_site_fract_x
_atom_site_fract_y
_atom_site_fract_z
Si Si1 0.837483 0.989019 0.407991
Si Si2 0.507404 0.201305 0.113474
Si Si3 0.780309 0.811613 0.413255
Si Si4 0.354763 0.027280 0.279353
Si Si5 0.090535 0.594666 0.598604
Si Si6 0.173502 0.505795 0.821711
Si Si7 0.847824 0.308446 0.155694
Si Si8 0.144594 0.662723 0.418434
O O1 0.850842 0.900677 0.359082
O O2 0.768910 0.966181 0.543128
O O3 0.000000 0.028668 0.250000
O O4 0.739578 0.054573 0.470952
O O5 0.398857 0.275611 0.244977
O O6 0.410086 0.118940 0.199750
O O7 0.621940 0.174613 0.046875
O O8 0.586394 0.236506 0.971747
O O9 0.750000 0.750000 0.500000
O O10 0.273989 0.992208 0.302488
O O11 0.492880 0.973902 0.162513
O O12 0.140500 0.663891 0.496596
O O13 0.000000 0.632848 0.750000
O O14 0.223703 0.600242 0.793760
O O15 0.225510 0.424433 0.809364
O O16 0.000000 0.500000 0.000000
O O17 0.730608 0.246432 0.307499
O O18 0.976209 0.329829 0.071075
#
# Coordination Sequence:
#
# PCOD8135573 Si02
#       8
#     8   8   8   8   8   8   8   8
#     4  11  24  38  57  89 126 158 204 265 320 359
#     4  12  22  36  55  89 121 173 211 250 314 371
#     4  12  24  33  53  84 132 167 209 254 306 378
#     4  11  19  39  66  86 115 169 216 248 297 394
#     4  10  21  41  68  86 113 165 215 252 308 387
#     4  10  19  38  69  92 123 164 214 251 311 382
#     4  11  23  41  66  93 129 164 209 271 309 376
#     4  11  22  43  66  99 124 162 213 260 319 380
#
# _framework density 20.43
#
# number of rings (size 3 to 8) (size 9 to 14) (size 15 to 20)
#    0.000    1.000    7.500    1.875    0.000    0.000 
#    2.250    1.250    0.000    0.000    0.000    0.000 
#    0.000    0.000    0.000    0.000    0.000    0.000 
#
# Total GULP energy -396642.301915 kJ/mol
# GULP energy per Si atom -12395.071935 kJ/mol
# Density = 2.038350 g / cm^3
# Si number density = 20.430000 Si / 1000 Ang^3
#
#
#
# Elastic Constant Matrix: (Units=GPa)
#
#
# Indices 1 2 3 4 5 6 
#
# 1 56.2701 19.0098 11.1629 -0.1205 11.9121 0.0113
# 2 19.0098 95.7008 41.2471 0.2130 12.3362 -0.0188
# 3 11.1629 41.2471 69.2866 -0.0414 4.2721 0.0050
# 4 -0.1205 0.2130 -0.0414 18.8979 -0.0499 7.5501
# 5 11.9121 12.3362 4.2721 -0.0499 37.9344 -0.0008
# 6 0.0113 -0.0188 0.0050 7.5501 -0.0008 28.4587
#
#
#
# Elastic Compliance Matrix: (Units=1/GPa)
#
#
# Indices 1 2 3 4 5 6 
#
# 1 0.020070 -0.002764 -0.001263 0.000164 -0.005261 -0.000053
# 2 -0.002764 0.014959 -0.008271 -0.000243 -0.003065 0.000077
# 3 -0.001263 -0.008271 0.019505 0.000149 0.000890 -0.000048
# 4 0.000164 -0.000243 0.000149 0.059195 0.000088 -0.015705
# 5 -0.005261 -0.003065 0.000890 0.000088 0.028910 -0.000023
# 6 -0.000053 0.000077 -0.000048 -0.015705 -0.000023 0.039305
#
#
# Mechanical properties :
#
#
# Convention : Reuss Voigt Hill
#
# Bulk Modulus (GPa) = 33.40368 40.45524 36.92946
# Shear Modulus (GPa) = 23.09253 27.04739 25.06996
#
# Velocity S-wave (km/s) = 3.36568 3.64250 3.50682
# Velocity P-wave (km/s) = 5.61155 6.12660 5.87472
#
# Compressibility (1/GPa) = 0.02993682
#
# Stress axis : x y z
#
# Youngs Moduli (GPa) = 49.82556 66.85030 51.26806
#
# Poissons Ratio (x) = 0.18480 0.06477
# Poissons Ratio (y) = 0.13774 0.42403
# Poissons Ratio (z) = 0.06295 0.55291
#
# Static dielectric constant tensor:
#      x y z
#    x 4.387000 -0.000040 0.404760 
#    y -0.000040 3.806140 0.000040 
#    z 0.404760 0.000040 4.060630 
# 
# 
# High freq. dielectric constant tensor:
#      x y z
#    x 1.803190 0.000000 0.022770 
#    y 0.000000 1.780580 0.000000 
#    z 0.022770 0.000000 1.787950 
# 
# From -- ./inp_files/256004.got.cif
#   From: 2010.06.25/outbox.cif.g09.slc.cpg/sg15_129_cif.got.tgz:256004.got - 2010.06.28 07:06:18.
