data_PCOD8135218
_publ_section_title
;
Structure prediction by ZEFSAII (Michael W. Deem and Ramdas Pophale) SiO2 
 PCOD8135218
Probable space group: C 2/C
;
_chemical_formula_sum "Si O2"
_cell_formula_units_Z 24
_cell_length_a 13.006660
_cell_length_b 6.712680
_cell_length_c 17.214982
_cell_angle_alpha 90.000000
_cell_angle_beta 147.667675
_cell_angle_gamma 90.000000
_cell_volume 803.865460
_symmetry_space_group_name_H-M "C 2/C"
_symmetry_group_IT_number 15
_symmetry_cell_setting 'monoclinic'
loop_
_space_group_symop_operation_xyz
x,y,z
-x,y,1/2-z
-x,-y,-z
x,-y,1/2+z
1/2+x,1/2+y,z
1/2-x,1/2+y,1/2-z
1/2-x,1/2-y,-z
1/2+x,1/2-y,1/2+z
loop_
_atom_site_type_symbol
_atom_site_label
_atom_site_fract_x
_atom_site_fract_y
_atom_site_fract_z
Si Si1 0.860870 0.045350 0.596359
Si Si2 0.026318 0.650510 0.633182
Si Si3 0.686587 0.626977 0.104731
O O1 0.991865 0.865513 0.648946
O O2 0.675078 0.949150 0.519089
O O3 0.000000 0.156533 0.750000
O O4 0.808042 0.185944 0.484886
O O5 0.129397 0.506777 0.760003
O O6 0.165069 0.677975 0.645827
O O7 0.500000 0.500000 0.000000
#
# Coordination Sequence:
#
# PCOD8135218 Si02
#       3
#     8   8   8
#     4  10  19  37  65  93 127 171 212 264 329 386
#     4  10  20  38  66  94 127 170 217 266 322 387
#     4  10  21  38  64  97 127 169 220 264 323 390
#
# _framework density 29.855744999999999
#
# number of rings (size 3 to 8) (size 9 to 14) (size 15 to 20)
#    0.000    2.000    0.000    7.000    0.000    0.000 
#    0.000   30.000    0.000   64.000    0.000    4.667 
#    0.000    0.000    0.000    0.000    0.000    0.000 
#
# Total GULP energy -148852.353678 kJ/mol
# GULP energy per Si atom -12404.362806 kJ/mol
# Density = 2.978779 g / cm^3
# Si number density = 29.855745 Si / 1000 Ang^3
#
#
#
# Elastic Constant Matrix: (Units=GPa)
#
#
# Indices 1 2 3 4 5 6 
#
# 1 179.7300 82.6459 78.9561 0.0002 -50.3823 0.0001
# 2 82.6459 124.4806 71.4989 -0.0002 -27.7431 -0.0001
# 3 78.9561 71.4989 246.5847 -0.0003 -26.4524 -0.0001
# 4 0.0002 -0.0002 -0.0003 45.5364 -0.0001 -18.8098
# 5 -50.3823 -27.7431 -26.4524 -0.0001 50.3662 0.0000
# 6 0.0001 -0.0001 -0.0001 -18.8098 0.0000 38.7737
#
#
#
# Elastic Compliance Matrix: (Units=1/GPa)
#
#
# Indices 1 2 3 4 5 6 
#
# 1 0.010108 -0.004462 -0.001189 0.000000 0.007030 0.000000
# 2 -0.004462 0.012466 -0.002043 0.000000 0.001330 0.000000
# 3 -0.001189 -0.002043 0.005066 0.000000 0.000346 0.000000
# 4 0.000000 0.000000 0.000000 0.027464 0.000000 0.013323
# 5 0.007030 0.001330 0.000346 0.000000 0.027801 0.000000
# 6 0.000000 0.000000 0.000000 0.013323 0.000000 0.032254
#
#
# Mechanical properties :
#
#
# Convention : Reuss Voigt Hill
#
# Bulk Modulus (GPa) = 81.61833 112.99966 97.30900
# Shear Modulus (GPa) = 37.13894 48.11490 42.62692
#
# Velocity S-wave (km/s) = 3.53079 4.01880 3.78267
# Velocity P-wave (km/s) = 6.63467 7.71136 7.19319
#
# Compressibility (1/GPa) = 0.01225215
#
# Stress axis : x y z
#
# Youngs Moduli (GPa) = 98.92823 80.22070 197.40965
#
# Poissons Ratio (x) = 0.35792 0.23470
# Poissons Ratio (y) = 0.44138 0.40334
# Poissons Ratio (z) = 0.11762 0.16390
#
# Static dielectric constant tensor:
#      x y z
#    x -2.933380 0.000010 -1.430460 
#    y 0.000010 5.484780 0.000000 
#    z -1.430460 0.000000 5.838130 
# 
# 
# High freq. dielectric constant tensor:
#      x y z
#    x 2.257180 0.000000 0.006620 
#    y 0.000000 2.246640 0.000000 
#    z 0.006620 0.000000 2.229930 
# 
# From -- ./inp_files/53527.got.cif
#   From: 2010.06.25/outbox.cif.g09.slc.cpg/sg15_27_cif.got.tgz:53527.got - 2010.06.28 07:06:18.
