data_PCOD8135808
_publ_section_title
;
Structure prediction by ZEFSAII (Michael W. Deem and Ramdas Pophale) SiO2 
 PCOD8135808
Probable space group: C 2/C
;
_chemical_formula_sum "Si O2"
_cell_formula_units_Z 40
_cell_length_a 9.119078
_cell_length_b 20.557038
_cell_length_c 16.415829
_cell_angle_alpha 90.000000
_cell_angle_beta 139.402519
_cell_angle_gamma 90.000000
_cell_volume 2002.545300
_symmetry_space_group_name_H-M "C 2/C"
_symmetry_group_IT_number 15
_symmetry_cell_setting 'monoclinic'
loop_
_space_group_symop_operation_xyz
x,y,z
-x,y,1/2-z
-x,-y,-z
x,-y,1/2+z
1/2+x,1/2+y,z
1/2-x,1/2+y,1/2-z
1/2-x,1/2-y,-z
1/2+x,1/2-y,1/2+z
loop_
_atom_site_type_symbol
_atom_site_label
_atom_site_fract_x
_atom_site_fract_y
_atom_site_fract_z
Si Si1 0.801074 0.411347 0.910065
Si Si2 0.297581 0.559331 0.608496
Si Si3 0.339393 0.350533 0.984650
Si Si4 0.907455 0.852345 0.829239
Si Si5 0.942654 0.251136 0.814388
O O1 0.712446 0.482004 0.897813
O O2 0.664890 0.356909 0.904913
O O3 0.748130 0.399860 0.792039
O O4 0.065609 0.407224 0.042266
O O5 0.500000 0.584595 0.750000
O O6 0.339621 0.582683 0.534554
O O7 0.523511 0.300875 0.099995
O O8 0.401653 0.373749 0.920609
O O9 0.099117 0.315009 0.889517
O O10 0.813313 0.778010 0.785872
O O11 0.000000 0.219540 0.750000
#
# Coordination Sequence:
#
# PCOD8135808 Si02
#       5
#     8   8   8   8   8
#     4  10  22  39  58  89 121 163 191 246 318 346
#     4  11  21  38  62  85 122 159 205 245 289 365
#     4  10  20  33  64  90 112 161 206 246 288 362
#     4  10  19  40  62  86 126 153 200 247 310 360
#     4   9  18  35  60  90 119 155 203 248 301 358
#
# _framework density 19.974578999999999
#
# number of rings (size 3 to 8) (size 9 to 14) (size 15 to 20)
#    0.000    2.000    4.000    0.600    0.000    0.800 
#    0.000    5.000    0.000    0.000    0.000    0.000 
#    0.000    0.000    0.000    0.000    0.000    0.000 
#
# Total GULP energy -247885.830750 kJ/mol
# GULP energy per Si atom -12394.291538 kJ/mol
# Density = 1.992912 g / cm^3
# Si number density = 19.974579 Si / 1000 Ang^3
#
#
#
# Elastic Constant Matrix: (Units=GPa)
#
#
# Indices 1 2 3 4 5 6 
#
# 1 131.3001 56.5113 79.2701 -0.0003 -4.2360 0.0000
# 2 56.5113 68.1627 38.6126 0.0001 -15.4393 0.0002
# 3 79.2701 38.6126 127.1553 -0.0008 -8.7796 -0.0005
# 4 -0.0003 0.0001 -0.0008 33.8247 -0.0004 -4.0784
# 5 -4.2360 -15.4393 -8.7796 -0.0004 49.3181 -0.0002
# 6 0.0000 0.0002 -0.0005 -4.0784 -0.0002 26.1173
#
#
#
# Elastic Compliance Matrix: (Units=1/GPa)
#
#
# Indices 1 2 3 4 5 6 
#
# 1 0.016226 -0.010014 -0.007284 0.000000 -0.003038 0.000000
# 2 -0.010014 0.025017 -0.000883 0.000000 0.006814 0.000000
# 3 -0.007284 -0.000883 0.012768 0.000000 0.001371 0.000000
# 4 0.000000 0.000000 0.000000 0.030132 0.000000 0.004705
# 5 -0.003038 0.006814 0.001371 0.000000 0.022393 0.000000
# 6 0.000000 0.000000 0.000000 0.004705 0.000000 0.039024
#
#
# Mechanical properties :
#
#
# Convention : Reuss Voigt Hill
#
# Bulk Modulus (GPa) = 56.66416 75.04513 65.85464
# Shear Modulus (GPa) = 26.62331 32.00030 29.31181
#
# Velocity S-wave (km/s) = 3.65480 4.00691 3.83489
# Velocity P-wave (km/s) = 6.79998 7.68498 7.25599
#
# Compressibility (1/GPa) = 0.01764784
#
# Stress axis : x y z
#
# Youngs Moduli (GPa) = 61.62974 39.97282 78.31839
#
# Poissons Ratio (x) = 0.40029 0.57049
# Poissons Ratio (y) = 0.61717 0.06918
# Poissons Ratio (z) = 0.44893 0.03531
#
# Static dielectric constant tensor:
#      x y z
#    x 3.563170 0.000000 0.052300 
#    y 0.000000 3.368270 0.000000 
#    z 0.052300 0.000000 3.902720 
# 
# 
# High freq. dielectric constant tensor:
#      x y z
#    x 1.763160 0.000000 -0.000270 
#    y 0.000000 1.761390 0.000000 
#    z -0.000270 0.000000 1.787660 
# 
# From -- ./inp_files/77619.got.cif
#   From: 2010.06.25/outbox.cif.g09.slc.cpg/sg15_39_cif.got.tgz:77619.got - 2010.06.28 07:06:18.
