data_PCOD8135667
_publ_section_title
;
Structure prediction by ZEFSAII (Michael W. Deem and Ramdas Pophale) SiO2 
 PCOD8135667
Probable space group: C 2/C
;
_chemical_formula_sum "Si O2"
_cell_formula_units_Z 44
_cell_length_a 8.397263
_cell_length_b 11.717517
_cell_length_c 23.696983
_cell_angle_alpha 90.000000
_cell_angle_beta 102.338771
_cell_angle_gamma 90.000000
_cell_volume 2277.807646
_symmetry_space_group_name_H-M "C 2/C"
_symmetry_group_IT_number 15
_symmetry_cell_setting 'monoclinic'
loop_
_space_group_symop_operation_xyz
x,y,z
-x,y,1/2-z
-x,-y,-z
x,-y,1/2+z
1/2+x,1/2+y,z
1/2-x,1/2+y,1/2-z
1/2-x,1/2-y,-z
1/2+x,1/2-y,1/2+z
loop_
_atom_site_type_symbol
_atom_site_label
_atom_site_fract_x
_atom_site_fract_y
_atom_site_fract_z
Si Si1 0.662599 0.629720 0.435542
Si Si2 0.863746 0.217023 0.346699
Si Si3 0.500000 0.835710 0.250000
Si Si4 0.637974 0.348580 0.060356
Si Si5 0.780322 0.968659 0.326864
Si Si6 0.120194 0.901436 0.377408
O O1 0.489568 0.685100 0.405548
O O2 0.646807 0.593580 0.499734
O O3 0.808311 0.717569 0.438058
O O4 0.707631 0.520074 0.401097
O O5 0.746182 0.318501 0.357157
O O6 0.965430 0.255086 0.300120
O O7 0.757615 0.105342 0.323389
O O8 0.655882 0.915264 0.273020
O O9 0.753283 0.421926 0.111803
O O10 0.453048 0.346970 0.070401
O O11 0.966556 0.931760 0.324396
#
# Coordination Sequence:
#
# PCOD8135667 Si02
#       6
#     8   8   4   8   8   8
#     4  10  19  39  63  86 125 155 185 239 293 356
#     4  11  23  39  63  86 115 157 195 243 296 342
#     4  12  24  42  58  82 114 158 202 240 296 338
#     4   9  19  40  59  89 124 153 188 239 293 348
#     4   9  23  40  57  85 117 149 196 244 284 351
#     4   9  21  37  58  91 114 150 193 234 294 346
#
# _framework density 19.31682
#
# number of rings (size 3 to 8) (size 9 to 14) (size 15 to 20)
#    1.091    1.091    1.818    0.545    0.000    7.273 
#    0.000    1.818    0.000    0.000    0.000    0.000 
#    0.000    0.000    0.000    0.000    0.000    0.000 
#
# Total GULP energy -272668.891771 kJ/mol
# GULP energy per Si atom -12394.040535 kJ/mol
# Density = 1.927285 g / cm^3
# Si number density = 19.316820 Si / 1000 Ang^3
#
#
#
# Elastic Constant Matrix: (Units=GPa)
#
#
# Indices 1 2 3 4 5 6 
#
# 1 47.5103 40.8252 15.1053 0.0000 -6.1489 0.0000
# 2 40.8252 117.3665 28.9477 0.0000 -6.8103 0.0000
# 3 15.1053 28.9477 59.0595 0.0000 9.9043 0.0000
# 4 0.0000 0.0000 0.0000 14.6196 0.0000 -3.0528
# 5 -6.1489 -6.8103 9.9043 0.0000 30.1100 0.0000
# 6 0.0000 0.0000 0.0000 -3.0528 0.0000 36.6365
#
#
#
# Elastic Compliance Matrix: (Units=1/GPa)
#
#
# Indices 1 2 3 4 5 6 
#
# 1 0.031314 -0.009503 -0.004300 0.000000 0.005660 0.000000
# 2 -0.009503 0.013047 -0.004375 0.000000 0.002449 0.000000
# 3 -0.004300 -0.004375 0.021686 0.000000 -0.009001 0.000000
# 4 0.000000 0.000000 0.000000 0.069612 0.000000 0.005801
# 5 0.005660 0.002449 -0.009001 0.000000 0.037882 0.000000
# 6 0.000000 0.000000 0.000000 0.005801 0.000000 0.027779
#
#
# Mechanical properties :
#
#
# Convention : Reuss Voigt Hill
#
# Bulk Modulus (GPa) = 33.68173 43.74365 38.71269
# Shear Modulus (GPa) = 20.19599 25.54376 22.86988
#
# Velocity S-wave (km/s) = 3.23695 3.64037 3.44457
# Velocity P-wave (km/s) = 5.60756 6.35329 5.99204
#
# Compressibility (1/GPa) = 0.02968969
#
# Stress axis : x y z
#
# Youngs Moduli (GPa) = 31.93476 76.64446 46.11305
#
# Poissons Ratio (x) = 0.72838 0.19829
# Poissons Ratio (y) = 0.30349 0.20175
# Poissons Ratio (z) = 0.13732 0.33534
#
# Static dielectric constant tensor:
#      x y z
#    x 3.258480 0.000000 0.062920 
#    y 0.000000 3.558000 0.000000 
#    z 0.062920 0.000000 3.469190 
# 
# 
# High freq. dielectric constant tensor:
#      x y z
#    x 1.728840 0.000000 0.004290 
#    y 0.000000 1.759710 0.000000 
#    z 0.004290 0.000000 1.748400 
# 
# From -- ./inp_files/230200.got.cif
#   From: 2010.06.25/outbox.cif.g09.slc.cpg/sg15_116_cif.got.tgz:230200.got - 2010.06.28 07:06:18.
