data_PCOD8135349
_publ_section_title
;
Structure prediction by ZEFSAII (Michael W. Deem and Ramdas Pophale) SiO2 
 PCOD8135349
Probable space group: C 2/C
;
_chemical_formula_sum "Si O2"
_cell_formula_units_Z 56
_cell_length_a 14.692887
_cell_length_b 11.815253
_cell_length_c 20.026781
_cell_angle_alpha 90.000000
_cell_angle_beta 124.253569
_cell_angle_gamma 90.000000
_cell_volume 2873.643620
_symmetry_space_group_name_H-M "C 2/C"
_symmetry_group_IT_number 15
_symmetry_cell_setting 'monoclinic'
loop_
_space_group_symop_operation_xyz
x,y,z
-x,y,1/2-z
-x,-y,-z
x,-y,1/2+z
1/2+x,1/2+y,z
1/2-x,1/2+y,1/2-z
1/2-x,1/2-y,-z
1/2+x,1/2-y,1/2+z
loop_
_atom_site_type_symbol
_atom_site_label
_atom_site_fract_x
_atom_site_fract_y
_atom_site_fract_z
Si Si1 0.164643 0.557866 0.551995
Si Si2 0.715240 0.204056 0.692824
Si Si3 0.899700 0.460326 0.256863
Si Si4 0.316512 0.440985 0.874460
Si Si5 0.573665 0.352522 0.144761
Si Si6 0.432061 0.109947 0.394138
Si Si7 0.672094 0.360170 0.473098
O O1 0.187448 0.667593 0.606389
O O2 0.159202 0.448704 0.596964
O O3 0.263167 0.540740 0.539582
O O4 0.053151 0.578580 0.466854
O O5 0.697654 0.339581 0.685680
O O6 0.840566 0.161863 0.758621
O O7 0.630761 0.149370 0.711196
O O8 0.798693 0.492981 0.167155
O O9 0.924667 0.567460 0.314750
O O10 0.000000 0.429139 0.250000
O O11 0.407923 0.529565 0.886225
O O12 0.352299 0.395819 0.961291
O O13 0.594687 0.242059 0.107572
O O14 0.445138 0.343575 0.113023
O O15 0.750000 0.250000 0.500000
#
# Coordination Sequence:
#
# PCOD8135349 Si02
#       7
#     8   8   8   8   8   8   8
#     4  10  21  36  59  88 117 154 191 247 281 345
#     4  10  21  39  57  84 121 156 191 235 306 346
#     4  10  21  35  62  87 110 153 204 247 280 349
#     4  11  22  39  60  83 125 154 192 243 305 352
#     4  11  23  38  60  87 117 160 191 242 302 350
#     4  10  19  38  60  84 119 154 195 235 300 340
#     4  12  22  37  59  93 116 149 206 247 284 349
#
# _framework density 19.487455000000001
#
# number of rings (size 3 to 8) (size 9 to 14) (size 15 to 20)
#    0.000    1.429    4.286    1.286    0.000    0.571 
#    0.000    3.571    0.000    0.000    0.000    0.000 
#    0.000    0.000    0.000    0.000    0.000    0.000 
#
# Total GULP energy -347087.013310 kJ/mol
# GULP energy per Si atom -12395.964761 kJ/mol
# Density = 1.944310 g / cm^3
# Si number density = 19.487455 Si / 1000 Ang^3
#
#
#
# Elastic Constant Matrix: (Units=GPa)
#
#
# Indices 1 2 3 4 5 6 
#
# 1 118.0580 48.7178 38.7768 0.0000 9.5538 0.0000
# 2 48.7178 104.9871 11.6940 0.0000 -7.3030 0.0000
# 3 38.7768 11.6940 59.2765 0.0000 -0.3164 0.0000
# 4 0.0000 0.0000 0.0000 23.5820 0.0000 3.4004
# 5 9.5538 -7.3030 -0.3164 0.0000 27.9553 0.0000
# 6 0.0000 0.0000 0.0000 3.4004 0.0000 23.3587
#
#
#
# Elastic Compliance Matrix: (Units=1/GPa)
#
#
# Indices 1 2 3 4 5 6 
#
# 1 0.014199 -0.006141 -0.008112 0.000000 -0.006548 0.000000
# 2 -0.006141 0.012576 0.001565 0.000000 0.005402 0.000000
# 3 -0.008112 0.001565 0.021886 0.000000 0.003429 0.000000
# 4 0.000000 0.000000 0.000000 0.043314 0.000000 -0.006305
# 5 -0.006548 0.005402 0.003429 0.000000 0.039459 0.000000
# 6 0.000000 0.000000 0.000000 -0.006305 0.000000 0.043728
#
#
# Mechanical properties :
#
#
# Convention : Reuss Voigt Hill
#
# Bulk Modulus (GPa) = 42.94512 53.41099 48.17806
# Shear Modulus (GPa) = 24.00380 27.18807 25.59593
#
# Velocity S-wave (km/s) = 3.51345 3.73923 3.62810
# Velocity P-wave (km/s) = 6.20840 6.79042 6.50592
#
# Compressibility (1/GPa) = 0.02328553
#
# Stress axis : x y z
#
# Youngs Moduli (GPa) = 70.42853 79.51692 45.69082
#
# Poissons Ratio (x) = 0.48829 0.37064
# Poissons Ratio (y) = 0.43248 -0.07150
# Poissons Ratio (z) = 0.57131 -0.12444
#
# Static dielectric constant tensor:
#      x y z
#    x 3.551230 0.000000 0.095340 
#    y 0.000000 3.725130 0.000000 
#    z 0.095340 0.000000 3.689680 
# 
# 
# High freq. dielectric constant tensor:
#      x y z
#    x 1.743490 0.000000 0.016480 
#    y 0.000000 1.754650 0.000000 
#    z 0.016480 0.000000 1.770240 
# 
# From -- ./inp_files/204531.got.cif
#   From: 2010.06.25/outbox.cif.g09.slc.cpg/sg15_103_cif.got.tgz:204531.got - 2010.06.28 07:06:18.
