data_PCOD8135534
_publ_section_title
;
Structure prediction by ZEFSAII (Michael W. Deem and Ramdas Pophale) SiO2 
 PCOD8135534
Probable space group: C 2/C
;
_chemical_formula_sum "Si O2"
_cell_formula_units_Z 56
_cell_length_a 21.476286
_cell_length_b 7.895041
_cell_length_c 19.342756
_cell_angle_alpha 90.000000
_cell_angle_beta 123.445616
_cell_angle_gamma 90.000000
_cell_volume 2736.598443
_symmetry_space_group_name_H-M "C 2/C"
_symmetry_group_IT_number 15
_symmetry_cell_setting 'monoclinic'
loop_
_space_group_symop_operation_xyz
x,y,z
-x,y,1/2-z
-x,-y,-z
x,-y,1/2+z
1/2+x,1/2+y,z
1/2-x,1/2+y,1/2-z
1/2-x,1/2-y,-z
1/2+x,1/2-y,1/2+z
loop_
_atom_site_type_symbol
_atom_site_label
_atom_site_fract_x
_atom_site_fract_y
_atom_site_fract_z
Si Si1 0.411552 0.849728 0.051845
Si Si2 0.336301 0.847515 0.426698
Si Si3 0.390676 0.464403 0.045212
Si Si4 0.584531 0.993816 0.804562
Si Si5 0.460833 0.504045 0.295614
Si Si6 0.167290 0.169171 0.856691
Si Si7 0.421394 0.840786 0.340837
O O1 0.387233 0.658593 0.015428
O O2 0.409960 0.856990 0.134864
O O3 0.496438 0.891466 0.081038
O O4 0.359174 0.989380 0.985399
O O5 0.368951 0.669007 0.473098
O O6 0.247425 0.838252 0.371196
O O7 0.361975 0.873520 0.364176
O O8 0.474409 0.413096 0.120247
O O9 0.334584 0.448882 0.076313
O O10 0.500000 0.919951 0.750000
O O11 0.607496 0.054398 0.742654
O O12 0.644905 0.857094 0.867446
O O13 0.500000 0.578972 0.250000
O O14 0.394886 0.374799 0.238608
O O15 0.423529 0.647194 0.318875
#
# Coordination Sequence:
#
# PCOD8135534 Si02
#       7
#     8   8   8   8   8   8   8
#     4  10  22  41  67  89 116 163 212 252 304 362
#     4  12  25  40  58  95 135 155 200 259 317 366
#     4  10  21  41  65  90 116 164 210 252 305 361
#     4  10  19  38  66  89 116 160 214 256 294 369
#     4   9  19  39  65  88 113 162 219 254 293 367
#     4  11  22  38  63  93 123 161 205 253 310 364
#     4  10  22  40  62  91 122 159 208 256 305 364
#
# _framework density 20.463359000000001
#
# number of rings (size 3 to 8) (size 9 to 14) (size 15 to 20)
#    0.000    1.714    1.429    5.143    2.000    4.000 
#    5.143    0.000    0.000    0.000    0.000    0.000 
#    0.000    0.000    0.000    0.000    0.000    0.000 
#
# Total GULP energy -347155.936909 kJ/mol
# GULP energy per Si atom -12398.426318 kJ/mol
# Density = 2.041678 g / cm^3
# Si number density = 20.463359 Si / 1000 Ang^3
#
#
#
# Elastic Constant Matrix: (Units=GPa)
#
#
# Indices 1 2 3 4 5 6 
#
# 1 130.1885 37.5160 54.0383 0.0000 -10.2283 0.0000
# 2 37.5160 98.0739 41.3179 0.0000 4.1669 0.0000
# 3 54.0383 41.3179 73.7934 0.0000 -6.3791 0.0000
# 4 0.0000 0.0000 0.0000 17.2388 0.0000 -5.2847
# 5 -10.2283 4.1669 -6.3791 0.0000 28.2976 0.0000
# 6 0.0000 0.0000 0.0000 -5.2847 0.0000 18.3164
#
#
#
# Elastic Compliance Matrix: (Units=1/GPa)
#
#
# Indices 1 2 3 4 5 6 
#
# 1 0.011307 -0.001369 -0.007285 0.000000 0.002646 0.000000
# 2 -0.001369 0.013905 -0.007143 0.000000 -0.004152 0.000000
# 3 -0.007285 -0.007143 0.023201 0.000000 0.003649 0.000000
# 4 0.000000 0.000000 0.000000 0.063637 0.000000 0.018361
# 5 0.002646 -0.004152 0.003649 0.000000 0.037729 0.000000
# 6 0.000000 0.000000 0.000000 0.018361 0.000000 0.059893
#
#
# Mechanical properties :
#
#
# Convention : Reuss Voigt Hill
#
# Bulk Modulus (GPa) = 59.44989 63.08889 61.26939
# Shear Modulus (GPa) = 20.25328 24.04948 22.15138
#
# Velocity S-wave (km/s) = 3.14942 3.43191 3.29369
# Velocity P-wave (km/s) = 6.50692 6.82650 6.66862
#
# Compressibility (1/GPa) = 0.01682089
#
# Stress axis : x y z
#
# Youngs Moduli (GPa) = 88.43759 71.91411 43.10173
#
# Poissons Ratio (x) = 0.09842 0.31401
# Poissons Ratio (y) = 0.12104 0.30786
# Poissons Ratio (z) = 0.64429 0.51365
#
# Static dielectric constant tensor:
#      x y z
#    x 3.518330 0.000000 0.044190 
#    y 0.000000 3.641480 0.000000 
#    z 0.044190 0.000000 3.603540 
# 
# 
# High freq. dielectric constant tensor:
#      x y z
#    x 1.783940 0.000000 0.001530 
#    y 0.000000 1.801620 0.000000 
#    z 0.001530 0.000000 1.789720 
# 
# From -- ./inp_files/214007.got.cif
#   From: 2010.06.25/outbox.cif.g09.slc.cpg/sg15_108_cif.got.tgz:214007.got - 2010.06.28 07:06:18.
