data_PCOD8135637
_publ_section_title
;
Structure prediction by ZEFSAII (Michael W. Deem and Ramdas Pophale) SiO2 
 PCOD8135637
Probable space group: C 2/C
;
_chemical_formula_sum "Si O2"
_cell_formula_units_Z 56
_cell_length_a 23.554357
_cell_length_b 8.901675
_cell_length_c 15.490878
_cell_angle_alpha 90.000000
_cell_angle_beta 57.888346
_cell_angle_gamma 90.000000
_cell_volume 2751.119884
_symmetry_space_group_name_H-M "C 2/C"
_symmetry_group_IT_number 15
_symmetry_cell_setting 'monoclinic'
loop_
_space_group_symop_operation_xyz
x,y,z
-x,y,1/2-z
-x,-y,-z
x,-y,1/2+z
1/2+x,1/2+y,z
1/2-x,1/2+y,1/2-z
1/2-x,1/2-y,-z
1/2+x,1/2-y,1/2+z
loop_
_atom_site_type_symbol
_atom_site_label
_atom_site_fract_x
_atom_site_fract_y
_atom_site_fract_z
Si Si1 0.830737 0.159432 0.462048
Si Si2 0.696699 0.132663 0.829423
Si Si3 0.517657 0.654054 0.140986
Si Si4 0.762693 0.840543 0.852720
Si Si5 0.045195 0.643748 0.955633
Si Si6 0.192437 0.834294 0.994663
Si Si7 0.459090 0.684766 0.862932
O O1 0.904366 0.179137 0.439942
O O2 0.830376 0.148075 0.356579
O O3 0.793464 0.305155 0.529785
O O4 0.792551 0.010596 0.527796
O O5 0.731174 0.203417 0.717887
O O6 0.620112 0.083572 0.874478
O O7 0.691624 0.267121 0.900820
O O8 0.743588 0.996075 0.822036
O O9 0.500000 0.718185 0.250000
O O10 0.475395 0.740739 0.102910
O O11 0.505144 0.475276 0.146990
O O12 0.035865 0.719906 0.055281
O O13 0.000000 0.500000 0.000000
O O14 0.250000 0.750000 0.000000
O O15 0.119495 0.824143 0.100321
O O16 0.500000 0.760157 0.750000
#
# Coordination Sequence:
#
# PCOD8135637 Si02
#       7
#     8   8   8   8   8   8   8
#     4  10  21  38  60  87 120 163 199 256 300 370
#     4  11  23  40  61  89 121 161 202 257 306 373
#     4  10  20  39  63  87 119 160 209 246 305 364
#     4  11  22  39  59  88 123 154 211 245 315 364
#     4  11  23  40  60  89 128 159 201 255 314 366
#     4  10  19  39  61  87 121 158 202 253 308 360
#     4   9  21  40  61  89 119 161 209 249 308 372
#
# _framework density 20.355346000000001
#
# number of rings (size 3 to 8) (size 9 to 14) (size 15 to 20)
#    0.000    1.714    1.429    3.000    0.000    0.571 
#    7.714    0.000    0.000    0.000    0.000    0.000 
#    0.000    0.000    0.000    0.000    0.000    0.000 
#
# Total GULP energy -347081.955090 kJ/mol
# GULP energy per Si atom -12395.784110 kJ/mol
# Density = 2.030902 g / cm^3
# Si number density = 20.355346 Si / 1000 Ang^3
#
#
#
# Elastic Constant Matrix: (Units=GPa)
#
#
# Indices 1 2 3 4 5 6 
#
# 1 84.0825 19.9871 26.1981 0.0000 12.0162 0.0000
# 2 19.9871 81.6506 32.8004 0.0000 10.6036 0.0001
# 3 26.1981 32.8004 103.6831 0.0000 12.0297 0.0000
# 4 0.0000 0.0000 0.0000 33.3746 0.0000 3.5778
# 5 12.0162 10.6036 12.0297 0.0000 21.0920 0.0000
# 6 0.0000 0.0001 0.0000 3.5778 0.0000 32.6328
#
#
#
# Elastic Compliance Matrix: (Units=1/GPa)
#
#
# Indices 1 2 3 4 5 6 
#
# 1 0.013832 -0.001726 -0.002287 0.000000 -0.005708 0.000000
# 2 -0.001726 0.014723 -0.003723 0.000000 -0.004295 0.000000
# 3 -0.002287 -0.003723 0.011814 0.000000 -0.003563 0.000000
# 4 0.000000 0.000000 0.000000 0.030319 0.000000 -0.003324
# 5 -0.005708 -0.004295 -0.003563 0.000000 0.054855 0.000000
# 6 0.000000 0.000000 0.000000 -0.003324 0.000000 0.031008
#
#
# Mechanical properties :
#
#
# Convention : Reuss Voigt Hill
#
# Bulk Modulus (GPa) = 40.16555 47.48750 43.82653
# Shear Modulus (GPa) = 27.72817 30.11526 28.92172
#
# Velocity S-wave (km/s) = 3.69481 3.85057 3.77349
# Velocity P-wave (km/s) = 6.16256 6.56880 6.36892
#
# Compressibility (1/GPa) = 0.02489695
#
# Stress axis : x y z
#
# Youngs Moduli (GPa) = 72.29845 67.91955 84.64635
#
# Poissons Ratio (x) = 0.11723 0.19355
# Poissons Ratio (y) = 0.12478 0.31517
# Poissons Ratio (z) = 0.16532 0.25289
#
# Static dielectric constant tensor:
#      x y z
#    x 4.012790 0.000000 -0.008150 
#    y 0.000000 3.756290 0.000000 
#    z -0.008150 0.000000 3.728460 
# 
# 
# High freq. dielectric constant tensor:
#      x y z
#    x 1.803040 0.000000 0.003650 
#    y 0.000000 1.793850 0.000000 
#    z 0.003650 0.000000 1.796450 
# 
# From -- ./inp_files/172271.got.cif
#   From: 2010.06.25/outbox.cif.g09.slc.cpg/sg15_87_cif.got.tgz:172271.got - 2010.06.28 07:06:18.
