data_PCOD8135340
_publ_section_title
;
Structure prediction by ZEFSAII (Michael W. Deem and Ramdas Pophale) SiO2 
 PCOD8135340
Probable space group: C 2/C
;
_chemical_formula_sum "Si O2"
_cell_formula_units_Z 56
_cell_length_a 16.259684
_cell_length_b 13.682618
_cell_length_c 27.788943
_cell_angle_alpha 90.000000
_cell_angle_beta 26.349829
_cell_angle_gamma 90.000000
_cell_volume 2744.038626
_symmetry_space_group_name_H-M "C 2/C"
_symmetry_group_IT_number 15
_symmetry_cell_setting 'monoclinic'
loop_
_space_group_symop_operation_xyz
x,y,z
-x,y,1/2-z
-x,-y,-z
x,-y,1/2+z
1/2+x,1/2+y,z
1/2-x,1/2+y,1/2-z
1/2-x,1/2-y,-z
1/2+x,1/2-y,1/2+z
loop_
_atom_site_type_symbol
_atom_site_label
_atom_site_fract_x
_atom_site_fract_y
_atom_site_fract_z
Si Si1 0.740075 0.718343 0.589301
Si Si2 0.397831 0.090565 0.757929
Si Si3 0.734416 0.547804 0.522154
Si Si4 0.451454 0.647058 0.611561
Si Si5 0.787366 0.284899 0.174735
Si Si6 0.134210 0.658098 0.544710
Si Si7 0.539914 0.118811 0.297658
O O1 0.673068 0.621442 0.596516
O O2 0.751685 0.684203 0.638335
O O3 0.587396 0.803429 0.664268
O O4 0.933845 0.757207 0.465112
O O5 0.500000 0.141286 0.750000
O O6 0.183044 0.120715 0.862665
O O7 0.510376 0.123609 0.653238
O O8 0.406206 0.974346 0.762602
O O9 0.595566 0.559527 0.549023
O O10 0.737896 0.434683 0.538056
O O11 0.939929 0.580915 0.398293
O O12 0.338809 0.659467 0.720209
O O13 0.735360 0.170410 0.208466
O O14 0.003547 0.306523 0.069838
O O15 0.250000 0.750000 0.500000
#
# Coordination Sequence:
#
# PCOD8135340 Si02
#       7
#     8   8   8   8   8   8   8
#     4  11  20  36  68  87 122 152 204 251 293 358
#     4  10  22  38  61  85 121 156 203 243 304 365
#     4  10  20  40  61  85 124 155 201 247 303 347
#     4  10  21  38  60  92 118 162 193 252 303 344
#     4  11  21  36  62  89 120 157 203 240 305 351
#     4  10  25  41  56  86 124 160 195 254 297 364
#     4  10  19  38  59  94 118 148 198 259 290 353
#
# _framework density 20.407876000000002
#
# number of rings (size 3 to 8) (size 9 to 14) (size 15 to 20)
#    0.000    1.714    2.857    2.143    4.000    0.571 
#    0.000    2.857    3.143    0.000    0.000    0.000 
#    0.000    0.000    0.000    0.000    0.000    0.000 
#
# Total GULP energy -346929.578683 kJ/mol
# GULP energy per Si atom -12390.342096 kJ/mol
# Density = 2.036143 g / cm^3
# Si number density = 20.407876 Si / 1000 Ang^3
#
#
#
# Elastic Constant Matrix: (Units=GPa)
#
#
# Indices 1 2 3 4 5 6 
#
# 1 134.3423 57.3301 33.6215 -0.0040 -19.0125 0.0009
# 2 57.3301 123.2504 33.4947 -0.0032 -25.8333 0.0005
# 3 33.6215 33.4947 57.4936 0.0086 -13.8426 0.0021
# 4 -0.0040 -0.0032 0.0086 21.2076 0.0005 -9.2997
# 5 -19.0125 -25.8333 -13.8426 0.0005 32.3535 -0.0010
# 6 0.0009 0.0005 0.0021 -9.2997 -0.0010 20.7626
#
#
#
# Elastic Compliance Matrix: (Units=1/GPa)
#
#
# Indices 1 2 3 4 5 6 
#
# 1 0.009981 -0.003339 -0.003480 0.000003 0.001711 0.000002
# 2 -0.003339 0.011886 -0.003522 0.000003 0.006022 0.000002
# 3 -0.003480 -0.003522 0.022643 -0.000014 0.004831 -0.000008
# 4 0.000003 0.000003 -0.000014 0.058678 -0.000001 0.026282
# 5 0.001711 0.006022 0.004831 -0.000001 0.038789 0.000001
# 6 0.000002 0.000002 -0.000008 0.026282 0.000001 0.059936
#
#
# Mechanical properties :
#
#
# Convention : Reuss Voigt Hill
#
# Bulk Modulus (GPa) = 41.96615 62.66433 52.31524
# Shear Modulus (GPa) = 21.68841 27.57408 24.63125
#
# Velocity S-wave (km/s) = 3.26352 3.67979 3.47788
# Velocity P-wave (km/s) = 5.89992 6.98763 6.46669
#
# Compressibility (1/GPa) = 0.02382873
#
# Stress axis : x y z
#
# Youngs Moduli (GPa) = 100.18560 84.13370 44.16288
#
# Poissons Ratio (x) = 0.28088 0.15369
# Poissons Ratio (y) = 0.33447 0.15556
# Poissons Ratio (z) = 0.34866 0.29635
#
# Static dielectric constant tensor:
#      x y z
#    x 2.677690 -0.004890 0.929170 
#    y -0.004890 4.137560 0.004970 
#    z 0.929170 0.004970 2.601520 
# 
# 
# High freq. dielectric constant tensor:
#      x y z
#    x 1.796020 0.000000 -0.006110 
#    y 0.000000 1.782030 0.000000 
#    z -0.006110 0.000000 1.791630 
# 
# From -- ./inp_files/296537.got.cif
#   From: 2010.06.25/outbox.cif.g09.slc.cpg/sg15_149_cif.got.tgz:296537.got - 2010.06.28 07:06:18.
