data_PCOD8135997
_publ_section_title
;
Structure prediction by ZEFSAII (Michael W. Deem and Ramdas Pophale) SiO2 
 PCOD8135997
Probable space group: C 2/C
;
_chemical_formula_sum "Si O2"
_cell_formula_units_Z 60
_cell_length_a 12.728545
_cell_length_b 13.295859
_cell_length_c 16.711965
_cell_angle_alpha 90.000000
_cell_angle_beta 106.662372
_cell_angle_gamma 90.000000
_cell_volume 2709.525107
_symmetry_space_group_name_H-M "C 2/C"
_symmetry_group_IT_number 15
_symmetry_cell_setting 'monoclinic'
loop_
_space_group_symop_operation_xyz
x,y,z
-x,y,1/2-z
-x,-y,-z
x,-y,1/2+z
1/2+x,1/2+y,z
1/2-x,1/2+y,1/2-z
1/2-x,1/2-y,-z
1/2+x,1/2-y,1/2+z
loop_
_atom_site_type_symbol
_atom_site_label
_atom_site_fract_x
_atom_site_fract_y
_atom_site_fract_z
Si Si1 0.851392 0.747953 0.926054
Si Si2 0.681651 0.427191 0.366973
Si Si3 0.156318 0.330257 0.702795
Si Si4 0.118189 0.737226 0.744969
Si Si5 0.220026 0.473295 0.281542
Si Si6 0.524155 0.094376 0.451279
Si Si7 0.000000 0.172577 0.750000
Si Si8 0.257445 0.454979 0.952270
O O1 0.748631 0.674148 0.897530
O O2 0.890562 0.774871 0.846877
O O3 0.820968 0.849598 0.964113
O O4 0.950873 0.694056 0.992805
O O5 0.710711 0.475275 0.286343
O O6 0.553979 0.396467 0.331139
O O7 0.705598 0.498391 0.450871
O O8 0.274554 0.292682 0.693944
O O9 0.165812 0.415783 0.773147
O O10 0.096415 0.235733 0.729728
O O11 0.087079 0.381603 0.618467
O O12 0.132415 0.616952 0.759121
O O13 0.000000 0.772376 0.750000
O O14 0.285690 0.471380 0.382298
O O15 0.626752 0.064464 0.418161
O O16 0.500000 0.000000 0.500000
#
# Coordination Sequence:
#
# PCOD8135997 Si02
#       8
#     8   8   8   8   8   8   4   8
#     4  10  19  42  61  95 135 172 226 278 354 407
#     4  10  21  39  63  99 139 168 220 298 340 408
#     4  12  22  41  68 102 132 181 233 283 349 415
#     4  11  25  43  64  95 145 186 223 285 357 418
#     4  11  23  42  66  99 136 179 241 275 348 422
#     4  11  23  36  69 107 135 171 235 299 338 401
#     4  12  20  40  70 106 124 172 234 306 332 404
#     4  11  21  39  68  96 133 183 222 281 356 407
#
# _framework density 22.144102
#
# number of rings (size 3 to 8) (size 9 to 14) (size 15 to 20)
#    0.000    1.067    4.000    6.400    4.667    0.000 
#    1.200    1.333    0.000    0.000    0.000    0.000 
#    0.000    0.000    0.000    0.000    0.000    0.000 
#
# Total GULP energy -371651.705800 kJ/mol
# GULP energy per Si atom -12388.390193 kJ/mol
# Density = 2.209370 g / cm^3
# Si number density = 22.144102 Si / 1000 Ang^3
#
#
#
# Elastic Constant Matrix: (Units=GPa)
#
#
# Indices 1 2 3 4 5 6 
#
# 1 121.2398 39.9498 60.9504 0.0000 11.7596 0.0000
# 2 39.9498 52.7265 27.3050 0.0000 -1.9714 0.0000
# 3 60.9504 27.3050 163.9567 0.0000 -13.3114 0.0000
# 4 0.0000 0.0000 0.0000 38.8944 0.0000 3.1812
# 5 11.7596 -1.9714 -13.3114 0.0000 35.5182 0.0000
# 6 0.0000 0.0000 0.0000 3.1812 0.0000 15.8947
#
#
#
# Elastic Compliance Matrix: (Units=1/GPa)
#
#
# Indices 1 2 3 4 5 6 
#
# 1 0.013852 -0.008534 -0.004269 0.000000 -0.006660 0.000000
# 2 -0.008534 0.026014 -0.000839 0.000000 0.003955 0.000000
# 3 -0.004269 -0.000839 0.008186 0.000000 0.004435 0.000000
# 4 0.000000 0.000000 0.000000 0.026139 0.000000 -0.005231
# 5 -0.006660 0.003955 0.004435 0.000000 0.032241 0.000000
# 6 0.000000 0.000000 0.000000 -0.005231 0.000000 0.063961
#
#
# Mechanical properties :
#
#
# Convention : Reuss Voigt Hill
#
# Bulk Modulus (GPa) = 48.14909 66.03704 57.09307
# Shear Modulus (GPa) = 24.43807 32.04266 28.24037
#
# Velocity S-wave (km/s) = 3.32564 3.80808 3.57501
# Velocity P-wave (km/s) = 6.04460 7.01581 6.54824
#
# Compressibility (1/GPa) = 0.02076883
#
# Stress axis : x y z
#
# Youngs Moduli (GPa) = 72.19064 38.44097 122.16115
#
# Poissons Ratio (x) = 0.32805 0.52151
# Poissons Ratio (y) = 0.61606 0.10247
# Poissons Ratio (z) = 0.30818 0.03224
#
# Static dielectric constant tensor:
#      x y z
#    x 2.957840 0.000000 1.753630 
#    y 0.000000 4.150280 0.000000 
#    z 1.753630 0.000000 2.204870 
# 
# 
# High freq. dielectric constant tensor:
#      x y z
#    x 1.851550 0.000000 -0.000150 
#    y 0.000000 1.852660 0.000000 
#    z -0.000150 0.000000 1.890250 
# 
# From -- ./inp_files/198373.got.cif
#   From: 2010.06.25/outbox.cif.g09.slc.cpg/sg15_100_cif.got.tgz:198373.got - 2010.06.28 07:06:18.
