data_PCOD8135811
_publ_section_title
;
Structure prediction by ZEFSAII (Michael W. Deem and Ramdas Pophale) SiO2 
 PCOD8135811
Probable space group: C 2/C
;
_chemical_formula_sum "Si O2"
_cell_formula_units_Z 56
_cell_length_a 20.716628
_cell_length_b 20.601537
_cell_length_c 8.905814
_cell_angle_alpha 90.000000
_cell_angle_beta 131.121457
_cell_angle_gamma 90.000000
_cell_volume 2863.321859
_symmetry_space_group_name_H-M "C 2/C"
_symmetry_group_IT_number 15
_symmetry_cell_setting 'monoclinic'
loop_
_space_group_symop_operation_xyz
x,y,z
-x,y,1/2-z
-x,-y,-z
x,-y,1/2+z
1/2+x,1/2+y,z
1/2-x,1/2+y,1/2-z
1/2-x,1/2-y,-z
1/2+x,1/2-y,1/2+z
loop_
_atom_site_type_symbol
_atom_site_label
_atom_site_fract_x
_atom_site_fract_y
_atom_site_fract_z
Si Si1 0.866362 0.372408 0.808128
Si Si2 0.476311 0.066760 0.037119
Si Si3 0.662306 0.238210 0.446205
Si Si4 0.400269 0.620842 0.586178
Si Si5 0.296499 0.867971 0.261449
Si Si6 0.733808 0.398160 0.857745
Si Si7 0.265373 0.449274 0.079423
O O1 0.884032 0.306683 0.744150
O O2 0.808999 0.367663 0.868912
O O3 0.821230 0.427227 0.635934
O O4 0.965068 0.389269 0.982781
O O5 0.500000 0.071480 0.250000
O O6 0.378594 0.086218 0.860671
O O7 0.500000 0.000000 0.000000
O O8 0.750000 0.250000 0.500000
O O9 0.610005 0.304503 0.381542
O O10 0.676281 0.201545 0.627221
O O11 0.500000 0.601682 0.750000
O O12 0.360040 0.614769 0.357240
O O13 0.349210 0.569458 0.611422
O O14 0.229184 0.907737 0.260194
O O15 0.244997 0.857878 0.027917
O O16 0.742792 0.474860 0.899034
#
# Coordination Sequence:
#
# PCOD8135811 Si02
#       7
#     8   8   8   8   8   8   8
#     4  10  22  37  61  91 125 174 201 249 304 380
#     4  12  23  36  57  97 135 170 205 249 307 370
#     4  11  20  44  65  86 118 168 217 236 304 385
#     4  11  25  42  68  89 118 169 206 262 310 369
#     4  11  23  35  64  91 124 171 204 260 304 367
#     4  11  22  40  62  94 123 154 213 264 319 366
#     4  10  19  40  62  89 121 165 204 248 326 380
#
# _framework density 19.557704999999999
#
# number of rings (size 3 to 8) (size 9 to 14) (size 15 to 20)
#    0.000    1.143    7.143    3.429    4.000    1.143 
#    0.000    0.714    0.000    0.000    0.000    0.000 
#    0.000    0.000    0.000    0.000    0.000    0.000 
#
# Total GULP energy -346876.057714 kJ/mol
# GULP energy per Si atom -12388.430633 kJ/mol
# Density = 1.951319 g / cm^3
# Si number density = 19.557705 Si / 1000 Ang^3
#
#
#
# Elastic Constant Matrix: (Units=GPa)
#
#
# Indices 1 2 3 4 5 6 
#
# 1 82.0582 2.1356 48.8573 0.0000 4.6697 0.0000
# 2 2.1356 70.4310 6.1376 0.0000 -2.8675 0.0000
# 3 48.8573 6.1376 88.2862 0.0000 -10.8506 0.0000
# 4 0.0000 0.0000 0.0000 18.3780 0.0000 -1.4809
# 5 4.6697 -2.8675 -10.8506 0.0000 36.0021 0.0000
# 6 0.0000 0.0000 0.0000 -1.4809 0.0000 30.8149
#
#
#
# Elastic Compliance Matrix: (Units=1/GPa)
#
#
# Indices 1 2 3 4 5 6 
#
# 1 0.019332 0.000169 -0.011440 0.000000 -0.005942 0.000000
# 2 0.000169 0.014313 -0.000988 0.000000 0.000820 0.000000
# 3 -0.011440 -0.000988 0.018588 0.000000 0.007007 0.000000
# 4 0.000000 0.000000 0.000000 0.054624 0.000000 0.002625
# 5 -0.005942 0.000820 0.007007 0.000000 0.030724 0.000000
# 6 0.000000 0.000000 0.000000 0.002625 0.000000 0.032578
#
#
# Mechanical properties :
#
#
# Convention : Reuss Voigt Hill
#
# Bulk Modulus (GPa) = 36.08266 39.44849 37.76558
# Shear Modulus (GPa) = 24.52014 29.28201 26.90107
#
# Velocity S-wave (km/s) = 3.54465 3.87358 3.71276
# Velocity P-wave (km/s) = 5.93651 6.34194 6.14257
#
# Compressibility (1/GPa) = 0.02771415
#
# Stress axis : x y z
#
# Youngs Moduli (GPa) = 51.72869 69.86835 53.79937
#
# Poissons Ratio (x) = -0.01180 0.61547
# Poissons Ratio (y) = -0.00873 0.05313
# Poissons Ratio (z) = 0.59178 0.06900
#
# Static dielectric constant tensor:
#      x y z
#    x 3.093830 0.000000 -0.608990 
#    y 0.000000 3.334710 0.000000 
#    z -0.608990 0.000000 3.356160 
# 
# 
# High freq. dielectric constant tensor:
#      x y z
#    x 1.764650 0.000000 -0.009160 
#    y 0.000000 1.762870 0.000000 
#    z -0.009160 0.000000 1.746070 
# 
# From -- ./inp_files/57922.got.cif
#   From: 2010.06.25/outbox.cif.g09.slc.cpg/sg15_29_cif.got.tgz:57922.got - 2010.06.28 07:06:18.
