data_PCOD8135470
_publ_section_title
;
Structure prediction by ZEFSAII (Michael W. Deem and Ramdas Pophale) SiO2 
 PCOD8135470
Probable space group: C 2/C
;
_chemical_formula_sum "Si O2"
_cell_formula_units_Z 56
_cell_length_a 16.459913
_cell_length_b 9.910438
_cell_length_c 16.246336
_cell_angle_alpha 90.000000
_cell_angle_beta 104.886819
_cell_angle_gamma 90.000000
_cell_volume 2561.229871
_symmetry_space_group_name_H-M "C 2/C"
_symmetry_group_IT_number 15
_symmetry_cell_setting 'monoclinic'
loop_
_space_group_symop_operation_xyz
x,y,z
-x,y,1/2-z
-x,-y,-z
x,-y,1/2+z
1/2+x,1/2+y,z
1/2-x,1/2+y,1/2-z
1/2-x,1/2-y,-z
1/2+x,1/2-y,1/2+z
loop_
_atom_site_type_symbol
_atom_site_label
_atom_site_fract_x
_atom_site_fract_y
_atom_site_fract_z
Si Si1 0.218547 0.440494 0.537145
Si Si2 0.560056 0.994530 0.091866
Si Si3 0.782549 0.322287 0.128092
Si Si4 0.808235 0.826358 0.138483
Si Si5 0.982888 0.737801 0.153735
Si Si6 0.144286 0.757559 0.682664
Si Si7 0.622182 0.566140 0.675091
O O1 0.147922 0.441114 0.588776
O O2 0.182841 0.424869 0.434159
O O3 0.278092 0.318571 0.579046
O O4 0.271678 0.577991 0.557690
O O5 0.575152 0.841478 0.124742
O O6 0.518858 0.087947 0.150399
O O7 0.500000 0.000000 0.000000
O O8 0.843607 0.301435 0.221757
O O9 0.693966 0.384034 0.132148
O O10 0.882097 0.741573 0.110963
O O11 0.733409 0.735544 0.157282
O O12 0.849664 0.908912 0.223783
O O13 0.000000 0.777910 0.250000
O O14 0.038003 0.854184 0.122289
O O15 0.105307 0.906025 0.666776
#
# Coordination Sequence:
#
# PCOD8135470 Si02
#       7
#     8   8   8   8   8   8   8
#     4  10  20  40  61  94 123 164 209 258 311 375
#     4  11  25  44  61  91 131 167 207 266 317 377
#     4  10  20  36  67  89 123 162 209 259 314 370
#     4   9  20  37  65  89 126 163 214 257 307 384
#     4  10  22  41  65  88 127 168 205 257 326 376
#     4  10  22  40  68  93 122 164 222 259 308 378
#     4  10  19  38  63  96 121 164 209 261 313 374
#
# _framework density 21.864497
#
# number of rings (size 3 to 8) (size 9 to 14) (size 15 to 20)
#    0.000    2.000    2.857    0.000    0.000    3.429 
#    5.143    6.429    0.000    0.000    0.000    0.000 
#    0.000    0.000    0.000    0.000    0.000    0.000 
#
# Total GULP energy -346982.808555 kJ/mol
# GULP energy per Si atom -12392.243163 kJ/mol
# Density = 2.181473 g / cm^3
# Si number density = 21.864497 Si / 1000 Ang^3
#
#
#
# Elastic Constant Matrix: (Units=GPa)
#
#
# Indices 1 2 3 4 5 6 
#
# 1 74.6075 43.9176 0.8700 0.0000 1.8639 0.0000
# 2 43.9176 107.4096 -1.4246 0.0000 0.3675 0.0000
# 3 0.8700 -1.4246 39.9089 0.0000 1.2999 0.0000
# 4 0.0000 0.0000 0.0000 19.9530 0.0000 0.4517
# 5 1.8639 0.3675 1.2999 0.0000 31.2788 0.0000
# 6 0.0000 0.0000 0.0000 0.4517 0.0000 28.9008
#
#
#
# Elastic Compliance Matrix: (Units=1/GPa)
#
#
# Indices 1 2 3 4 5 6 
#
# 1 0.017696 -0.007241 -0.000613 0.000000 -0.000944 0.000000
# 2 -0.007241 0.012278 0.000588 0.000000 0.000263 0.000000
# 3 -0.000613 0.000588 0.025124 0.000000 -0.001014 0.000000
# 4 0.000000 0.000000 0.000000 0.050135 0.000000 -0.000784
# 5 -0.000944 0.000263 -0.001014 0.000000 0.032066 0.000000
# 6 0.000000 0.000000 0.000000 -0.000784 0.000000 0.034613
#
#
# Mechanical properties :
#
#
# Convention : Reuss Voigt Hill
#
# Bulk Modulus (GPa) = 24.65159 34.29467 29.47313
# Shear Modulus (GPa) = 25.00401 27.93073 26.46737
#
# Velocity S-wave (km/s) = 3.38537 3.57802 3.48302
# Velocity P-wave (km/s) = 5.15559 5.72615 5.44834
#
# Compressibility (1/GPa) = 0.04056533
#
# Stress axis : x y z
#
# Youngs Moduli (GPa) = 56.50869 81.44927 39.80185
#
# Poissons Ratio (x) = 0.58974 0.02442
# Poissons Ratio (y) = 0.40916 -0.02339
# Poissons Ratio (z) = 0.03467 -0.04785
#
# Static dielectric constant tensor:
#      x y z
#    x 4.110400 0.000000 0.067060 
#    y 0.000000 3.299680 0.000000 
#    z 0.067060 0.000000 3.856110 
# 
# 
# High freq. dielectric constant tensor:
#      x y z
#    x 1.852330 0.000000 -0.009610 
#    y 0.000000 1.860530 0.000000 
#    z -0.009610 0.000000 1.849070 
# 
# From -- ./inp_files/209650.got.cif
#   From: 2010.06.25/outbox.cif.g09.slc.cpg/sg15_105_cif.got.tgz:209650.got - 2010.06.28 07:06:18.
