data_PCOD8135419
_publ_section_title
;
Structure prediction by ZEFSAII (Michael W. Deem and Ramdas Pophale) SiO2 
 PCOD8135419
Probable space group: C 2/C
;
_chemical_formula_sum "Si O2"
_cell_formula_units_Z 56
_cell_length_a 11.540648
_cell_length_b 19.473393
_cell_length_c 17.933719
_cell_angle_alpha 90.000000
_cell_angle_beta 136.234003
_cell_angle_gamma 90.000000
_cell_volume 2787.848681
_symmetry_space_group_name_H-M "C 2/C"
_symmetry_group_IT_number 15
_symmetry_cell_setting 'monoclinic'
loop_
_space_group_symop_operation_xyz
x,y,z
-x,y,1/2-z
-x,-y,-z
x,-y,1/2+z
1/2+x,1/2+y,z
1/2-x,1/2+y,1/2-z
1/2-x,1/2-y,-z
1/2+x,1/2-y,1/2+z
loop_
_atom_site_type_symbol
_atom_site_label
_atom_site_fract_x
_atom_site_fract_y
_atom_site_fract_z
Si Si1 0.776673 0.033500 0.822331
Si Si2 0.908549 0.652141 0.845555
Si Si3 0.500000 0.750871 0.250000
Si Si4 0.176095 0.804847 0.366670
Si Si5 0.516377 0.413760 0.954102
Si Si6 0.000000 0.559247 0.250000
Si Si7 0.748025 0.848270 0.940220
Si Si8 0.730160 0.322873 0.952569
O O1 0.717220 0.089163 0.733236
O O2 0.617278 0.986552 0.754595
O O3 0.818750 0.068819 0.920765
O O4 0.935607 0.982857 0.878997
O O5 0.935862 0.701239 0.787510
O O6 0.822831 0.689522 0.874704
O O7 0.096054 0.633586 0.964173
O O8 0.341068 0.700335 0.160954
O O9 0.195530 0.854776 0.447426
O O10 0.179560 0.727106 0.394355
O O11 0.000000 0.825232 0.250000
O O12 0.392864 0.371953 0.951068
O O13 0.577687 0.365328 0.917115
O O14 0.090459 0.603190 0.355211
O O15 0.750000 0.250000 0.000000
#
# Coordination Sequence:
#
# PCOD8135419 Si02
#       8
#     8   8   4   8   8   4   8   8
#     4  10  20  35  62  86 117 163 201 249 285 361
#     4  11  22  38  61  93 121 159 204 247 303 368
#     4  10  21  36  64  90 125 158 196 258 312 356
#     4  11  23  38  59  90 126 157 194 251 313 357
#     4  10  20  37  62  88 118 156 208 245 300 358
#     4  10  19  38  62  88 117 154 212 240 294 360
#     4  10  21  38  60  90 118 157 199 250 301 360
#     4  10  20  36  59  92 120 152 199 257 308 354
#
# _framework density 20.087173
#
# number of rings (size 3 to 8) (size 9 to 14) (size 15 to 20)
#    0.000    1.714    0.714    5.571    0.000    2.286 
#    5.143    0.714   11.000    0.000    0.000    0.000 
#    0.000    0.000    0.000    0.000    0.000    0.000 
#
# Total GULP energy -346883.107738 kJ/mol
# GULP energy per Si atom -12388.682419 kJ/mol
# Density = 2.004145 g / cm^3
# Si number density = 20.087173 Si / 1000 Ang^3
#
#
#
# Elastic Constant Matrix: (Units=GPa)
#
#
# Indices 1 2 3 4 5 6 
#
# 1 79.4004 4.0319 25.7705 0.0001 6.8594 0.0000
# 2 4.0319 65.3566 33.5281 0.0000 5.0728 0.0000
# 3 25.7705 33.5281 145.1207 0.0001 11.5323 0.0000
# 4 0.0001 0.0000 0.0001 32.0613 0.0001 8.5017
# 5 6.8594 5.0728 11.5323 0.0001 24.7843 0.0000
# 6 0.0000 0.0000 0.0000 8.5017 0.0000 31.4939
#
#
#
# Elastic Compliance Matrix: (Units=1/GPa)
#
#
# Indices 1 2 3 4 5 6 
#
# 1 0.013559 0.000569 -0.002317 0.000000 -0.002791 0.000000
# 2 0.000569 0.017455 -0.003985 0.000000 -0.001876 0.000000
# 3 -0.002317 -0.003985 0.008418 0.000000 -0.002460 0.000000
# 4 0.000000 0.000000 0.000000 0.033595 0.000000 -0.009069
# 5 -0.002791 -0.001876 -0.002460 0.000000 0.042649 0.000000
# 6 0.000000 0.000000 0.000000 -0.009069 0.000000 0.034200
#
#
# Mechanical properties :
#
#
# Convention : Reuss Voigt Hill
#
# Bulk Modulus (GPa) = 35.75745 46.28206 41.01975
# Shear Modulus (GPa) = 29.29705 32.77105 31.03405
#
# Velocity S-wave (km/s) = 3.82317 4.04349 3.93487
# Velocity P-wave (km/s) = 6.10971 6.70003 6.41167
#
# Compressibility (1/GPa) = 0.02796620
#
# Stress axis : x y z
#
# Youngs Moduli (GPa) = 73.75311 57.28889 118.78627
#
# Poissons Ratio (x) = -0.03260 0.27528
# Poissons Ratio (y) = -0.04197 0.47334
# Poissons Ratio (z) = 0.17092 0.22828
#
# Static dielectric constant tensor:
#      x y z
#    x 3.377090 0.000000 0.030450 
#    y 0.000000 3.803360 0.000000 
#    z 0.030450 0.000000 4.089370 
# 
# 
# High freq. dielectric constant tensor:
#      x y z
#    x 1.758270 0.000000 0.013880 
#    y 0.000000 1.784530 0.000000 
#    z 0.013880 0.000000 1.807210 
# 
# From -- ./inp_files/240321.got.cif
#   From: 2010.06.25/outbox.cif.g09.slc.cpg/sg15_121_cif.got.tgz:240321.got - 2010.06.28 07:06:18.
