data_PCOD8135871
_publ_section_title
;
Structure prediction by ZEFSAII (Michael W. Deem and Ramdas Pophale) SiO2 
 PCOD8135871
Probable space group: C 2/C
;
_chemical_formula_sum "Si O2"
_cell_formula_units_Z 48
_cell_length_a 14.355064
_cell_length_b 31.420217
_cell_length_c 5.510334
_cell_angle_alpha 90.000000
_cell_angle_beta 115.735515
_cell_angle_gamma 90.000000
_cell_volume 2238.847395
_symmetry_space_group_name_H-M "C 2/C"
_symmetry_group_IT_number 15
_symmetry_cell_setting 'monoclinic'
loop_
_space_group_symop_operation_xyz
x,y,z
-x,y,1/2-z
-x,-y,-z
x,-y,1/2+z
1/2+x,1/2+y,z
1/2-x,1/2+y,1/2-z
1/2-x,1/2-y,-z
1/2+x,1/2-y,1/2+z
loop_
_atom_site_type_symbol
_atom_site_label
_atom_site_fract_x
_atom_site_fract_y
_atom_site_fract_z
Si Si1 0.000000 0.775715 0.750000
Si Si2 0.849168 0.473792 0.372082
Si Si3 0.154874 0.839649 0.773047
Si Si4 0.500000 0.776503 0.750000
Si Si5 0.187078 0.096147 0.686800
Si Si6 0.500000 0.089077 0.250000
Si Si7 0.500000 0.377595 0.250000
Si Si8 0.836668 0.345054 0.652560
O O1 0.106972 0.803331 0.893086
O O2 0.000031 0.748958 0.501736
O O3 0.858509 0.500458 0.632711
O O4 0.739592 0.449840 0.247115
O O5 0.941861 0.439643 0.483703
O O6 0.066143 0.843716 0.473744
O O7 0.269401 0.828185 0.804486
O O8 0.163242 0.887287 0.891282
O O9 0.396531 0.804950 0.610899
O O10 0.077741 0.091061 0.697384
O O11 0.257455 0.134168 0.873570
O O12 0.579911 0.118105 0.184838
#
# Coordination Sequence:
#
# PCOD8135871 Si02
#       8
#     4   8   8   4   8   4   4   8
#     4  12  26  42  68  94 134 172 222 277 339 382
#     4  11  25  43  66 102 140 170 211 271 333 386
#     4  11  22  41  70  94 125 177 229 271 324 395
#     4  11  27  46  60 102 140 170 216 278 334 390
#     4  10  22  40  70  93 126 178 225 269 319 401
#     4   9  20  46  67  97 130 188 216 261 314 409
#     4  10  19  40  67  95 122 168 236 274 313 383
#     4   9  23  43  66  95 132 178 222 266 322 393
#
# _framework density 21.439603000000002
#
# number of rings (size 3 to 8) (size 9 to 14) (size 15 to 20)
#    0.000    1.667    1.667    1.000   11.667    1.333 
#    3.000    0.833    0.000    0.000    0.000    0.000 
#    0.000    0.000    0.000    0.000    0.000    0.000 
#
# Total GULP energy -297389.233993 kJ/mol
# GULP energy per Si atom -12391.218083 kJ/mol
# Density = 2.139081 g / cm^3
# Si number density = 21.439603 Si / 1000 Ang^3
#
#
#
# Elastic Constant Matrix: (Units=GPa)
#
#
# Indices 1 2 3 4 5 6 
#
# 1 183.4663 71.0632 53.6532 0.0000 5.5389 0.0000
# 2 71.0632 108.9508 44.8547 0.0000 -4.0159 0.0000
# 3 53.6532 44.8547 86.4957 0.0000 -13.9639 0.0000
# 4 0.0000 0.0000 0.0000 33.4585 0.0000 5.6554
# 5 5.5389 -4.0159 -13.9639 0.0000 33.0495 0.0000
# 6 0.0000 0.0000 0.0000 5.6554 0.0000 24.3411
#
#
#
# Elastic Compliance Matrix: (Units=1/GPa)
#
#
# Indices 1 2 3 4 5 6 
#
# 1 0.008116 -0.003970 -0.003513 0.000000 -0.003327 0.000000
# 2 -0.003970 0.013658 -0.004556 0.000000 0.000400 0.000000
# 3 -0.003513 -0.004556 0.017287 0.000000 0.007339 0.000000
# 4 0.000000 0.000000 0.000000 0.031109 0.000000 -0.007228
# 5 -0.003327 0.000400 0.007339 0.000000 0.033965 0.000000
# 6 0.000000 0.000000 0.000000 -0.007228 0.000000 0.042762
#
#
# Mechanical properties :
#
#
# Convention : Reuss Voigt Hill
#
# Bulk Modulus (GPa) = 66.73322 79.78391 73.25857
# Shear Modulus (GPa) = 28.41396 32.12594 30.26995
#
# Velocity S-wave (km/s) = 3.64442 3.87517 3.76156
# Velocity P-wave (km/s) = 6.99305 7.57078 7.28764
#
# Compressibility (1/GPa) = 0.01498504
#
# Stress axis : x y z
#
# Youngs Moduli (GPa) = 123.21238 73.21565 57.84560
#
# Poissons Ratio (x) = 0.29068 0.20319
# Poissons Ratio (y) = 0.48918 0.26352
# Poissons Ratio (z) = 0.43280 0.33354
#
# Static dielectric constant tensor:
#      x y z
#    x 4.289520 0.000000 0.144090 
#    y 0.000000 3.859840 0.000000 
#    z 0.144090 0.000000 3.807010 
# 
# 
# High freq. dielectric constant tensor:
#      x y z
#    x 1.863620 0.000000 0.007840 
#    y 0.000000 1.828040 0.000000 
#    z 0.007840 0.000000 1.833720 
# 
# From -- ./inp_files/9199.got.cif
#   From: 2010.06.25/outbox.cif.g09.slc.cpg/sg15_5_cif.got.tgz:9199.got - 2010.06.28 07:06:18.
