data_PCOD8135413
_publ_section_title
;
Structure prediction by ZEFSAII (Michael W. Deem and Ramdas Pophale) SiO2 
 PCOD8135413
Probable space group: C 2/C
;
_chemical_formula_sum "Si O2"
_cell_formula_units_Z 60
_cell_length_a 12.225885
_cell_length_b 13.958482
_cell_length_c 22.269117
_cell_angle_alpha 90.000000
_cell_angle_beta 125.941450
_cell_angle_gamma 90.000000
_cell_volume 3076.813930
_symmetry_space_group_name_H-M "C 2/C"
_symmetry_group_IT_number 15
_symmetry_cell_setting 'monoclinic'
loop_
_space_group_symop_operation_xyz
x,y,z
-x,y,1/2-z
-x,-y,-z
x,-y,1/2+z
1/2+x,1/2+y,z
1/2-x,1/2+y,1/2-z
1/2-x,1/2-y,-z
1/2+x,1/2-y,1/2+z
loop_
_atom_site_type_symbol
_atom_site_label
_atom_site_fract_x
_atom_site_fract_y
_atom_site_fract_z
Si Si1 0.493372 0.437006 0.639733
Si Si2 0.526800 0.911030 0.428011
Si Si3 0.263547 0.157427 0.884666
Si Si4 0.893812 0.140048 0.434762
Si Si5 0.070972 0.730215 0.833780
Si Si6 0.500000 0.574750 0.750000
Si Si7 0.259063 0.550649 0.507181
Si Si8 0.339660 0.751384 0.968571
O O1 0.602599 0.433060 0.620699
O O2 0.487575 0.331182 0.664449
O O3 0.541996 0.509514 0.706783
O O4 0.347400 0.467547 0.566814
O O5 0.367902 0.922838 0.391804
O O6 0.537693 0.851258 0.370735
O O7 0.583481 0.852937 0.504697
O O8 0.607693 0.010311 0.446706
O O9 0.311595 0.265495 0.889383
O O10 0.123417 0.144097 0.805104
O O11 0.247267 0.141665 0.950809
O O12 0.824892 0.084433 0.466688
O O13 0.050026 0.166558 0.499988
O O14 0.234875 0.739824 0.879323
O O15 0.000000 0.697712 0.750000
O O16 0.250000 0.750000 0.000000
#
# Coordination Sequence:
#
# PCOD8135413 Si02
#       8
#     8   8   8   8   8   4   8   8
#     4  11  19  36  61  86 117 153 197 252 289 355
#     4  10  19  38  62  85 117 153 201 248 296 350
#     4  10  22  42  61  82 122 161 197 241 300 375
#     4  11  21  39  61  90 119 155 200 255 306 341
#     4  11  19  34  58  90 121 154 195 250 303 353
#     4  10  24  40  60  86 116 160 202 232 296 366
#     4  11  22  36  61  93 115 147 207 256 293 347
#     4   9  16  33  58  83 114 152 193 237 294 344
#
# _framework density 19.500692000000001
#
# number of rings (size 3 to 8) (size 9 to 14) (size 15 to 20)
#    0.000    1.600    6.000    2.000    0.000    0.000 
#    7.200    1.333    0.000    0.000    0.000    0.000 
#    0.000    0.000    0.000    0.000    0.000    0.000 
#
# Total GULP energy -371847.421864 kJ/mol
# GULP energy per Si atom -12394.914062 kJ/mol
# Density = 1.945631 g / cm^3
# Si number density = 19.500692 Si / 1000 Ang^3
#
#
#
# Elastic Constant Matrix: (Units=GPa)
#
#
# Indices 1 2 3 4 5 6 
#
# 1 100.4335 19.0903 50.5434 0.0000 -0.4231 0.0000
# 2 19.0903 44.7626 33.1594 0.0000 -1.2335 0.0000
# 3 50.5434 33.1594 134.7288 0.0000 3.7543 0.0000
# 4 0.0000 0.0000 0.0000 12.0540 0.0000 -0.9032
# 5 -0.4231 -1.2335 3.7543 0.0000 27.8975 0.0000
# 6 0.0000 0.0000 0.0000 -0.9032 0.0000 39.9684
#
#
#
# Elastic Compliance Matrix: (Units=1/GPa)
#
#
# Indices 1 2 3 4 5 6 
#
# 1 0.012471 -0.002228 -0.004148 0.000000 0.000649 0.000000
# 2 -0.002228 0.027845 -0.006074 0.000000 0.002015 0.000000
# 3 -0.004148 -0.006074 0.010522 0.000000 -0.001747 0.000000
# 4 0.000000 0.000000 0.000000 0.083101 0.000000 0.001878
# 5 0.000649 0.002015 -0.001747 0.000000 0.036180 0.000000
# 6 0.000000 0.000000 0.000000 0.001878 0.000000 0.025062
#
#
# Mechanical properties :
#
#
# Convention : Reuss Voigt Hill
#
# Bulk Modulus (GPa) = 38.55251 53.94566 46.24908
# Shear Modulus (GPa) = 21.86029 27.79276 24.82652
#
# Velocity S-wave (km/s) = 3.35177 3.77930 3.57194
# Velocity P-wave (km/s) = 5.89846 6.83869 6.38590
#
# Compressibility (1/GPa) = 0.02593865
#
# Stress axis : x y z
#
# Youngs Moduli (GPa) = 80.18884 35.91320 95.03889
#
# Poissons Ratio (x) = 0.08000 0.39423
# Poissons Ratio (y) = 0.17864 0.57723
# Poissons Ratio (z) = 0.33263 0.21812
#
# Static dielectric constant tensor:
#      x y z
#    x 3.720000 0.000000 0.124640 
#    y 0.000000 3.422130 0.000000 
#    z 0.124640 0.000000 3.802760 
# 
# 
# High freq. dielectric constant tensor:
#      x y z
#    x 1.759330 0.000000 0.005210 
#    y 0.000000 1.747820 0.000000 
#    z 0.005210 0.000000 1.744350 
# 
# From -- ./inp_files/269963.got.cif
#   From: 2010.06.25/outbox.cif.g09.slc.cpg/sg15_135_cif.got.tgz:269963.got - 2010.06.28 07:06:18.
