data_PCOD8135703
_publ_section_title
;
Structure prediction by ZEFSAII (Michael W. Deem and Ramdas Pophale) SiO2 
 PCOD8135703
Probable space group: C 2/C
;
_chemical_formula_sum "Si O2"
_cell_formula_units_Z 44
_cell_length_a 12.314153
_cell_length_b 12.500111
_cell_length_c 14.989068
_cell_angle_alpha 90.000000
_cell_angle_beta 64.564315
_cell_angle_gamma 90.000000
_cell_volume 2083.595845
_symmetry_space_group_name_H-M "C 2/C"
_symmetry_group_IT_number 15
_symmetry_cell_setting 'monoclinic'
loop_
_space_group_symop_operation_xyz
x,y,z
-x,y,1/2-z
-x,-y,-z
x,-y,1/2+z
1/2+x,1/2+y,z
1/2-x,1/2+y,1/2-z
1/2-x,1/2-y,-z
1/2+x,1/2-y,1/2+z
loop_
_atom_site_type_symbol
_atom_site_label
_atom_site_fract_x
_atom_site_fract_y
_atom_site_fract_z
Si Si1 0.090962 0.339498 0.640230
Si Si2 0.447728 0.408647 0.956083
Si Si3 0.305000 0.035548 0.957552
Si Si4 0.020086 0.326821 0.463461
Si Si5 0.723064 0.370669 0.132191
Si Si6 0.000000 0.007048 0.750000
O O1 0.146971 0.458210 0.638891
O O2 0.026146 0.350234 0.566935
O O3 0.189629 0.245848 0.604660
O O4 0.000000 0.310917 0.750000
O O5 0.511294 0.298477 0.954018
O O6 0.473338 0.432837 0.843560
O O7 0.500000 0.500000 0.000000
O O8 0.306461 0.389694 0.031251
O O9 0.409976 0.107031 0.962152
O O10 0.238537 0.953204 0.046762
O O11 0.144603 0.361600 0.369069
O O12 0.615905 0.417075 0.232127
#
# Coordination Sequence:
#
# PCOD8135703 Si02
#       6
#     8   8   8   8   8   4
#     4  11  21  38  65  97 123 167 228 259 311 388
#     4  11  23  44  68  91 130 173 216 262 328 393
#     4  10  22  42  62  89 133 164 206 269 336 384
#     4  11  22  42  63  94 132 171 203 276 333 372
#     4  10  19  39  64  89 125 163 220 268 307 383
#     4  10  22  42  62  96 120 168 214 262 318 386
#
# _framework density 21.117339000000001
#
# number of rings (size 3 to 8) (size 9 to 14) (size 15 to 20)
#    0.000    1.455    0.909    8.182    0.000    0.000 
#   21.273    0.000    0.000    0.000    0.000    0.000 
#    0.000    0.000    0.000    0.000    0.000    0.000 
#
# Total GULP energy -272569.078840 kJ/mol
# GULP energy per Si atom -12389.503584 kJ/mol
# Density = 2.106927 g / cm^3
# Si number density = 21.117339 Si / 1000 Ang^3
#
#
#
# Elastic Constant Matrix: (Units=GPa)
#
#
# Indices 1 2 3 4 5 6 
#
# 1 113.6915 16.3189 40.9901 0.0000 -36.2124 0.0000
# 2 16.3189 83.1751 33.0362 0.0000 -11.7475 0.0000
# 3 40.9901 33.0362 81.8646 0.0000 -22.0773 0.0000
# 4 0.0000 0.0000 0.0000 17.4443 0.0000 -5.2375
# 5 -36.2124 -11.7475 -22.0773 0.0000 33.8430 0.0000
# 6 0.0000 0.0000 0.0000 -5.2375 0.0000 50.0198
#
#
#
# Elastic Compliance Matrix: (Units=1/GPa)
#
#
# Indices 1 2 3 4 5 6 
#
# 1 0.014212 0.000569 -0.003873 0.000000 0.012878 0.000000
# 2 0.000569 0.014400 -0.005562 0.000000 0.001978 0.000000
# 3 -0.003873 -0.005562 0.017912 0.000000 0.005610 0.000000
# 4 0.000000 0.000000 0.000000 0.059186 0.000000 0.006197
# 5 0.012878 0.001978 0.005610 0.000000 0.047675 0.000000
# 6 0.000000 0.000000 0.000000 0.006197 0.000000 0.020641
#
#
# Mechanical properties :
#
#
# Convention : Reuss Voigt Hill
#
# Bulk Modulus (GPa) = 34.73215 51.04686 42.88951
# Shear Modulus (GPa) = 24.83171 32.82050 28.82610
#
# Velocity S-wave (km/s) = 3.43285 3.94661 3.69866
# Velocity P-wave (km/s) = 5.67411 6.70769 6.21243
#
# Compressibility (1/GPa) = 0.02879177
#
# Stress axis : x y z
#
# Youngs Moduli (GPa) = 70.36168 69.44472 55.82872
#
# Poissons Ratio (x) = -0.03949 0.21620
# Poissons Ratio (y) = -0.04001 0.31053
# Poissons Ratio (z) = 0.27248 0.38627
#
# Static dielectric constant tensor:
#      x y z
#    x 4.085720 0.000000 -0.571320 
#    y 0.000000 4.066250 0.000000 
#    z -0.571320 0.000000 3.951210 
# 
# 
# High freq. dielectric constant tensor:
#      x y z
#    x 1.828020 0.000000 -0.036210 
#    y 0.000000 1.844000 0.000000 
#    z -0.036210 0.000000 1.810110 
# 
# From -- ./inp_files/196440.got.cif
#   From: 2010.06.25/outbox.cif.g09.slc.cpg/sg15_99_cif.got.tgz:196440.got - 2010.06.28 07:06:18.
