data_PCOD8135586
_publ_section_title
;
Structure prediction by ZEFSAII (Michael W. Deem and Ramdas Pophale) SiO2 
 PCOD8135586
Probable space group: C 2/C
;
_chemical_formula_sum "Si O2"
_cell_formula_units_Z 48
_cell_length_a 19.702123
_cell_length_b 8.444558
_cell_length_c 30.321251
_cell_angle_alpha 90.000000
_cell_angle_beta 149.566833
_cell_angle_gamma 90.000000
_cell_volume 2555.316971
_symmetry_space_group_name_H-M "C 2/C"
_symmetry_group_IT_number 15
_symmetry_cell_setting 'monoclinic'
loop_
_space_group_symop_operation_xyz
x,y,z
-x,y,1/2-z
-x,-y,-z
x,-y,1/2+z
1/2+x,1/2+y,z
1/2-x,1/2+y,1/2-z
1/2-x,1/2-y,-z
1/2+x,1/2-y,1/2+z
loop_
_atom_site_type_symbol
_atom_site_label
_atom_site_fract_x
_atom_site_fract_y
_atom_site_fract_z
Si Si1 0.500000 0.354508 0.750000
Si Si2 0.775262 0.796447 0.786037
Si Si3 0.710580 0.108959 0.880344
Si Si4 0.431131 0.402238 0.280707
Si Si5 0.000000 0.345656 0.750000
Si Si6 0.034399 0.044929 0.425563
Si Si7 0.183789 0.876648 0.154906
O O1 0.604774 0.243797 0.835186
O O2 0.587284 0.456551 0.764653
O O3 0.713298 0.655204 0.781317
O O4 0.723822 0.774976 0.706954
O O5 0.938782 0.797627 0.875342
O O6 0.730316 0.969885 0.779182
O O7 0.789488 0.162325 0.880770
O O8 0.635350 0.946264 0.828023
O O9 0.813496 0.088190 0.978226
O O10 0.502728 0.257534 0.296034
O O11 0.527366 0.464613 0.373456
O O12 0.974755 0.916106 0.427277
#
# Coordination Sequence:
#
# PCOD8135586 Si02
#       7
#     4   8   8   8   4   8   8
#     4  10  24  34  58  72 112 152 174 218 254 328
#     4   9  18  33  59  77 102 139 173 226 268 313
#     4  11  20  35  54  84 106 142 183 213 265 316
#     4  10  19  39  53  78 108 142 183 212 269 316
#     4  10  20  34  58  74 110 154 176 210 254 330
#     4   9  20  33  58  80 110 135 174 233 262 307
#     4   9  18  33  58  79 103 137 174 221 269 314
#
# _framework density 18.784362000000002
#
# number of rings (size 3 to 8) (size 9 to 14) (size 15 to 20)
#    1.000    1.333    1.667    1.500    0.000    1.333 
#    0.000    0.833   14.667    0.000    0.000    0.000 
#    0.000    0.000    0.000    0.000    0.000    0.000 
#
# Total GULP energy -297323.937318 kJ/mol
# GULP energy per Si atom -12388.497388 kJ/mol
# Density = 1.874161 g / cm^3
# Si number density = 18.784362 Si / 1000 Ang^3
#
#
#
# Elastic Constant Matrix: (Units=GPa)
#
#
# Indices 1 2 3 4 5 6 
#
# 1 86.4491 26.6732 26.3646 0.0000 -8.8320 0.0003
# 2 26.6732 60.2854 20.1990 0.0002 -6.6361 0.0003
# 3 26.3646 20.1990 87.2100 0.0002 2.5785 0.0001
# 4 0.0000 0.0002 0.0002 14.6411 0.0000 -6.9375
# 5 -8.8320 -6.6361 2.5785 0.0000 22.4957 0.0000
# 6 0.0003 0.0003 0.0001 -6.9375 0.0000 24.7097
#
#
#
# Elastic Compliance Matrix: (Units=1/GPa)
#
#
# Indices 1 2 3 4 5 6 
#
# 1 0.014570 -0.004777 -0.003438 0.000000 0.004705 0.000000
# 2 -0.004777 0.020337 -0.003400 0.000000 0.004514 0.000000
# 3 -0.003438 -0.003400 0.013408 0.000000 -0.003889 0.000000
# 4 0.000000 0.000000 0.000000 0.078781 0.000000 0.022119
# 5 0.004705 0.004514 -0.003889 0.000000 0.048078 0.000000
# 6 0.000000 0.000000 0.000000 0.022119 0.000000 0.046680
#
#
# Mechanical properties :
#
#
# Convention : Reuss Voigt Hill
#
# Bulk Modulus (GPa) = 39.86046 42.26869 41.06457
# Shear Modulus (GPa) = 19.72810 23.08315 21.40563
#
# Velocity S-wave (km/s) = 3.24426 3.50930 3.37938
# Velocity P-wave (km/s) = 5.94135 6.24269 6.09388
#
# Compressibility (1/GPa) = 0.02508752
#
# Stress axis : x y z
#
# Youngs Moduli (GPa) = 68.63190 49.17079 74.58119
#
# Poissons Ratio (x) = 0.23489 0.25638
# Poissons Ratio (y) = 0.32785 0.25355
# Poissons Ratio (z) = 0.23593 0.16717
#
# Static dielectric constant tensor:
#      x y z
#    x 3.525210 0.000000 -0.022460 
#    y 0.000000 3.429890 0.000000 
#    z -0.022460 0.000000 3.022970 
# 
# 
# High freq. dielectric constant tensor:
#      x y z
#    x 1.740730 0.000000 -0.006800 
#    y 0.000000 1.722510 0.000000 
#    z -0.006800 0.000000 1.688960 
# 
# From -- ./inp_files/180937.got.cif
#   From: 2010.06.25/outbox.cif.g09.slc.cpg/sg15_91_cif.got.tgz:180937.got - 2010.06.28 07:06:18.
