data_PCOD8135059
_publ_section_title
;
Structure prediction by ZEFSAII (Michael W. Deem and Ramdas Pophale) SiO2 
 PCOD8135059
Probable space group: C 2/C
;
_chemical_formula_sum "Si O2"
_cell_formula_units_Z 60
_cell_length_a 5.891365
_cell_length_b 16.883833
_cell_length_c 30.900916
_cell_angle_alpha 90.000000
_cell_angle_beta 113.751257
_cell_angle_gamma 90.000000
_cell_volume 2813.345358
_symmetry_space_group_name_H-M "C 2/C"
_symmetry_group_IT_number 15
_symmetry_cell_setting 'monoclinic'
loop_
_space_group_symop_operation_xyz
x,y,z
-x,y,1/2-z
-x,-y,-z
x,-y,1/2+z
1/2+x,1/2+y,z
1/2-x,1/2+y,1/2-z
1/2-x,1/2-y,-z
1/2+x,1/2-y,1/2+z
loop_
_atom_site_type_symbol
_atom_site_label
_atom_site_fract_x
_atom_site_fract_y
_atom_site_fract_z
Si Si1 0.500000 0.806656 0.250000
Si Si2 0.791556 0.095808 0.952068
Si Si3 0.388193 0.451596 0.550865
Si Si4 0.163355 0.754838 0.674764
Si Si5 0.155979 0.495002 0.117452
Si Si6 0.641511 0.134846 0.377438
Si Si7 0.974451 0.126790 0.827532
Si Si8 0.640939 0.728921 0.601059
O O1 0.410243 0.744738 0.280203
O O2 0.719811 0.866636 0.280826
O O3 0.876899 0.185855 0.947021
O O4 0.541406 0.075530 0.905812
O O5 0.745424 0.090327 0.000019
O O6 0.011503 0.036650 0.956047
O O7 0.193235 0.462058 0.574362
O O8 0.603522 0.394404 0.583394
O O9 0.331375 0.827376 0.668979
O O10 0.310828 0.673794 0.680390
O O11 0.917984 0.761002 0.627364
O O12 0.414387 0.461981 0.157640
O O13 0.049303 0.561535 0.141899
O O14 0.547641 0.199580 0.405236
O O15 0.917416 0.158409 0.870421
#
# Coordination Sequence:
#
# PCOD8135059 Si02
#       8
#     4   8   8   8   8   8   8   8
#     4  10  22  36  68 106 108 142 204 268 304 366
#     4  10  20  35  61  88 127 167 219 254 292 352
#     4  10  21  37  55  93 128 169 211 255 299 352
#     4  10  20  40  61  97 118 152 201 255 305 372
#     4  11  20  38  61  94 123 169 200 254 305 366
#     4  10  23  36  59  92 128 166 199 244 316 364
#     4  10  20  36  65  97 117 149 204 253 305 366
#     4  10  19  37  60  90 119 167 204 252 298 361
#
# _framework density 21.326924000000002
#
# number of rings (size 3 to 8) (size 9 to 14) (size 15 to 20)
#    0.000    1.867    2.667    1.600    0.000    0.533 
#    0.000    2.667    0.000    0.000  156.000    0.000 
#    0.000    0.000    0.000    0.000    0.000    0.000 
#
# Total GULP energy -371848.575810 kJ/mol
# GULP energy per Si atom -12394.952527 kJ/mol
# Density = 2.127838 g / cm^3
# Si number density = 21.326924 Si / 1000 Ang^3
#
#
#
# Elastic Constant Matrix: (Units=GPa)
#
#
# Indices 1 2 3 4 5 6 
#
# 1 92.1833 36.0685 24.8741 0.0000 -13.3481 0.0000
# 2 36.0685 97.4172 36.7230 0.0000 -6.3650 0.0000
# 3 24.8741 36.7230 75.7568 0.0000 -9.6204 0.0000
# 4 0.0000 0.0000 0.0000 20.5207 0.0000 -2.7620
# 5 -13.3481 -6.3650 -9.6204 0.0000 30.6037 0.0000
# 6 0.0000 0.0000 0.0000 -2.7620 0.0000 32.4980
#
#
#
# Elastic Compliance Matrix: (Units=1/GPa)
#
#
# Indices 1 2 3 4 5 6 
#
# 1 0.013590 -0.004003 -0.001953 0.000000 0.004481 0.000000
# 2 -0.004003 0.013755 -0.005429 0.000000 -0.000592 0.000000
# 3 -0.001953 -0.005429 0.016896 0.000000 0.003331 0.000000
# 4 0.000000 0.000000 0.000000 0.049295 0.000000 0.004190
# 5 0.004481 -0.000592 0.003331 0.000000 0.035554 0.000000
# 6 0.000000 0.000000 0.000000 0.004190 0.000000 0.031127
#
#
# Mechanical properties :
#
#
# Convention : Reuss Voigt Hill
#
# Bulk Modulus (GPa) = 46.57131 51.18763 48.87947
# Shear Modulus (GPa) = 26.29609 27.90393 27.10001
#
# Velocity S-wave (km/s) = 3.51522 3.62109 3.56855
# Velocity P-wave (km/s) = 6.19354 6.44489 6.32046
#
# Compressibility (1/GPa) = 0.02147245
#
# Stress axis : x y z
#
# Youngs Moduli (GPa) = 73.58434 72.70171 59.18665
#
# Poissons Ratio (x) = 0.29100 0.11558
# Poissons Ratio (y) = 0.29454 0.32129
# Poissons Ratio (z) = 0.14369 0.39466
#
# Static dielectric constant tensor:
#      x y z
#    x 4.139650 0.000000 -0.137820 
#    y 0.000000 3.699610 0.000000 
#    z -0.137820 0.000000 3.688500 
# 
# 
# High freq. dielectric constant tensor:
#      x y z
#    x 1.857610 0.000000 -0.010550 
#    y 0.000000 1.819310 0.000000 
#    z -0.010550 0.000000 1.807010 
# 
# From -- ./inp_files/305830.got.cif
#   From: 2010.06.25/outbox.cif.g09.slc.cpg/sg15_153_cif.got.tgz:305830.got - 2010.06.28 07:06:18.
