data_PCOD8135232
_publ_section_title
;
Structure prediction by ZEFSAII (Michael W. Deem and Ramdas Pophale) SiO2 
 PCOD8135232
Probable space group: C 2/C
;
_chemical_formula_sum "Si O2"
_cell_formula_units_Z 32
_cell_length_a 9.801978
_cell_length_b 10.685654
_cell_length_c 14.040899
_cell_angle_alpha 90.000000
_cell_angle_beta 113.155314
_cell_angle_gamma 90.000000
_cell_volume 1352.179127
_symmetry_space_group_name_H-M "C 2/C"
_symmetry_group_IT_number 15
_symmetry_cell_setting 'monoclinic'
loop_
_space_group_symop_operation_xyz
x,y,z
-x,y,1/2-z
-x,-y,-z
x,-y,1/2+z
1/2+x,1/2+y,z
1/2-x,1/2+y,1/2-z
1/2-x,1/2-y,-z
1/2+x,1/2-y,1/2+z
loop_
_atom_site_type_symbol
_atom_site_label
_atom_site_fract_x
_atom_site_fract_y
_atom_site_fract_z
Si Si1 0.331172 0.362395 0.468710
Si Si2 0.069166 0.797207 0.664800
Si Si3 0.106089 0.288259 0.693315
Si Si4 0.033292 0.528272 0.869239
O O1 0.250000 0.250000 0.500000
O O2 0.483179 0.392729 0.568799
O O3 0.365793 0.328441 0.368522
O O4 0.211070 0.474509 0.436664
O O5 0.240577 0.833125 0.715574
O O6 0.000000 0.806855 0.750000
O O7 0.046286 0.655636 0.618299
O O8 0.000000 0.243679 0.750000
O O9 0.040677 0.401802 0.607923
O O10 0.000000 0.505661 0.750000
#
# Coordination Sequence:
#
# PCOD8135232 Si02
#       4
#     8   8   8   8
#     4  10  19  37  66  89 126 171 206 252 316 376
#     4  10  19  39  61  88 128 167 208 255 310 375
#     4  11  22  37  64  97 125 162 210 263 310 365
#     4   9  18  37  64  88 126 163 206 252 312 368
#
# _framework density 23.665505
#
# number of rings (size 3 to 8) (size 9 to 14) (size 15 to 20)
#    0.000    2.000    7.500    0.000    0.000    5.000 
#    0.000    6.250    0.000    0.000    0.000    0.000 
#    0.000    0.000    0.000    0.000    0.000    0.000 
#
# Total GULP energy -198278.450032 kJ/mol
# GULP energy per Si atom -12392.403127 kJ/mol
# Density = 2.361164 g / cm^3
# Si number density = 23.665505 Si / 1000 Ang^3
#
#
#
# Elastic Constant Matrix: (Units=GPa)
#
#
# Indices 1 2 3 4 5 6 
#
# 1 166.2786 23.3025 66.4505 0.0000 32.4951 0.0000
# 2 23.3025 48.0250 11.8773 0.0000 12.5072 0.0000
# 3 66.4505 11.8773 123.7898 0.0000 37.0786 0.0000
# 4 0.0000 0.0000 0.0000 19.9412 0.0000 9.3090
# 5 32.4951 12.5072 37.0786 0.0000 57.4467 0.0000
# 6 0.0000 0.0000 0.0000 9.3090 0.0000 25.4276
#
#
#
# Elastic Compliance Matrix: (Units=1/GPa)
#
#
# Indices 1 2 3 4 5 6 
#
# 1 0.008161 -0.002620 -0.003617 0.000000 -0.001712 0.000000
# 2 -0.002620 0.022986 0.000317 0.000000 -0.003727 0.000000
# 3 -0.003617 0.000317 0.011649 0.000000 -0.005542 0.000000
# 4 0.000000 0.000000 0.000000 0.060484 0.000000 -0.022143
# 5 -0.001712 -0.003727 -0.005542 0.000000 0.022764 0.000000
# 6 0.000000 0.000000 0.000000 -0.022143 0.000000 0.047434
#
#
# Mechanical properties :
#
#
# Convention : Reuss Voigt Hill
#
# Bulk Modulus (GPa) = 32.30209 60.15045 46.22627
# Shear Modulus (GPa) = 25.55762 36.32732 30.94247
#
# Velocity S-wave (km/s) = 3.28983 3.92220 3.61985
# Velocity P-wave (km/s) = 5.30186 6.78112 6.08660
#
# Compressibility (1/GPa) = 0.03095775
#
# Stress axis : x y z
#
# Youngs Moduli (GPa) = 122.53394 43.50503 85.84182
#
# Poissons Ratio (x) = 0.11397 0.31048
# Poissons Ratio (y) = 0.32099 -0.02723
# Poissons Ratio (z) = 0.44319 -0.01380
#
# Static dielectric constant tensor:
#      x y z
#    x 4.487890 0.000000 0.612270 
#    y 0.000000 4.231470 0.000000 
#    z 0.612270 0.000000 4.757160 
# 
# 
# High freq. dielectric constant tensor:
#      x y z
#    x 1.936760 0.000000 0.017930 
#    y 0.000000 1.900430 0.000000 
#    z 0.017930 0.000000 1.945930 
# 
# From -- ./inp_files/131938.got.cif
#   From: 2010.06.25/outbox.cif.g09.slc.cpg/sg15_66_cif.got.tgz:131938.got - 2010.06.28 07:06:18.
