data_PCOD8135936
_publ_section_title
;
Structure prediction by ZEFSAII (Michael W. Deem and Ramdas Pophale) SiO2 
 PCOD8135936
Probable space group: C 2/C
;
_chemical_formula_sum "Si O2"
_cell_formula_units_Z 56
_cell_length_a 18.934220
_cell_length_b 15.146048
_cell_length_c 11.325689
_cell_angle_alpha 90.000000
_cell_angle_beta 125.009814
_cell_angle_gamma 90.000000
_cell_volume 2660.258270
_symmetry_space_group_name_H-M "C 2/C"
_symmetry_group_IT_number 15
_symmetry_cell_setting 'monoclinic'
loop_
_space_group_symop_operation_xyz
x,y,z
-x,y,1/2-z
-x,-y,-z
x,-y,1/2+z
1/2+x,1/2+y,z
1/2-x,1/2+y,1/2-z
1/2-x,1/2-y,-z
1/2+x,1/2-y,1/2+z
loop_
_atom_site_type_symbol
_atom_site_label
_atom_site_fract_x
_atom_site_fract_y
_atom_site_fract_z
Si Si1 0.715941 0.634004 0.601871
Si Si2 0.629942 0.968857 0.137434
Si Si3 0.670680 0.239482 0.252584
Si Si4 0.901775 0.017476 0.433913
Si Si5 0.764479 0.048106 0.107161
Si Si6 0.522266 0.887721 0.639836
Si Si7 0.309242 0.624888 0.522890
O O1 0.800050 0.592087 0.738147
O O2 0.701236 0.727995 0.651834
O O3 0.632926 0.574600 0.549183
O O4 0.730993 0.635349 0.473643
O O5 0.676383 0.043544 0.099345
O O6 0.574952 0.020624 0.182647
O O7 0.568305 0.899264 0.012725
O O8 0.579011 0.192641 0.143543
O O9 0.658801 0.319717 0.333903
O O10 0.742364 0.174401 0.373492
O O11 0.850404 0.047056 0.267982
O O12 0.891071 0.094696 0.522198
O O13 0.000000 0.000000 0.500000
O O14 0.759553 0.961860 0.019161
O O15 0.500000 0.862890 0.750000
#
# Coordination Sequence:
#
# PCOD8135936 Si02
#       7
#     8   8   8   8   8   8   8
#     4  10  21  37  59  87 124 160 204 246 312 370
#     4  10  20  40  60  89 119 163 206 252 299 373
#     4  11  21  38  58  96 123 155 203 260 316 359
#     4  10  21  38  58  90 118 160 208 248 300 372
#     4  10  19  41  65  85 117 168 207 246 300 384
#     4  11  23  35  61  92 123 155 207 259 307 354
#     4  10  21  36  61  86 123 160 201 256 311 361
#
# _framework density 21.050587
#
# number of rings (size 3 to 8) (size 9 to 14) (size 15 to 20)
#    0.000    1.714    2.857    4.286    2.000    3.429 
#    0.000    2.857    0.000    0.000   11.143    0.000 
#    0.000    0.000    0.000    0.000    0.000    0.000 
#
# Total GULP energy -347093.398642 kJ/mol
# GULP energy per Si atom -12396.192809 kJ/mol
# Density = 2.100268 g / cm^3
# Si number density = 21.050587 Si / 1000 Ang^3
#
#
#
# Elastic Constant Matrix: (Units=GPa)
#
#
# Indices 1 2 3 4 5 6 
#
# 1 108.3603 7.7621 46.0262 0.0000 9.8978 0.0000
# 2 7.7621 27.7562 19.5605 0.0000 -3.7287 0.0000
# 3 46.0262 19.5605 67.8503 0.0000 0.9347 0.0000
# 4 0.0000 0.0000 0.0000 155.3427 0.0000 -48.7283
# 5 9.8978 -3.7287 0.9347 0.0000 40.1074 0.0000
# 6 0.0000 0.0000 0.0000 -48.7283 0.0000 51.6642
#
#
#
# Elastic Compliance Matrix: (Units=1/GPa)
#
#
# Indices 1 2 3 4 5 6 
#
# 1 0.013508 0.002850 -0.009946 0.000000 -0.002837 0.000000
# 2 0.002850 0.046645 -0.015436 0.000000 0.003993 0.000000
# 3 -0.009946 -0.015436 0.025929 0.000000 0.000415 0.000000
# 4 0.000000 0.000000 0.000000 0.009142 0.000000 0.008623
# 5 -0.002837 0.003993 0.000415 0.000000 0.025995 0.000000
# 6 0.000000 0.000000 0.000000 0.008623 0.000000 0.027488
#
#
# Mechanical properties :
#
#
# Convention : Reuss Voigt Hill
#
# Bulk Modulus (GPa) = 24.37838 38.96273 31.67056
# Shear Modulus (GPa) = 24.10295 58.13072 41.11683
#
# Velocity S-wave (km/s) = 3.38746 5.26068 4.42434
# Velocity P-wave (km/s) = 5.18708 7.44640 6.41696
#
# Compressibility (1/GPa) = 0.04101995
#
# Stress axis : x y z
#
# Youngs Moduli (GPa) = 74.03091 21.43841 38.56639
#
# Poissons Ratio (x) = -0.06111 0.38357
# Poissons Ratio (y) = -0.21102 0.59531
# Poissons Ratio (z) = 0.73629 0.33092
#
# Static dielectric constant tensor:
#      x y z
#    x 4.378660 0.000000 -0.260210 
#    y 0.000000 3.821320 0.000000 
#    z -0.260210 0.000000 3.931920 
# 
# 
# High freq. dielectric constant tensor:
#      x y z
#    x 1.832040 0.000000 -0.008600 
#    y 0.000000 1.808200 0.000000 
#    z -0.008600 0.000000 1.821550 
# 
# From -- ./inp_files/105796.got.cif
#   From: 2010.06.25/outbox.cif.g09.slc.cpg/sg15_53_cif.got.tgz:105796.got - 2010.06.28 07:06:18.
