data_PCOD8135922
_publ_section_title
;
Structure prediction by ZEFSAII (Michael W. Deem and Ramdas Pophale) SiO2 
 PCOD8135922
Probable space group: C 2/C
;
_chemical_formula_sum "Si O2"
_cell_formula_units_Z 60
_cell_length_a 14.760647
_cell_length_b 16.590365
_cell_length_c 20.177419
_cell_angle_alpha 90.000000
_cell_angle_beta 37.828327
_cell_angle_gamma 90.000000
_cell_volume 3030.387981
_symmetry_space_group_name_H-M "C 2/C"
_symmetry_group_IT_number 15
_symmetry_cell_setting 'monoclinic'
loop_
_space_group_symop_operation_xyz
x,y,z
-x,y,1/2-z
-x,-y,-z
x,-y,1/2+z
1/2+x,1/2+y,z
1/2-x,1/2+y,1/2-z
1/2-x,1/2-y,-z
1/2+x,1/2-y,1/2+z
loop_
_atom_site_type_symbol
_atom_site_label
_atom_site_fract_x
_atom_site_fract_y
_atom_site_fract_z
Si Si1 0.071495 0.102741 0.907588
Si Si2 0.754509 0.106196 0.306838
Si Si3 0.000000 0.780892 0.250000
Si Si4 0.786912 0.378979 0.072582
Si Si5 0.045150 0.275516 0.863860
Si Si6 0.949978 0.938199 0.932875
Si Si7 0.359200 0.061588 0.671024
Si Si8 0.305498 0.939816 0.516435
O O1 0.022655 0.185423 0.902823
O O2 0.244038 0.082085 0.795703
O O3 0.043310 0.109602 0.002052
O O4 0.969143 0.033556 0.934546
O O5 0.695878 0.187193 0.305845
O O6 0.742108 0.114984 0.393337
O O7 0.923177 0.093152 0.189293
O O8 0.651128 0.031894 0.343907
O O9 0.869237 0.837908 0.350314
O O10 0.946479 0.724215 0.220748
O O11 0.823698 0.380704 0.129425
O O12 0.776811 0.467946 0.050223
O O13 0.907954 0.328741 0.964228
O O14 0.793819 0.918073 0.989354
O O15 0.524678 0.077625 0.600921
#
# Coordination Sequence:
#
# PCOD8135922 Si02
#       8
#     8   8   4   8   8   8   8   8
#     4  10  23  41  63  86 130 165 194 261 323 361
#     4  10  21  39  62  89 122 160 207 252 310 356
#     4  12  26  36  62  96 130 160 196 250 328 384
#     4  11  22  40  62  97 121 161 206 254 314 369
#     4  12  23  42  60  93 128 163 195 258 318 377
#     4  10  23  40  63  92 118 166 212 252 305 371
#     4  10  19  41  63  86 121 165 207 249 304 364
#     4  11  20  39  69  91 116 162 220 260 285 377
#
# _framework density 19.799444999999999
#
# number of rings (size 3 to 8) (size 9 to 14) (size 15 to 20)
#    0.000    1.333    4.000    2.400    5.600    0.533 
#    4.800    0.667    2.933    0.000    0.000    0.000 
#    0.000    0.000    0.000    0.000    0.000    0.000 
#
# Total GULP energy -372157.673863 kJ/mol
# GULP energy per Si atom -12405.255795 kJ/mol
# Density = 1.975438 g / cm^3
# Si number density = 19.799445 Si / 1000 Ang^3
#
#
#
# Elastic Constant Matrix: (Units=GPa)
#
#
# Indices 1 2 3 4 5 6 
#
# 1 115.0267 24.3177 25.9139 0.0004 -3.0161 -0.0001
# 2 24.3177 57.6027 -4.1872 0.0001 16.2374 0.0000
# 3 25.9139 -4.1872 64.9426 -0.0001 4.6954 0.0001
# 4 0.0004 0.0001 -0.0001 -32.3076 0.0002 18.8382
# 5 -3.0161 16.2374 4.6954 0.0002 32.3534 0.0000
# 6 -0.0001 0.0000 0.0001 18.8382 0.0000 17.8256
#
#
#
# Elastic Compliance Matrix: (Units=1/GPa)
#
#
# Indices 1 2 3 4 5 6 
#
# 1 0.011458 -0.006697 -0.005381 0.000000 0.005210 0.000000
# 2 -0.006697 0.024411 0.005232 0.000000 -0.013635 0.000000
# 3 -0.005381 0.005232 0.018301 0.000000 -0.005783 0.000000
# 4 0.000000 0.000000 0.000000 -0.019151 0.000000 0.020239
# 5 0.005210 -0.013635 -0.005783 0.000000 0.039077 0.000000
# 6 0.000000 0.000000 0.000000 0.020239 0.000000 0.034710
#
#
# Mechanical properties :
#
#
# Convention : Reuss Voigt Hill
#
# Bulk Modulus (GPa) = 24.70408 36.62899 30.66653
# Shear Modulus (GPa) = 36.76727 16.34278 26.55502
#
# Velocity S-wave (km/s) = 4.31395 2.87612 3.66621
# Velocity P-wave (km/s) = 6.10883 5.43779 5.78305
#
# Compressibility (1/GPa) = 0.04047915
#
# Stress axis : x y z
#
# Youngs Moduli (GPa) = 87.27334 40.96443 54.64267
#
# Poissons Ratio (x) = 0.27434 0.29401
# Poissons Ratio (y) = 0.58447 -0.28589
# Poissons Ratio (z) = 0.46959 -0.21433
#
# Static dielectric constant tensor:
#      x y z
#    x 3.566040 0.000000 0.024900 
#    y 0.000000 3.510090 0.000000 
#    z 0.024900 0.000000 3.687450 
# 
# 
# High freq. dielectric constant tensor:
#      x y z
#    x 1.767030 0.000000 -0.003080 
#    y 0.000000 1.753920 0.000000 
#    z -0.003080 0.000000 1.782900 
# 
# From -- ./inp_files/244698.got.cif
#   From: 2010.06.25/outbox.cif.g09.slc.cpg/sg15_123_cif.got.tgz:244698.got - 2010.06.28 07:06:18.
