data_PCOD8135279
_publ_section_title
;
Structure prediction by ZEFSAII (Michael W. Deem and Ramdas Pophale) SiO2 
 PCOD8135279
Probable space group: C 2/C
;
_chemical_formula_sum "Si O2"
_cell_formula_units_Z 56
_cell_length_a 11.026643
_cell_length_b 22.411157
_cell_length_c 13.279005
_cell_angle_alpha 90.000000
_cell_angle_beta 123.535127
_cell_angle_gamma 90.000000
_cell_volume 2735.289930
_symmetry_space_group_name_H-M "C 2/C"
_symmetry_group_IT_number 15
_symmetry_cell_setting 'monoclinic'
loop_
_space_group_symop_operation_xyz
x,y,z
-x,y,1/2-z
-x,-y,-z
x,-y,1/2+z
1/2+x,1/2+y,z
1/2-x,1/2+y,1/2-z
1/2-x,1/2-y,-z
1/2+x,1/2-y,1/2+z
loop_
_atom_site_type_symbol
_atom_site_label
_atom_site_fract_x
_atom_site_fract_y
_atom_site_fract_z
Si Si1 0.500000 0.487806 0.750000
Si Si2 0.456044 0.171720 0.526011
Si Si3 0.310339 0.419324 0.039893
Si Si4 0.762349 0.282748 0.775309
Si Si5 0.019462 0.442531 0.574005
Si Si6 0.000000 0.717350 0.750000
Si Si7 0.795474 0.081908 0.306549
Si Si8 0.271808 0.704956 0.601011
O O1 0.617974 0.529266 0.860057
O O2 0.583335 0.444489 0.712043
O O3 0.364287 0.219594 0.419927
O O4 0.410437 0.105926 0.469889
O O5 0.420385 0.176694 0.628993
O O6 0.623243 0.181131 0.579155
O O7 0.360043 0.354094 0.105769
O O8 0.359741 0.428413 0.947526
O O9 0.135169 0.422045 0.954018
O O10 0.606820 0.258294 0.735639
O O11 0.733394 0.348039 0.718738
O O12 0.843113 0.242164 0.726639
O O13 0.139628 0.451549 0.717441
O O14 0.000000 0.500000 0.500000
O O15 0.250000 0.750000 0.500000
#
# Coordination Sequence:
#
# PCOD8135279 Si02
#       8
#     4   8   8   8   8   4   8   8
#     4  12  25  40  60  92 136 165 202 254 314 388
#     4   9  21  34  60  85 115 155 198 246 295 359
#     4  11  23  41  62  94 123 161 210 258 312 366
#     4  10  20  37  62  88 117 161 201 249 308 361
#     4  10  20  42  62  86 116 158 209 259 299 354
#     4  10  19  38  54  88 128 151 192 244 302 374
#     4  11  22  41  65  89 123 167 209 254 305 377
#     4  10  20  38  60  87 120 151 203 256 301 364
#
# _framework density 20.473151000000001
#
# number of rings (size 3 to 8) (size 9 to 14) (size 15 to 20)
#    0.000    1.714    2.857    1.714    0.000    1.714 
#    2.571    0.000    3.143    0.000    0.000    0.000 
#    0.000    0.000    0.000    0.000    0.000    0.000 
#
# Total GULP energy -347062.317733 kJ/mol
# GULP energy per Si atom -12395.082776 kJ/mol
# Density = 2.042655 g / cm^3
# Si number density = 20.473151 Si / 1000 Ang^3
#
#
#
# Elastic Constant Matrix: (Units=GPa)
#
#
# Indices 1 2 3 4 5 6 
#
# 1 63.3295 25.1934 31.5542 0.0000 -12.1893 0.0000
# 2 25.1934 102.3148 45.5986 0.0000 -16.3539 0.0000
# 3 31.5542 45.5986 144.8955 0.0000 -26.3762 0.0000
# 4 0.0000 0.0000 0.0000 32.6673 0.0000 -2.0983
# 5 -12.1893 -16.3539 -26.3762 0.0000 34.5696 0.0000
# 6 0.0000 0.0000 0.0000 -2.0983 0.0000 21.9155
#
#
#
# Elastic Compliance Matrix: (Units=1/GPa)
#
#
# Indices 1 2 3 4 5 6 
#
# 1 0.018892 -0.002977 -0.002579 0.000000 0.003285 0.000000
# 2 -0.002977 0.012126 -0.002688 0.000000 0.002636 0.000000
# 3 -0.002579 -0.002688 0.009188 0.000000 0.004830 0.000000
# 4 0.000000 0.000000 0.000000 0.030801 0.000000 0.002949
# 5 0.003285 0.002636 0.004830 0.000000 0.035017 0.000000
# 6 0.000000 0.000000 0.000000 0.002949 0.000000 0.045912
#
#
# Mechanical properties :
#
#
# Convention : Reuss Voigt Hill
#
# Bulk Modulus (GPa) = 42.16269 57.24803 49.70536
# Shear Modulus (GPa) = 28.35562 31.71006 30.03284
#
# Velocity S-wave (km/s) = 3.72562 3.93983 3.83422
# Velocity P-wave (km/s) = 6.25666 6.97994 6.62817
#
# Compressibility (1/GPa) = 0.02371765
#
# Stress axis : x y z
#
# Youngs Moduli (GPa) = 52.93172 82.46668 108.83488
#
# Poissons Ratio (x) = 0.24553 0.28071
# Poissons Ratio (y) = 0.15760 0.29253
# Poissons Ratio (z) = 0.13652 0.22166
#
# Static dielectric constant tensor:
#      x y z
#    x 3.698760 0.000000 0.003170 
#    y 0.000000 3.854380 0.000000 
#    z 0.003170 0.000000 4.573910 
# 
# 
# High freq. dielectric constant tensor:
#      x y z
#    x 1.787410 0.000000 -0.007000 
#    y 0.000000 1.802720 0.000000 
#    z -0.007000 0.000000 1.811080 
# 
# From -- ./inp_files/90951.got.cif
#   From: 2010.06.25/outbox.cif.g09.slc.cpg/sg15_46_cif.got.tgz:90951.got - 2010.06.28 07:06:18.
