data_PCOD8135745
_publ_section_title
;
Structure prediction by ZEFSAII (Michael W. Deem and Ramdas Pophale) SiO2 
 PCOD8135745
Probable space group: C 2/C
;
_chemical_formula_sum "Si O2"
_cell_formula_units_Z 60
_cell_length_a 19.224078
_cell_length_b 13.588972
_cell_length_c 28.385992
_cell_angle_alpha 90.000000
_cell_angle_beta 22.008634
_cell_angle_gamma 90.000000
_cell_volume 2778.904120
_symmetry_space_group_name_H-M "C 2/C"
_symmetry_group_IT_number 15
_symmetry_cell_setting 'monoclinic'
loop_
_space_group_symop_operation_xyz
x,y,z
-x,y,1/2-z
-x,-y,-z
x,-y,1/2+z
1/2+x,1/2+y,z
1/2-x,1/2+y,1/2-z
1/2-x,1/2-y,-z
1/2+x,1/2-y,1/2+z
loop_
_atom_site_type_symbol
_atom_site_label
_atom_site_fract_x
_atom_site_fract_y
_atom_site_fract_z
Si Si1 0.757599 0.738008 0.145891
Si Si2 0.276537 0.981810 0.016856
Si Si3 0.599209 0.833758 0.848774
Si Si4 0.468261 0.920900 0.215562
Si Si5 0.311462 0.437117 0.576852
Si Si6 0.370055 0.326230 0.451887
Si Si7 0.000000 0.896446 0.750000
Si Si8 0.483390 0.371939 0.560449
O O1 0.883034 0.683631 0.106406
O O2 0.659471 0.837204 0.228286
O O3 0.590231 0.668522 0.234438
O O4 0.890213 0.772406 0.018455
O O5 0.113233 0.918130 0.094134
O O6 0.171791 0.039625 0.123343
O O7 0.440718 0.914889 0.936973
O O8 0.355597 0.059190 0.928432
O O9 0.559653 0.728785 0.847614
O O10 0.800576 0.867593 0.705905
O O11 0.500000 0.886678 0.250000
O O12 0.368279 0.027894 0.281037
O O13 0.260122 0.360869 0.567923
O O14 0.449235 0.384111 0.525999
O O15 0.403414 0.532367 0.493492
O O16 0.250000 0.250000 0.500000
#
# Coordination Sequence:
#
# PCOD8135745 Si02
#       8
#     8   8   8   8   8   8   4   8
#     4  11  26  44  66  99 134 177 219 283 334 403
#     4  11  26  45  66  97 136 185 222 275 330 411
#     4  11  24  43  70  98 127 176 227 278 337 390
#     4  11  21  41  72  98 127 166 231 280 331 376
#     4  10  19  39  66  97 128 161 218 287 326 384
#     4  10  22  41  63  98 134 170 219 270 339 386
#     4  12  30  48  60  96 150 186 222 250 350 430
#     4  10  22  39  67 101 127 164 228 280 332 386
#
# _framework density 21.591245000000001
#
# number of rings (size 3 to 8) (size 9 to 14) (size 15 to 20)
#    0.000    1.333    4.667    0.000    3.733    2.133 
#    0.000    0.000    0.000    0.000    0.000    0.000 
#    0.000    0.000    0.000    0.000    0.000    0.000 
#
# Total GULP energy -371706.878800 kJ/mol
# GULP energy per Si atom -12390.229293 kJ/mol
# Density = 2.154210 g / cm^3
# Si number density = 21.591245 Si / 1000 Ang^3
#
#
#
# Elastic Constant Matrix: (Units=GPa)
#
#
# Indices 1 2 3 4 5 6 
#
# 1 92.9919 31.6351 11.8160 -0.0179 -3.7456 0.0127
# 2 31.6351 76.1074 38.9783 -0.0080 8.5693 0.0093
# 3 11.8160 38.9783 118.5155 0.1522 8.1755 0.0404
# 4 -0.0179 -0.0080 0.1522 27.7351 0.0722 -5.4281
# 5 -3.7456 8.5693 8.1755 0.0722 27.2310 0.0043
# 6 0.0127 0.0093 0.0404 -5.4281 0.0043 30.7103
#
#
#
# Elastic Compliance Matrix: (Units=1/GPa)
#
#
# Indices 1 2 3 4 5 6 
#
# 1 0.012871 -0.005970 0.000438 -0.000006 0.003518 -0.000006
# 2 -0.005970 0.018901 -0.005263 0.000046 -0.005189 0.000013
# 3 0.000438 -0.005263 0.010218 -0.000058 -0.001351 -0.000022
# 4 -0.000006 0.000046 -0.000058 0.037348 -0.000098 0.006601
# 5 0.003518 -0.005189 -0.001351 -0.000098 0.039246 -0.000021
# 6 -0.000006 0.000013 -0.000022 0.006601 -0.000021 0.033729
#
#
# Mechanical properties :
#
#
# Convention : Reuss Voigt Hill
#
# Bulk Modulus (GPa) = 49.02304 50.27483 49.64894
# Shear Modulus (GPa) = 27.66973 30.81432 29.24203
#
# Velocity S-wave (km/s) = 3.58372 3.78189 3.68414
# Velocity P-wave (km/s) = 6.31494 6.51196 6.41420
#
# Compressibility (1/GPa) = 0.02039857
#
# Stress axis : x y z
#
# Youngs Moduli (GPa) = 77.69596 52.90833 97.86323
#
# Poissons Ratio (x) = 0.31587 -0.04283
# Poissons Ratio (y) = 0.46385 0.51506
# Poissons Ratio (z) = -0.03400 0.27846
#
# Static dielectric constant tensor:
#      x y z
#    x 4.227690 -0.000180 -0.444500 
#    y -0.000180 4.324520 0.000380 
#    z -0.444500 0.000380 3.823980 
# 
# 
# High freq. dielectric constant tensor:
#      x y z
#    x 1.852190 0.000000 -0.017720 
#    y 0.000000 1.849660 0.000020 
#    z -0.017720 0.000020 1.826830 
# 
# From -- ./inp_files/317929.got.cif
#   From: 2010.06.25/outbox.cif.g09.slc.cpg/sg15_159_cif.got.tgz:317929.got - 2010.06.28 07:06:18.
