data_PCOD8135537
_publ_section_title
;
Structure prediction by ZEFSAII (Michael W. Deem and Ramdas Pophale) SiO2 
 PCOD8135537
Probable space group: C 2/C
;
_chemical_formula_sum "Si O2"
_cell_formula_units_Z 56
_cell_length_a 8.876375
_cell_length_b 18.197657
_cell_length_c 21.322417
_cell_angle_alpha 90.000000
_cell_angle_beta 121.377962
_cell_angle_gamma 90.000000
_cell_volume 2940.484145
_symmetry_space_group_name_H-M "C 2/C"
_symmetry_group_IT_number 15
_symmetry_cell_setting 'monoclinic'
loop_
_space_group_symop_operation_xyz
x,y,z
-x,y,1/2-z
-x,-y,-z
x,-y,1/2+z
1/2+x,1/2+y,z
1/2-x,1/2+y,1/2-z
1/2-x,1/2-y,-z
1/2+x,1/2-y,1/2+z
loop_
_atom_site_type_symbol
_atom_site_label
_atom_site_fract_x
_atom_site_fract_y
_atom_site_fract_z
Si Si1 0.596896 0.603728 0.855619
Si Si2 0.363420 0.190827 0.560742
Si Si3 0.000000 0.334461 0.750000
Si Si4 0.212893 0.201326 0.660614
Si Si5 0.348076 0.127171 0.340167
Si Si6 0.530949 0.916288 0.004035
Si Si7 0.279601 0.789376 0.308599
Si Si8 0.000000 0.973982 0.750000
O O1 0.468255 0.658876 0.864216
O O2 0.762957 0.597222 0.938311
O O3 0.666145 0.641115 0.806718
O O4 0.509217 0.525827 0.814843
O O5 0.250000 0.250000 0.500000
O O6 0.283249 0.167709 0.610792
O O7 0.396151 0.120028 0.524915
O O8 0.551192 0.228166 0.613320
O O9 0.969111 0.383671 0.804601
O O10 0.827258 0.285015 0.707201
O O11 0.193791 0.288857 0.651293
O O12 0.335952 0.190854 0.749040
O O13 0.478885 0.104359 0.422992
O O14 0.172450 0.078115 0.291352
O O15 0.500000 0.000000 0.000000
#
# Coordination Sequence:
#
# PCOD8135537 Si02
#       8
#     8   8   4   8   8   8   8   4
#     4  11  21  42  69  90 127 175 216 252 327 396
#     4  11  24  37  62  96 126 161 218 264 317 380
#     4  10  21  40  62  99 122 160 216 268 313 378
#     4  11  21  40  64 101 119 164 223 269 306 378
#     4  11  24  40  67  94 134 162 219 263 331 376
#     4  11  24  44  62  89 135 177 204 263 338 392
#     4  10  19  38  66  90 127 160 211 263 315 373
#     4  12  23  42  66  95 128 178 202 264 329 396
#
# _framework density 19.044481999999999
#
# number of rings (size 3 to 8) (size 9 to 14) (size 15 to 20)
#    0.000    1.143    7.143    0.429    4.000    1.714 
#    2.571    0.714    0.000    0.000    0.000    0.000 
#    0.000    0.000    0.000    0.000    0.000    0.000 
#
# Total GULP energy -346897.245007 kJ/mol
# GULP energy per Si atom -12389.187322 kJ/mol
# Density = 1.900114 g / cm^3
# Si number density = 19.044482 Si / 1000 Ang^3
#
#
#
# Elastic Constant Matrix: (Units=GPa)
#
#
# Indices 1 2 3 4 5 6 
#
# 1 98.8860 52.0591 64.2608 0.0000 -12.8689 0.0000
# 2 52.0591 117.7923 63.2994 0.0000 1.2239 0.0000
# 3 64.2608 63.2994 150.1403 0.0000 -5.5882 0.0000
# 4 0.0000 0.0000 0.0000 26.3901 0.0000 4.7636
# 5 -12.8689 1.2239 -5.5882 0.0000 36.7506 0.0000
# 6 0.0000 0.0000 0.0000 4.7636 0.0000 31.2666
#
#
#
# Elastic Compliance Matrix: (Units=1/GPa)
#
#
# Indices 1 2 3 4 5 6 
#
# 1 0.016411 -0.004700 -0.004850 0.000000 0.005166 0.000000
# 2 -0.004700 0.012365 -0.003297 0.000000 -0.002559 0.000000
# 3 -0.004850 -0.003297 0.010124 0.000000 -0.000049 0.000000
# 4 0.000000 0.000000 0.000000 0.038965 0.000000 -0.005936
# 5 0.005166 -0.002559 -0.000049 0.000000 0.029097 0.000000
# 6 0.000000 0.000000 0.000000 -0.005936 0.000000 0.032887
#
#
# Mechanical properties :
#
#
# Convention : Reuss Voigt Hill
#
# Bulk Modulus (GPa) = 75.72067 80.67303 78.19685
# Shear Modulus (GPa) = 29.42109 31.36141 30.39125
#
# Velocity S-wave (km/s) = 3.93474 4.06241 3.99908
# Velocity P-wave (km/s) = 7.77747 8.02848 7.90397
#
# Compressibility (1/GPa) = 0.01320643
#
# Stress axis : x y z
#
# Youngs Moduli (GPa) = 60.93354 80.87358 98.77181
#
# Poissons Ratio (x) = 0.38014 0.47906
# Poissons Ratio (y) = 0.28641 0.32561
# Poissons Ratio (z) = 0.29554 0.26660
#
# Static dielectric constant tensor:
#      x y z
#    x 3.545650 0.000000 -0.089290 
#    y 0.000000 3.491430 0.000000 
#    z -0.089290 0.000000 3.755520 
# 
# 
# High freq. dielectric constant tensor:
#      x y z
#    x 1.734110 0.000000 0.004430 
#    y 0.000000 1.732600 0.000000 
#    z 0.004430 0.000000 1.763610 
# 
# From -- ./inp_files/232823.got.cif
#   From: 2010.06.25/outbox.cif.g09.slc.cpg/sg15_117_cif.got.tgz:232823.got - 2010.06.28 07:06:18.
