data_PCOD8135183
_publ_section_title
;
Structure prediction by ZEFSAII (Michael W. Deem and Ramdas Pophale) SiO2 
 PCOD8135183
Probable space group: C 2/C
;
_chemical_formula_sum "Si O2"
_cell_formula_units_Z 60
_cell_length_a 11.874857
_cell_length_b 13.858384
_cell_length_c 19.501501
_cell_angle_alpha 90.000000
_cell_angle_beta 110.621279
_cell_angle_gamma 90.000000
_cell_volume 3003.667331
_symmetry_space_group_name_H-M "C 2/C"
_symmetry_group_IT_number 15
_symmetry_cell_setting 'monoclinic'
loop_
_space_group_symop_operation_xyz
x,y,z
-x,y,1/2-z
-x,-y,-z
x,-y,1/2+z
1/2+x,1/2+y,z
1/2-x,1/2+y,1/2-z
1/2-x,1/2-y,-z
1/2+x,1/2-y,1/2+z
loop_
_atom_site_type_symbol
_atom_site_label
_atom_site_fract_x
_atom_site_fract_y
_atom_site_fract_z
Si Si1 0.000000 0.749480 0.750000
Si Si2 0.758443 0.130933 0.175019
Si Si3 0.010118 0.117510 0.455492
Si Si4 0.604301 0.720702 0.721347
Si Si5 0.271857 0.140312 0.490470
Si Si6 0.742857 0.580589 0.843852
Si Si7 0.969028 0.075197 0.596726
Si Si8 0.987979 0.330556 0.392391
O O1 0.886701 0.817800 0.709989
O O2 0.981445 0.676393 0.808968
O O3 0.658381 0.184839 0.198068
O O4 0.765263 0.019606 0.200541
O O5 0.713152 0.125371 0.087177
O O6 0.152560 0.089358 0.494860
O O7 0.945337 0.114005 0.514883
O O8 0.983247 0.220754 0.418021
O O9 0.967596 0.031286 0.394874
O O10 0.500000 0.755635 0.750000
O O11 0.705900 0.667348 0.786480
O O12 0.558448 0.646777 0.654353
O O13 0.250000 0.250000 0.500000
O O14 0.393624 0.111271 0.556824
O O15 0.658686 0.571402 0.892406
O O16 0.877323 0.606450 0.897404
#
# Coordination Sequence:
#
# PCOD8135183 Si02
#       8
#     4   8   8   8   8   8   8   8
#     4  12  22  38  70  90 120 160 218 260 300 356
#     4  12  23  42  65  92 122 168 205 261 305 371
#     4  10  20  38  64  91 122 158 210 251 301 371
#     4  10  23  40  62  85 127 163 198 256 312 374
#     4  10  19  37  64  90 122 160 204 253 310 355
#     4  11  24  39  63  94 123 161 212 250 317 365
#     4  10  21  39  63  92 119 165 206 251 307 366
#     4  11  23  38  62  97 126 161 203 266 306 368
#
# _framework density 19.975580999999998
#
# number of rings (size 3 to 8) (size 9 to 14) (size 15 to 20)
#    0.000    1.333    5.333    1.600    4.667    1.067 
#    1.200    0.000    5.867    0.000    0.000    0.000 
#    0.000    0.000    0.000    0.000    0.000    0.000 
#
# Total GULP energy -371883.865476 kJ/mol
# GULP energy per Si atom -12396.128849 kJ/mol
# Density = 1.993012 g / cm^3
# Si number density = 19.975581 Si / 1000 Ang^3
#
#
#
# Elastic Constant Matrix: (Units=GPa)
#
#
# Indices 1 2 3 4 5 6 
#
# 1 122.9186 46.2092 52.1457 0.0000 -2.6559 0.0000
# 2 46.2092 63.1483 23.7104 0.0000 -15.8337 0.0000
# 3 52.1457 23.7104 100.3023 0.0000 -8.7751 0.0000
# 4 0.0000 0.0000 0.0000 19.5665 0.0000 -6.0073
# 5 -2.6559 -15.8337 -8.7751 0.0000 31.4509 0.0000
# 6 0.0000 0.0000 0.0000 -6.0073 0.0000 27.4479
#
#
#
# Elastic Compliance Matrix: (Units=1/GPa)
#
#
# Indices 1 2 3 4 5 6 
#
# 1 0.013850 -0.009365 -0.005429 0.000000 -0.005060 0.000000
# 2 -0.009365 0.025798 -0.000167 0.000000 0.012150 0.000000
# 3 -0.005429 -0.000167 0.013104 0.000000 0.003114 0.000000
# 4 0.000000 0.000000 0.000000 0.054789 0.000000 0.011991
# 5 -0.005060 0.012150 0.003114 0.000000 0.038354 0.000000
# 6 0.000000 0.000000 0.000000 0.011991 0.000000 0.039057
#
#
# Mechanical properties :
#
#
# Convention : Reuss Voigt Hill
#
# Bulk Modulus (GPa) = 43.80161 58.94441 51.37301
# Shear Modulus (GPa) = 22.47349 26.64667 24.56008
#
# Velocity S-wave (km/s) = 3.35781 3.65631 3.51023
# Velocity P-wave (km/s) = 6.08345 6.88455 6.49636
#
# Compressibility (1/GPa) = 0.02283021
#
# Stress axis : x y z
#
# Youngs Moduli (GPa) = 72.20201 38.76313 76.31089
#
# Poissons Ratio (x) = 0.36302 0.41432
# Poissons Ratio (y) = 0.67617 0.01271
# Poissons Ratio (z) = 0.39201 0.00646
#
# Static dielectric constant tensor:
#      x y z
#    x 4.708930 0.000000 0.728600 
#    y 0.000000 3.740140 0.000000 
#    z 0.728600 0.000000 4.263530 
# 
# 
# High freq. dielectric constant tensor:
#      x y z
#    x 1.782010 0.000000 -0.007000 
#    y 0.000000 1.773780 0.000000 
#    z -0.007000 0.000000 1.777800 
# 
# From -- ./inp_files/198379.got.cif
#   From: 2010.06.25/outbox.cif.g09.slc.cpg/sg15_100_cif.got.tgz:198379.got - 2010.06.28 07:06:18.
