data_PCOD8135711
_publ_section_title
;
Structure prediction by ZEFSAII (Michael W. Deem and Ramdas Pophale) SiO2 
 PCOD8135711
Probable space group: C 2/C
;
_chemical_formula_sum "Si O2"
_cell_formula_units_Z 48
_cell_length_a 9.095116
_cell_length_b 22.693301
_cell_length_c 11.342867
_cell_angle_alpha 90.000000
_cell_angle_beta 94.225053
_cell_angle_gamma 90.000000
_cell_volume 2334.784988
_symmetry_space_group_name_H-M "C 2/C"
_symmetry_group_IT_number 15
_symmetry_cell_setting 'monoclinic'
loop_
_space_group_symop_operation_xyz
x,y,z
-x,y,1/2-z
-x,-y,-z
x,-y,1/2+z
1/2+x,1/2+y,z
1/2-x,1/2+y,1/2-z
1/2-x,1/2-y,-z
1/2+x,1/2-y,1/2+z
loop_
_atom_site_type_symbol
_atom_site_label
_atom_site_fract_x
_atom_site_fract_y
_atom_site_fract_z
Si Si1 0.224369 0.397345 0.440205
Si Si2 0.160738 0.706062 0.302270
Si Si3 0.098747 0.617929 0.497340
Si Si4 0.660082 0.392693 0.811235
Si Si5 0.666689 0.821455 0.227997
Si Si6 0.658915 0.980710 0.821288
O O1 0.352701 0.398003 0.546729
O O2 0.251307 0.344141 0.349736
O O3 0.218669 0.456393 0.363381
O O4 0.076445 0.387322 0.505879
O O5 0.147825 0.675177 0.427714
O O6 0.234256 0.661812 0.213463
O O7 0.255853 0.764660 0.321202
O O8 0.000000 0.724388 0.250000
O O9 0.166793 0.625591 0.631839
O O10 0.156104 0.558807 0.439070
O O11 0.500000 0.380416 0.750000
O O12 0.726266 0.453366 0.764457
O O13 0.500000 0.804008 0.250000
O O14 0.500000 0.985610 0.750000
#
# Coordination Sequence:
#
# PCOD8135711 Si02
#       6
#     8   8   8   8   8   8
#     4  11  22  39  64  95 125 160 209 257 306 370
#     4  11  21  43  64  87 120 167 213 256 305 370
#     4  10  19  39  64  94 121 157 207 258 305 366
#     4  11  24  42  62  89 126 169 204 251 318 370
#     4  10  23  38  60  96 125 159 200 264 313 363
#     4  11  21  38  70  93 121 165 209 254 302 373
#
# _framework density 20.55864
#
# number of rings (size 3 to 8) (size 9 to 14) (size 15 to 20)
#    0.000    1.333    3.333    4.000    2.333    1.333 
#    9.000    0.833    0.000    0.000    0.000    0.000 
#    0.000    0.000    0.000    0.000    0.000    0.000 
#
# Total GULP energy -297637.730273 kJ/mol
# GULP energy per Si atom -12401.572095 kJ/mol
# Density = 2.051185 g / cm^3
# Si number density = 20.558640 Si / 1000 Ang^3
#
#
#
# Elastic Constant Matrix: (Units=GPa)
#
#
# Indices 1 2 3 4 5 6 
#
# 1 55.9528 23.1285 31.3046 0.0000 17.1912 0.0000
# 2 23.1285 93.3209 24.0056 0.0000 7.2572 0.0000
# 3 31.3046 24.0056 111.8441 0.0000 20.5272 0.0000
# 4 0.0000 0.0000 0.0000 20.7388 0.0000 -2.4905
# 5 17.1912 7.2572 20.5272 0.0000 24.7902 0.0000
# 6 0.0000 0.0000 0.0000 -2.4905 0.0000 30.1025
#
#
#
# Elastic Compliance Matrix: (Units=1/GPa)
#
#
# Indices 1 2 3 4 5 6 
#
# 1 0.026011 -0.004402 -0.003846 0.000000 -0.013565 0.000000
# 2 -0.004402 0.012137 -0.001511 0.000000 0.000751 0.000000
# 3 -0.003846 -0.001511 0.011522 0.000000 -0.006431 0.000000
# 4 0.000000 0.000000 0.000000 0.048703 0.000000 0.004029
# 5 -0.013565 0.000751 -0.006431 0.000000 0.054851 0.000000
# 6 0.000000 0.000000 0.000000 0.004029 0.000000 0.033553
#
#
# Mechanical properties :
#
#
# Convention : Reuss Voigt Hill
#
# Bulk Modulus (GPa) = 33.16471 46.44393 39.80432
# Shear Modulus (GPa) = 23.11113 27.30491 25.20802
#
# Velocity S-wave (km/s) = 3.35648 3.64833 3.50544
# Velocity P-wave (km/s) = 5.58463 6.35508 5.98227
#
# Compressibility (1/GPa) = 0.03015253
#
# Stress axis : x y z
#
# Youngs Moduli (GPa) = 38.44467 82.39271 86.78971
#
# Poissons Ratio (x) = 0.36273 0.33379
# Poissons Ratio (y) = 0.16925 0.13110
# Poissons Ratio (z) = 0.14786 0.12446
#
# Static dielectric constant tensor:
#      x y z
#    x 3.544180 0.000000 -0.082780 
#    y 0.000000 3.623850 0.000000 
#    z -0.082780 0.000000 3.937340 
# 
# 
# High freq. dielectric constant tensor:
#      x y z
#    x 1.777240 0.000000 -0.003580 
#    y 0.000000 1.804250 0.000000 
#    z -0.003580 0.000000 1.821940 
# 
# From -- ./inp_files/79092.got.cif
#   From: 2010.06.25/outbox.cif.g09.slc.cpg/sg15_40_cif.got.tgz:79092.got - 2010.06.28 07:06:18.
