data_PCOD8135156
_publ_section_title
;
Structure prediction by ZEFSAII (Michael W. Deem and Ramdas Pophale) SiO2 
 PCOD8135156
Probable space group: C 2/C
;
_chemical_formula_sum "Si O2"
_cell_formula_units_Z 60
_cell_length_a 8.586501
_cell_length_b 27.517417
_cell_length_c 22.465944
_cell_angle_alpha 90.000000
_cell_angle_beta 33.984921
_cell_angle_gamma 90.000000
_cell_volume 2967.158275
_symmetry_space_group_name_H-M "C 2/C"
_symmetry_group_IT_number 15
_symmetry_cell_setting 'monoclinic'
loop_
_space_group_symop_operation_xyz
x,y,z
-x,y,1/2-z
-x,-y,-z
x,-y,1/2+z
1/2+x,1/2+y,z
1/2-x,1/2+y,1/2-z
1/2-x,1/2-y,-z
1/2+x,1/2-y,1/2+z
loop_
_atom_site_type_symbol
_atom_site_label
_atom_site_fract_x
_atom_site_fract_y
_atom_site_fract_z
Si Si1 0.822719 0.455092 0.925415
Si Si2 0.129187 0.341159 0.143213
Si Si3 0.500000 0.903332 0.750000
Si Si4 0.254278 0.731760 0.780203
Si Si5 0.402349 0.299279 0.438979
Si Si6 0.174512 0.550673 0.634608
Si Si7 0.923036 0.630837 0.090020
Si Si8 0.613562 0.660810 0.302873
O O1 0.906777 0.511942 0.891672
O O2 0.882174 0.434859 0.840979
O O3 0.007489 0.425700 0.915812
O O4 0.501956 0.452262 0.046885
O O5 0.445203 0.320707 0.050403
O O6 0.116325 0.396567 0.125029
O O7 0.000000 0.338795 0.250000
O O8 0.983583 0.309519 0.136591
O O9 0.761380 0.869718 0.683142
O O10 0.500000 0.731212 0.750000
O O11 0.372668 0.715338 0.680195
O O12 0.093997 0.783060 0.828398
O O13 0.250000 0.250000 0.500000
O O14 0.195573 0.341109 0.480280
O O15 0.000000 0.541111 0.750000
O O16 0.820145 0.658860 0.181328
O O17 0.683768 0.635710 0.116416
#
# Coordination Sequence:
#
# PCOD8135156 Si02
#       8
#     8   8   4   8   8   8   8   8
#     4  10  20  36  64  90 117 150 201 246 296 352
#     4   9  20  35  58  79 112 157 196 232 287 357
#     4  10  20  38  58  92 120 152 194 254 298 354
#     4  11  22  37  53  83 120 157 191 248 298 341
#     4  11  19  34  57  83 112 153 204 232 282 367
#     4  10  19  37  63  91 115 156 200 241 294 360
#     4  10  20  35  57  86 111 152 194 243 285 354
#     4  10  20  36  58  82 121 149 193 242 300 346
#
# _framework density 20.221368999999999
#
# number of rings (size 3 to 8) (size 9 to 14) (size 15 to 20)
#    0.000    1.867    4.000    0.800    3.733    0.000 
#    2.400    1.333    5.867    3.200    0.000    0.000 
#    0.000    0.000    0.000    0.000    0.000    0.000 
#
# Total GULP energy -371747.495655 kJ/mol
# GULP energy per Si atom -12391.583189 kJ/mol
# Density = 2.017534 g / cm^3
# Si number density = 20.221369 Si / 1000 Ang^3
#
#
#
# Elastic Constant Matrix: (Units=GPa)
#
#
# Indices 1 2 3 4 5 6 
#
# 1 100.2713 68.5706 24.7904 0.0000 -38.8774 0.0001
# 2 68.5706 184.9308 40.1263 -0.0001 -30.3992 0.0001
# 3 24.7904 40.1263 77.5733 -0.0018 -19.1994 -0.0003
# 4 0.0000 -0.0001 -0.0018 22.7293 0.0001 -14.5852
# 5 -38.8774 -30.3992 -19.1994 0.0001 33.3804 -0.0001
# 6 0.0001 0.0001 -0.0003 -14.5852 -0.0001 19.9100
#
#
#
# Elastic Compliance Matrix: (Units=1/GPa)
#
#
# Indices 1 2 3 4 5 6 
#
# 1 0.020873 -0.004514 0.000774 0.000000 0.020644 0.000000
# 2 -0.004514 0.007663 -0.002443 0.000000 0.000317 0.000000
# 3 0.000774 -0.002443 0.015834 0.000003 0.007784 0.000002
# 4 0.000000 0.000000 0.000003 0.083024 0.000001 0.060820
# 5 0.020644 0.000317 0.007784 0.000001 0.058767 0.000001
# 6 0.000000 0.000000 0.000002 0.060820 0.000001 0.094780
#
#
# Mechanical properties :
#
#
# Convention : Reuss Voigt Hill
#
# Bulk Modulus (GPa) = 31.24617 69.97222 50.60919
# Shear Modulus (GPa) = 16.44876 30.48981 23.46928
#
# Velocity S-wave (km/s) = 2.85517 3.88725 3.41048
# Velocity P-wave (km/s) = 5.13371 7.40445 6.37106
#
# Compressibility (1/GPa) = 0.03200393
#
# Stress axis : x y z
#
# Youngs Moduli (GPa) = 47.90963 130.49336 63.15564
#
# Poissons Ratio (x) = 0.58901 -0.04888
# Poissons Ratio (y) = 0.21625 0.15430
# Poissons Ratio (z) = -0.03708 0.31881
#
# Static dielectric constant tensor:
#      x y z
#    x 3.490780 0.000000 -0.226900 
#    y 0.000000 3.861020 0.000000 
#    z -0.226900 0.000000 3.576830 
# 
# 
# High freq. dielectric constant tensor:
#      x y z
#    x 1.753550 0.000000 -0.016640 
#    y 0.000000 1.803890 0.000000 
#    z -0.016640 0.000000 1.792040 
# 
# From -- ./inp_files/290304.got.cif
#   From: 2010.06.25/outbox.cif.g09.slc.cpg/sg15_146_cif.got.tgz:290304.got - 2010.06.28 07:06:18.
