data_PCOD8135519
_publ_section_title
;
Structure prediction by ZEFSAII (Michael W. Deem and Ramdas Pophale) SiO2 
 PCOD8135519
Probable space group: C 2/C
;
_chemical_formula_sum "Si O2"
_cell_formula_units_Z 48
_cell_length_a 9.669731
_cell_length_b 16.821017
_cell_length_c 30.217319
_cell_angle_alpha 90.000000
_cell_angle_beta 151.449869
_cell_angle_gamma 90.000000
_cell_volume 2349.008520
_symmetry_space_group_name_H-M "C 2/C"
_symmetry_group_IT_number 15
_symmetry_cell_setting 'monoclinic'
loop_
_space_group_symop_operation_xyz
x,y,z
-x,y,1/2-z
-x,-y,-z
x,-y,1/2+z
1/2+x,1/2+y,z
1/2-x,1/2+y,1/2-z
1/2-x,1/2-y,-z
1/2+x,1/2-y,1/2+z
loop_
_atom_site_type_symbol
_atom_site_label
_atom_site_fract_x
_atom_site_fract_y
_atom_site_fract_z
Si Si1 0.596797 0.160725 0.229619
Si Si2 0.300297 0.954977 0.582009
Si Si3 0.740090 0.908223 0.023970
Si Si4 0.222458 0.806677 0.202710
Si Si5 0.817171 0.065147 0.737327
Si Si6 0.369985 0.446962 0.614025
O O1 0.500000 0.195283 0.250000
O O2 0.374243 0.094924 0.147274
O O3 0.632339 0.227436 0.202678
O O4 0.902920 0.122713 0.327605
O O5 0.300326 0.896520 0.539753
O O6 0.540717 0.021105 0.640196
O O7 0.000000 0.000000 0.500000
O O8 0.947539 0.836704 0.097533
O O9 0.872622 0.995981 0.071436
O O10 0.436783 0.903535 0.964869
O O11 0.500000 0.790338 0.250000
O O12 0.306300 0.873345 0.261841
O O13 0.000000 0.109186 0.750000
O O14 0.045982 0.002034 0.820967
#
# Coordination Sequence:
#
# PCOD8135519 Si02
#       6
#     8   8   8   8   8   8
#     4  11  25  44  62  88 129 172 208 253 317 380
#     4  11  22  37  68  96 125 156 215 266 311 363
#     4  10  20  39  64  98 120 158 210 266 308 365
#     4  11  25  41  61  89 132 172 207 253 313 378
#     4  10  19  38  65  91 125 168 205 253 314 374
#     4   9  20  38  66  90 123 161 209 259 310 370
#
# _framework density 20.434152000000001
#
# number of rings (size 3 to 8) (size 9 to 14) (size 15 to 20)
#    0.000    1.667    1.667    2.500    2.333    5.333 
#    3.000    0.833    0.000    0.000    0.000    0.000 
#    0.000    0.000    0.000    0.000    0.000    0.000 
#
# Total GULP energy -297556.617977 kJ/mol
# GULP energy per Si atom -12398.192416 kJ/mol
# Density = 2.038764 g / cm^3
# Si number density = 20.434152 Si / 1000 Ang^3
#
#
#
# Elastic Constant Matrix: (Units=GPa)
#
#
# Indices 1 2 3 4 5 6 
#
# 1 125.6646 42.8249 42.9641 -0.0004 0.5840 -0.0002
# 2 42.8249 82.9114 46.5137 -0.0016 11.7512 -0.0003
# 3 42.9641 46.5137 128.0929 -0.0053 6.5370 -0.0010
# 4 -0.0004 -0.0016 -0.0053 19.0194 -0.0007 -0.0530
# 5 0.5840 11.7512 6.5370 -0.0007 29.1022 -0.0011
# 6 -0.0002 -0.0003 -0.0010 -0.0530 -0.0011 31.6481
#
#
#
# Elastic Compliance Matrix: (Units=1/GPa)
#
#
# Indices 1 2 3 4 5 6 
#
# 1 0.010108 -0.004454 -0.001876 -0.000001 0.002017 0.000000
# 2 -0.004454 0.017845 -0.004676 0.000000 -0.006066 0.000000
# 3 -0.001876 -0.004676 0.010152 0.000002 -0.000355 0.000000
# 4 -0.000001 0.000000 0.000002 0.052578 0.000001 0.000088
# 5 0.002017 -0.006066 -0.000355 0.000001 0.036850 0.000001
# 6 0.000000 0.000000 0.000000 0.000088 0.000001 0.031598
#
#
# Mechanical properties :
#
#
# Convention : Reuss Voigt Hill
#
# Bulk Modulus (GPa) = 62.14273 66.80825 64.47549
# Shear Modulus (GPa) = 26.80860 29.57835 28.19347
#
# Velocity S-wave (km/s) = 3.62602 3.80872 3.71849
# Velocity P-wave (km/s) = 6.92877 7.21853 7.07514
#
# Compressibility (1/GPa) = 0.01609199
#
# Stress axis : x y z
#
# Youngs Moduli (GPa) = 98.93559 56.03818 98.50131
#
# Poissons Ratio (x) = 0.24961 0.18476
# Poissons Ratio (y) = 0.44069 0.46063
# Poissons Ratio (z) = 0.18557 0.26205
#
# Static dielectric constant tensor:
#      x y z
#    x 3.709380 0.000000 -0.041670 
#    y 0.000000 3.465460 -0.000010 
#    z -0.041670 -0.000010 3.445090 
# 
# 
# High freq. dielectric constant tensor:
#      x y z
#    x 1.804530 0.000000 -0.004120 
#    y 0.000000 1.775980 0.000000 
#    z -0.004120 0.000000 1.812650 
# 
# From -- ./inp_files/308831.got.cif
#   From: 2010.06.25/outbox.cif.g09.slc.cpg/sg15_155_cif.got.tgz:308831.got - 2010.06.28 07:06:18.
