data_PCOD8135223
_publ_section_title
;
Structure prediction by ZEFSAII (Michael W. Deem and Ramdas Pophale) SiO2 
 PCOD8135223
Probable space group: C 2/C
;
_chemical_formula_sum "Si O2"
_cell_formula_units_Z 56
_cell_length_a 11.765135
_cell_length_b 29.602308
_cell_length_c 8.987996
_cell_angle_alpha 90.000000
_cell_angle_beta 56.243636
_cell_angle_gamma 90.000000
_cell_volume 2602.552532
_symmetry_space_group_name_H-M "C 2/C"
_symmetry_group_IT_number 15
_symmetry_cell_setting 'monoclinic'
loop_
_space_group_symop_operation_xyz
x,y,z
-x,y,1/2-z
-x,-y,-z
x,-y,1/2+z
1/2+x,1/2+y,z
1/2-x,1/2+y,1/2-z
1/2-x,1/2-y,-z
1/2+x,1/2-y,1/2+z
loop_
_atom_site_type_symbol
_atom_site_label
_atom_site_fract_x
_atom_site_fract_y
_atom_site_fract_z
Si Si1 0.610661 0.159216 0.038462
Si Si2 0.858000 0.714203 0.766220
Si Si3 0.357953 0.477277 0.631676
Si Si4 0.237658 0.114205 0.337660
Si Si5 0.159423 0.815266 0.650426
Si Si6 0.825714 0.491806 0.478009
Si Si7 0.502750 0.928336 0.973855
O O1 0.500000 0.169559 0.250000
O O2 0.751037 0.144656 0.021149
O O3 0.571266 0.119697 0.948575
O O4 0.632219 0.201902 0.915798
O O5 0.817032 0.766726 0.791030
O O6 0.000000 0.706988 0.750000
O O7 0.738135 0.685367 0.934384
O O8 0.500000 0.500000 0.500000
O O9 0.378871 0.424485 0.567129
O O10 0.228087 0.503263 0.650255
O O11 0.316633 0.481494 0.833262
O O12 0.224451 0.145937 0.203983
O O13 0.373992 0.083309 0.228799
O O14 0.000000 0.826247 0.750000
O O15 0.932935 0.450281 0.422099
O O16 0.898631 0.537719 0.472374
#
# Coordination Sequence:
#
# PCOD8135223 Si02
#       7
#     8   8   8   8   8   8   8
#     4  10  19  37  65  99 130 156 205 273 332 380
#     4  10  21  42  69  98 127 169 218 265 329 396
#     4  11  23  41  57  81 124 174 210 253 318 386
#     4  10  21  39  62  86 126 166 205 268 324 380
#     4  10  23  44  65  91 135 174 212 267 326 399
#     4  10  21  38  59  84 120 160 207 262 318 370
#     4   9  19  35  61  89 117 152 204 264 323 363
#
# _framework density 21.517337000000001
#
# number of rings (size 3 to 8) (size 9 to 14) (size 15 to 20)
#    0.000    2.000    1.429    2.143    2.000    4.571 
#   12.857    0.714    0.000    0.000    0.000    0.000 
#    0.000    0.000    0.000    0.000    0.000    0.000 
#
# Total GULP energy -346930.530094 kJ/mol
# GULP energy per Si atom -12390.376075 kJ/mol
# Density = 2.146836 g / cm^3
# Si number density = 21.517337 Si / 1000 Ang^3
#
#
#
# Elastic Constant Matrix: (Units=GPa)
#
#
# Indices 1 2 3 4 5 6 
#
# 1 74.9144 39.0327 36.8908 0.0000 -4.7123 0.0000
# 2 39.0327 93.1718 49.4109 0.0000 9.8283 0.0000
# 3 36.8908 49.4109 97.0229 0.0000 2.7156 0.0000
# 4 0.0000 0.0000 0.0000 27.8851 0.0000 2.8587
# 5 -4.7123 9.8283 2.7156 0.0000 34.3662 0.0000
# 6 0.0000 0.0000 0.0000 2.8587 0.0000 26.6579
#
#
#
# Elastic Compliance Matrix: (Units=1/GPa)
#
#
# Indices 1 2 3 4 5 6 
#
# 1 0.018936 -0.006221 -0.004163 0.000000 0.004705 0.000000
# 2 -0.006221 0.017212 -0.006252 0.000000 -0.005281 0.000000
# 3 -0.004163 -0.006252 0.015073 0.000000 0.000026 0.000000
# 4 0.000000 0.000000 0.000000 0.036260 0.000000 -0.003888
# 5 0.004705 -0.005281 0.000026 0.000000 0.031252 0.000000
# 6 0.000000 0.000000 0.000000 -0.003888 0.000000 0.037929
#
#
# Mechanical properties :
#
#
# Convention : Reuss Voigt Hill
#
# Bulk Modulus (GPa) = 55.71802 57.30864 56.51333
# Shear Modulus (GPa) = 25.52074 27.10016 26.31045
#
# Velocity S-wave (km/s) = 3.44765 3.55273 3.50059
# Velocity P-wave (km/s) = 6.46522 6.59702 6.53146
#
# Compressibility (1/GPa) = 0.01794752
#
# Stress axis : x y z
#
# Youngs Moduli (GPa) = 52.80872 58.09905 66.34281
#
# Poissons Ratio (x) = 0.36146 0.27621
# Poissons Ratio (y) = 0.32854 0.41479
# Poissons Ratio (z) = 0.21986 0.36325
#
# Static dielectric constant tensor:
#      x y z
#    x 3.840290 0.000000 -0.121820 
#    y 0.000000 4.090100 0.000000 
#    z -0.121820 0.000000 3.366420 
# 
# 
# High freq. dielectric constant tensor:
#      x y z
#    x 1.840530 0.000000 0.004280 
#    y 0.000000 1.846410 0.000000 
#    z 0.004280 0.000000 1.826170 
# 
# From -- ./inp_files/35600.got.cif
#   From: 2010.06.25/outbox.cif.g09.slc.cpg/sg15_18_cif.got.tgz:35600.got - 2010.06.28 07:06:18.
