data_PCOD8135697
_publ_section_title
;
Structure prediction by ZEFSAII (Michael W. Deem and Ramdas Pophale) SiO2 
 PCOD8135697
Probable space group: C 2/C
;
_chemical_formula_sum "Si O2"
_cell_formula_units_Z 44
_cell_length_a 28.313550
_cell_length_b 13.651946
_cell_length_c 17.122124
_cell_angle_alpha 90.000000
_cell_angle_beta 160.381844
_cell_angle_gamma 90.000000
_cell_volume 2222.095102
_symmetry_space_group_name_H-M "C 2/C"
_symmetry_group_IT_number 15
_symmetry_cell_setting 'monoclinic'
loop_
_space_group_symop_operation_xyz
x,y,z
-x,y,1/2-z
-x,-y,-z
x,-y,1/2+z
1/2+x,1/2+y,z
1/2-x,1/2+y,1/2-z
1/2-x,1/2-y,-z
1/2+x,1/2-y,1/2+z
loop_
_atom_site_type_symbol
_atom_site_label
_atom_site_fract_x
_atom_site_fract_y
_atom_site_fract_z
Si Si1 0.227936 0.496984 0.319856
Si Si2 0.549782 0.803820 0.683989
Si Si3 0.797907 0.795032 0.950907
Si Si4 0.759036 0.202654 0.800691
Si Si5 0.061878 0.473552 0.207461
Si Si6 0.500000 0.835701 0.250000
O O1 0.329918 0.591232 0.480299
O O2 0.298504 0.412113 0.376791
O O3 0.191133 0.453520 0.348682
O O4 0.086130 0.545927 0.065033
O O5 0.662898 0.779960 0.795223
O O6 0.397621 0.783298 0.406945
O O7 0.565499 0.914217 0.740273
O O8 0.565747 0.738129 0.786931
O O9 0.760800 0.724668 0.821203
O O10 0.876144 0.269999 0.021836
O O11 0.075439 0.402118 0.302452
#
# Coordination Sequence:
#
# PCOD8135697 Si02
#       6
#     8   8   8   8   8   4
#     4   9  19  39  59  81 118 151 194 237 293 332
#     4   9  21  38  65  87 110 150 198 248 289 331
#     4  10  19  39  64  88 114 144 202 247 284 342
#     4  11  23  36  58  88 115 161 186 239 286 354
#     4   9  19  37  61  84 110 156 197 236 273 358
#     4  12  24  36  56  90 122 152 196 234 286 360
#
# _framework density 19.801133
#
# number of rings (size 3 to 8) (size 9 to 14) (size 15 to 20)
#    0.000    2.182    1.818    1.636    5.091    0.727 
#    3.273    0.000    0.000    4.364    0.000    0.000 
#    0.000    0.000    0.000    0.000    0.000    0.000 
#
# Total GULP energy -272674.691725 kJ/mol
# GULP energy per Si atom -12394.304169 kJ/mol
# Density = 1.975606 g / cm^3
# Si number density = 19.801133 Si / 1000 Ang^3
#
#
#
# Elastic Constant Matrix: (Units=GPa)
#
#
# Indices 1 2 3 4 5 6 
#
# 1 76.6995 51.9711 9.0386 0.0000 -17.2939 0.0000
# 2 51.9711 131.2829 35.9937 0.0000 -14.1373 0.0000
# 3 9.0386 35.9937 76.5250 0.0000 -13.7886 0.0000
# 4 0.0000 0.0000 0.0000 32.1031 0.0000 -3.3968
# 5 -17.2939 -14.1373 -13.7886 0.0000 21.0517 0.0000
# 6 0.0000 0.0000 0.0000 -3.3968 0.0000 35.3308
#
#
#
# Elastic Compliance Matrix: (Units=1/GPa)
#
#
# Indices 1 2 3 4 5 6 
#
# 1 0.021230 -0.007878 0.003840 0.000000 0.014665 0.000000
# 2 -0.007878 0.011916 -0.004987 0.000000 -0.001736 0.000000
# 3 0.003840 -0.004987 0.016922 0.000000 0.010889 0.000000
# 4 0.000000 0.000000 0.000000 0.031470 0.000000 0.003026
# 5 0.014665 -0.001736 0.010889 0.000000 0.065516 0.000000
# 6 0.000000 0.000000 0.000000 0.003026 0.000000 0.028595
#
#
# Mechanical properties :
#
#
# Convention : Reuss Voigt Hill
#
# Bulk Modulus (GPa) = 31.23184 53.16824 42.20004
# Shear Modulus (GPa) = 24.46524 30.19737 27.33131
#
# Velocity S-wave (km/s) = 3.51885 3.90940 3.71926
# Velocity P-wave (km/s) = 5.68478 6.87658 6.30888
#
# Compressibility (1/GPa) = 0.03201860
#
# Stress axis : x y z
#
# Youngs Moduli (GPa) = 47.10287 83.91937 59.09531
#
# Poissons Ratio (x) = 0.66112 -0.22695
# Poissons Ratio (y) = 0.37108 0.29471
# Poissons Ratio (z) = -0.18089 0.41851
#
# Static dielectric constant tensor:
#      x y z
#    x 3.665720 0.000000 -0.032510 
#    y 0.000000 3.725570 0.000000 
#    z -0.032510 0.000000 3.658140 
# 
# 
# High freq. dielectric constant tensor:
#      x y z
#    x 1.771540 0.000000 -0.003610 
#    y 0.000000 1.774340 0.000000 
#    z -0.003610 0.000000 1.757750 
# 
# From -- ./inp_files/151439.got.cif
#   From: 2010.06.25/outbox.cif.g09.slc.cpg/sg15_76_cif.got.tgz:151439.got - 2010.06.28 07:06:18.
