data_PCOD8135632
_publ_section_title
;
Structure prediction by ZEFSAII (Michael W. Deem and Ramdas Pophale) SiO2 
 PCOD8135632
Probable space group: C 2/C
;
_chemical_formula_sum "Si O2"
_cell_formula_units_Z 40
_cell_length_a 18.588416
_cell_length_b 7.646194
_cell_length_c 21.326575
_cell_angle_alpha 90.000000
_cell_angle_beta 135.505842
_cell_angle_gamma 90.000000
_cell_volume 2124.347426
_symmetry_space_group_name_H-M "C 2/C"
_symmetry_group_IT_number 15
_symmetry_cell_setting 'monoclinic'
loop_
_space_group_symop_operation_xyz
x,y,z
-x,y,1/2-z
-x,-y,-z
x,-y,1/2+z
1/2+x,1/2+y,z
1/2-x,1/2+y,1/2-z
1/2-x,1/2-y,-z
1/2+x,1/2-y,1/2+z
loop_
_atom_site_type_symbol
_atom_site_label
_atom_site_fract_x
_atom_site_fract_y
_atom_site_fract_z
Si Si1 0.588769 0.259176 0.687666
Si Si2 0.898080 0.945458 0.401094
Si Si3 0.378277 0.893992 0.061585
Si Si4 0.037825 0.565658 0.090241
Si Si5 0.268061 0.820822 0.113426
O O1 0.624846 0.424340 0.669713
O O2 0.465068 0.260053 0.622266
O O3 0.648060 0.268838 0.789940
O O4 0.617098 0.078909 0.667757
O O5 0.907527 0.751384 0.378296
O O6 0.804924 0.950015 0.392598
O O7 0.000000 0.000000 0.500000
O O8 0.325554 0.933783 0.095509
O O9 0.436227 0.068876 0.072440
O O10 0.295116 0.834619 0.958587
O O11 0.000000 0.500000 0.000000
#
# Coordination Sequence:
#
# PCOD8135632 Si02
#       5
#     8   8   8   8   8
#     4  10  23  38  65  82 124 157 201 247 293 362
#     4  12  21  39  63  88 120 156 204 247 294 356
#     4   9  21  40  63  82 127 160 192 251 297 356
#     4  10  19  39  61  84 121 162 189 248 296 345
#     4  11  21  37  65  91 115 166 198 239 317 342
#
# _framework density 18.829312000000002
#
# number of rings (size 3 to 8) (size 9 to 14) (size 15 to 20)
#    1.200    0.400    6.000    0.600    2.800    0.000 
#    0.000    1.000   13.200    0.000    0.000    0.000 
#    0.000    0.000    0.000    0.000    0.000    0.000 
#
# Total GULP energy -247839.543837 kJ/mol
# GULP energy per Si atom -12391.977192 kJ/mol
# Density = 1.878646 g / cm^3
# Si number density = 18.829312 Si / 1000 Ang^3
#
#
#
# Elastic Constant Matrix: (Units=GPa)
#
#
# Indices 1 2 3 4 5 6 
#
# 1 156.2078 45.3596 34.0504 0.0000 -5.8528 0.0000
# 2 45.3596 103.9160 26.5086 0.0000 -9.1782 0.0000
# 3 34.0504 26.5086 129.7325 0.0000 -18.0487 0.0000
# 4 0.0000 0.0000 0.0000 18.6081 0.0000 0.2697
# 5 -5.8528 -9.1782 -18.0487 0.0000 24.8944 0.0000
# 6 0.0000 0.0000 0.0000 0.2697 0.0000 23.9914
#
#
#
# Elastic Compliance Matrix: (Units=1/GPa)
#
#
# Indices 1 2 3 4 5 6 
#
# 1 0.007561 -0.002968 -0.001427 0.000000 -0.000351 0.000000
# 2 -0.002968 0.011458 -0.001192 0.000000 0.002662 0.000000
# 3 -0.001427 -0.001192 0.009140 0.000000 0.005852 0.000000
# 4 0.000000 0.000000 0.000000 0.053749 0.000000 -0.000604
# 5 -0.000351 0.002662 0.005852 0.000000 0.045311 0.000000
# 6 0.000000 0.000000 0.000000 -0.000604 0.000000 0.041688
#
#
# Mechanical properties :
#
#
# Convention : Reuss Voigt Hill
#
# Bulk Modulus (GPa) = 58.87032 66.85480 62.86256
# Shear Modulus (GPa) = 26.91890 32.42798 29.67344
#
# Velocity S-wave (km/s) = 3.78514 4.15445 3.97409
# Velocity P-wave (km/s) = 7.10185 7.65476 7.38348
#
# Compressibility (1/GPa) = 0.01698649
#
# Stress axis : x y z
#
# Youngs Moduli (GPa) = 132.25139 87.27766 109.40428
#
# Poissons Ratio (x) = 0.25900 0.15613
# Poissons Ratio (y) = 0.39246 0.13040
# Poissons Ratio (z) = 0.18873 0.10403
#
# Static dielectric constant tensor:
#      x y z
#    x 3.714590 0.000000 -0.013360 
#    y 0.000000 3.299920 0.000000 
#    z -0.013360 0.000000 3.426360 
# 
# 
# High freq. dielectric constant tensor:
#      x y z
#    x 1.740100 0.000000 -0.002880 
#    y 0.000000 1.688270 0.000000 
#    z -0.002880 0.000000 1.742080 
# 
# From -- ./inp_files/208330.got.cif
#   From: 2010.06.25/outbox.cif.g09.slc.cpg/sg15_105_cif.got.tgz:208330.got - 2010.06.28 07:06:18.
