data_PCOD8135367
_publ_section_title
;
Structure prediction by ZEFSAII (Michael W. Deem and Ramdas Pophale) SiO2 
 PCOD8135367
Probable space group: C 2/C
;
_chemical_formula_sum "Si O2"
_cell_formula_units_Z 64
_cell_length_a 29.856738
_cell_length_b 8.611315
_cell_length_c 13.378285
_cell_angle_alpha 90.000000
_cell_angle_beta 63.850582
_cell_angle_gamma 90.000000
_cell_volume 3087.580171
_symmetry_space_group_name_H-M "C 2/C"
_symmetry_group_IT_number 15
_symmetry_cell_setting 'monoclinic'
loop_
_space_group_symop_operation_xyz
x,y,z
-x,y,1/2-z
-x,-y,-z
x,-y,1/2+z
1/2+x,1/2+y,z
1/2-x,1/2+y,1/2-z
1/2-x,1/2-y,-z
1/2+x,1/2-y,1/2+z
loop_
_atom_site_type_symbol
_atom_site_label
_atom_site_fract_x
_atom_site_fract_y
_atom_site_fract_z
Si Si1 0.143645 0.043108 0.749931
Si Si2 0.554688 0.560385 0.466792
Si Si3 0.856596 0.530432 0.535785
Si Si4 0.447350 0.921912 0.069862
Si Si5 0.309020 0.236057 0.730852
Si Si6 0.383024 0.891476 0.315021
Si Si7 0.878660 0.074192 0.432274
Si Si8 0.306794 0.728709 0.649508
O O1 0.088648 0.005628 0.844540
O O2 0.182593 0.915098 0.753145
O O3 0.140201 0.046386 0.633589
O O4 0.166185 0.205342 0.768773
O O5 0.500000 0.500000 0.500000
O O6 0.553851 0.745688 0.466980
O O7 0.574819 0.499411 0.553879
O O8 0.907584 0.484051 0.542451
O O9 0.834303 0.694091 0.598046
O O10 0.868554 0.530748 0.405500
O O11 0.815005 0.401691 0.602176
O O12 0.432027 0.934332 0.201956
O O13 0.500000 0.000000 0.000000
O O14 0.336001 0.131815 0.788322
O O15 0.251365 0.193068 0.787064
O O16 0.395618 0.735639 0.364691
O O17 0.831778 0.103251 0.550728
#
# Coordination Sequence:
#
# PCOD8135367 Si02
#       8
#     8   8   8   8   8   8   8   8
#     4  10  20  41  59  85 127 159 200 258 303 359
#     4  11  23  41  65  87 119 160 206 262 312 372
#     4  10  21  40  59  90 125 162 202 252 307 366
#     4  11  24  43  64  91 126 162 202 262 319 370
#     4  10  19  38  60  90 125 167 203 253 303 349
#     4   9  20  41  64  88 126 166 204 253 306 376
#     4   9  20  39  62  89 118 161 205 257 305 365
#     4  10  21  33  63  93 119 164 210 247 298 368
#
# _framework density 20.728207000000001
#
# number of rings (size 3 to 8) (size 9 to 14) (size 15 to 20)
#    0.000    2.000    3.750    0.750    5.250    6.500 
#    4.500    1.250    0.000    6.000    0.000    0.000 
#    0.000    0.000    0.000    0.000    0.000    0.000 
#
# Total GULP energy -396748.035840 kJ/mol
# GULP energy per Si atom -12398.376120 kJ/mol
# Density = 2.068103 g / cm^3
# Si number density = 20.728207 Si / 1000 Ang^3
#
#
#
# Elastic Constant Matrix: (Units=GPa)
#
#
# Indices 1 2 3 4 5 6 
#
# 1 118.5951 22.8518 63.6974 0.0000 -21.4048 0.0000
# 2 22.8518 33.9739 19.0579 0.0000 -0.6110 0.0000
# 3 63.6974 19.0579 117.0920 0.0000 -1.3790 0.0000
# 4 0.0000 0.0000 0.0000 33.6921 0.0000 1.6138
# 5 -21.4048 -0.6110 -1.3790 0.0000 42.4587 0.0000
# 6 0.0000 0.0000 0.0000 1.6138 0.0000 36.2553
#
#
#
# Elastic Compliance Matrix: (Units=1/GPa)
#
#
# Indices 1 2 3 4 5 6 
#
# 1 0.014494 -0.005774 -0.006862 0.000000 0.007001 0.000000
# 2 -0.005774 0.034695 -0.002536 0.000000 -0.002494 0.000000
# 3 -0.006862 -0.002536 0.012650 0.000000 -0.003085 0.000000
# 4 0.000000 0.000000 0.000000 0.029744 0.000000 -0.001324
# 5 0.007001 -0.002494 -0.003085 0.000000 0.026946 0.000000
# 6 0.000000 0.000000 0.000000 -0.001324 0.000000 0.027641
#
#
# Mechanical properties :
#
#
# Convention : Reuss Voigt Hill
#
# Bulk Modulus (GPa) = 31.75025 53.43059 42.59042
# Shear Modulus (GPa) = 26.73630 33.41814 30.07722
#
# Velocity S-wave (km/s) = 3.59535 4.01958 3.81337
# Velocity P-wave (km/s) = 5.70842 6.88298 6.32303
#
# Compressibility (1/GPa) = 0.03149582
#
# Stress axis : x y z
#
# Youngs Moduli (GPa) = 68.99432 28.82229 79.05265
#
# Poissons Ratio (x) = 0.16641 0.54250
# Poissons Ratio (y) = 0.39834 0.20045
# Poissons Ratio (z) = 0.47347 0.07308
#
# Static dielectric constant tensor:
#      x y z
#    x 2.711700 0.000000 -0.152120 
#    y 0.000000 3.799480 0.000000 
#    z -0.152120 0.000000 3.937360 
# 
# 
# High freq. dielectric constant tensor:
#      x y z
#    x 1.806300 0.000000 0.002180 
#    y 0.000000 1.799170 0.000000 
#    z 0.002180 0.000000 1.816300 
# 
# From -- ./inp_files/180788.got.cif
#   From: 2010.06.25/outbox.cif.g09.slc.cpg/sg15_91_cif.got.tgz:180788.got - 2010.06.28 07:06:18.
