data_PCOD8135607
_publ_section_title
;
Structure prediction by ZEFSAII (Michael W. Deem and Ramdas Pophale) SiO2 
 PCOD8135607
Probable space group: C 2/C
;
_chemical_formula_sum "Si O2"
_cell_formula_units_Z 52
_cell_length_a 9.790336
_cell_length_b 15.864583
_cell_length_c 20.602617
_cell_angle_alpha 90.000000
_cell_angle_beta 52.340901
_cell_angle_gamma 90.000000
_cell_volume 2533.303833
_symmetry_space_group_name_H-M "C 2/C"
_symmetry_group_IT_number 15
_symmetry_cell_setting 'monoclinic'
loop_
_space_group_symop_operation_xyz
x,y,z
-x,y,1/2-z
-x,-y,-z
x,-y,1/2+z
1/2+x,1/2+y,z
1/2-x,1/2+y,1/2-z
1/2-x,1/2-y,-z
1/2+x,1/2-y,1/2+z
loop_
_atom_site_type_symbol
_atom_site_label
_atom_site_fract_x
_atom_site_fract_y
_atom_site_fract_z
Si Si1 0.532517 0.293896 0.445690
Si Si2 0.423548 0.232048 0.842070
Si Si3 0.509973 0.882000 0.886074
Si Si4 0.000000 0.324954 0.750000
Si Si5 0.323543 0.782411 0.120016
Si Si6 0.633213 0.424440 0.657936
Si Si7 0.805399 0.080597 0.940465
O O1 0.732280 0.305294 0.405963
O O2 0.501645 0.216659 0.405852
O O3 0.417867 0.280439 0.542827
O O4 0.469565 0.376369 0.426450
O O5 0.500000 0.207843 0.750000
O O6 0.542144 0.190567 0.862937
O O7 0.421608 0.332941 0.852272
O O8 0.510200 0.887412 0.808345
O O9 0.678905 0.924904 0.865171
O O10 0.346903 0.930378 0.963085
O O11 0.832852 0.265674 0.800487
O O12 0.260868 0.866958 0.102606
O O13 0.500000 0.457792 0.750000
O O14 0.632546 0.488225 0.598043
#
# Coordination Sequence:
#
# PCOD8135607 Si02
#       7
#     8   8   8   4   8   8   8
#     4  10  19  39  58  91 118 149 201 248 293 353
#     4  10  22  39  59  83 122 162 198 233 296 367
#     4  10  20  37  58  88 116 159 199 244 287 370
#     4  12  18  32  64  88 118 152 216 242 290 350
#     4  11  21  34  63  90 113 155 199 252 292 346
#     4  10  22  37  58  83 122 158 197 238 302 355
#     4  11  21  38  63  92 116 148 204 254 295 341
#
# _framework density 20.526555999999999
#
# number of rings (size 3 to 8) (size 9 to 14) (size 15 to 20)
#    0.000    1.538    3.077    4.615    1.077    0.000 
#    0.000    0.769    8.462    0.000    0.000    0.000 
#    0.000    0.000    0.000    0.000    0.000    0.000 
#
# Total GULP energy -322551.415801 kJ/mol
# GULP energy per Si atom -12405.823685 kJ/mol
# Density = 2.047984 g / cm^3
# Si number density = 20.526556 Si / 1000 Ang^3
#
#
#
# Elastic Constant Matrix: (Units=GPa)
#
#
# Indices 1 2 3 4 5 6 
#
# 1 103.9918 20.6272 43.6633 0.0001 2.6779 0.0000
# 2 20.6272 40.1591 34.3093 0.0000 0.0471 0.0001
# 3 43.6633 34.3093 136.3026 0.0000 -8.0714 0.0005
# 4 0.0001 0.0000 0.0000 -6.8708 0.0000 37.6290
# 5 2.6779 0.0471 -8.0714 0.0000 44.6013 -0.0002
# 6 0.0000 0.0001 0.0005 37.6290 -0.0002 -22.6701
#
#
#
# Elastic Compliance Matrix: (Units=1/GPa)
#
#
# Indices 1 2 3 4 5 6 
#
# 1 0.011551 -0.003451 -0.002904 0.000000 -0.001215 0.000000
# 2 -0.003451 0.032853 -0.007231 0.000000 -0.001136 0.000000
# 3 -0.002904 -0.007231 0.010207 0.000000 0.002029 0.000000
# 4 0.000000 0.000000 0.000000 0.017990 0.000000 0.029860
# 5 -0.001215 -0.001136 0.002029 0.000000 0.022862 0.000000
# 6 0.000000 0.000000 0.000000 0.029860 0.000000 0.005452
#
#
# Mechanical properties :
#
#
# Convention : Reuss Voigt Hill
#
# Bulk Modulus (GPa) = 36.44414 53.07256 44.75835
# Shear Modulus (GPa) = 36.43429 15.13565 25.78497
#
# Velocity S-wave (km/s) = 4.21763 2.71840 3.54810
# Velocity P-wave (km/s) = 6.44290 5.98035 6.21593
#
# Compressibility (1/GPa) = 0.02743925
#
# Stress axis : x y z
#
# Youngs Moduli (GPa) = 86.57184 30.43880 97.97057
#
# Poissons Ratio (x) = 0.10504 0.28447
# Poissons Ratio (y) = 0.29876 0.70846
# Poissons Ratio (z) = 0.25137 0.22011
#
# Static dielectric constant tensor:
#      x y z
#    x 3.755240 0.000000 -0.113440 
#    y 0.000000 3.264860 0.000000 
#    z -0.113440 0.000000 3.975590 
# 
# 
# High freq. dielectric constant tensor:
#      x y z
#    x 1.810230 0.000000 -0.007340 
#    y 0.000000 1.760600 0.000000 
#    z -0.007340 0.000000 1.823110 
# 
# From -- ./inp_files/182893.got.cif
#   From: 2010.06.25/outbox.cif.g09.slc.cpg/sg15_92_cif.got.tgz:182893.got - 2010.06.28 07:06:18.
