data_PCOD8135577
_publ_section_title
;
Structure prediction by ZEFSAII (Michael W. Deem and Ramdas Pophale) SiO2 
 PCOD8135577
Probable space group: C 2/C
;
_chemical_formula_sum "Si O2"
_cell_formula_units_Z 40
_cell_length_a 7.627035
_cell_length_b 23.666739
_cell_length_c 10.587027
_cell_angle_alpha 90.000000
_cell_angle_beta 110.245009
_cell_angle_gamma 90.000000
_cell_volume 1792.972193
_symmetry_space_group_name_H-M "C 2/C"
_symmetry_group_IT_number 15
_symmetry_cell_setting 'monoclinic'
loop_
_space_group_symop_operation_xyz
x,y,z
-x,y,1/2-z
-x,-y,-z
x,-y,1/2+z
1/2+x,1/2+y,z
1/2-x,1/2+y,1/2-z
1/2-x,1/2-y,-z
1/2+x,1/2-y,1/2+z
loop_
_atom_site_type_symbol
_atom_site_label
_atom_site_fract_x
_atom_site_fract_y
_atom_site_fract_z
Si Si1 0.330972 0.886428 0.399865
Si Si2 0.000000 0.884558 0.750000
Si Si3 0.285472 0.204720 0.682706
Si Si4 0.342409 0.179731 0.417911
Si Si5 0.500000 0.975425 0.250000
Si Si6 0.147870 0.954238 0.565841
O O1 0.237289 0.840675 0.280492
O O2 0.461068 0.853080 0.533685
O O3 0.442044 0.934802 0.351111
O O4 0.177400 0.916551 0.447559
O O5 0.189807 0.849543 0.794699
O O6 0.024303 0.920485 0.632651
O O7 0.500000 0.226572 0.750000
O O8 0.267932 0.175893 0.542568
O O9 0.140688 0.257408 0.639927
O O10 0.663591 0.017586 0.333914
O O11 0.000000 0.000000 0.500000
#
# Coordination Sequence:
#
# PCOD8135577 Si02
#       6
#     8   4   8   8   4   8
#     4  11  22  42  71  99 136 182 226 283 348 412
#     4  12  24  41  64  92 134 179 224 286 348 400
#     4   9  18  37  68 101 134 176 219 272 350 416
#     4  10  19  38  69  97 135 178 214 273 347 415
#     4  12  22  45  68 100 134 177 234 294 352 408
#     4  12  27  44  67  99 135 183 237 291 343 408
#
# _framework density 22.309324
#
# number of rings (size 3 to 8) (size 9 to 14) (size 15 to 20)
#    0.000    1.200    4.000    4.200    0.000    0.000 
#    0.000    1.000    8.800    0.000    0.000    0.000 
#    0.000    0.000    0.000    0.000    0.000    0.000 
#
# Total GULP energy -247833.070305 kJ/mol
# GULP energy per Si atom -12391.653515 kJ/mol
# Density = 2.225855 g / cm^3
# Si number density = 22.309324 Si / 1000 Ang^3
#
#
#
# Elastic Constant Matrix: (Units=GPa)
#
#
# Indices 1 2 3 4 5 6 
#
# 1 82.8990 45.4833 26.2152 0.0000 -19.0226 0.0000
# 2 45.4833 119.1792 49.2866 0.0000 -6.5040 0.0000
# 3 26.2152 49.2866 87.5929 0.0000 2.3885 0.0000
# 4 0.0000 0.0000 0.0000 43.3220 0.0000 3.0472
# 5 -19.0226 -6.5040 2.3885 0.0000 37.8934 0.0000
# 6 0.0000 0.0000 0.0000 3.0472 0.0000 32.1099
#
#
#
# Elastic Compliance Matrix: (Units=1/GPa)
#
#
# Indices 1 2 3 4 5 6 
#
# 1 0.017589 -0.005216 -0.002550 0.000000 0.008095 0.000000
# 2 -0.005216 0.012681 -0.005571 0.000000 -0.000091 0.000000
# 3 -0.002550 -0.005571 0.015402 0.000000 -0.003207 0.000000
# 4 0.000000 0.000000 0.000000 0.023238 0.000000 -0.002205
# 5 0.008095 -0.000091 -0.003207 0.000000 0.030640 0.000000
# 6 0.000000 0.000000 0.000000 -0.002205 0.000000 0.031352
#
#
# Mechanical properties :
#
#
# Convention : Reuss Voigt Hill
#
# Bulk Modulus (GPa) = 52.64179 59.07128 55.85653
# Shear Modulus (GPa) = 30.50485 33.91081 32.20783
#
# Velocity S-wave (km/s) = 3.70179 3.90298 3.80372
# Velocity P-wave (km/s) = 6.47446 6.84447 6.66203
#
# Compressibility (1/GPa) = 0.01899631
#
# Stress axis : x y z
#
# Youngs Moduli (GPa) = 56.85491 78.86078 64.92714
#
# Poissons Ratio (x) = 0.41136 0.16554
# Poissons Ratio (y) = 0.29657 0.36174
# Poissons Ratio (z) = 0.14496 0.43937
#
# Static dielectric constant tensor:
#      x y z
#    x 3.702110 0.000000 0.041380 
#    y 0.000000 3.751530 0.000000 
#    z 0.041380 0.000000 4.290460 
# 
# 
# High freq. dielectric constant tensor:
#      x y z
#    x 1.849520 0.000000 0.004820 
#    y 0.000000 1.897920 0.000000 
#    z 0.004820 0.000000 1.893470 
# 
# From -- ./inp_files/79558.got.cif
#   From: 2010.06.25/outbox.cif.g09.slc.cpg/sg15_40_cif.got.tgz:79558.got - 2010.06.28 07:06:18.
