data_PCOD8135930
_publ_section_title
;
Structure prediction by ZEFSAII (Michael W. Deem and Ramdas Pophale) SiO2 
 PCOD8135930
Probable space group: C 2/C
;
_chemical_formula_sum "Si O2"
_cell_formula_units_Z 48
_cell_length_a 9.628383
_cell_length_b 18.950473
_cell_length_c 18.339258
_cell_angle_alpha 90.000000
_cell_angle_beta 46.238053
_cell_angle_gamma 90.000000
_cell_volume 2416.709983
_symmetry_space_group_name_H-M "C 2/C"
_symmetry_group_IT_number 15
_symmetry_cell_setting 'monoclinic'
loop_
_space_group_symop_operation_xyz
x,y,z
-x,y,1/2-z
-x,-y,-z
x,-y,1/2+z
1/2+x,1/2+y,z
1/2-x,1/2+y,1/2-z
1/2-x,1/2-y,-z
1/2+x,1/2-y,1/2+z
loop_
_atom_site_type_symbol
_atom_site_label
_atom_site_fract_x
_atom_site_fract_y
_atom_site_fract_z
Si Si1 0.920527 0.451183 0.199557
Si Si2 0.272770 0.031553 0.029183
Si Si3 0.387044 0.567421 0.215746
Si Si4 0.199497 0.164329 0.705482
Si Si5 0.057879 0.617501 0.011958
Si Si6 0.396825 0.820640 0.714225
O O1 0.801324 0.518732 0.216812
O O2 0.787851 0.382513 0.238268
O O3 0.000000 0.460688 0.250000
O O4 0.111706 0.444645 0.083093
O O5 0.296103 0.948459 0.036395
O O6 0.350841 0.082818 0.066381
O O7 0.046427 0.045185 0.097811
O O8 0.500000 0.561932 0.250000
O O9 0.311930 0.644862 0.222434
O O10 0.352203 0.169036 0.582834
O O11 0.146348 0.238452 0.761234
O O12 0.000000 0.129558 0.750000
O O13 0.034750 0.662519 0.094639
O O14 0.500000 0.849969 0.750000
#
# Coordination Sequence:
#
# PCOD8135930 Si02
#       6
#     8   8   8   8   8   8
#     4  11  23  41  61  97 130 154 211 277 305 359
#     4  10  20  37  66  93 119 167 210 255 316 381
#     4  12  21  39  67  91 120 170 211 249 323 378
#     4  10  23  42  63  89 123 177 210 245 321 384
#     4  10  19  41  64  89 126 163 207 263 312 373
#     4  11  24  41  62  94 130 163 211 268 304 364
#
# _framework density 19.861712000000001
#
# number of rings (size 3 to 8) (size 9 to 14) (size 15 to 20)
#    0.000    1.333    3.333    4.000    0.000    4.000 
#    6.000    1.667    0.000    0.000    0.000    0.000 
#    0.000    0.000    0.000    0.000    0.000    0.000 
#
# Total GULP energy -297512.194646 kJ/mol
# GULP energy per Si atom -12396.341444 kJ/mol
# Density = 1.981651 g / cm^3
# Si number density = 19.861712 Si / 1000 Ang^3
#
#
#
# Elastic Constant Matrix: (Units=GPa)
#
#
# Indices 1 2 3 4 5 6 
#
# 1 110.2440 29.4395 33.1680 0.0000 11.9914 -0.0010
# 2 29.4395 76.8086 25.6572 0.0001 8.8898 -0.0003
# 3 33.1680 25.6572 78.4334 -0.0004 -3.2487 -0.0001
# 4 0.0000 0.0001 -0.0004 32.7745 0.0002 -3.9503
# 5 11.9914 8.8898 -3.2487 0.0002 40.0073 0.0002
# 6 -0.0010 -0.0003 -0.0001 -3.9503 0.0002 20.1583
#
#
#
# Elastic Compliance Matrix: (Units=1/GPa)
#
#
# Indices 1 2 3 4 5 6 
#
# 1 0.011337 -0.002623 -0.004066 0.000000 -0.003145 0.000001
# 2 -0.002623 0.015774 -0.004178 0.000000 -0.003058 0.000000
# 3 -0.004066 -0.004178 0.015979 0.000000 0.003445 0.000000
# 4 0.000000 0.000000 0.000000 0.031250 0.000000 0.006124
# 5 -0.003145 -0.003058 0.003445 0.000000 0.026897 0.000000
# 6 0.000001 0.000000 0.000000 0.006124 0.000000 0.050807
#
#
# Mechanical properties :
#
#
# Convention : Reuss Voigt Hill
#
# Bulk Modulus (GPa) = 46.82569 49.11282 47.96925
# Shear Modulus (GPa) = 27.64023 30.40279 29.02151
#
# Velocity S-wave (km/s) = 3.73451 3.91669 3.82668
# Velocity P-wave (km/s) = 6.49788 6.72570 6.61277
#
# Compressibility (1/GPa) = 0.02135580
#
# Stress axis : x y z
#
# Youngs Moduli (GPa) = 88.20898 63.39515 62.58408
#
# Poissons Ratio (x) = 0.16627 0.25449
# Poissons Ratio (y) = 0.23136 0.26145
# Poissons Ratio (z) = 0.35869 0.26484
#
# Static dielectric constant tensor:
#      x y z
#    x 3.792100 0.000000 -0.177810 
#    y 0.000000 3.450190 0.000000 
#    z -0.177810 0.000000 3.998030 
# 
# 
# High freq. dielectric constant tensor:
#      x y z
#    x 1.766490 0.000000 -0.007120 
#    y 0.000000 1.762700 0.000000 
#    z -0.007120 0.000000 1.791500 
# 
# From -- ./inp_files/191975.got.cif
#   From: 2010.06.25/outbox.cif.g09.slc.cpg/sg15_96_cif.got.tgz:191975.got - 2010.06.28 07:06:18.
