data_PCOD8135090
_publ_section_title
;
Structure prediction by ZEFSAII (Michael W. Deem and Ramdas Pophale) SiO2 
 PCOD8135090
Probable space group: C 2/C
;
_chemical_formula_sum "Si O2"
_cell_formula_units_Z 64
_cell_length_a 9.333634
_cell_length_b 20.684099
_cell_length_c 16.992959
_cell_angle_alpha 90.000000
_cell_angle_beta 87.563306
_cell_angle_gamma 90.000000
_cell_volume 3277.657127
_symmetry_space_group_name_H-M "C 2/C"
_symmetry_group_IT_number 15
_symmetry_cell_setting 'monoclinic'
loop_
_space_group_symop_operation_xyz
x,y,z
-x,y,1/2-z
-x,-y,-z
x,-y,1/2+z
1/2+x,1/2+y,z
1/2-x,1/2+y,1/2-z
1/2-x,1/2-y,-z
1/2+x,1/2-y,1/2+z
loop_
_atom_site_type_symbol
_atom_site_label
_atom_site_fract_x
_atom_site_fract_y
_atom_site_fract_z
Si Si1 0.861640 0.275319 0.215989
Si Si2 0.389497 0.678040 0.683174
Si Si3 0.907599 0.617856 0.467637
Si Si4 0.324970 0.707229 0.064346
Si Si5 0.085439 0.749240 0.476968
Si Si6 0.343824 0.461625 0.232017
Si Si7 0.081827 0.527170 0.175089
Si Si8 0.385669 0.086882 0.645232
O O1 0.757693 0.287534 0.290990
O O2 0.787077 0.230442 0.152921
O O3 0.913754 0.340402 0.171605
O O4 0.000000 0.240395 0.250000
O O5 0.500000 0.692591 0.750000
O O6 0.442180 0.710154 0.601580
O O7 0.367335 0.600820 0.674970
O O8 0.748341 0.637757 0.442003
O O9 0.958267 0.565580 0.402663
O O10 0.883274 0.583471 0.551126
O O11 0.024162 0.676213 0.468811
O O12 0.250000 0.750000 0.000000
O O13 0.495814 0.711408 0.045581
O O14 0.250000 0.750000 0.500000
O O15 0.500000 0.491018 0.250000
O O16 0.251567 0.516801 0.188938
O O17 0.263288 0.439723 0.314511
O O18 0.000000 0.562367 0.250000
O O19 0.019915 0.454699 0.170843
#
# Coordination Sequence:
#
# PCOD8135090 Si02
#       8
#     8   8   8   8   8   8   8   8
#     4  11  19  33  58  85 112 150 200 241 285 346
#     4  10  20  32  57  85 112 148 194 242 293 342
#     4  11  23  38  63  82 122 162 196 238 303 364
#     4  10  20  37  56  79 122 158 187 237 297 356
#     4  11  23  37  57  89 126 154 190 249 297 354
#     4   9  20  36  62  87 117 147 199 256 290 339
#     4  10  22  41  61  87 118 158 200 243 295 357
#     4  10  19  37  61  88 114 155 201 249 291 346
#
# _framework density 19.526142
#
# number of rings (size 3 to 8) (size 9 to 14) (size 15 to 20)
#    0.000    1.750    2.500    4.500    5.250    1.500 
#    0.000    3.750    0.000    0.000    0.000    0.000 
#    0.000    0.000    0.000    0.000    0.000    0.000 
#
# Total GULP energy -396656.063405 kJ/mol
# GULP energy per Si atom -12395.501981 kJ/mol
# Density = 1.948170 g / cm^3
# Si number density = 19.526142 Si / 1000 Ang^3
#
#
#
# Elastic Constant Matrix: (Units=GPa)
#
#
# Indices 1 2 3 4 5 6 
#
# 1 118.2109 19.6983 5.8337 0.0000 8.7168 0.0000
# 2 19.6983 45.2450 30.3261 0.0000 0.4291 0.0000
# 3 5.8337 30.3261 89.6485 0.0000 -2.5559 0.0000
# 4 0.0000 0.0000 0.0000 27.3101 0.0000 5.4112
# 5 8.7168 0.4291 -2.5559 0.0000 28.2073 0.0000
# 6 0.0000 0.0000 0.0000 5.4112 0.0000 14.0084
#
#
#
# Elastic Compliance Matrix: (Units=1/GPa)
#
#
# Indices 1 2 3 4 5 6 
#
# 1 0.009395 -0.004658 0.000886 0.000000 -0.002752 0.000000
# 2 -0.004658 0.030941 -0.010162 0.000000 0.000048 0.000000
# 3 0.000886 -0.010162 0.014569 0.000000 0.001201 0.000000
# 4 0.000000 0.000000 0.000000 0.039651 0.000000 -0.015317
# 5 -0.002752 0.000048 0.001201 0.000000 0.036410 0.000000
# 6 0.000000 0.000000 0.000000 -0.015317 0.000000 0.077303
#
#
# Mechanical properties :
#
#
# Convention : Reuss Voigt Hill
#
# Bulk Modulus (GPa) = 36.98755 40.53563 38.76159
# Shear Modulus (GPa) = 20.39577 27.05490 23.72533
#
# Velocity S-wave (km/s) = 3.23543 3.72637 3.48955
# Velocity P-wave (km/s) = 5.73943 6.27050 6.01083
#
# Compressibility (1/GPa) = 0.02703613
#
# Stress axis : x y z
#
# Youngs Moduli (GPa) = 106.44114 32.31999 68.63947
#
# Poissons Ratio (x) = 0.15054 -0.06080
# Poissons Ratio (y) = 0.49579 0.69752
# Poissons Ratio (z) = -0.09429 0.32844
#
# Static dielectric constant tensor:
#      x y z
#    x 4.051810 0.000000 -0.345970 
#    y 0.000000 3.427000 0.000000 
#    z -0.345970 0.000000 3.842590 
# 
# 
# High freq. dielectric constant tensor:
#      x y z
#    x 1.768970 0.000000 -0.002010 
#    y 0.000000 1.725120 0.000000 
#    z -0.002010 0.000000 1.766980 
# 
# From -- ./inp_files/192164.got.cif
#   From: 2010.06.25/outbox.cif.g09.slc.cpg/sg15_97_cif.got.tgz:192164.got - 2010.06.28 07:06:18.
