data_PCOD8135053
_publ_section_title
;
Structure prediction by ZEFSAII (Michael W. Deem and Ramdas Pophale) SiO2 
 PCOD8135053
Probable space group: C 2/C
;
_chemical_formula_sum "Si O2"
_cell_formula_units_Z 52
_cell_length_a 8.637507
_cell_length_b 17.720186
_cell_length_c 16.815500
_cell_angle_alpha 90.000000
_cell_angle_beta 77.492918
_cell_angle_gamma 90.000000
_cell_volume 2512.673635
_symmetry_space_group_name_H-M "C 2/C"
_symmetry_group_IT_number 15
_symmetry_cell_setting 'monoclinic'
loop_
_space_group_symop_operation_xyz
x,y,z
-x,y,1/2-z
-x,-y,-z
x,-y,1/2+z
1/2+x,1/2+y,z
1/2-x,1/2+y,1/2-z
1/2-x,1/2-y,-z
1/2+x,1/2-y,1/2+z
loop_
_atom_site_type_symbol
_atom_site_label
_atom_site_fract_x
_atom_site_fract_y
_atom_site_fract_z
Si Si1 0.752994 0.466551 0.488019
Si Si2 0.052261 0.897726 0.042334
Si Si3 0.193513 0.835704 0.873365
Si Si4 0.425325 0.034521 0.334159
Si Si5 0.803736 0.632012 0.129884
Si Si6 0.000000 0.841140 0.750000
Si Si7 0.009258 0.760642 0.154366
O O1 0.609338 0.443882 0.447069
O O2 0.700232 0.544171 0.538928
O O3 0.903074 0.480551 0.412833
O O4 0.806935 0.399976 0.540326
O O5 0.029140 0.845642 0.121617
O O6 0.075158 0.847676 0.960288
O O7 0.263069 0.917645 0.837781
O O8 0.098817 0.797462 0.808695
O O9 0.331109 0.781960 0.889569
O O10 0.500000 0.988982 0.250000
O O11 0.562295 0.095003 0.332136
O O12 0.630883 0.612148 0.185428
O O13 0.853326 0.721116 0.130482
O O14 0.000000 0.761331 0.250000
#
# Coordination Sequence:
#
# PCOD8135053 Si02
#       7
#     8   8   8   8   8   4   8
#     4  10  22  39  60  92 126 162 207 252 309 382
#     4  10  22  39  62  90 127 161 204 257 312 372
#     4  10  19  37  62  90 117 162 212 252 303 371
#     4  10  19  37  60  87 125 162 205 254 309 368
#     4  11  21  37  66  91 118 166 213 257 305 372
#     4  12  18  34  64  92 112 158 220 256 284 376
#     4  11  22  41  63  90 124 160 207 262 317 366
#
# _framework density 20.695087999999998
#
# number of rings (size 3 to 8) (size 9 to 14) (size 15 to 20)
#    0.000    1.538    4.615    1.846    0.000    0.615 
#    4.154    0.000    1.692    0.000    0.000    0.000 
#    0.000    0.000    0.000    0.000    0.000    0.000 
#
# Total GULP energy -322130.210737 kJ/mol
# GULP energy per Si atom -12389.623490 kJ/mol
# Density = 2.064799 g / cm^3
# Si number density = 20.695088 Si / 1000 Ang^3
#
#
#
# Elastic Constant Matrix: (Units=GPa)
#
#
# Indices 1 2 3 4 5 6 
#
# 1 78.5609 21.5061 26.5820 0.0000 -5.9330 0.0000
# 2 21.5061 84.9728 51.6328 0.0000 -1.6516 0.0000
# 3 26.5820 51.6328 107.9877 0.0000 -13.7183 0.0000
# 4 0.0000 0.0000 0.0000 28.6631 0.0000 7.9991
# 5 -5.9330 -1.6516 -13.7183 0.0000 37.7595 0.0000
# 6 0.0000 0.0000 0.0000 7.9991 0.0000 12.6893
#
#
#
# Elastic Compliance Matrix: (Units=1/GPa)
#
#
# Indices 1 2 3 4 5 6 
#
# 1 0.014198 -0.002178 -0.002288 0.000000 0.001304 0.000000
# 2 -0.002178 0.017108 -0.007960 0.000000 -0.002486 0.000000
# 3 -0.002288 -0.007960 0.014195 0.000000 0.004449 0.000000
# 4 0.000000 0.000000 0.000000 0.042336 0.000000 -0.026688
# 5 0.001304 -0.002486 0.004449 0.000000 0.028196 0.000000
# 6 0.000000 0.000000 0.000000 -0.026688 0.000000 0.095630
#
#
# Mechanical properties :
#
#
# Convention : Reuss Voigt Hill
#
# Bulk Modulus (GPa) = 48.42711 52.32923 50.37817
# Shear Modulus (GPa) = 20.54261 27.27574 23.90918
#
# Velocity S-wave (km/s) = 3.15402 3.63434 3.40267
# Velocity P-wave (km/s) = 6.05928 6.55377 6.31137
#
# Compressibility (1/GPa) = 0.02064959
#
# Stress axis : x y z
#
# Youngs Moduli (GPa) = 70.43347 58.45246 70.44982
#
# Poissons Ratio (x) = 0.12730 0.16118
# Poissons Ratio (y) = 0.15339 0.56075
# Poissons Ratio (z) = 0.16115 0.46526
#
# Static dielectric constant tensor:
#      x y z
#    x 3.914700 0.000000 -0.203170 
#    y 0.000000 3.452590 0.000000 
#    z -0.203170 0.000000 3.782310 
# 
# 
# High freq. dielectric constant tensor:
#      x y z
#    x 1.814950 0.000000 -0.011620 
#    y 0.000000 1.758470 0.000000 
#    z -0.011620 0.000000 1.819470 
# 
# From -- ./inp_files/190347.got.cif
#   From: 2010.06.25/outbox.cif.g09.slc.cpg/sg15_96_cif.got.tgz:190347.got - 2010.06.28 07:06:18.
