data_PCOD8135443
_publ_section_title
;
Structure prediction by ZEFSAII (Michael W. Deem and Ramdas Pophale) SiO2 
 PCOD8135443
Probable space group: C 2/C
;
_chemical_formula_sum "Si O2"
_cell_formula_units_Z 40
_cell_length_a 20.029576
_cell_length_b 7.155928
_cell_length_c 13.346494
_cell_angle_alpha 90.000000
_cell_angle_beta 64.647720
_cell_angle_gamma 90.000000
_cell_volume 1728.723201
_symmetry_space_group_name_H-M "C 2/C"
_symmetry_group_IT_number 15
_symmetry_cell_setting 'monoclinic'
loop_
_space_group_symop_operation_xyz
x,y,z
-x,y,1/2-z
-x,-y,-z
x,-y,1/2+z
1/2+x,1/2+y,z
1/2-x,1/2+y,1/2-z
1/2-x,1/2-y,-z
1/2+x,1/2-y,1/2+z
loop_
_atom_site_type_symbol
_atom_site_label
_atom_site_fract_x
_atom_site_fract_y
_atom_site_fract_z
Si Si1 0.824026 0.841433 0.173991
Si Si2 0.163010 0.745031 0.548968
Si Si3 0.428052 0.687155 0.093489
Si Si4 0.047178 0.032633 0.626755
Si Si5 0.159854 0.525232 0.737524
O O1 0.838280 0.699661 0.257102
O O2 0.738323 0.888621 0.218399
O O3 0.868403 0.030330 0.163252
O O4 0.855231 0.727342 0.057061
O O5 0.250000 0.750000 0.500000
O O6 0.124347 0.938039 0.613719
O O7 0.137302 0.574805 0.637205
O O8 0.504007 0.638531 0.100624
O O9 0.400432 0.888232 0.147951
O O10 0.439214 0.693300 0.965344
O O11 0.000000 0.115359 0.750000
#
# Coordination Sequence:
#
# PCOD8135443 Si02
#       5
#     8   8   8   8   8
#     4  10  21  37  59  93 121 159 211 247 303 365
#     4   9  20  37  60  88 119 160 202 250 305 359
#     4  10  21  37  62  89 117 167 203 250 307 363
#     4  10  19  38  63  83 123 163 200 249 314 356
#     4  11  19  38  62  87 127 161 200 258 303 356
#
# _framework density 23.138465
#
# number of rings (size 3 to 8) (size 9 to 14) (size 15 to 20)
#    0.000    2.000    4.000    0.000    0.000    0.000 
#    3.600   10.000    0.000    0.000    0.000    0.000 
#    0.000    0.000    0.000    0.000    0.000    0.000 
#
# Total GULP energy -247853.919221 kJ/mol
# GULP energy per Si atom -12392.695961 kJ/mol
# Density = 2.308580 g / cm^3
# Si number density = 23.138465 Si / 1000 Ang^3
#
#
#
# Elastic Constant Matrix: (Units=GPa)
#
#
# Indices 1 2 3 4 5 6 
#
# 1 53.3074 -5.9975 0.4784 0.0000 -14.5528 0.0000
# 2 -5.9975 46.3808 1.5783 0.0000 -2.4623 0.0001
# 3 0.4784 1.5783 107.1244 0.0000 -12.2558 0.0000
# 4 0.0000 0.0000 0.0000 30.1937 0.0000 -2.1532
# 5 -14.5528 -2.4623 -12.2558 0.0000 31.9577 0.0000
# 6 0.0000 0.0001 0.0000 -2.1532 0.0000 22.9213
#
#
#
# Elastic Compliance Matrix: (Units=1/GPa)
#
#
# Indices 1 2 3 4 5 6 
#
# 1 0.022056 0.003384 0.001078 0.000000 0.010718 0.000000
# 2 0.003384 0.022170 0.000031 0.000000 0.003261 0.000000
# 3 0.001078 0.000031 0.009817 0.000000 0.004258 0.000000
# 4 0.000000 0.000000 0.000000 0.033343 0.000000 0.003132
# 5 0.010718 0.003261 0.004258 0.000000 0.038056 0.000000
# 6 0.000000 0.000000 0.000000 0.003132 0.000000 0.043922
#
#
# Mechanical properties :
#
#
# Convention : Reuss Voigt Hill
#
# Bulk Modulus (GPa) = 15.86528 22.10343 18.98436
# Shear Modulus (GPa) = 27.56531 31.06475 29.31503
#
# Velocity S-wave (km/s) = 3.45529 3.66807 3.56327
# Velocity P-wave (km/s) = 4.77392 5.24529 5.01515
#
# Compressibility (1/GPa) = 0.06303073
#
# Stress axis : x y z
#
# Youngs Moduli (GPa) = 45.33865 45.10524 101.86605
#
# Poissons Ratio (x) = -0.15265 -0.10980
# Poissons Ratio (y) = -0.15344 -0.00320
# Poissons Ratio (z) = -0.04887 -0.00142
#
# Static dielectric constant tensor:
#      x y z
#    x 4.312660 0.000000 -0.002230 
#    y 0.000000 3.621590 0.000000 
#    z -0.002230 0.000000 4.698240 
# 
# 
# High freq. dielectric constant tensor:
#      x y z
#    x 1.911840 0.000000 -0.008530 
#    y 0.000000 1.864980 0.000000 
#    z -0.008530 0.000000 1.933860 
# 
# From -- ./inp_files/165478.got.cif
#   From: 2010.06.25/outbox.cif.g09.slc.cpg/sg15_83_cif.got.tgz:165478.got - 2010.06.28 07:06:18.
