data_PCOD8135092
_publ_section_title
;
Structure prediction by ZEFSAII (Michael W. Deem and Ramdas Pophale) SiO2 
 PCOD8135092
Probable space group: C 2/C
;
_chemical_formula_sum "Si O2"
_cell_formula_units_Z 64
_cell_length_a 28.488622
_cell_length_b 8.506817
_cell_length_c 13.939471
_cell_angle_alpha 90.000000
_cell_angle_beta 62.063257
_cell_angle_gamma 90.000000
_cell_volume 2984.519063
_symmetry_space_group_name_H-M "C 2/C"
_symmetry_group_IT_number 15
_symmetry_cell_setting 'monoclinic'
loop_
_space_group_symop_operation_xyz
x,y,z
-x,y,1/2-z
-x,-y,-z
x,-y,1/2+z
1/2+x,1/2+y,z
1/2-x,1/2+y,1/2-z
1/2-x,1/2-y,-z
1/2+x,1/2-y,1/2+z
loop_
_atom_site_type_symbol
_atom_site_label
_atom_site_fract_x
_atom_site_fract_y
_atom_site_fract_z
Si Si1 0.343173 0.872273 0.070907
Si Si2 0.057967 0.439081 0.081679
Si Si3 0.329131 0.652493 0.417758
Si Si4 0.612890 0.356359 0.834322
Si Si5 0.838673 0.385652 0.730108
Si Si6 0.938932 0.432809 0.201784
Si Si7 0.887878 0.153224 0.556998
Si Si8 0.215880 0.500373 0.541418
O O1 0.344699 0.707455 0.126612
O O2 0.319585 0.999795 0.165228
O O3 0.403025 0.917380 0.979907
O O4 0.302476 0.875604 0.021633
O O5 0.066692 0.382078 0.182245
O O6 0.997770 0.498132 0.122907
O O7 0.069177 0.290339 0.001782
O O8 0.358648 0.599370 0.292678
O O9 0.362241 0.604596 0.480060
O O10 0.276105 0.550039 0.471594
O O11 0.320233 0.841238 0.424951
O O12 0.569582 0.222073 0.854951
O O13 0.585615 0.505747 0.912791
O O14 0.896278 0.433713 0.718041
O O15 0.843079 0.214911 0.675965
O O16 0.793097 0.399418 0.853573
#
# Coordination Sequence:
#
# PCOD8135092 Si02
#       8
#     8   8   8   8   8   8   8   8
#     4  10  19  37  61  89 114 153 201 242 290 348
#     4  10  19  38  65  87 115 155 199 245 299 357
#     4  11  22  41  59  87 124 156 195 246 309 345
#     4  11  23  40  60  88 123 159 195 242 301 361
#     4  10  19  37  61  89 114 153 201 242 290 348
#     4  10  19  38  65  87 115 155 199 245 299 357
#     4  11  23  40  60  88 123 159 195 242 301 361
#     4  11  20  39  65  87 116 156 201 254 291 344
#
# _framework density 21.443992000000001
#
# number of rings (size 3 to 8) (size 9 to 14) (size 15 to 20)
#    0.000    1.500    7.500    0.000    0.000    7.000 
#    0.000    1.250    0.000    3.000    0.000    0.000 
#    0.000    0.000    0.000    0.000    0.000    0.000 
#
# Total GULP energy -396609.416510 kJ/mol
# GULP energy per Si atom -12394.044266 kJ/mol
# Density = 2.139518 g / cm^3
# Si number density = 21.443992 Si / 1000 Ang^3
#
#
#
# Elastic Constant Matrix: (Units=GPa)
#
#
# Indices 1 2 3 4 5 6 
#
# 1 50.9252 2.2467 47.3163 0.0000 -10.1504 0.0000
# 2 2.2467 45.3921 20.8409 0.0000 12.2445 0.0000
# 3 47.3163 20.8409 121.9857 0.0000 22.7861 0.0000
# 4 0.0000 0.0000 0.0000 28.5483 0.0000 5.9031
# 5 -10.1504 12.2445 22.7861 0.0000 27.5706 0.0000
# 6 0.0000 0.0000 0.0000 5.9031 0.0000 20.2673
#
#
#
# Elastic Compliance Matrix: (Units=1/GPa)
#
#
# Indices 1 2 3 4 5 6 
#
# 1 0.058540 -0.001454 -0.031462 0.000000 0.048200 0.000000
# 2 -0.001454 0.025783 -0.001894 0.000000 -0.010420 0.000000
# 3 -0.031462 -0.001894 0.026881 0.000000 -0.032958 0.000000
# 4 0.000000 0.000000 0.000000 0.037273 0.000000 -0.010856
# 5 0.048200 -0.010420 -0.032958 0.000000 0.085883 0.000000
# 6 0.000000 0.000000 0.000000 -0.010856 0.000000 0.052503
#
#
# Mechanical properties :
#
#
# Convention : Reuss Voigt Hill
#
# Bulk Modulus (GPa) = 24.04812 39.90117 31.97465
# Shear Modulus (GPa) = 13.50092 25.13718 19.31905
#
# Velocity S-wave (km/s) = 2.51189 3.42749 3.00477
# Velocity P-wave (km/s) = 4.43300 5.85757 5.19435
#
# Compressibility (1/GPa) = 0.04158330
#
# Stress axis : x y z
#
# Youngs Moduli (GPa) = 17.08224 38.78534 37.20067
#
# Poissons Ratio (x) = 0.05641 1.17040
# Poissons Ratio (y) = 0.02484 0.07047
# Poissons Ratio (z) = 0.53744 0.07347
#
# Static dielectric constant tensor:
#      x y z
#    x 3.710530 0.000000 0.278080 
#    y 0.000000 3.650570 0.000000 
#    z 0.278080 0.000000 4.193650 
# 
# 
# High freq. dielectric constant tensor:
#      x y z
#    x 1.826360 0.000000 0.022750 
#    y 0.000000 1.810690 0.000000 
#    z 0.022750 0.000000 1.860800 
# 
# From -- ./inp_files/180800.got.cif
#   From: 2010.06.25/outbox.cif.g09.slc.cpg/sg15_91_cif.got.tgz:180800.got - 2010.06.28 07:06:18.
