data_PCOD8135715
_publ_section_title
;
Structure prediction by ZEFSAII (Michael W. Deem and Ramdas Pophale) SiO2 
 PCOD8135715
Probable space group: C 2/C
;
_chemical_formula_sum "Si O2"
_cell_formula_units_Z 40
_cell_length_a 11.982522
_cell_length_b 9.125412
_cell_length_c 18.958689
_cell_angle_alpha 90.000000
_cell_angle_beta 77.288463
_cell_angle_gamma 90.000000
_cell_volume 2022.236545
_symmetry_space_group_name_H-M "C 2/C"
_symmetry_group_IT_number 15
_symmetry_cell_setting 'monoclinic'
loop_
_space_group_symop_operation_xyz
x,y,z
-x,y,1/2-z
-x,-y,-z
x,-y,1/2+z
1/2+x,1/2+y,z
1/2-x,1/2+y,1/2-z
1/2-x,1/2-y,-z
1/2+x,1/2-y,1/2+z
loop_
_atom_site_type_symbol
_atom_site_label
_atom_site_fract_x
_atom_site_fract_y
_atom_site_fract_z
Si Si1 0.305453 0.492793 0.597406
Si Si2 0.719146 0.400446 0.544192
Si Si3 0.508337 0.266928 0.909210
Si Si4 0.071123 0.704144 0.425272
Si Si5 0.048390 0.513749 0.166846
O O1 0.285348 0.474316 0.515316
O O2 0.372267 0.351195 0.616317
O O3 0.380360 0.637140 0.603235
O O4 0.184853 0.502311 0.653661
O O5 0.750000 0.250000 0.500000
O O6 0.594950 0.379701 0.597022
O O7 0.823868 0.416912 0.584920
O O8 0.508392 0.133452 0.855121
O O9 0.494599 0.210251 0.991086
O O10 0.982822 0.651083 0.378553
O O11 0.000000 0.547429 0.250000
#
# Coordination Sequence:
#
# PCOD8135715 Si02
#       5
#     8   8   8   8   8
#     4  10  20  39  61  88 115 146 196 240 285 342
#     4   8  14  33  63  84 112 141 176 244 289 318
#     4  10  19  39  65  86 112 151 191 243 289 337
#     4  10  19  39  65  83 120 147 187 248 291 327
#     4  12  25  39  55  84 122 157 191 233 285 346
#
# _framework density 19.780080000000002
#
# number of rings (size 3 to 8) (size 9 to 14) (size 15 to 20)
#    0.000    2.400    6.000    3.000    0.000    2.400 
#    3.600    1.000    0.000    0.000    0.000    0.000 
#    0.000    0.000    0.000    0.000    0.000    0.000 
#
# Total GULP energy -247878.911221 kJ/mol
# GULP energy per Si atom -12393.945561 kJ/mol
# Density = 1.973506 g / cm^3
# Si number density = 19.780080 Si / 1000 Ang^3
#
#
#
# Elastic Constant Matrix: (Units=GPa)
#
#
# Indices 1 2 3 4 5 6 
#
# 1 82.5174 42.1632 15.1144 0.0000 -4.1183 0.0000
# 2 42.1632 60.0397 15.2191 0.0000 -1.5999 0.0000
# 3 15.1144 15.2191 56.8155 0.0000 0.7516 0.0000
# 4 0.0000 0.0000 0.0000 7.7699 0.0000 -1.2669
# 5 -4.1183 -1.5999 0.7516 0.0000 11.3484 0.0000
# 6 0.0000 0.0000 0.0000 -1.2669 0.0000 34.7624
#
#
#
# Elastic Compliance Matrix: (Units=1/GPa)
#
#
# Indices 1 2 3 4 5 6 
#
# 1 0.019346 -0.013005 -0.001733 0.000000 0.005302 0.000000
# 2 -0.013005 0.026703 -0.003684 0.000000 -0.000711 0.000000
# 3 -0.001733 -0.003684 0.019081 0.000000 -0.002412 0.000000
# 4 0.000000 0.000000 0.000000 0.129471 0.000000 0.004719
# 5 0.005302 -0.000711 -0.002412 0.000000 0.090101 0.000000
# 6 0.000000 0.000000 0.000000 0.004719 0.000000 0.028939
#
#
# Mechanical properties :
#
#
# Convention : Reuss Voigt Hill
#
# Bulk Modulus (GPa) = 35.35343 38.26289 36.80816
# Shear Modulus (GPa) = 13.89222 19.23455 16.56338
#
# Velocity S-wave (km/s) = 2.65303 3.12175 2.89689
# Velocity P-wave (km/s) = 5.22464 5.69033 5.46245
#
# Compressibility (1/GPa) = 0.02828579
#
# Stress axis : x y z
#
# Youngs Moduli (GPa) = 51.69091 37.44839 52.40934
#
# Poissons Ratio (x) = 0.48702 0.09082
# Poissons Ratio (y) = 0.67225 0.19307
# Poissons Ratio (z) = 0.08958 0.13796
#
# Static dielectric constant tensor:
#      x y z
#    x 4.372090 0.000000 0.103980 
#    y 0.000000 3.336020 0.000000 
#    z 0.103980 0.000000 3.163870 
# 
# 
# High freq. dielectric constant tensor:
#      x y z
#    x 1.790860 0.000000 -0.008480 
#    y 0.000000 1.750890 0.000000 
#    z -0.008480 0.000000 1.717800 
# 
# From -- ./inp_files/235695.got.cif
#   From: 2010.06.25/outbox.cif.g09.slc.cpg/sg15_118_cif.got.tgz:235695.got - 2010.06.28 07:06:18.
