data_PCOD8135873
_publ_section_title
;
Structure prediction by ZEFSAII (Michael W. Deem and Ramdas Pophale) SiO2 
 PCOD8135873
Probable space group: C 2/C
;
_chemical_formula_sum "Si O2"
_cell_formula_units_Z 40
_cell_length_a 8.639994
_cell_length_b 22.821543
_cell_length_c 13.464305
_cell_angle_alpha 90.000000
_cell_angle_beta 138.079700
_cell_angle_gamma 90.000000
_cell_volume 1773.705055
_symmetry_space_group_name_H-M "C 2/C"
_symmetry_group_IT_number 15
_symmetry_cell_setting 'monoclinic'
loop_
_space_group_symop_operation_xyz
x,y,z
-x,y,1/2-z
-x,-y,-z
x,-y,1/2+z
1/2+x,1/2+y,z
1/2-x,1/2+y,1/2-z
1/2-x,1/2-y,-z
1/2+x,1/2-y,1/2+z
loop_
_atom_site_type_symbol
_atom_site_label
_atom_site_fract_x
_atom_site_fract_y
_atom_site_fract_z
Si Si1 0.195868 0.976519 0.768453
Si Si2 0.330654 0.669097 0.755457
Si Si3 0.004382 0.226104 0.144263
Si Si4 0.543596 0.612371 0.486588
Si Si5 0.530336 0.919142 0.434302
O O1 0.000000 0.003201 0.750000
O O2 0.100612 0.944476 0.622360
O O3 0.377226 0.026063 0.821779
O O4 0.325013 0.929507 0.897611
O O5 0.500000 0.690642 0.750000
O O6 0.210942 0.726062 0.745808
O O7 0.130443 0.633189 0.605967
O O8 0.448902 0.623276 0.890998
O O9 0.000000 0.197332 0.250000
O O10 0.071047 0.172650 0.105052
O O11 0.750000 0.250000 0.000000
O O12 0.807859 0.603254 0.577887
#
# Coordination Sequence:
#
# PCOD8135873 Si02
#       5
#     8   8   8   8   8
#     4   9  20  37  67 101 130 170 217 278 329 392
#     4  12  26  42  63  95 135 173 220 282 328 389
#     4  12  22  43  72  99 126 174 219 269 332 411
#     4  11  23  42  68  96 131 177 224 266 333 402
#     4  10  19  40  67  96 130 169 221 267 331 397
#
# _framework density 22.551663000000001
#
# number of rings (size 3 to 8) (size 9 to 14) (size 15 to 20)
#    0.000    1.200    4.000    3.000    0.000    1.600 
#    0.000    5.000    0.000    0.000    0.000    0.000 
#    0.000    0.000    0.000    0.000    0.000    0.000 
#
# Total GULP energy -247826.784186 kJ/mol
# GULP energy per Si atom -12391.339209 kJ/mol
# Density = 2.250033 g / cm^3
# Si number density = 22.551663 Si / 1000 Ang^3
#
#
#
# Elastic Constant Matrix: (Units=GPa)
#
#
# Indices 1 2 3 4 5 6 
#
# 1 91.4130 30.2369 38.7768 0.0000 -5.6660 0.0000
# 2 30.2369 58.7708 19.4848 0.0000 3.5627 0.0000
# 3 38.7768 19.4848 90.5486 0.0000 2.9538 0.0000
# 4 0.0000 0.0000 0.0000 43.1412 0.0000 0.0644
# 5 -5.6660 3.5627 2.9538 0.0000 26.6631 0.0000
# 6 0.0000 0.0000 0.0000 0.0644 0.0000 18.1138
#
#
#
# Elastic Compliance Matrix: (Units=1/GPa)
#
#
# Indices 1 2 3 4 5 6 
#
# 1 0.015739 -0.006572 -0.005483 0.000000 0.004830 0.000000
# 2 -0.006572 0.021176 -0.001610 0.000000 -0.004048 0.000000
# 3 -0.005483 -0.001610 0.013819 0.000000 -0.002481 0.000000
# 4 0.000000 0.000000 0.000000 0.023180 0.000000 -0.000082
# 5 0.004830 -0.004048 -0.002481 0.000000 0.039347 0.000000
# 6 0.000000 0.000000 0.000000 -0.000082 0.000000 0.055207
#
#
# Mechanical properties :
#
#
# Convention : Reuss Voigt Hill
#
# Bulk Modulus (GPa) = 42.73057 46.41439 44.57248
# Shear Modulus (GPa) = 24.55800 27.73255 26.14528
#
# Velocity S-wave (km/s) = 3.30353 3.51056 3.40862
# Velocity P-wave (km/s) = 5.79138 6.08754 5.94130
#
# Compressibility (1/GPa) = 0.02340245
#
# Stress axis : x y z
#
# Youngs Moduli (GPa) = 63.53793 47.22372 72.36204
#
# Poissons Ratio (x) = 0.31037 0.39678
# Poissons Ratio (y) = 0.41759 0.11652
# Poissons Ratio (z) = 0.34840 0.07604
#
# Static dielectric constant tensor:
#      x y z
#    x 3.872130 0.000000 0.125030 
#    y 0.000000 4.195200 0.000000 
#    z 0.125030 0.000000 4.514540 
# 
# 
# High freq. dielectric constant tensor:
#      x y z
#    x 1.859240 0.000000 -0.001690 
#    y 0.000000 1.894690 0.000000 
#    z -0.001690 0.000000 1.904880 
# 
# From -- ./inp_files/137103.got.cif
#   From: 2010.06.25/outbox.cif.g09.slc.cpg/sg15_69_cif.got.tgz:137103.got - 2010.06.28 07:06:18.
