data_PCOD8135541
_publ_section_title
;
Structure prediction by ZEFSAII (Michael W. Deem and Ramdas Pophale) SiO2 
 PCOD8135541
Probable space group: C 2/C
;
_chemical_formula_sum "Si O2"
_cell_formula_units_Z 48
_cell_length_a 25.553296
_cell_length_b 9.013558
_cell_length_c 17.697067
_cell_angle_alpha 90.000000
_cell_angle_beta 146.007484
_cell_angle_gamma 90.000000
_cell_volume 2278.882931
_symmetry_space_group_name_H-M "C 2/C"
_symmetry_group_IT_number 15
_symmetry_cell_setting 'monoclinic'
loop_
_space_group_symop_operation_xyz
x,y,z
-x,y,1/2-z
-x,-y,-z
x,-y,1/2+z
1/2+x,1/2+y,z
1/2-x,1/2+y,1/2-z
1/2-x,1/2-y,-z
1/2+x,1/2-y,1/2+z
loop_
_atom_site_type_symbol
_atom_site_label
_atom_site_fract_x
_atom_site_fract_y
_atom_site_fract_z
Si Si1 0.941558 0.829273 0.384785
Si Si2 0.449452 0.644000 0.345978
Si Si3 0.000000 0.502429 0.250000
Si Si4 0.173411 0.359243 0.372267
Si Si5 0.000000 0.992249 0.750000
Si Si6 0.411094 0.263451 0.056358
Si Si7 0.273214 0.176228 0.107662
O O1 0.874411 0.714531 0.262955
O O2 0.960842 0.799974 0.496915
O O3 0.043303 0.819904 0.466290
O O4 0.904463 0.996897 0.329392
O O5 0.371897 0.772608 0.252975
O O6 0.475961 0.613859 0.290748
O O7 0.087304 0.404829 0.324788
O O8 0.042534 0.606940 0.366327
O O9 0.250000 0.250000 0.500000
O O10 0.228487 0.499845 0.405656
O O11 0.081883 0.108639 0.869861
O O12 0.298505 0.257549 0.915432
O O13 0.250000 0.250000 0.000000
#
# Coordination Sequence:
#
# PCOD8135541 Si02
#       7
#     8   8   4   8   4   8   8
#     4  10  22  43  65  92 131 181 215 268 338 402
#     4  10  22  40  64  93 137 167 217 277 340 381
#     4  11  21  40  64  98 126 170 222 266 330 390
#     4  12  24  38  65 102 131 166 224 279 327 392
#     4   9  17  38  66  90 124 172 216 272 326 396
#     4  10  19  38  66  94 123 170 229 268 319 398
#     4  12  21  38  67  95 128 174 225 267 323 402
#
# _framework density 21.062950000000001
#
# number of rings (size 3 to 8) (size 9 to 14) (size 15 to 20)
#    0.000    1.333    3.333    4.500    0.000    2.000 
#    0.000    8.333    0.000    0.000    0.000    0.000 
#    0.000    0.000    0.000    0.000    0.000    0.000 
#
# Total GULP energy -297378.600514 kJ/mol
# GULP energy per Si atom -12390.775021 kJ/mol
# Density = 2.101501 g / cm^3
# Si number density = 21.062950 Si / 1000 Ang^3
#
#
#
# Elastic Constant Matrix: (Units=GPa)
#
#
# Indices 1 2 3 4 5 6 
#
# 1 87.1262 24.6546 38.2915 0.0000 11.2129 0.0000
# 2 24.6546 133.7020 62.5997 0.0000 1.0073 0.0000
# 3 38.2915 62.5997 124.8340 0.0000 -12.4224 0.0000
# 4 0.0000 0.0000 0.0000 38.2231 0.0000 11.1914
# 5 11.2129 1.0073 -12.4224 0.0000 39.5276 0.0000
# 6 0.0000 0.0000 0.0000 11.1914 0.0000 26.8709
#
#
#
# Elastic Compliance Matrix: (Units=1/GPa)
#
#
# Indices 1 2 3 4 5 6 
#
# 1 0.014405 -0.000373 -0.004787 0.000000 -0.005581 0.000000
# 2 -0.000373 0.009916 -0.005030 0.000000 -0.001728 0.000000
# 3 -0.004787 -0.005030 0.012542 0.000000 0.005428 0.000000
# 4 0.000000 0.000000 0.000000 0.029796 0.000000 -0.012410
# 5 -0.005581 -0.001728 0.005428 0.000000 0.028632 0.000000
# 6 0.000000 0.000000 0.000000 -0.012410 0.000000 0.042383
#
#
# Mechanical properties :
#
#
# Convention : Reuss Voigt Hill
#
# Bulk Modulus (GPa) = 60.66944 66.30599 63.48772
# Shear Modulus (GPa) = 30.57193 35.59874 33.08533
#
# Velocity S-wave (km/s) = 3.81393 4.11556 3.96761
# Velocity P-wave (km/s) = 6.94702 7.35745 7.15518
#
# Compressibility (1/GPa) = 0.01648276
#
# Stress axis : x y z
#
# Youngs Moduli (GPa) = 69.41874 100.84458 79.73476
#
# Poissons Ratio (x) = 0.03761 0.38170
# Poissons Ratio (y) = 0.02589 0.40108
# Poissons Ratio (z) = 0.33231 0.50727
#
# Static dielectric constant tensor:
#      x y z
#    x 3.625850 0.000000 0.159880 
#    y 0.000000 4.038310 0.000000 
#    z 0.159880 0.000000 3.998950 
# 
# 
# High freq. dielectric constant tensor:
#      x y z
#    x 1.801150 0.000000 0.008630 
#    y 0.000000 1.839120 0.000000 
#    z 0.008630 0.000000 1.819950 
# 
# From -- ./inp_files/166420.got.cif
#   From: 2010.06.25/outbox.cif.g09.slc.cpg/sg15_84_cif.got.tgz:166420.got - 2010.06.28 07:06:18.
