data_PCOD8135049
_publ_section_title
;
Structure prediction by ZEFSAII (Michael W. Deem and Ramdas Pophale) SiO2 
 PCOD8135049
Probable space group: C 2/C
;
_chemical_formula_sum "Si O2"
_cell_formula_units_Z 60
_cell_length_a 29.220495
_cell_length_b 8.042233
_cell_length_c 12.917043
_cell_angle_alpha 90.000000
_cell_angle_beta 105.516819
_cell_angle_gamma 90.000000
_cell_volume 2924.842378
_symmetry_space_group_name_H-M "C 2/C"
_symmetry_group_IT_number 15
_symmetry_cell_setting 'monoclinic'
loop_
_space_group_symop_operation_xyz
x,y,z
-x,y,1/2-z
-x,-y,-z
x,-y,1/2+z
1/2+x,1/2+y,z
1/2-x,1/2+y,1/2-z
1/2-x,1/2-y,-z
1/2+x,1/2-y,1/2+z
loop_
_atom_site_type_symbol
_atom_site_label
_atom_site_fract_x
_atom_site_fract_y
_atom_site_fract_z
Si Si1 0.599902 0.978114 0.758678
Si Si2 0.219192 0.040320 0.179783
Si Si3 0.000000 0.028186 0.250000
Si Si4 0.330107 0.592424 0.555499
Si Si5 0.187113 0.709332 0.258674
Si Si6 0.148508 0.803554 0.782264
Si Si7 0.054358 0.238337 0.124178
Si Si8 0.069237 0.220243 0.900814
O O1 0.632117 0.848795 0.711017
O O2 0.572945 0.892573 0.838627
O O3 0.638555 0.117273 0.819905
O O4 0.559972 0.067516 0.663292
O O5 0.275679 0.058079 0.234303
O O6 0.194220 0.180512 0.235985
O O7 0.199058 0.856840 0.187214
O O8 0.209760 0.074504 0.054530
O O9 0.987698 0.146225 0.339882
O O10 0.956424 0.913434 0.187926
O O11 0.307242 0.718702 0.622988
O O12 0.344039 0.416975 0.613775
O O13 0.378099 0.665588 0.536248
O O14 0.102902 0.859147 0.684748
O O15 0.042235 0.240205 0.994309
#
# Coordination Sequence:
#
# PCOD8135049 Si02
#       8
#     8   8   4   8   8   8   8   8
#     4   9  21  40  58  87 128 155 196 248 297 363
#     4  11  20  36  61  87 123 162 204 243 293 348
#     4  12  24  42  66  94 118 148 210 258 292 380
#     4  10  19  37  60  87 117 162 198 247 298 353
#     4  10  22  35  58  89 123 157 206 246 287 350
#     4   9  19  38  60  82 123 154 198 241 295 347
#     4  10  22  42  65  84 124 157 194 251 311 352
#     4  11  21  39  65  92 118 161 197 246 314 359
#
# _framework density 20.513923999999999
#
# number of rings (size 3 to 8) (size 9 to 14) (size 15 to 20)
#    0.800    1.067    2.667    1.600    0.000    1.600 
#    0.000   11.333    0.000    0.000    0.000    0.000 
#    0.000    0.000    0.000    0.000    0.000    0.000 
#
# Total GULP energy -371756.088886 kJ/mol
# GULP energy per Si atom -12391.869630 kJ/mol
# Density = 2.046723 g / cm^3
# Si number density = 20.513924 Si / 1000 Ang^3
#
#
#
# Elastic Constant Matrix: (Units=GPa)
#
#
# Indices 1 2 3 4 5 6 
#
# 1 47.2521 25.1011 14.8048 0.0000 -6.8141 0.0000
# 2 25.1011 111.9401 33.5464 0.0000 -14.6113 0.0000
# 3 14.8048 33.5464 85.4355 0.0000 -17.2211 0.0000
# 4 0.0000 0.0000 0.0000 22.1340 0.0000 -7.5090
# 5 -6.8141 -14.6113 -17.2211 0.0000 28.5659 0.0000
# 6 0.0000 0.0000 0.0000 -7.5090 0.0000 40.9926
#
#
#
# Elastic Compliance Matrix: (Units=1/GPa)
#
#
# Indices 1 2 3 4 5 6 
#
# 1 0.024567 -0.004614 -0.001981 0.000000 0.002306 0.000000
# 2 -0.004614 0.011250 -0.003050 0.000000 0.002814 0.000000
# 3 -0.001981 -0.003050 0.014611 0.000000 0.006776 0.000000
# 4 0.000000 0.000000 0.000000 0.048173 0.000000 0.008824
# 5 0.002306 0.002814 0.006776 0.000000 0.041081 0.000000
# 6 0.000000 0.000000 0.000000 0.008824 0.000000 0.026011
#
#
# Mechanical properties :
#
#
# Convention : Reuss Voigt Hill
#
# Bulk Modulus (GPa) = 32.11497 43.50362 37.80930
# Shear Modulus (GPa) = 25.59333 29.75020 27.67177
#
# Velocity S-wave (km/s) = 3.53598 3.81234 3.67676
# Velocity P-wave (km/s) = 5.68859 6.37428 6.04117
#
# Compressibility (1/GPa) = 0.03113812
#
# Stress axis : x y z
#
# Youngs Moduli (GPa) = 40.70429 88.89261 68.43958
#
# Poissons Ratio (x) = 0.41019 0.13555
# Poissons Ratio (y) = 0.18783 0.20876
# Poissons Ratio (z) = 0.08062 0.27114
#
# Static dielectric constant tensor:
#      x y z
#    x 3.635740 0.000000 -0.159250 
#    y 0.000000 3.664790 0.000000 
#    z -0.159250 0.000000 3.341770 
# 
# 
# High freq. dielectric constant tensor:
#      x y z
#    x 1.801540 0.000000 -0.014960 
#    y 0.000000 1.799910 0.000000 
#    z -0.014960 0.000000 1.779400 
# 
# From -- ./inp_files/125605.got.cif
#   From: 2010.06.25/outbox.cif.g09.slc.cpg/sg15_63_cif.got.tgz:125605.got - 2010.06.28 07:06:18.
