data_PCOD8135326
_publ_section_title
;
Structure prediction by ZEFSAII (Michael W. Deem and Ramdas Pophale) SiO2 
 PCOD8135326
Probable space group: C 2/C
;
_chemical_formula_sum "Si O2"
_cell_formula_units_Z 64
_cell_length_a 27.551690
_cell_length_b 18.826283
_cell_length_c 11.280333
_cell_angle_alpha 90.000000
_cell_angle_beta 33.040365
_cell_angle_gamma 90.000000
_cell_volume 3190.173383
_symmetry_space_group_name_H-M "C 2/C"
_symmetry_group_IT_number 15
_symmetry_cell_setting 'monoclinic'
loop_
_space_group_symop_operation_xyz
x,y,z
-x,y,1/2-z
-x,-y,-z
x,-y,1/2+z
1/2+x,1/2+y,z
1/2-x,1/2+y,1/2-z
1/2-x,1/2-y,-z
1/2+x,1/2-y,1/2+z
loop_
_atom_site_type_symbol
_atom_site_label
_atom_site_fract_x
_atom_site_fract_y
_atom_site_fract_z
Si Si1 0.865679 0.278789 0.855090
Si Si2 0.010947 0.820432 0.021685
Si Si3 0.696460 0.195269 0.275473
Si Si4 0.728949 0.893801 0.302202
Si Si5 0.812480 0.215778 0.473073
Si Si6 0.747084 0.953996 0.691321
Si Si7 0.360179 0.575414 0.737881
Si Si8 0.578940 0.449247 0.011412
O O1 0.863619 0.292300 0.717610
O O2 0.965811 0.249446 0.673708
O O3 0.797050 0.216375 0.031991
O O4 0.847887 0.350033 0.969626
O O5 0.087867 0.799067 0.773730
O O6 0.057722 0.868061 0.024749
O O7 0.929607 0.864125 0.130729
O O8 0.669689 0.238892 0.445609
O O9 0.684258 0.113560 0.342394
O O10 0.759928 0.855189 0.118493
O O11 0.815739 0.898330 0.207378
O O12 0.695899 0.972002 0.325969
O O13 0.750000 0.250000 0.500000
O O14 0.779796 0.943210 0.490265
O O15 0.830513 0.948416 0.604671
O O16 0.412928 0.501125 0.617585
O O17 0.500000 0.482538 0.250000
#
# Coordination Sequence:
#
# PCOD8135326 Si02
#       8
#     8   8   8   8   8   8   8   8
#     4  10  19  38  61  89 117 162 215 240 295 364
#     4  12  22  36  59  86 125 163 204 252 302 370
#     4  10  19  38  59  84 120 160 207 249 294 365
#     4  10  23  39  62  89 127 164 201 249 303 372
#     4  11  25  40  56  88 126 159 203 256 313 368
#     4  11  20  37  59  88 121 165 199 248 309 367
#     4  11  21  34  57  89 125 161 202 242 304 377
#     4  11  22  31  50  87 129 162 187 239 306 372
#
# _framework density 20.061605
#
# number of rings (size 3 to 8) (size 9 to 14) (size 15 to 20)
#    0.000    1.250    3.750    3.375    3.500    3.500 
#    0.000    0.000    0.000    0.750    3.250    0.000 
#    0.000    0.000    0.000    0.000    0.000    0.000 
#
# Total GULP energy -396549.946007 kJ/mol
# GULP energy per Si atom -12392.185813 kJ/mol
# Density = 2.001594 g / cm^3
# Si number density = 20.061605 Si / 1000 Ang^3
#
#
#
# Elastic Constant Matrix: (Units=GPa)
#
#
# Indices 1 2 3 4 5 6 
#
# 1 43.4678 21.8929 11.9847 0.0000 10.1151 0.0000
# 2 21.8929 139.2272 33.2476 0.0000 4.6527 0.0000
# 3 11.9847 33.2476 76.5568 0.0000 8.1606 0.0000
# 4 0.0000 0.0000 0.0000 35.8997 0.0000 2.1796
# 5 10.1151 4.6527 8.1606 0.0000 15.3376 0.0000
# 6 0.0000 0.0000 0.0000 2.1796 0.0000 31.5930
#
#
#
# Elastic Compliance Matrix: (Units=1/GPa)
#
#
# Indices 1 2 3 4 5 6 
#
# 1 0.029293 -0.003761 -0.001076 0.000000 -0.017606 0.000000
# 2 -0.003761 0.008502 -0.003279 0.000000 0.001646 0.000000
# 3 -0.001076 -0.003279 0.015343 0.000000 -0.006459 0.000000
# 4 0.000000 0.000000 0.000000 0.027973 0.000000 -0.001930
# 5 -0.017606 0.001646 -0.006459 0.000000 0.079748 0.000000
# 6 0.000000 0.000000 0.000000 -0.001930 0.000000 0.031786
#
#
# Mechanical properties :
#
#
# Convention : Reuss Voigt Hill
#
# Bulk Modulus (GPa) = 27.09518 43.72247 35.40883
# Shear Modulus (GPa) = 22.60622 29.37449 25.99036
#
# Velocity S-wave (km/s) = 3.36049 3.83066 3.60325
# Velocity P-wave (km/s) = 5.34719 6.43480 5.91604
#
# Compressibility (1/GPa) = 0.03690693
#
# Stress axis : x y z
#
# Youngs Moduli (GPa) = 34.13756 117.62058 65.17573
#
# Poissons Ratio (x) = 0.44237 0.07011
# Poissons Ratio (y) = 0.12839 0.21371
# Poissons Ratio (z) = 0.03672 0.38567
#
# Static dielectric constant tensor:
#      x y z
#    x 3.565810 0.000000 0.320450 
#    y 0.000000 4.366530 0.000000 
#    z 0.320450 0.000000 3.647820 
# 
# 
# High freq. dielectric constant tensor:
#      x y z
#    x 1.772840 0.000000 0.027830 
#    y 0.000000 1.794260 0.000000 
#    z 0.027830 0.000000 1.760330 
# 
# From -- ./inp_files/127279.got.cif
#   From: 2010.06.25/outbox.cif.g09.slc.cpg/sg15_64_cif.got.tgz:127279.got - 2010.06.28 07:06:18.
