data_PCOD8135550
_publ_section_title
;
Structure prediction by ZEFSAII (Michael W. Deem and Ramdas Pophale) SiO2 
 PCOD8135550
Probable space group: C 2/C
;
_chemical_formula_sum "Si O2"
_cell_formula_units_Z 56
_cell_length_a 16.409899
_cell_length_b 8.564302
_cell_length_c 21.117624
_cell_angle_alpha 90.000000
_cell_angle_beta 49.419230
_cell_angle_gamma 90.000000
_cell_volume 2254.056575
_symmetry_space_group_name_H-M "C 2/C"
_symmetry_group_IT_number 15
_symmetry_cell_setting 'monoclinic'
loop_
_space_group_symop_operation_xyz
x,y,z
-x,y,1/2-z
-x,-y,-z
x,-y,1/2+z
1/2+x,1/2+y,z
1/2-x,1/2+y,1/2-z
1/2-x,1/2-y,-z
1/2+x,1/2-y,1/2+z
loop_
_atom_site_type_symbol
_atom_site_label
_atom_site_fract_x
_atom_site_fract_y
_atom_site_fract_z
Si Si1 0.385328 0.906792 0.955957
Si Si2 0.347816 0.119759 0.332599
Si Si3 0.214411 0.180390 0.217675
Si Si4 0.951169 0.048232 0.927536
Si Si5 0.349361 0.550897 0.601201
Si Si6 0.833487 0.032661 0.865407
Si Si7 0.897929 0.527653 0.685088
O O1 0.349170 0.950327 0.902901
O O2 0.401363 0.721935 0.956994
O O3 0.498552 0.996609 0.911920
O O4 0.292508 0.962385 0.050722
O O5 0.227707 0.098882 0.365366
O O6 0.376958 0.300738 0.320288
O O7 0.427824 0.033932 0.241630
O O8 0.279989 0.293560 0.138284
O O9 0.144686 0.077558 0.204895
O O10 0.134201 0.288711 0.300725
O O11 0.293438 0.071043 0.217629
O O12 0.908716 0.971044 0.884550
O O13 0.919746 0.938766 0.002427
O O14 0.081112 0.047165 0.868109
#
# Coordination Sequence:
#
# PCOD8135550 Si02
#       7
#     8   8   8   8   8   8   8
#     4  11  20  41  72 106 130 181 225 286 337 419
#     4  10  20  40  73  97 137 179 225 278 336 421
#     4  11  25  43  68  95 138 188 229 288 337 413
#     4  10  19  38  70 104 137 171 218 276 345 409
#     4  10  19  38  67 100 138 178 213 276 342 404
#     4  11  22  41  72 105 134 176 236 282 338 404
#     4  11  24  44  68  95 141 184 236 276 353 410
#
# _framework density 24.844097000000001
#
# number of rings (size 3 to 8) (size 9 to 14) (size 15 to 20)
#    0.000    1.429    4.286    2.143    0.000    1.143 
#    0.000    2.857   15.714    0.000    0.000    0.000 
#    0.000    0.000    0.000    0.000    0.000    0.000 
#
# Total GULP energy -347079.684715 kJ/mol
# GULP energy per Si atom -12395.703026 kJ/mol
# Density = 2.478755 g / cm^3
# Si number density = 24.844097 Si / 1000 Ang^3
#
#
#
# Elastic Constant Matrix: (Units=GPa)
#
#
# Indices 1 2 3 4 5 6 
#
# 1 113.2390 19.5173 6.0652 0.0000 8.8202 0.0001
# 2 19.5173 65.9096 6.1179 0.0000 12.2715 0.0003
# 3 6.0652 6.1179 49.1034 0.0000 -7.8606 0.0000
# 4 0.0000 0.0000 0.0000 28.9263 0.0000 10.5995
# 5 8.8202 12.2715 -7.8606 0.0000 39.1957 0.0000
# 6 0.0001 0.0003 0.0000 10.5995 0.0000 32.8540
#
#
#
# Elastic Compliance Matrix: (Units=1/GPa)
#
#
# Indices 1 2 3 4 5 6 
#
# 1 0.009427 -0.002390 -0.001123 0.000000 -0.001598 0.000000
# 2 -0.002390 0.017130 -0.002698 0.000000 -0.005366 0.000000
# 3 -0.001123 -0.002698 0.021713 0.000000 0.005452 0.000000
# 4 0.000000 0.000000 0.000000 0.039206 0.000000 -0.012649
# 5 -0.001598 -0.005366 0.005452 0.000000 0.028646 0.000000
# 6 0.000000 0.000000 0.000000 -0.012649 0.000000 0.034518
#
#
# Mechanical properties :
#
#
# Convention : Reuss Voigt Hill
#
# Bulk Modulus (GPa) = 27.89503 32.40587 30.15045
# Shear Modulus (GPa) = 28.56973 33.29863 30.93418
#
# Velocity S-wave (km/s) = 3.39479 3.66499 3.53247
# Velocity P-wave (km/s) = 5.15931 5.56610 5.36656
#
# Compressibility (1/GPa) = 0.03584868
#
# Stress axis : x y z
#
# Youngs Moduli (GPa) = 106.07364 58.37856 46.05597
#
# Poissons Ratio (x) = 0.13952 0.05170
# Poissons Ratio (y) = 0.25350 0.12426
# Poissons Ratio (z) = 0.11907 0.15751
#
# Static dielectric constant tensor:
#      x y z
#    x 4.853400 0.000000 0.075970 
#    y 0.000000 4.198140 0.000000 
#    z 0.075970 0.000000 4.545450 
# 
# 
# High freq. dielectric constant tensor:
#      x y z
#    x 2.002490 0.000000 -0.002610 
#    y 0.000000 1.962270 0.000000 
#    z -0.002610 0.000000 1.990300 
# 
# From -- ./inp_files/273050.got.cif
#   From: 2010.06.25/outbox.cif.g09.slc.cpg/sg15_137_cif.got.tgz:273050.got - 2010.06.28 07:06:18.
