data_PCOD8135199
_publ_section_title
;
Structure prediction by ZEFSAII (Michael W. Deem and Ramdas Pophale) SiO2 
 PCOD8135199
Probable space group: C 2/C
;
_chemical_formula_sum "Si O2"
_cell_formula_units_Z 60
_cell_length_a 18.895237
_cell_length_b 14.778556
_cell_length_c 13.122404
_cell_angle_alpha 90.000000
_cell_angle_beta 47.867714
_cell_angle_gamma 90.000000
_cell_volume 2717.479422
_symmetry_space_group_name_H-M "C 2/C"
_symmetry_group_IT_number 15
_symmetry_cell_setting 'monoclinic'
loop_
_space_group_symop_operation_xyz
x,y,z
-x,y,1/2-z
-x,-y,-z
x,-y,1/2+z
1/2+x,1/2+y,z
1/2-x,1/2+y,1/2-z
1/2-x,1/2-y,-z
1/2+x,1/2-y,1/2+z
loop_
_atom_site_type_symbol
_atom_site_label
_atom_site_fract_x
_atom_site_fract_y
_atom_site_fract_z
Si Si1 0.142804 0.862705 0.774429
Si Si2 0.691949 0.004885 0.903161
Si Si3 0.099926 0.263006 0.612220
Si Si4 0.611718 0.423759 0.014776
Si Si5 0.640275 0.171089 0.851059
Si Si6 0.000000 0.932502 0.750000
Si Si7 0.017391 0.541589 0.850407
Si Si8 0.815492 0.579252 0.368381
O O1 0.076747 0.892643 0.935891
O O2 0.180062 0.759107 0.752500
O O3 0.078393 0.872600 0.734541
O O4 0.238953 0.920803 0.679573
O O5 0.716713 0.090047 0.803050
O O6 0.704202 0.027813 0.008527
O O7 0.578695 0.985169 0.995320
O O8 0.107746 0.154470 0.605832
O O9 0.101241 0.298500 0.497001
O O10 0.175908 0.312798 0.613945
O O11 0.000000 0.297106 0.750000
O O12 0.724055 0.442077 0.887432
O O13 0.552285 0.507774 0.113561
O O14 0.555668 0.133218 0.863270
O O15 0.094158 0.459234 0.780968
O O16 0.000000 0.565323 0.750000
#
# Coordination Sequence:
#
# PCOD8135199 Si02
#       8
#     8   8   8   8   8   4   8   8
#     4  11  25  42  68  97 130 179 222 270 332 391
#     4  10  20  41  65  97 134 166 220 275 331 381
#     4  10  20  36  61  96 128 163 221 272 336 386
#     4  11  22  40  64  92 126 175 221 271 331 394
#     4  10  22  39  63  97 134 170 220 271 324 409
#     4  12  24  46  64  86 142 180 226 264 326 406
#     4  10  21  38  66  95 133 171 213 271 339 388
#     4  10  19  37  64  94 128 169 209 279 331 387
#
# _framework density 22.079286
#
# number of rings (size 3 to 8) (size 9 to 14) (size 15 to 20)
#    0.000    1.600    2.000    4.000    0.933    1.067 
#    0.000    8.000    0.000    0.000    0.000    0.000 
#    0.000    0.000    0.000    0.000    0.000    0.000 
#
# Total GULP energy -371712.704225 kJ/mol
# GULP energy per Si atom -12390.423474 kJ/mol
# Density = 2.202903 g / cm^3
# Si number density = 22.079286 Si / 1000 Ang^3
#
#
#
# Elastic Constant Matrix: (Units=GPa)
#
#
# Indices 1 2 3 4 5 6 
#
# 1 76.5788 44.3027 32.2831 0.0000 -7.1472 0.0000
# 2 44.3027 143.0811 41.8661 0.0000 -1.8396 0.0000
# 3 32.2831 41.8661 63.3349 0.0000 -4.7662 0.0000
# 4 0.0000 0.0000 0.0000 19.3210 0.0000 -4.6566
# 5 -7.1472 -1.8396 -4.7662 0.0000 31.2704 0.0000
# 6 0.0000 0.0000 0.0000 -4.6566 0.0000 25.2105
#
#
#
# Elastic Compliance Matrix: (Units=1/GPa)
#
#
# Indices 1 2 3 4 5 6 
#
# 1 0.018264 -0.003667 -0.006664 0.000000 0.002943 0.000000
# 2 -0.003667 0.009406 -0.004420 0.000000 -0.000959 0.000000
# 3 -0.006664 -0.004420 0.022228 0.000000 0.001605 0.000000
# 4 0.000000 0.000000 0.000000 0.054169 0.000000 0.010005
# 5 0.002943 -0.000959 0.001605 0.000000 0.032840 0.000000
# 6 0.000000 0.000000 0.000000 0.010005 0.000000 0.041514
#
#
# Mechanical properties :
#
#
# Convention : Reuss Voigt Hill
#
# Bulk Modulus (GPa) = 49.03102 57.76652 53.39877
# Shear Modulus (GPa) = 23.28593 26.12992 24.70793
#
# Velocity S-wave (km/s) = 3.25106 3.44388 3.34886
# Velocity P-wave (km/s) = 6.02889 6.48334 6.26024
#
# Compressibility (1/GPa) = 0.02039525
#
# Stress axis : x y z
#
# Youngs Moduli (GPa) = 54.75227 106.31906 44.98756
#
# Poissons Ratio (x) = 0.38992 0.29979
# Poissons Ratio (y) = 0.20080 0.19885
# Poissons Ratio (z) = 0.36486 0.46995
#
# Static dielectric constant tensor:
#      x y z
#    x 4.094780 0.000000 0.131960 
#    y 0.000000 4.199240 0.000000 
#    z 0.131960 0.000000 3.876040 
# 
# 
# High freq. dielectric constant tensor:
#      x y z
#    x 1.876740 0.000000 0.019090 
#    y 0.000000 1.864060 0.000000 
#    z 0.019090 0.000000 1.857120 
# 
# From -- ./inp_files/168611.got.cif
#   From: 2010.06.25/outbox.cif.g09.slc.cpg/sg15_85_cif.got.tgz:168611.got - 2010.06.28 07:06:18.
