data_PCOD8135843
_publ_section_title
;
Structure prediction by ZEFSAII (Michael W. Deem and Ramdas Pophale) SiO2 
 PCOD8135843
Probable space group: C 2/C
;
_chemical_formula_sum "Si O2"
_cell_formula_units_Z 60
_cell_length_a 12.163297
_cell_length_b 29.764908
_cell_length_c 12.779051
_cell_angle_alpha 90.000000
_cell_angle_beta 36.481040
_cell_angle_gamma 90.000000
_cell_volume 2750.728775
_symmetry_space_group_name_H-M "C 2/C"
_symmetry_group_IT_number 15
_symmetry_cell_setting 'monoclinic'
loop_
_space_group_symop_operation_xyz
x,y,z
-x,y,1/2-z
-x,-y,-z
x,-y,1/2+z
1/2+x,1/2+y,z
1/2-x,1/2+y,1/2-z
1/2-x,1/2-y,-z
1/2+x,1/2-y,1/2+z
loop_
_atom_site_type_symbol
_atom_site_label
_atom_site_fract_x
_atom_site_fract_y
_atom_site_fract_z
Si Si1 0.423538 0.616585 0.909021
Si Si2 0.342676 0.066042 0.234558
Si Si3 0.793891 0.168840 0.445007
Si Si4 0.334918 0.213554 0.147200
Si Si5 0.079357 0.347667 0.582188
Si Si6 0.558518 0.311279 0.453791
Si Si7 0.500000 0.010404 0.750000
Si Si8 0.280736 0.568794 0.405436
O O1 0.500000 0.588037 0.750000
O O2 0.324842 0.583279 0.064418
O O3 0.296188 0.650940 0.939062
O O4 0.567108 0.647794 0.864372
O O5 0.507171 0.102065 0.112112
O O6 0.270405 0.056874 0.174054
O O7 0.416730 0.019101 0.220357
O O8 0.678021 0.206376 0.468914
O O9 0.718067 0.119660 0.475987
O O10 0.000000 0.173318 0.250000
O O11 0.791956 0.177249 0.570430
O O12 0.518581 0.186096 0.038045
O O13 0.153149 0.193374 0.343126
O O14 0.368165 0.265109 0.152341
O O15 0.000000 0.328098 0.750000
O O16 0.667413 0.039246 0.574578
O O17 0.500000 0.561309 0.250000
#
# Coordination Sequence:
#
# PCOD8135843 Si02
#       8
#     8   8   8   8   8   8   4   8
#     4  11  23  40  66  99 125 175 234 275 331 402
#     4  11  21  49  71  91 138 180 213 268 352 408
#     4   9  19  42  65  85 130 181 214 264 337 401
#     4  11  21  38  62  90 128 174 219 269 332 391
#     4  10  19  40  65  83 123 179 211 263 338 391
#     4  11  23  38  60  95 129 170 226 274 324 390
#     4  12  26  44  72 112 132 172 228 278 342 418
#     4  11  24  46  73 102 139 177 223 280 341 406
#
# _framework density 21.812403
#
# number of rings (size 3 to 8) (size 9 to 14) (size 15 to 20)
#    0.000    1.333    6.000    2.400    1.867    2.133 
#    7.200    0.000    0.000    0.000    0.000    0.000 
#    0.000    0.000    0.000    0.000    0.000    0.000 
#
# Total GULP energy -371799.586621 kJ/mol
# GULP energy per Si atom -12393.319554 kJ/mol
# Density = 2.176276 g / cm^3
# Si number density = 21.812403 Si / 1000 Ang^3
#
#
#
# Elastic Constant Matrix: (Units=GPa)
#
#
# Indices 1 2 3 4 5 6 
#
# 1 94.9625 19.8017 12.3239 0.0000 20.7578 0.0000
# 2 19.8017 68.5438 17.0600 0.0000 -5.5592 0.0000
# 3 12.3239 17.0600 58.3118 0.0000 16.5784 0.0000
# 4 0.0000 0.0000 0.0000 22.0144 0.0000 -0.4702
# 5 20.7578 -5.5592 16.5784 0.0000 20.9247 0.0000
# 6 0.0000 0.0000 0.0000 -0.4702 0.0000 26.4919
#
#
#
# Elastic Compliance Matrix: (Units=1/GPa)
#
#
# Indices 1 2 3 4 5 6 
#
# 1 0.016417 -0.007874 0.005239 0.000000 -0.022529 0.000000
# 2 -0.007874 0.021361 -0.010868 0.000000 0.022096 0.000000
# 3 0.005239 -0.010868 0.027777 0.000000 -0.030092 0.000000
# 4 0.000000 0.000000 0.000000 0.045442 0.000000 0.000807
# 5 -0.022529 0.022096 -0.030092 0.000000 0.099852 0.000000
# 6 0.000000 0.000000 0.000000 0.000807 0.000000 0.037762
#
#
# Mechanical properties :
#
#
# Convention : Reuss Voigt Hill
#
# Bulk Modulus (GPa) = 25.94038 35.57659 30.75849
# Shear Modulus (GPa) = 17.33316 25.39504 21.36410
#
# Velocity S-wave (km/s) = 2.82201 3.41581 3.13301
# Velocity P-wave (km/s) = 4.74727 5.64824 5.21724
#
# Compressibility (1/GPa) = 0.03854994
#
# Stress axis : x y z
#
# Youngs Moduli (GPa) = 60.91236 46.81454 36.00143
#
# Poissons Ratio (x) = 0.36861 -0.18862
# Poissons Ratio (y) = 0.47962 0.39125
# Poissons Ratio (z) = -0.31913 0.50876
#
# Static dielectric constant tensor:
#      x y z
#    x 5.311620 0.000000 -1.294050 
#    y 0.000000 3.772010 0.000000 
#    z -1.294050 0.000000 6.608060 
# 
# 
# High freq. dielectric constant tensor:
#      x y z
#    x 1.877290 0.000000 0.010940 
#    y 0.000000 1.840320 0.000000 
#    z 0.010940 0.000000 1.845400 
# 
# From -- ./inp_files/92592.got.cif
#   From: 2010.06.25/outbox.cif.g09.slc.cpg/sg15_47_cif.got.tgz:92592.got - 2010.06.28 07:06:18.
