data_PCOD8135489
_publ_section_title
;
Structure prediction by ZEFSAII (Michael W. Deem and Ramdas Pophale) SiO2 
 PCOD8135489
Probable space group: C 2/C
;
_chemical_formula_sum "Si O2"
_cell_formula_units_Z 56
_cell_length_a 13.117882
_cell_length_b 15.538243
_cell_length_c 17.558671
_cell_angle_alpha 90.000000
_cell_angle_beta 126.666864
_cell_angle_gamma 90.000000
_cell_volume 2870.762276
_symmetry_space_group_name_H-M "C 2/C"
_symmetry_group_IT_number 15
_symmetry_cell_setting 'monoclinic'
loop_
_space_group_symop_operation_xyz
x,y,z
-x,y,1/2-z
-x,-y,-z
x,-y,1/2+z
1/2+x,1/2+y,z
1/2-x,1/2+y,1/2-z
1/2-x,1/2-y,-z
1/2+x,1/2-y,1/2+z
loop_
_atom_site_type_symbol
_atom_site_label
_atom_site_fract_x
_atom_site_fract_y
_atom_site_fract_z
Si Si1 0.846779 0.435237 0.813890
Si Si2 0.500000 0.993328 0.250000
Si Si3 0.830024 0.578513 0.549861
Si Si4 0.283475 0.928959 0.409793
Si Si5 0.025146 0.678977 0.012435
Si Si6 0.405616 0.482656 0.857472
Si Si7 0.405778 0.626142 0.968438
Si Si8 0.500000 0.552825 0.750000
O O1 0.947297 0.445923 0.792188
O O2 0.841926 0.519698 0.864716
O O3 0.885616 0.353079 0.879669
O O4 0.710845 0.420995 0.715885
O O5 0.606793 0.936529 0.339279
O O6 0.794523 0.489929 0.489594
O O7 0.922015 0.640126 0.542758
O O8 0.701328 0.629215 0.513816
O O9 0.377142 0.847009 0.460702
O O10 0.136713 0.897845 0.325646
O O11 0.038916 0.780500 0.023011
O O12 0.361476 0.576363 0.871251
O O13 0.489132 0.493724 0.819127
O O14 0.475904 0.429263 0.952148
#
# Coordination Sequence:
#
# PCOD8135489 Si02
#       8
#     8   4   8   8   8   8   8   4
#     4  10  20  37  63  88 123 161 207 250 310 375
#     4  12  18  34  66  94 114 162 210 248 302 388
#     4  11  20  38  63  91 126 161 200 256 315 379
#     4  10  19  38  64  88 123 166 205 243 318 376
#     4  11  22  40  60  96 128 158 197 271 318 361
#     4  10  22  41  62  84 118 172 207 248 305 389
#     4  11  23  40  63  88 126 161 209 255 317 369
#     4  10  20  38  68  84 110 168 220 242 294 384
#
# _framework density 19.507014999999999
#
# number of rings (size 3 to 8) (size 9 to 14) (size 15 to 20)
#    0.000    1.429    5.714    1.286    0.000    0.000 
#    7.714    1.429    0.000    0.000    0.000    0.000 
#    0.000    0.000    0.000    0.000    0.000    0.000 
#
# Total GULP energy -346953.899279 kJ/mol
# GULP energy per Si atom -12391.210689 kJ/mol
# Density = 1.946262 g / cm^3
# Si number density = 19.507015 Si / 1000 Ang^3
#
#
#
# Elastic Constant Matrix: (Units=GPa)
#
#
# Indices 1 2 3 4 5 6 
#
# 1 107.1409 48.2543 35.2736 0.0000 12.1322 0.0000
# 2 48.2543 110.2540 44.7238 0.0000 11.7353 0.0000
# 3 35.2736 44.7238 113.5198 0.0000 14.2143 0.0000
# 4 0.0000 0.0000 0.0000 2.7313 0.0000 0.1935
# 5 12.1322 11.7353 14.2143 0.0000 36.1060 0.0000
# 6 0.0000 0.0000 0.0000 0.1935 0.0000 23.6694
#
#
#
# Elastic Compliance Matrix: (Units=1/GPa)
#
#
# Indices 1 2 3 4 5 6 
#
# 1 0.012112 -0.004363 -0.001801 0.000000 -0.001942 0.000000
# 2 -0.004363 0.012497 -0.003411 0.000000 -0.001253 0.000000
# 3 -0.001801 -0.003411 0.011042 0.000000 -0.002633 0.000000
# 4 0.000000 0.000000 0.000000 0.366334 0.000000 -0.002995
# 5 -0.001942 -0.001253 -0.002633 0.000000 0.029793 0.000000
# 6 0.000000 0.000000 0.000000 -0.002995 0.000000 0.042273
#
#
# Mechanical properties :
#
#
# Convention : Reuss Voigt Hill
#
# Bulk Modulus (GPa) = 60.60626 65.26869 62.93748
# Shear Modulus (GPa) = 10.02606 26.01221 18.01913
#
# Velocity S-wave (km/s) = 2.26955 3.65565 3.04258
# Velocity P-wave (km/s) = 6.16476 7.16590 6.68410
#
# Compressibility (1/GPa) = 0.01649995
#
# Stress axis : x y z
#
# Youngs Moduli (GPa) = 82.56506 80.02216 90.56249
#
# Poissons Ratio (x) = 0.34918 0.16311
# Poissons Ratio (y) = 0.36027 0.30887
# Poissons Ratio (z) = 0.14871 0.27292
#
# Static dielectric constant tensor:
#      x y z
#    x 3.759230 0.000000 0.123100 
#    y 0.000000 3.108470 0.000000 
#    z 0.123100 0.000000 3.989910 
# 
# 
# High freq. dielectric constant tensor:
#      x y z
#    x 1.776120 0.000000 0.001940 
#    y 0.000000 1.706810 0.000000 
#    z 0.001940 0.000000 1.780240 
# 
# From -- ./inp_files/205517.got.cif
#   From: 2010.06.25/outbox.cif.g09.slc.cpg/sg15_103_cif.got.tgz:205517.got - 2010.06.28 07:06:18.
