data_PCOD8135030
_publ_section_title
;
Structure prediction by ZEFSAII (Michael W. Deem and Ramdas Pophale) SiO2 
 PCOD8135030
Probable space group: C 2/C
;
_chemical_formula_sum "Si O2"
_cell_formula_units_Z 48
_cell_length_a 18.759282
_cell_length_b 14.200491
_cell_length_c 15.346010
_cell_angle_alpha 90.000000
_cell_angle_beta 147.115345
_cell_angle_gamma 90.000000
_cell_volume 2219.599087
_symmetry_space_group_name_H-M "C 2/C"
_symmetry_group_IT_number 15
_symmetry_cell_setting 'monoclinic'
loop_
_space_group_symop_operation_xyz
x,y,z
-x,y,1/2-z
-x,-y,-z
x,-y,1/2+z
1/2+x,1/2+y,z
1/2-x,1/2+y,1/2-z
1/2-x,1/2-y,-z
1/2+x,1/2-y,1/2+z
loop_
_atom_site_type_symbol
_atom_site_label
_atom_site_fract_x
_atom_site_fract_y
_atom_site_fract_z
Si Si1 0.758313 0.930403 0.306925
Si Si2 0.581610 0.234642 0.581246
Si Si3 0.402888 0.742016 0.729062
Si Si4 0.781470 0.875037 0.882275
Si Si5 0.485056 0.353341 0.638342
Si Si6 0.926189 0.948350 0.309956
O O1 0.635988 0.870785 0.147851
O O2 0.833249 0.882182 0.465154
O O3 0.876652 0.945886 0.358558
O O4 0.697313 0.032623 0.269716
O O5 0.473672 0.234934 0.394225
O O6 0.705155 0.301692 0.684068
O O7 0.522733 0.270387 0.611403
O O8 0.500000 0.763954 0.750000
O O9 0.280576 0.815784 0.600011
O O10 0.349088 0.632970 0.675654
O O11 0.925627 0.912292 0.052714
O O12 0.500000 0.310857 0.750000
O O13 0.582568 0.445096 0.733784
#
# Coordination Sequence:
#
# PCOD8135030 Si02
#       6
#     8   8   8   8   8   8
#     4  11  20  39  61  86 117 154 197 238 289 347
#     4  11  21  38  62  83 119 160 189 242 292 342
#     4  11  23  38  58  90 121 151 195 236 297 354
#     4  10  19  37  60  82 118 154 190 239 284 347
#     4  11  21  38  60  88 117 150 202 243 282 341
#     4  10  19  37  63  87 114 150 194 247 285 337
#
# _framework density 21.625527000000002
#
# number of rings (size 3 to 8) (size 9 to 14) (size 15 to 20)
#    0.000    1.333    6.667    1.500    0.000    4.000 
#    6.000    0.833    0.000    0.000    0.000    0.000 
#    0.000    0.000    0.000    0.000    0.000    0.000 
#
# Total GULP energy -297393.802169 kJ/mol
# GULP energy per Si atom -12391.408424 kJ/mol
# Density = 2.157631 g / cm^3
# Si number density = 21.625527 Si / 1000 Ang^3
#
#
#
# Elastic Constant Matrix: (Units=GPa)
#
#
# Indices 1 2 3 4 5 6 
#
# 1 94.8632 2.7877 -0.3109 0.0000 -16.2419 0.0000
# 2 2.7877 84.8895 -16.0653 0.0000 11.7625 0.0000
# 3 -0.3109 -16.0653 20.9345 0.0000 -9.0438 0.0000
# 4 0.0000 0.0000 0.0000 19.8840 0.0000 4.5309
# 5 -16.2419 11.7625 -9.0438 0.0000 27.4230 0.0000
# 6 0.0000 0.0000 0.0000 4.5309 0.0000 37.5352
#
#
#
# Elastic Compliance Matrix: (Units=1/GPa)
#
#
# Indices 1 2 3 4 5 6 
#
# 1 0.012053 -0.000995 0.003130 0.000000 0.008598 0.000000
# 2 -0.000995 0.014054 0.009226 0.000000 -0.003575 0.000000
# 3 0.003130 0.009226 0.062955 0.000000 0.018658 0.000000
# 4 0.000000 0.000000 0.000000 0.051714 0.000000 -0.006242
# 5 0.008598 -0.003575 0.018658 0.000000 0.049244 0.000000
# 6 0.000000 0.000000 0.000000 -0.006242 0.000000 0.027395
#
#
# Mechanical properties :
#
#
# Convention : Reuss Voigt Hill
#
# Bulk Modulus (GPa) = 8.94577 19.27890 14.11233
# Shear Modulus (GPa) = 21.55588 31.25349 26.40468
#
# Velocity S-wave (km/s) = 3.16061 3.80572 3.49807
# Velocity P-wave (km/s) = 4.17910 5.31466 4.78071
#
# Compressibility (1/GPa) = 0.11178470
#
# Stress axis : x y z
#
# Youngs Moduli (GPa) = 82.96694 71.15386 15.88427
#
# Poissons Ratio (x) = 0.07078 -0.04971
# Poissons Ratio (y) = 0.08253 -0.14655
# Poissons Ratio (z) = -0.25967 -0.65648
#
# Static dielectric constant tensor:
#      x y z
#    x 3.805860 0.000000 -0.074590 
#    y 0.000000 4.722080 0.000000 
#    z -0.074590 0.000000 3.692690 
# 
# 
# High freq. dielectric constant tensor:
#      x y z
#    x 1.837960 0.000000 -0.010780 
#    y 0.000000 1.858690 0.000000 
#    z -0.010780 0.000000 1.817030 
# 
# From -- ./inp_files/162355.got.cif
#   From: 2010.06.25/outbox.cif.g09.slc.cpg/sg15_82_cif.got.tgz:162355.got - 2010.06.28 07:06:18.
