data_PCOD8135384
_publ_section_title
;
Structure prediction by ZEFSAII (Michael W. Deem and Ramdas Pophale) SiO2 
 PCOD8135384
Probable space group: C 2/C
;
_chemical_formula_sum "Si O2"
_cell_formula_units_Z 56
_cell_length_a 8.991607
_cell_length_b 23.053317
_cell_length_c 17.534997
_cell_angle_alpha 90.000000
_cell_angle_beta 46.271295
_cell_angle_gamma 90.000000
_cell_volume 2626.557837
_symmetry_space_group_name_H-M "C 2/C"
_symmetry_group_IT_number 15
_symmetry_cell_setting 'monoclinic'
loop_
_space_group_symop_operation_xyz
x,y,z
-x,y,1/2-z
-x,-y,-z
x,-y,1/2+z
1/2+x,1/2+y,z
1/2-x,1/2+y,1/2-z
1/2-x,1/2-y,-z
1/2+x,1/2-y,1/2+z
loop_
_atom_site_type_symbol
_atom_site_label
_atom_site_fract_x
_atom_site_fract_y
_atom_site_fract_z
Si Si1 0.968750 0.487520 0.652063
Si Si2 0.729547 0.594030 0.148783
Si Si3 0.340214 0.790257 0.688540
Si Si4 0.711012 0.282048 0.434022
Si Si5 0.231354 0.405885 0.037822
Si Si6 0.258765 0.301285 0.613592
Si Si7 0.304112 0.566130 0.118287
O O1 0.871577 0.463296 0.608323
O O2 0.797994 0.473361 0.778047
O O3 0.027657 0.555680 0.626009
O O4 0.190396 0.456359 0.582972
O O5 0.500000 0.574936 0.250000
O O6 0.796043 0.642844 0.185058
O O7 0.755484 0.616008 0.053829
O O8 0.220745 0.753493 0.665191
O O9 0.586417 0.783897 0.612868
O O10 0.248810 0.768309 0.801771
O O11 0.750000 0.250000 0.500000
O O12 0.800341 0.347281 0.401990
O O13 0.470592 0.286060 0.499831
O O14 0.447471 0.439747 0.978352
O O15 0.240453 0.367302 0.649012
#
# Coordination Sequence:
#
# PCOD8135384 Si02
#       7
#     8   8   8   8   8   8   8
#     4  11  20  36  61  88 115 158 200 260 310 365
#     4  12  20  36  62  92 120 156 208 264 309 364
#     4  11  20  37  64  89 119 163 208 261 305 367
#     4  11  23  37  59  93 126 159 203 256 310 377
#     4  11  23  37  57  91 125 161 205 252 318 382
#     4  10  20  39  63  90 116 158 213 257 308 364
#     4  10  19  38  61  86 119 152 209 256 310 374
#
# _framework density 21.320679999999999
#
# number of rings (size 3 to 8) (size 9 to 14) (size 15 to 20)
#    0.000    1.143    5.714    3.000    0.000    0.000 
#    0.000    2.857    0.000    0.000    3.714    0.000 
#    0.000    0.000    0.000    0.000    0.000    0.000 
#
# Total GULP energy -346870.303548 kJ/mol
# GULP energy per Si atom -12388.225127 kJ/mol
# Density = 2.127215 g / cm^3
# Si number density = 21.320680 Si / 1000 Ang^3
#
#
#
# Elastic Constant Matrix: (Units=GPa)
#
#
# Indices 1 2 3 4 5 6 
#
# 1 116.5973 43.8187 14.4310 0.0000 10.2681 0.0000
# 2 43.8187 104.1248 30.7333 0.0000 -5.3115 0.0000
# 3 14.4310 30.7333 38.3439 0.0000 -3.6647 0.0000
# 4 0.0000 0.0000 0.0000 7.1253 0.0000 -2.1205
# 5 10.2681 -5.3115 -3.6647 0.0000 22.1783 0.0000
# 6 0.0000 0.0000 0.0000 -2.1205 0.0000 35.4320
#
#
#
# Elastic Compliance Matrix: (Units=1/GPa)
#
#
# Indices 1 2 3 4 5 6 
#
# 1 0.011017 -0.004661 -0.001021 0.000000 -0.006385 0.000000
# 2 -0.004661 0.014593 -0.009553 0.000000 0.004074 0.000000
# 3 -0.001021 -0.009553 0.034492 0.000000 0.003884 0.000000
# 4 0.000000 0.000000 0.000000 0.142890 0.000000 0.008551
# 5 -0.006385 0.004074 0.003884 0.000000 0.049663 0.000000
# 6 0.000000 0.000000 0.000000 0.008551 0.000000 0.028735
#
#
# Mechanical properties :
#
#
# Convention : Reuss Voigt Hill
#
# Bulk Modulus (GPa) = 33.74664 48.55913 41.15288
# Shear Modulus (GPa) = 15.54074 24.28598 19.91336
#
# Velocity S-wave (km/s) = 2.70275 3.37869 3.05944
# Velocity P-wave (km/s) = 5.05987 6.16812 5.64128
#
# Compressibility (1/GPa) = 0.02963258
#
# Stress axis : x y z
#
# Youngs Moduli (GPa) = 90.77131 68.52821 28.99229
#
# Poissons Ratio (x) = 0.31938 0.02960
# Poissons Ratio (y) = 0.42304 0.27696
# Poissons Ratio (z) = 0.09268 0.65463
#
# Static dielectric constant tensor:
#      x y z
#    x 4.233050 0.000000 -0.103780 
#    y 0.000000 3.681140 0.000000 
#    z -0.103780 0.000000 3.582200 
# 
# 
# High freq. dielectric constant tensor:
#      x y z
#    x 1.857880 0.000000 -0.004140 
#    y 0.000000 1.816760 0.000000 
#    z -0.004140 0.000000 1.812800 
# 
# From -- ./inp_files/233777.got.cif
#   From: 2010.06.25/outbox.cif.g09.slc.cpg/sg15_117_cif.got.tgz:233777.got - 2010.06.28 07:06:18.
