data_PCOD8135929
_publ_section_title
;
Structure prediction by ZEFSAII (Michael W. Deem and Ramdas Pophale) SiO2 
 PCOD8135929
Probable space group: C 2/C
;
_chemical_formula_sum "Si O2"
_cell_formula_units_Z 56
_cell_length_a 19.916442
_cell_length_b 12.234258
_cell_length_c 13.502813
_cell_angle_alpha 90.000000
_cell_angle_beta 122.309071
_cell_angle_gamma 90.000000
_cell_volume 2780.746692
_symmetry_space_group_name_H-M "C 2/C"
_symmetry_group_IT_number 15
_symmetry_cell_setting 'monoclinic'
loop_
_space_group_symop_operation_xyz
x,y,z
-x,y,1/2-z
-x,-y,-z
x,-y,1/2+z
1/2+x,1/2+y,z
1/2-x,1/2+y,1/2-z
1/2-x,1/2-y,-z
1/2+x,1/2-y,1/2+z
loop_
_atom_site_type_symbol
_atom_site_label
_atom_site_fract_x
_atom_site_fract_y
_atom_site_fract_z
Si Si1 0.759547 0.574405 0.934676
Si Si2 0.659059 0.961850 0.336411
Si Si3 0.124356 0.244727 0.214702
Si Si4 0.500000 0.067694 0.250000
Si Si5 0.500000 0.385223 0.750000
Si Si6 0.717800 0.456283 0.707337
Si Si7 0.909109 0.289122 0.524416
Si Si8 0.110632 0.948219 0.448772
O O1 0.735922 0.544857 0.804758
O O2 0.677513 0.593063 0.925643
O O3 0.806607 0.474647 0.025217
O O4 0.817519 0.680377 0.981275
O O5 0.670656 0.836136 0.314455
O O6 0.566797 0.989494 0.259019
O O7 0.703624 0.049132 0.299501
O O8 0.057223 0.187785 0.228099
O O9 0.192757 0.160277 0.233367
O O10 0.082634 0.304198 0.087875
O O11 0.529495 0.138370 0.366216
O O12 0.447663 0.461020 0.638287
O O13 0.646827 0.497390 0.579158
O O14 0.934488 0.164455 0.565184
#
# Coordination Sequence:
#
# PCOD8135929 Si02
#       8
#     8   8   8   4   4   8   8   8
#     4  10  19  41  64  88 122 157 204 261 295 358
#     4  10  22  41  64  91 124 158 207 253 305 363
#     4  11  23  41  62  91 123 165 203 250 312 361
#     4  10  22  42  60  96 124 160 204 252 308 362
#     4  12  24  42  58  92 132 160 200 254 310 368
#     4  10  21  41  63  91 118 159 208 252 299 362
#     4  10  21  39  66  89 120 162 208 250 305 362
#     4  10  22  39  62  91 122 161 205 254 307 358
#
# _framework density 20.138477000000002
#
# number of rings (size 3 to 8) (size 9 to 14) (size 15 to 20)
#    0.000    1.714    2.857    1.286    0.000    4.571 
#    5.143    0.000    0.000    0.000    0.000    0.000 
#    0.000    0.000    0.000    0.000    0.000    0.000 
#
# Total GULP energy -347048.156107 kJ/mol
# GULP energy per Si atom -12394.577004 kJ/mol
# Density = 2.009264 g / cm^3
# Si number density = 20.138477 Si / 1000 Ang^3
#
#
#
# Elastic Constant Matrix: (Units=GPa)
#
#
# Indices 1 2 3 4 5 6 
#
# 1 99.7129 43.4474 28.3120 0.0000 0.7669 0.0000
# 2 43.4474 88.3933 45.2451 0.0000 1.0096 0.0000
# 3 28.3120 45.2451 111.3688 0.0000 -4.7001 0.0000
# 4 0.0000 0.0000 0.0000 30.7810 0.0000 -7.7026
# 5 0.7669 1.0096 -4.7001 0.0000 27.3679 0.0000
# 6 0.0000 0.0000 0.0000 -7.7026 0.0000 23.7713
#
#
#
# Elastic Compliance Matrix: (Units=1/GPa)
#
#
# Indices 1 2 3 4 5 6 
#
# 1 0.012833 -0.005843 -0.000901 0.000000 -0.000299 0.000000
# 2 -0.005843 0.017008 -0.005484 0.000000 -0.001405 0.000000
# 3 -0.000901 -0.005484 0.011529 0.000000 0.002208 0.000000
# 4 0.000000 0.000000 0.000000 0.035354 0.000000 0.011456
# 5 -0.000299 -0.001405 0.002208 0.000000 0.036978 0.000000
# 6 0.000000 0.000000 0.000000 0.011456 0.000000 0.045780
#
#
# Mechanical properties :
#
#
# Convention : Reuss Voigt Hill
#
# Bulk Modulus (GPa) = 59.12087 59.27600 59.19844
# Shear Modulus (GPa) = 26.37461 28.54873 27.46167
#
# Velocity S-wave (km/s) = 3.62285 3.76922 3.69676
# Velocity P-wave (km/s) = 6.84989 6.95994 6.90513
#
# Compressibility (1/GPa) = 0.01691450
#
# Stress axis : x y z
#
# Youngs Moduli (GPa) = 77.92468 58.79604 86.73595
#
# Poissons Ratio (x) = 0.34354 0.07816
# Poissons Ratio (y) = 0.45531 0.47563
# Poissons Ratio (z) = 0.07022 0.32242
#
# Static dielectric constant tensor:
#      x y z
#    x 3.693470 0.000000 -0.154410 
#    y 0.000000 3.497080 0.000000 
#    z -0.154410 0.000000 3.923560 
# 
# 
# High freq. dielectric constant tensor:
#      x y z
#    x 1.783920 0.000000 -0.011180 
#    y 0.000000 1.775210 0.000000 
#    z -0.011180 0.000000 1.798860 
# 
# From -- ./inp_files/105821.got.cif
#   From: 2010.06.25/outbox.cif.g09.slc.cpg/sg15_53_cif.got.tgz:105821.got - 2010.06.28 07:06:18.
