data_PCOD8135704
_publ_section_title
;
Structure prediction by ZEFSAII (Michael W. Deem and Ramdas Pophale) SiO2 
 PCOD8135704
Probable space group: C 2/C
;
_chemical_formula_sum "Si O2"
_cell_formula_units_Z 40
_cell_length_a 9.133236
_cell_length_b 11.998658
_cell_length_c 20.260127
_cell_angle_alpha 90.000000
_cell_angle_beta 66.486733
_cell_angle_gamma 90.000000
_cell_volume 2035.886510
_symmetry_space_group_name_H-M "C 2/C"
_symmetry_group_IT_number 15
_symmetry_cell_setting 'monoclinic'
loop_
_space_group_symop_operation_xyz
x,y,z
-x,y,1/2-z
-x,-y,-z
x,-y,1/2+z
1/2+x,1/2+y,z
1/2-x,1/2+y,1/2-z
1/2-x,1/2-y,-z
1/2+x,1/2-y,1/2+z
loop_
_atom_site_type_symbol
_atom_site_label
_atom_site_fract_x
_atom_site_fract_y
_atom_site_fract_z
Si Si1 0.474091 0.297309 0.077396
Si Si2 0.560434 0.727375 0.412638
Si Si3 0.911366 0.645615 0.333458
Si Si4 0.887876 0.984582 0.956462
Si Si5 0.347087 0.913074 0.402319
O O1 0.539152 0.257123 0.994886
O O2 0.482682 0.194556 0.125906
O O3 0.589433 0.397884 0.085657
O O4 0.291543 0.338047 0.105310
O O5 0.742198 0.706810 0.361468
O O6 0.452632 0.623072 0.405386
O O7 0.502967 0.838101 0.385601
O O8 0.892410 0.513283 0.345667
O O9 0.000000 0.671185 0.250000
O O10 0.709717 0.962666 0.016053
O O11 0.000000 0.000000 0.000000
#
# Coordination Sequence:
#
# PCOD8135704 Si02
#       5
#     8   8   8   8   8
#     4  10  19  39  66  84 122 148 191 254 295 334
#     4  10  19  39  64  90 115 148 199 248 292 344
#     4  12  25  39  55  84 123 164 195 233 294 353
#     4   8  14  33  63  85 112 142 176 244 303 327
#     4  10  20  39  64  88 115 148 190 252 300 341
#
# _framework density 19.647459000000001
#
# number of rings (size 3 to 8) (size 9 to 14) (size 15 to 20)
#    0.000    2.400    6.000    3.000    0.000    2.400 
#    3.600    0.000    0.000    0.000    0.000    0.000 
#    0.000    0.000    0.000    0.000    0.000    0.000 
#
# Total GULP energy -247877.025029 kJ/mol
# GULP energy per Si atom -12393.851251 kJ/mol
# Density = 1.960274 g / cm^3
# Si number density = 19.647459 Si / 1000 Ang^3
#
#
#
# Elastic Constant Matrix: (Units=GPa)
#
#
# Indices 1 2 3 4 5 6 
#
# 1 74.4100 59.9364 47.1104 0.0000 -11.9212 0.0000
# 2 59.9364 98.4066 43.7895 0.0000 -12.9860 0.0000
# 3 47.1104 43.7895 107.8048 0.0000 -10.0968 0.0000
# 4 0.0000 0.0000 0.0000 8.4510 0.0000 -1.2831
# 5 -11.9212 -12.9860 -10.0968 0.0000 6.6250 0.0000
# 6 0.0000 0.0000 0.0000 -1.2831 0.0000 34.1621
#
#
#
# Elastic Compliance Matrix: (Units=1/GPa)
#
#
# Indices 1 2 3 4 5 6 
#
# 1 0.032007 -0.013937 -0.006404 0.000000 0.020513 0.000000
# 2 -0.013937 0.021057 -0.001103 0.000000 0.014514 0.000000
# 3 -0.006404 -0.001103 0.013113 0.000000 0.006298 0.000000
# 4 0.000000 0.000000 0.000000 0.119008 0.000000 0.004470
# 5 0.020513 0.014514 0.006298 0.000000 0.225903 0.000000
# 6 0.000000 0.000000 0.000000 0.004470 0.000000 0.029440
#
#
# Mechanical properties :
#
#
# Convention : Reuss Voigt Hill
#
# Bulk Modulus (GPa) = 42.94343 64.69933 53.82138
# Shear Modulus (GPa) = 10.17957 18.49995 14.33976
#
# Velocity S-wave (km/s) = 2.27867 3.07187 2.70451
# Velocity P-wave (km/s) = 5.36913 6.75155 6.09963
#
# Compressibility (1/GPa) = 0.02328645
#
# Stress axis : x y z
#
# Youngs Moduli (GPa) = 31.24352 47.48999 76.26239
#
# Poissons Ratio (x) = 0.66189 0.48841
# Poissons Ratio (y) = 0.43545 0.08413
# Poissons Ratio (z) = 0.20009 0.05239
#
# Static dielectric constant tensor:
#      x y z
#    x 3.294080 0.000000 -0.237920 
#    y 0.000000 4.326630 0.000000 
#    z -0.237920 0.000000 3.250540 
# 
# 
# High freq. dielectric constant tensor:
#      x y z
#    x 1.741510 0.000000 -0.028550 
#    y 0.000000 1.786210 0.000000 
#    z -0.028550 0.000000 1.718560 
# 
# From -- ./inp_files/229898.got.cif
#   From: 2010.06.25/outbox.cif.g09.slc.cpg/sg15_115_cif.got.tgz:229898.got - 2010.06.28 07:06:18.
