data_PCOD8135702
_publ_section_title
;
Structure prediction by ZEFSAII (Michael W. Deem and Ramdas Pophale) SiO2 
 PCOD8135702
Probable space group: C 2/C
;
_chemical_formula_sum "Si O2"
_cell_formula_units_Z 56
_cell_length_a 13.531279
_cell_length_b 10.869457
_cell_length_c 17.917172
_cell_angle_alpha 90.000000
_cell_angle_beta 89.174116
_cell_angle_gamma 90.000000
_cell_volume 2634.941885
_symmetry_space_group_name_H-M "C 2/C"
_symmetry_group_IT_number 15
_symmetry_cell_setting 'monoclinic'
loop_
_space_group_symop_operation_xyz
x,y,z
-x,y,1/2-z
-x,-y,-z
x,-y,1/2+z
1/2+x,1/2+y,z
1/2-x,1/2+y,1/2-z
1/2-x,1/2-y,-z
1/2+x,1/2-y,1/2+z
loop_
_atom_site_type_symbol
_atom_site_label
_atom_site_fract_x
_atom_site_fract_y
_atom_site_fract_z
Si Si1 0.336118 0.593780 0.686083
Si Si2 0.296680 0.049062 0.547986
Si Si3 0.994422 0.662614 0.937321
Si Si4 0.663045 0.023666 0.114309
Si Si5 0.571619 0.335991 0.816699
Si Si6 0.835413 0.285945 0.556379
Si Si7 0.786233 0.775539 0.333574
O O1 0.225349 0.543952 0.677699
O O2 0.414793 0.482997 0.677130
O O3 0.356464 0.695354 0.623554
O O4 0.343516 0.652875 0.767945
O O5 0.403746 0.107629 0.536438
O O6 0.266699 0.027197 0.461340
O O7 0.222566 0.136046 0.593899
O O8 0.304138 0.918642 0.590803
O O9 0.936857 0.553882 0.894133
O O10 0.013421 0.784278 0.888641
O O11 0.937123 0.705081 0.010830
O O12 0.643630 0.162558 0.142569
O O13 0.500000 0.301823 0.750000
O O14 0.677916 0.268819 0.807249
O O15 0.750000 0.250000 0.500000
#
# Coordination Sequence:
#
# PCOD8135702 Si02
#       7
#     8   8   8   8   8   8   8
#     4  11  23  39  59  95 121 162 204 252 302 372
#     4  10  21  39  64  93 118 159 201 262 309 354
#     4  10  21  41  65  88 119 161 203 257 308 364
#     4  10  19  39  64  89 122 156 214 244 303 376
#     4  10  23  42  60  85 127 162 202 251 315 367
#     4  11  21  37  65  89 120 161 208 248 305 370
#     4  10  23  38  66  89 124 161 206 257 305 367
#
# _framework density 21.252839999999999
#
# number of rings (size 3 to 8) (size 9 to 14) (size 15 to 20)
#    0.000    1.714    2.857    3.000    4.000    0.571 
#    5.143    0.000    3.143    0.000    0.000    0.000 
#    0.000    0.000    0.000    0.000    0.000    0.000 
#
# Total GULP energy -347141.136670 kJ/mol
# GULP energy per Si atom -12397.897738 kJ/mol
# Density = 2.120447 g / cm^3
# Si number density = 21.252840 Si / 1000 Ang^3
#
#
#
# Elastic Constant Matrix: (Units=GPa)
#
#
# Indices 1 2 3 4 5 6 
#
# 1 40.6051 22.5266 16.2120 0.0000 -14.1276 0.0000
# 2 22.5266 156.2515 54.9565 0.0000 -27.9723 0.0000
# 3 16.2120 54.9565 78.0729 0.0000 -10.1022 0.0000
# 4 0.0000 0.0000 0.0000 47.6849 0.0000 2.8122
# 5 -14.1276 -27.9723 -10.1022 0.0000 20.0925 0.0000
# 6 0.0000 0.0000 0.0000 2.8122 0.0000 26.3592
#
#
#
# Elastic Compliance Matrix: (Units=1/GPa)
#
#
# Indices 1 2 3 4 5 6 
#
# 1 0.033920 0.000806 -0.004685 0.000000 0.022617 0.000000
# 2 0.000806 0.010612 -0.006046 0.000000 0.012302 0.000000
# 3 -0.004685 -0.006046 0.017671 0.000000 -0.002826 0.000000
# 4 0.000000 0.000000 0.000000 0.021104 0.000000 -0.002252
# 5 0.022617 0.012302 -0.002826 0.000000 0.081378 0.000000
# 6 0.000000 0.000000 0.000000 -0.002252 0.000000 0.038178
#
#
# Mechanical properties :
#
#
# Convention : Reuss Voigt Hill
#
# Bulk Modulus (GPa) = 23.60987 51.36887 37.48937
# Shear Modulus (GPa) = 21.11229 30.90959 26.01094
#
# Velocity S-wave (km/s) = 3.15522 3.81776 3.50220
# Velocity P-wave (km/s) = 4.94035 6.60731 5.83368
#
# Compressibility (1/GPa) = 0.04235517
#
# Stress axis : x y z
#
# Youngs Moduli (GPa) = 29.48156 94.22970 56.58844
#
# Poissons Ratio (x) = -0.07599 0.26510
# Poissons Ratio (y) = -0.02378 0.34213
# Poissons Ratio (z) = 0.13811 0.56970
#
# Static dielectric constant tensor:
#      x y z
#    x 3.595350 0.000000 0.065260 
#    y 0.000000 4.267470 0.000000 
#    z 0.065260 0.000000 3.893710 
# 
# 
# High freq. dielectric constant tensor:
#      x y z
#    x 1.809120 0.000000 0.010340 
#    y 0.000000 1.855560 0.000000 
#    z 0.010340 0.000000 1.828810 
# 
# From -- ./inp_files/152631.got.cif
#   From: 2010.06.25/outbox.cif.g09.slc.cpg/sg15_77_cif.got.tgz:152631.got - 2010.06.28 07:06:18.
