data_PCOD8135132
_publ_section_title
;
Structure prediction by ZEFSAII (Michael W. Deem and Ramdas Pophale) SiO2 
 PCOD8135132
Probable space group: C 2/C
;
_chemical_formula_sum "Si O2"
_cell_formula_units_Z 56
_cell_length_a 7.231853
_cell_length_b 23.428436
_cell_length_c 18.413384
_cell_angle_alpha 90.000000
_cell_angle_beta 61.040651
_cell_angle_gamma 90.000000
_cell_volume 2729.709381
_symmetry_space_group_name_H-M "C 2/C"
_symmetry_group_IT_number 15
_symmetry_cell_setting 'monoclinic'
loop_
_space_group_symop_operation_xyz
x,y,z
-x,y,1/2-z
-x,-y,-z
x,-y,1/2+z
1/2+x,1/2+y,z
1/2-x,1/2+y,1/2-z
1/2-x,1/2-y,-z
1/2+x,1/2-y,1/2+z
loop_
_atom_site_type_symbol
_atom_site_label
_atom_site_fract_x
_atom_site_fract_y
_atom_site_fract_z
Si Si1 0.444659 0.756348 0.081462
Si Si2 0.562572 0.922974 0.969080
Si Si3 0.009212 0.767267 0.333265
Si Si4 0.776844 0.697519 0.097321
Si Si5 0.851627 0.107649 0.671874
Si Si6 0.955951 0.621165 0.644849
Si Si7 0.647212 0.480179 0.038272
O O1 0.212594 0.741269 0.096334
O O2 0.538199 0.704050 0.112218
O O3 0.433825 0.811373 0.136319
O O4 0.582049 0.765503 0.984159
O O5 0.651770 0.867697 0.911601
O O6 0.759171 0.966457 0.934355
O O7 0.474107 0.911951 0.066418
O O8 0.354433 0.946772 0.966735
O O9 0.000000 0.761029 0.250000
O O10 0.197163 0.727907 0.329473
O O11 0.024502 0.832705 0.355671
O O12 0.666559 0.108515 0.648702
O O13 0.249003 0.099429 0.728428
O O14 0.013027 0.057471 0.620678
O O15 0.500000 0.500000 0.000000
#
# Coordination Sequence:
#
# PCOD8135132 Si02
#       7
#     8   8   8   8   8   8   8
#     4  10  20  36  59  91 127 157 202 246 320 385
#     4  10  23  42  64  89 126 167 218 259 318 378
#     4  12  23  36  61  97 125 164 204 261 328 381
#     4  10  22  38  59  90 128 165 202 253 309 395
#     4  11  21  35  63  95 130 155 211 271 325 366
#     4  10  19  37  62  96 122 160 202 268 322 378
#     4  11  23  40  64  93 123 165 216 271 312 375
#
# _framework density 20.515004000000001
#
# number of rings (size 3 to 8) (size 9 to 14) (size 15 to 20)
#    0.000    1.429    4.286    2.143    0.000    1.714 
#    0.000    0.000    0.000   12.000    0.000    0.000 
#    0.000    0.000    0.000    0.000    0.000    0.000 
#
# Total GULP energy -347107.944148 kJ/mol
# GULP energy per Si atom -12396.712291 kJ/mol
# Density = 2.046831 g / cm^3
# Si number density = 20.515004 Si / 1000 Ang^3
#
#
#
# Elastic Constant Matrix: (Units=GPa)
#
#
# Indices 1 2 3 4 5 6 
#
# 1 115.4062 47.9016 26.7468 0.0000 -10.7836 0.0000
# 2 47.9016 115.6114 37.9439 0.0000 9.1074 0.0000
# 3 26.7468 37.9439 61.6736 0.0000 -0.5198 0.0000
# 4 0.0000 0.0000 0.0000 21.4502 0.0000 -8.7164
# 5 -10.7836 9.1074 -0.5198 0.0000 22.9461 0.0000
# 6 0.0000 0.0000 0.0000 -8.7164 0.0000 34.1069
#
#
#
# Elastic Compliance Matrix: (Units=1/GPa)
#
#
# Indices 1 2 3 4 5 6 
#
# 1 0.011840 -0.004793 -0.002123 0.000000 0.007419 0.000000
# 2 -0.004793 0.013254 -0.006140 0.000000 -0.007652 0.000000
# 3 -0.002123 -0.006140 0.020929 0.000000 0.001913 0.000000
# 4 0.000000 0.000000 0.000000 0.052022 0.000000 0.013295
# 5 0.007419 -0.007652 0.001913 0.000000 0.050147 0.000000
# 6 0.000000 0.000000 0.000000 0.013295 0.000000 0.032717
#
#
# Mechanical properties :
#
#
# Convention : Reuss Voigt Hill
#
# Bulk Modulus (GPa) = 50.22707 57.54176 53.88441
# Shear Modulus (GPa) = 23.40190 27.70723 25.55457
#
# Velocity S-wave (km/s) = 3.38112 3.67902 3.53321
# Velocity P-wave (km/s) = 6.30705 6.79385 6.55497
#
# Compressibility (1/GPa) = 0.01990958
#
# Stress axis : x y z
#
# Youngs Moduli (GPa) = 84.46071 75.45155 47.78107
#
# Poissons Ratio (x) = 0.36165 0.10145
# Poissons Ratio (y) = 0.40483 0.29337
# Poissons Ratio (z) = 0.17933 0.46326
#
# Static dielectric constant tensor:
#      x y z
#    x 4.341610 0.000000 -0.216460 
#    y 0.000000 3.630250 0.000000 
#    z -0.216460 0.000000 3.655810 
# 
# 
# High freq. dielectric constant tensor:
#      x y z
#    x 1.832460 0.000000 -0.004060 
#    y 0.000000 1.781600 0.000000 
#    z -0.004060 0.000000 1.780460 
# 
# From -- ./inp_files/228095.got.cif
#   From: 2010.06.25/outbox.cif.g09.slc.cpg/sg15_115_cif.got.tgz:228095.got - 2010.06.28 07:06:18.
