data_PCOD8135853
_publ_section_title
;
Structure prediction by ZEFSAII (Michael W. Deem and Ramdas Pophale) SiO2 
 PCOD8135853
Probable space group: C 2/C
;
_chemical_formula_sum "Si O2"
_cell_formula_units_Z 64
_cell_length_a 14.140743
_cell_length_b 16.690878
_cell_length_c 13.359272
_cell_angle_alpha 90.000000
_cell_angle_beta 93.402097
_cell_angle_gamma 90.000000
_cell_volume 3147.517498
_symmetry_space_group_name_H-M "C 2/C"
_symmetry_group_IT_number 15
_symmetry_cell_setting 'monoclinic'
loop_
_space_group_symop_operation_xyz
x,y,z
-x,y,1/2-z
-x,-y,-z
x,-y,1/2+z
1/2+x,1/2+y,z
1/2-x,1/2+y,1/2-z
1/2-x,1/2-y,-z
1/2+x,1/2-y,1/2+z
loop_
_atom_site_type_symbol
_atom_site_label
_atom_site_fract_x
_atom_site_fract_y
_atom_site_fract_z
Si Si1 0.361305 0.720605 0.341611
Si Si2 0.981596 0.170931 0.995691
Si Si3 0.484835 0.190414 0.359254
Si Si4 0.635842 0.606132 0.343519
Si Si5 0.162451 0.558305 0.202042
Si Si6 0.575561 0.571987 0.834436
Si Si7 0.184284 0.369074 0.911869
Si Si8 0.289593 0.107846 0.860256
O O1 0.448365 0.710180 0.420390
O O2 0.387268 0.672003 0.242862
O O3 0.264587 0.693457 0.387402
O O4 0.343441 0.814532 0.321116
O O5 0.037935 0.100940 0.940337
O O6 0.937103 0.239371 0.920967
O O7 0.891277 0.136537 0.048144
O O8 0.500000 0.226062 0.250000
O O9 0.425443 0.108426 0.347357
O O10 0.585426 0.176501 0.418435
O O11 0.747114 0.590220 0.352148
O O12 0.578317 0.524033 0.323238
O O13 0.174759 0.565805 0.322792
O O14 0.149172 0.464626 0.181891
O O15 0.500000 0.605358 0.750000
O O16 0.679927 0.607685 0.817933
O O17 0.210334 0.406507 0.020047
#
# Coordination Sequence:
#
# PCOD8135853 Si02
#       8
#     8   8   8   8   8   8   8   8
#     4  11  21  39  64  92 123 160 210 259 297 375
#     4  12  21  37  63  91 119 170 204 250 312 374
#     4  10  21  39  62  90 120 158 209 259 302 357
#     4  10  24  41  58  87 134 162 197 256 319 365
#     4   9  23  42  59  91 129 161 199 263 311 361
#     4  11  23  40  62  94 122 157 212 259 304 370
#     4  10  19  40  66  85 119 162 209 253 298 363
#     4  11  21  41  67  92 118 167 210 249 312 370
#
# _framework density 20.333485
#
# number of rings (size 3 to 8) (size 9 to 14) (size 15 to 20)
#    0.000    1.500    2.500    3.000    0.000    3.000 
#    9.000    2.500    0.000    0.000    0.000    0.000 
#    0.000    0.000    0.000    0.000    0.000    0.000 
#
# Total GULP energy -396750.177350 kJ/mol
# GULP energy per Si atom -12398.443042 kJ/mol
# Density = 2.028721 g / cm^3
# Si number density = 20.333485 Si / 1000 Ang^3
#
#
#
# Elastic Constant Matrix: (Units=GPa)
#
#
# Indices 1 2 3 4 5 6 
#
# 1 45.1838 6.2786 5.1665 0.0000 1.2379 0.0000
# 2 6.2786 126.0833 38.9014 0.0000 -13.2433 0.0000
# 3 5.1665 38.9014 57.0590 0.0000 -9.1974 0.0000
# 4 0.0000 0.0000 0.0000 28.8513 0.0000 -6.6353
# 5 1.2379 -13.2433 -9.1974 0.0000 32.4091 0.0000
# 6 0.0000 0.0000 0.0000 -6.6353 0.0000 21.0712
#
#
#
# Elastic Compliance Matrix: (Units=1/GPa)
#
#
# Indices 1 2 3 4 5 6 
#
# 1 0.022486 -0.000740 -0.001801 0.000000 -0.001672 0.000000
# 2 -0.000740 0.010230 -0.006528 0.000000 0.002356 0.000000
# 3 -0.001801 -0.006528 0.022761 0.000000 0.003861 0.000000
# 4 0.000000 0.000000 0.000000 0.037367 0.000000 0.011767
# 5 -0.001672 0.002356 0.003861 0.000000 0.032978 0.000000
# 6 0.000000 0.000000 0.000000 0.011767 0.000000 0.051163
#
#
# Mechanical properties :
#
#
# Convention : Reuss Voigt Hill
#
# Bulk Modulus (GPa) = 26.78067 36.55767 31.66917
# Shear Modulus (GPa) = 24.08839 28.33165 26.21002
#
# Velocity S-wave (km/s) = 3.44563 3.73681 3.59417
# Velocity P-wave (km/s) = 5.38787 6.05280 5.72999
#
# Compressibility (1/GPa) = 0.03734037
#
# Stress axis : x y z
#
# Youngs Moduli (GPa) = 44.47138 97.75618 43.93391
#
# Poissons Ratio (x) = 0.07230 0.07914
# Poissons Ratio (y) = 0.03289 0.28678
# Poissons Ratio (z) = 0.08011 0.63810
#
# Static dielectric constant tensor:
#      x y z
#    x 3.716910 0.000000 -0.060610 
#    y 0.000000 3.722060 0.000000 
#    z -0.060610 0.000000 3.746300 
# 
# 
# High freq. dielectric constant tensor:
#      x y z
#    x 1.794090 0.000000 0.001920 
#    y 0.000000 1.795050 0.000000 
#    z 0.001920 0.000000 1.793380 
# 
# From -- ./inp_files/98780.got.cif
#   From: 2010.06.25/outbox.cif.g09.slc.cpg/sg15_50_cif.got.tgz:98780.got - 2010.06.28 07:06:18.
