data_PCOD8135296
_publ_section_title
;
Structure prediction by ZEFSAII (Michael W. Deem and Ramdas Pophale) SiO2 
 PCOD8135296
Probable space group: C 2/C
;
_chemical_formula_sum "Si O2"
_cell_formula_units_Z 52
_cell_length_a 28.297164
_cell_length_b 6.662140
_cell_length_c 14.634858
_cell_angle_alpha 90.000000
_cell_angle_beta 113.914934
_cell_angle_gamma 90.000000
_cell_volume 2522.097359
_symmetry_space_group_name_H-M "C 2/C"
_symmetry_group_IT_number 15
_symmetry_cell_setting 'monoclinic'
loop_
_space_group_symop_operation_xyz
x,y,z
-x,y,1/2-z
-x,-y,-z
x,-y,1/2+z
1/2+x,1/2+y,z
1/2-x,1/2+y,1/2-z
1/2-x,1/2-y,-z
1/2+x,1/2-y,1/2+z
loop_
_atom_site_type_symbol
_atom_site_label
_atom_site_fract_x
_atom_site_fract_y
_atom_site_fract_z
Si Si1 0.500000 0.791422 0.250000
Si Si2 0.305529 0.520068 0.497365
Si Si3 0.744196 0.095183 0.619066
Si Si4 0.313393 0.242007 0.329754
Si Si5 0.430326 0.210154 0.450410
Si Si6 0.477556 0.875599 0.595632
Si Si7 0.423271 0.506134 0.113071
O O1 0.449445 0.647546 0.210491
O O2 0.495855 0.937292 0.332823
O O3 0.294050 0.744236 0.455650
O O4 0.268046 0.465184 0.553550
O O5 0.298325 0.380549 0.403915
O O6 0.362707 0.505384 0.583934
O O7 0.790310 0.189508 0.715091
O O8 0.709667 0.972237 0.662471
O O9 0.374412 0.223673 0.359712
O O10 0.476305 0.248518 0.415020
O O11 0.435077 0.391250 0.525515
O O12 0.436943 0.983447 0.495458
O O13 0.446838 0.718872 0.635095
#
# Coordination Sequence:
#
# PCOD8135296 Si02
#       7
#     4   8   8   8   8   8   8
#     4  10  22  34  54  86 120 150 196 234 292 356
#     4  10  23  41  61  87 119 159 201 246 301 356
#     4  11  22  39  62  86 119 159 198 249 300 350
#     4  11  21  40  59  89 120 155 204 248 296 361
#     4   9  21  36  59  86 112 152 197 241 299 355
#     4  10  19  38  57  83 118 152 189 248 293 355
#     4  10  20  38  60  83 118 155 193 242 298 358
#
# _framework density 20.617761999999999
#
# number of rings (size 3 to 8) (size 9 to 14) (size 15 to 20)
#    0.000    1.846    1.538    2.308    0.000    2.462 
#    2.769    3.077    0.000    0.000    0.000    0.000 
#    0.000    0.000    0.000    0.000    0.000    0.000 
#
# Total GULP energy -322307.962075 kJ/mol
# GULP energy per Si atom -12396.460080 kJ/mol
# Density = 2.057084 g / cm^3
# Si number density = 20.617762 Si / 1000 Ang^3
#
#
#
# Elastic Constant Matrix: (Units=GPa)
#
#
# Indices 1 2 3 4 5 6 
#
# 1 60.9752 19.0145 16.5795 0.0000 18.7960 0.0000
# 2 19.0145 71.2520 12.9155 0.0000 13.1957 0.0000
# 3 16.5795 12.9155 66.7180 0.0000 17.1708 0.0000
# 4 0.0000 0.0000 0.0000 30.7585 0.0000 0.2740
# 5 18.7960 13.1957 17.1708 0.0000 32.9353 0.0000
# 6 0.0000 0.0000 0.0000 0.2740 0.0000 29.1391
#
#
#
# Elastic Compliance Matrix: (Units=1/GPa)
#
#
# Indices 1 2 3 4 5 6 
#
# 1 0.020975 -0.003459 -0.002100 0.000000 -0.009489 0.000000
# 2 -0.003459 0.015876 -0.001253 0.000000 -0.003734 0.000000
# 3 -0.002100 -0.001253 0.017689 0.000000 -0.007521 0.000000
# 4 0.000000 0.000000 0.000000 0.032514 0.000000 -0.000306
# 5 -0.009489 -0.003734 -0.007521 0.000000 0.041195 0.000000
# 6 0.000000 0.000000 0.000000 -0.000306 0.000000 0.034321
#
#
# Mechanical properties :
#
#
# Convention : Reuss Voigt Hill
#
# Bulk Modulus (GPa) = 24.44103 32.88490 28.66297
# Shear Modulus (GPa) = 26.33879 28.59563 27.46721
#
# Velocity S-wave (km/s) = 3.57806 3.72821 3.65391
# Velocity P-wave (km/s) = 5.38053 5.87513 5.63326
#
# Compressibility (1/GPa) = 0.04091481
#
# Stress axis : x y z
#
# Youngs Moduli (GPa) = 47.67548 62.98656 56.53334
#
# Poissons Ratio (x) = 0.21789 0.11875
# Poissons Ratio (y) = 0.16493 0.07083
# Poissons Ratio (z) = 0.10014 0.07891
#
# Static dielectric constant tensor:
#      x y z
#    x 3.587750 0.000000 0.181880 
#    y 0.000000 3.743310 0.000000 
#    z 0.181880 0.000000 3.818360 
# 
# 
# High freq. dielectric constant tensor:
#      x y z
#    x 1.799250 0.000000 0.012050 
#    y 0.000000 1.809940 0.000000 
#    z 0.012050 0.000000 1.807790 
# 
# From -- ./inp_files/180178.got.cif
#   From: 2010.06.25/outbox.cif.g09.slc.cpg/sg15_91_cif.got.tgz:180178.got - 2010.06.28 07:06:18.
