data_PCOD8135950
_publ_section_title
;
Structure prediction by ZEFSAII (Michael W. Deem and Ramdas Pophale) SiO2 
 PCOD8135950
Probable space group: C 2/C
;
_chemical_formula_sum "Si O2"
_cell_formula_units_Z 56
_cell_length_a 25.169932
_cell_length_b 9.379753
_cell_length_c 18.529778
_cell_angle_alpha 90.000000
_cell_angle_beta 38.623530
_cell_angle_gamma 90.000000
_cell_volume 2730.660888
_symmetry_space_group_name_H-M "C 2/C"
_symmetry_group_IT_number 15
_symmetry_cell_setting 'monoclinic'
loop_
_space_group_symop_operation_xyz
x,y,z
-x,y,1/2-z
-x,-y,-z
x,-y,1/2+z
1/2+x,1/2+y,z
1/2-x,1/2+y,1/2-z
1/2-x,1/2-y,-z
1/2+x,1/2-y,1/2+z
loop_
_atom_site_type_symbol
_atom_site_label
_atom_site_fract_x
_atom_site_fract_y
_atom_site_fract_z
Si Si1 0.647421 0.509007 0.050211
Si Si2 0.107212 0.026400 0.255226
Si Si3 0.987789 0.512562 0.096891
Si Si4 0.957647 0.822318 0.439173
Si Si5 0.024891 0.742671 0.646521
Si Si6 0.308131 0.337740 0.708808
Si Si7 0.294548 0.026955 0.787119
O O1 0.649997 0.485301 0.133352
O O2 0.590900 0.379171 0.079907
O O3 0.606607 0.658110 0.068745
O O4 0.740687 0.513786 0.917662
O O5 0.182850 0.061085 0.230651
O O6 0.052884 0.169014 0.303855
O O7 0.048163 0.901830 0.350840
O O8 0.888248 0.497161 0.218384
O O9 0.024101 0.656830 0.091431
O O10 0.043765 0.387559 0.073324
O O11 0.000000 0.500000 0.000000
O O12 0.899284 0.844533 0.571603
O O13 0.000000 0.677483 0.750000
O O14 0.283530 0.177565 0.757816
O O15 0.233265 0.401744 0.738522
#
# Coordination Sequence:
#
# PCOD8135950 Si02
#       7
#     8   8   8   8   8   8   8
#     4   9  22  41  66  87 121 161 208 247 305 371
#     4  10  19  41  66  89 115 163 207 247 298 372
#     4  12  23  39  60  91 125 156 202 256 305 361
#     4  10  21  38  65  89 121 159 204 250 301 367
#     4   9  19  38  62  90 115 154 204 249 300 359
#     4  11  23  40  62  90 124 159 207 253 305 357
#     4  11  25  40  60  93 125 160 203 255 310 361
#
# _framework density 20.507854999999999
#
# number of rings (size 3 to 8) (size 9 to 14) (size 15 to 20)
#    0.000    1.714    2.857    1.714    4.000    2.857 
#    0.000    0.714    3.143    0.000    0.000    0.000 
#    0.000    0.000    0.000    0.000    0.000    0.000 
#
# Total GULP energy -347225.957900 kJ/mol
# GULP energy per Si atom -12400.927068 kJ/mol
# Density = 2.046118 g / cm^3
# Si number density = 20.507855 Si / 1000 Ang^3
#
#
#
# Elastic Constant Matrix: (Units=GPa)
#
#
# Indices 1 2 3 4 5 6 
#
# 1 53.2817 23.0421 21.5350 -0.0001 6.4432 0.0017
# 2 23.0421 127.2639 35.3722 0.0032 11.3702 -0.0027
# 3 21.5350 35.3722 92.1267 -0.0004 4.8785 0.0006
# 4 -0.0001 0.0032 -0.0004 27.0762 -0.0009 -0.1972
# 5 6.4432 11.3702 4.8785 -0.0009 31.7110 0.0011
# 6 0.0017 -0.0027 0.0006 -0.1972 0.0011 21.9494
#
#
#
# Elastic Compliance Matrix: (Units=1/GPa)
#
#
# Indices 1 2 3 4 5 6 
#
# 1 0.021840 -0.002596 -0.003955 0.000000 -0.002898 -0.000002
# 2 -0.002596 0.009333 -0.002850 -0.000001 -0.002380 0.000002
# 3 -0.003955 -0.002850 0.012882 0.000000 -0.000156 0.000000
# 4 0.000000 -0.000001 0.000000 0.036935 0.000001 0.000332
# 5 -0.002898 -0.002380 -0.000156 0.000001 0.033001 -0.000002
# 6 -0.000002 0.000002 0.000000 0.000332 -0.000002 0.045562
#
#
# Mechanical properties :
#
#
# Convention : Reuss Voigt Hill
#
# Bulk Modulus (GPa) = 39.60164 48.06342 43.83253
# Shear Modulus (GPa) = 26.77049 28.99553 27.88301
#
# Velocity S-wave (km/s) = 3.61692 3.76423 3.69131
# Velocity P-wave (km/s) = 6.06591 6.51000 6.29187
#
# Compressibility (1/GPa) = 0.02525148
#
# Stress axis : x y z
#
# Youngs Moduli (GPa) = 45.78790 107.15079 77.62902
#
# Poissons Ratio (x) = 0.27817 0.30702
# Poissons Ratio (y) = 0.11887 0.22127
# Poissons Ratio (z) = 0.18109 0.30542
#
# Static dielectric constant tensor:
#      x y z
#    x 3.742840 -0.000020 0.046670 
#    y -0.000020 3.787980 0.000000 
#    z 0.046670 0.000000 3.845920 
# 
# 
# High freq. dielectric constant tensor:
#      x y z
#    x 1.791030 0.000000 0.009610 
#    y 0.000000 1.802610 0.000000 
#    z 0.009610 0.000000 1.805940 
# 
# From -- ./inp_files/218496.got.cif
#   From: 2010.06.25/outbox.cif.g09.slc.cpg/sg15_110_cif.got.tgz:218496.got - 2010.06.28 07:06:18.
