data_PCOD8135354
_publ_section_title
;
Structure prediction by ZEFSAII (Michael W. Deem and Ramdas Pophale) SiO2 
 PCOD8135354
Probable space group: C 2/C
;
_chemical_formula_sum "Si O2"
_cell_formula_units_Z 48
_cell_length_a 19.634107
_cell_length_b 13.722974
_cell_length_c 11.112141
_cell_angle_alpha 90.000000
_cell_angle_beta 123.047004
_cell_angle_gamma 90.000000
_cell_volume 2509.671959
_symmetry_space_group_name_H-M "C 2/C"
_symmetry_group_IT_number 15
_symmetry_cell_setting 'monoclinic'
loop_
_space_group_symop_operation_xyz
x,y,z
-x,y,1/2-z
-x,-y,-z
x,-y,1/2+z
1/2+x,1/2+y,z
1/2-x,1/2+y,1/2-z
1/2-x,1/2-y,-z
1/2+x,1/2-y,1/2+z
loop_
_atom_site_type_symbol
_atom_site_label
_atom_site_fract_x
_atom_site_fract_y
_atom_site_fract_z
Si Si1 0.085273 0.615836 0.890412
Si Si2 0.135847 0.404220 0.995071
Si Si3 0.782956 0.378586 0.179588
Si Si4 0.666215 0.222395 0.173743
Si Si5 0.231118 0.083866 0.069580
Si Si6 0.090036 0.207035 0.841568
O O1 0.084337 0.499913 0.913208
O O2 0.161074 0.645997 0.880435
O O3 0.000000 0.646669 0.750000
O O4 0.095395 0.675190 0.024270
O O5 0.221965 0.400662 0.010350
O O6 0.084642 0.310239 0.905329
O O7 0.153834 0.401889 0.153331
O O8 0.723858 0.289835 0.149269
O O9 0.724684 0.470540 0.096139
O O10 0.721530 0.135596 0.276746
O O11 0.625562 0.282911 0.241856
O O12 0.142646 0.130653 0.969252
O O13 0.000000 0.162882 0.750000
#
# Coordination Sequence:
#
# PCOD8135354 Si02
#       6
#     8   8   8   8   8   8
#     4  11  25  36  55  93 122 146 184 239 298 334
#     4  10  19  38  60  86 114 152 189 233 284 347
#     4  11  21  38  63  82 115 157 195 227 278 350
#     4  11  21  40  60  83 117 156 192 232 280 349
#     4  10  20  38  61  84 111 154 198 229 279 347
#     4  11  22  37  62  88 113 147 197 243 283 328
#
# _framework density 19.126004999999999
#
# number of rings (size 3 to 8) (size 9 to 14) (size 15 to 20)
#    0.000    1.333    5.000    2.000    2.333    0.667 
#    0.000    1.667    0.000    0.000    0.000    0.000 
#    0.000    0.000    0.000    0.000    0.000    0.000 
#
# Total GULP energy -297707.352996 kJ/mol
# GULP energy per Si atom -12404.473042 kJ/mol
# Density = 1.908247 g / cm^3
# Si number density = 19.126005 Si / 1000 Ang^3
#
#
#
# Elastic Constant Matrix: (Units=GPa)
#
#
# Indices 1 2 3 4 5 6 
#
# 1 45.2210 29.6127 29.4885 0.0000 8.5092 0.0000
# 2 29.6127 59.3613 27.7445 0.0000 0.2305 0.0000
# 3 29.4885 27.7445 127.5577 0.0000 10.8534 0.0000
# 4 0.0000 0.0000 0.0000 28.4995 0.0000 -3.2404
# 5 8.5092 0.2305 10.8534 0.0000 33.9577 0.0000
# 6 0.0000 0.0000 0.0000 -3.2404 0.0000 19.6495
#
#
#
# Elastic Compliance Matrix: (Units=1/GPa)
#
#
# Indices 1 2 3 4 5 6 
#
# 1 0.037236 -0.016512 -0.004351 0.000000 -0.007828 0.000000
# 2 -0.016512 0.026122 -0.002263 0.000000 0.004684 0.000000
# 3 -0.004351 -0.002263 0.009502 0.000000 -0.001931 0.000000
# 4 0.000000 0.000000 0.000000 0.035759 0.000000 0.005897
# 5 -0.007828 0.004684 -0.001931 0.000000 0.031996 0.000000
# 6 0.000000 0.000000 0.000000 0.005897 0.000000 0.051864
#
#
# Mechanical properties :
#
#
# Convention : Reuss Voigt Hill
#
# Bulk Modulus (GPa) = 37.58042 45.09239 41.33641
# Shear Modulus (GPa) = 20.19383 26.10763 23.15073
#
# Velocity S-wave (km/s) = 3.25288 3.69864 3.48290
# Velocity P-wave (km/s) = 5.81376 6.47052 6.15091
#
# Compressibility (1/GPa) = 0.02660960
#
# Stress axis : x y z
#
# Youngs Moduli (GPa) = 26.85552 38.28120 105.24128
#
# Poissons Ratio (x) = 0.63209 0.45788
# Poissons Ratio (y) = 0.44343 0.23818
# Poissons Ratio (z) = 0.11684 0.08664
#
# Static dielectric constant tensor:
#      x y z
#    x 3.313070 0.000000 -0.159440 
#    y 0.000000 3.446830 0.000000 
#    z -0.159440 0.000000 3.498010 
# 
# 
# High freq. dielectric constant tensor:
#      x y z
#    x 1.729800 0.000000 -0.011700 
#    y 0.000000 1.736390 0.000000 
#    z -0.011700 0.000000 1.753180 
# 
# From -- ./inp_files/96878.got.cif
#   From: 2010.06.25/outbox.cif.g09.slc.cpg/sg15_49_cif.got.tgz:96878.got - 2010.06.28 07:06:18.
