data_PCOD8135293
_publ_section_title
;
Structure prediction by ZEFSAII (Michael W. Deem and Ramdas Pophale) SiO2 
 PCOD8135293
Probable space group: C 2/C
;
_chemical_formula_sum "Si O2"
_cell_formula_units_Z 40
_cell_length_a 23.027118
_cell_length_b 14.327651
_cell_length_c 19.200066
_cell_angle_alpha 90.000000
_cell_angle_beta 17.143744
_cell_angle_gamma 90.000000
_cell_volume 1867.241678
_symmetry_space_group_name_H-M "C 2/C"
_symmetry_group_IT_number 15
_symmetry_cell_setting 'monoclinic'
loop_
_space_group_symop_operation_xyz
x,y,z
-x,y,1/2-z
-x,-y,-z
x,-y,1/2+z
1/2+x,1/2+y,z
1/2-x,1/2+y,1/2-z
1/2-x,1/2-y,-z
1/2+x,1/2-y,1/2+z
loop_
_atom_site_type_symbol
_atom_site_label
_atom_site_fract_x
_atom_site_fract_y
_atom_site_fract_z
Si Si1 0.388911 0.955201 0.948179
Si Si2 0.767696 0.839532 0.136158
Si Si3 0.016077 0.663709 0.652756
Si Si4 0.462536 0.525308 0.963212
Si Si5 0.057592 0.595933 0.398737
O O1 0.500000 0.928979 0.750000
O O2 0.506604 0.904060 0.875232
O O3 0.369566 0.066245 0.982315
O O4 0.159607 0.925462 0.206898
O O5 0.697295 0.852754 0.136899
O O6 0.580325 0.829261 0.403714
O O7 0.881280 0.742129 0.012369
O O8 0.908949 0.927342 0.988047
O O9 0.000000 0.699283 0.750000
O O10 0.500000 0.500000 0.000000
O O11 0.292436 0.603695 0.144033
O O12 0.000000 0.500000 0.500000
#
# Coordination Sequence:
#
# PCOD8135293 Si02
#       5
#     8   8   8   8   8
#     4  11  22  38  59  90 125 157 196 250 302 358
#     4  11  21  37  57  83 122 167 208 238 291 361
#     4  11  22  36  53  91 136 163 192 238 300 382
#     4  11  19  36  61  80 117 164 203 254 288 340
#     4  10  19  38  57  81 112 158 215 241 281 352
#
# _framework density 21.421972
#
# number of rings (size 3 to 8) (size 9 to 14) (size 15 to 20)
#    0.000    1.200    8.000    1.800    0.000    2.400 
#    0.000    0.000    0.000    0.000    0.000    1.400 
#    0.000    0.000    0.000    0.000    0.000    0.000 
#
# Total GULP energy -247866.286141 kJ/mol
# GULP energy per Si atom -12393.314307 kJ/mol
# Density = 2.137321 g / cm^3
# Si number density = 21.421972 Si / 1000 Ang^3
#
#
#
# Elastic Constant Matrix: (Units=GPa)
#
#
# Indices 1 2 3 4 5 6 
#
# 1 182.4777 22.2070 69.5170 0.1381 -8.6658 -0.0293
# 2 22.2070 31.3106 6.8309 0.4407 3.4660 -0.2186
# 3 69.5170 6.8309 153.7184 0.1780 -13.0148 -0.0850
# 4 0.1381 0.4407 0.1780 30.7107 -0.1132 1.8450
# 5 -8.6658 3.4660 -13.0148 -0.1132 39.2798 -0.0015
# 6 -0.0293 -0.2186 -0.0850 1.8450 -0.0015 11.9282
#
#
#
# Elastic Compliance Matrix: (Units=1/GPa)
#
#
# Indices 1 2 3 4 5 6 
#
# 1 0.007220 -0.004585 -0.002976 0.000060 0.001012 -0.000097
# 2 -0.004585 0.035626 0.000143 -0.000550 -0.004109 0.000727
# 3 -0.002976 0.000143 0.008013 -0.000031 0.001986 0.000058
# 4 0.000060 -0.000550 -0.000031 0.032876 0.000146 -0.005095
# 5 0.001012 -0.004109 0.001986 0.000146 0.026702 -0.000078
# 6 -0.000097 0.000727 0.000058 -0.005095 -0.000078 0.084637
#
#
# Mechanical properties :
#
#
# Convention : Reuss Voigt Hill
#
# Bulk Modulus (GPa) = 27.75888 62.73520 45.24704
# Shear Modulus (GPa) = 22.53092 34.31384 28.42238
#
# Velocity S-wave (km/s) = 3.24661 4.00660 3.64646
# Velocity P-wave (km/s) = 5.20003 7.12410 6.23671
#
# Compressibility (1/GPa) = 0.03602451
#
# Stress axis : x y z
#
# Youngs Moduli (GPa) = 138.50975 28.06921 124.79775
#
# Poissons Ratio (x) = 0.12869 0.37137
# Poissons Ratio (y) = 0.63505 -0.01790
# Poissons Ratio (z) = 0.41217 -0.00403
#
# Static dielectric constant tensor:
#      x y z
#    x 4.198070 -0.000030 -0.571460 
#    y -0.000030 3.600560 -0.000340 
#    z -0.571460 -0.000340 6.207210 
# 
# 
# High freq. dielectric constant tensor:
#      x y z
#    x 1.855500 -0.000010 -0.017800 
#    y -0.000010 1.787420 0.000020 
#    z -0.017800 0.000020 1.844830 
# 
# From -- ./inp_files/215673.got.cif
#   From: 2010.06.25/outbox.cif.g09.slc.cpg/sg15_108_cif.got.tgz:215673.got - 2010.06.28 07:06:18.
