data_PCOD8135312
_publ_section_title
;
Structure prediction by ZEFSAII (Michael W. Deem and Ramdas Pophale) SiO2 
 PCOD8135312
Probable space group: C 2/C
;
_chemical_formula_sum "Si O2"
_cell_formula_units_Z 60
_cell_length_a 14.483869
_cell_length_b 8.775444
_cell_length_c 26.069520
_cell_angle_alpha 90.000000
_cell_angle_beta 109.329566
_cell_angle_gamma 90.000000
_cell_volume 3126.717089
_symmetry_space_group_name_H-M "C 2/C"
_symmetry_group_IT_number 15
_symmetry_cell_setting 'monoclinic'
loop_
_space_group_symop_operation_xyz
x,y,z
-x,y,1/2-z
-x,-y,-z
x,-y,1/2+z
1/2+x,1/2+y,z
1/2-x,1/2+y,1/2-z
1/2-x,1/2-y,-z
1/2+x,1/2-y,1/2+z
loop_
_atom_site_type_symbol
_atom_site_label
_atom_site_fract_x
_atom_site_fract_y
_atom_site_fract_z
Si Si1 0.826360 0.239435 0.733195
Si Si2 0.228620 0.864943 0.624953
Si Si3 0.982287 0.692315 0.658805
Si Si4 0.427499 0.852331 0.431706
Si Si5 0.709217 0.137826 0.926369
Si Si6 0.144084 0.917588 0.712080
Si Si7 0.626081 0.851584 0.519874
Si Si8 0.000000 0.458066 0.750000
O O1 0.800426 0.244911 0.667447
O O2 0.730286 0.300393 0.747166
O O3 0.915320 0.354750 0.759008
O O4 0.856983 0.069449 0.754201
O O5 0.154783 0.774572 0.574656
O O6 0.167855 0.960286 0.657145
O O7 0.291399 0.976403 0.601810
O O8 0.877010 0.740421 0.615348
O O9 0.961191 0.562567 0.696708
O O10 0.049162 0.629155 0.624507
O O11 0.037968 0.835038 0.695781
O O12 0.519630 0.795325 0.482092
O O13 0.385514 0.011854 0.442773
O O14 0.814344 0.219059 0.939920
O O15 0.688289 0.098717 0.981723
#
# Coordination Sequence:
#
# PCOD8135312 Si02
#       8
#     8   8   8   8   8   8   8   4
#     4  10  21  38  55  84 113 156 194 235 279 341
#     4   9  20  36  57  83 116 147 190 240 280 341
#     4  10  20  38  57  80 119 155 187 235 281 346
#     4   9  19  38  58  85 111 148 192 234 288 345
#     4  10  19  38  58  87 117 146 189 236 298 333
#     4   9  20  38  57  79 112 158 194 228 279 339
#     4   9  20  36  62  85 108 150 189 237 293 350
#     4  12  22  36  56  86 116 160 186 240 290 330
#
# _framework density 19.189454999999999
#
# number of rings (size 3 to 8) (size 9 to 14) (size 15 to 20)
#    0.800    1.600    1.333    0.800    0.000    2.667 
#    4.800    0.000    0.000    0.000    0.000    0.000 
#    0.000    0.000    0.000    0.000    0.000    0.000 
#
# Total GULP energy -371789.168862 kJ/mol
# GULP energy per Si atom -12392.972295 kJ/mol
# Density = 1.914578 g / cm^3
# Si number density = 19.189455 Si / 1000 Ang^3
#
#
#
# Elastic Constant Matrix: (Units=GPa)
#
#
# Indices 1 2 3 4 5 6 
#
# 1 28.0995 23.2304 32.3757 0.0000 9.0721 0.0000
# 2 23.2304 100.6804 60.8734 0.0000 5.3888 0.0000
# 3 32.3757 60.8734 86.9020 0.0000 14.2079 0.0000
# 4 0.0000 0.0000 0.0000 37.2080 0.0000 2.4704
# 5 9.0721 5.3888 14.2079 0.0000 21.2033 0.0000
# 6 0.0000 0.0000 0.0000 2.4704 0.0000 32.1677
#
#
#
# Elastic Compliance Matrix: (Units=1/GPa)
#
#
# Indices 1 2 3 4 5 6 
#
# 1 0.065601 -0.001688 -0.021044 0.000000 -0.013538 0.000000
# 2 -0.001688 0.017607 -0.012455 0.000000 0.004594 0.000000
# 3 -0.021044 -0.012455 0.029291 0.000000 -0.007458 0.000000
# 4 0.000000 0.000000 0.000000 0.027014 0.000000 -0.002075
# 5 -0.013538 0.004594 -0.007458 0.000000 0.056785 0.000000
# 6 0.000000 0.000000 0.000000 -0.002075 0.000000 0.031246
#
#
# Mechanical properties :
#
#
# Convention : Reuss Voigt Hill
#
# Bulk Modulus (GPa) = 23.73949 49.84898 36.79423
# Shear Modulus (GPa) = 16.02770 24.72929 20.37849
#
# Velocity S-wave (km/s) = 2.89318 3.59373 3.26231
# Velocity P-wave (km/s) = 4.85372 6.57674 5.77980
#
# Compressibility (1/GPa) = 0.04212391
#
# Stress axis : x y z
#
# Youngs Moduli (GPa) = 15.24377 56.79611 34.13976
#
# Poissons Ratio (x) = 0.09588 0.71843
# Poissons Ratio (y) = 0.02573 0.42522
# Poissons Ratio (z) = 0.32079 0.70742
#
# Static dielectric constant tensor:
#      x y z
#    x 3.525380 0.000000 0.196170 
#    y 0.000000 3.153960 0.000000 
#    z 0.196170 0.000000 3.525960 
# 
# 
# High freq. dielectric constant tensor:
#      x y z
#    x 1.747070 0.000000 0.015100 
#    y 0.000000 1.718520 0.000000 
#    z 0.015100 0.000000 1.747650 
# 
# From -- ./inp_files/312695.got.cif
#   From: 2010.06.25/outbox.cif.g09.slc.cpg/sg15_157_cif.got.tgz:312695.got - 2010.06.28 07:06:18.
