data_PCOD8135709
_publ_section_title
;
Structure prediction by ZEFSAII (Michael W. Deem and Ramdas Pophale) SiO2 
 PCOD8135709
Probable space group: C 2/C
;
_chemical_formula_sum "Si O2"
_cell_formula_units_Z 56
_cell_length_a 22.970553
_cell_length_b 21.313750
_cell_length_c 15.245786
_cell_angle_alpha 90.000000
_cell_angle_beta 159.039052
_cell_angle_gamma 90.000000
_cell_volume 2670.166746
_symmetry_space_group_name_H-M "C 2/C"
_symmetry_group_IT_number 15
_symmetry_cell_setting 'monoclinic'
loop_
_space_group_symop_operation_xyz
x,y,z
-x,y,1/2-z
-x,-y,-z
x,-y,1/2+z
1/2+x,1/2+y,z
1/2-x,1/2+y,1/2-z
1/2-x,1/2-y,-z
1/2+x,1/2-y,1/2+z
loop_
_atom_site_type_symbol
_atom_site_label
_atom_site_fract_x
_atom_site_fract_y
_atom_site_fract_z
Si Si1 0.374467 0.191518 0.999950
Si Si2 0.735140 0.336694 0.872689
Si Si3 0.035971 0.748769 0.070267
Si Si4 0.358477 0.058206 0.899925
Si Si5 0.154579 0.520379 0.805008
Si Si6 0.983228 0.349186 0.359864
Si Si7 0.173331 0.021182 0.276873
O O1 0.322901 0.131062 0.870278
O O2 0.218290 0.224365 0.824572
O O3 0.500000 0.168116 0.250000
O O4 0.468910 0.243698 0.074763
O O5 0.578244 0.293449 0.647614
O O6 0.681362 0.405781 0.769701
O O7 0.806922 0.329686 0.071841
O O8 0.876048 0.319645 0.002238
O O9 0.016525 0.679058 0.002497
O O10 0.267068 0.038621 0.679881
O O11 0.305677 0.017113 0.908485
O O12 0.550403 0.043992 0.153418
O O13 0.024285 0.575159 0.648197
O O14 0.296480 0.510199 0.076419
O O15 0.000000 0.000000 0.000000
#
# Coordination Sequence:
#
# PCOD8135709 Si02
#       7
#     8   8   8   8   8   8   8
#     4  12  26  42  64  91 128 173 222 270 326 387
#     4  10  21  37  64  92 126 163 204 260 327 376
#     4  12  23  43  63  91 129 170 214 266 321 388
#     4  11  22  40  66  90 121 167 217 261 313 388
#     4  10  21  39  66  91 121 167 210 258 318 383
#     4  10  19  39  64  93 122 160 208 260 317 395
#     4  11  22  38  61  93 130 159 204 263 322 377
#
# _framework density 20.972473000000001
#
# number of rings (size 3 to 8) (size 9 to 14) (size 15 to 20)
#    0.000    1.143    4.286    3.000    0.000    0.571 
#    0.000    0.000    0.000    0.000    0.000    0.000 
#    0.000    0.000    0.000    0.000    0.000    0.000 
#
# Total GULP energy -347092.297685 kJ/mol
# GULP energy per Si atom -12396.153489 kJ/mol
# Density = 2.092474 g / cm^3
# Si number density = 20.972473 Si / 1000 Ang^3
#
#
#
# Elastic Constant Matrix: (Units=GPa)
#
#
# Indices 1 2 3 4 5 6 
#
# 1 84.9721 19.2244 40.0197 0.0000 -12.6160 0.0000
# 2 19.2244 75.2801 29.3915 0.0000 2.6479 0.0000
# 3 40.0197 29.3915 120.3421 0.0000 -9.9587 0.0000
# 4 0.0000 0.0000 0.0000 33.0402 0.0000 -1.6665
# 5 -12.6160 2.6479 -9.9587 0.0000 36.1311 0.0000
# 6 0.0000 0.0000 0.0000 -1.6665 0.0000 29.1216
#
#
#
# Elastic Compliance Matrix: (Units=1/GPa)
#
#
# Indices 1 2 3 4 5 6 
#
# 1 0.014818 -0.002373 -0.003997 0.000000 0.004246 0.000000
# 2 -0.002373 0.015223 -0.003162 0.000000 -0.002816 0.000000
# 3 -0.003997 -0.003162 0.010555 0.000000 0.001745 0.000000
# 4 0.000000 0.000000 0.000000 0.030354 0.000000 0.001737
# 5 0.004246 -0.002816 0.001745 0.000000 0.029847 0.000000
# 6 0.000000 0.000000 0.000000 0.001737 0.000000 0.034438
#
#
# Mechanical properties :
#
#
# Convention : Reuss Voigt Hill
#
# Bulk Modulus (GPa) = 46.43924 50.87396 48.65660
# Shear Modulus (GPa) = 30.96402 32.45581 31.70992
#
# Velocity S-wave (km/s) = 3.84658 3.93815 3.89263
# Velocity P-wave (km/s) = 6.47451 6.70737 6.59197
#
# Compressibility (1/GPa) = 0.02153351
#
# Stress axis : x y z
#
# Youngs Moduli (GPa) = 67.48381 65.68887 94.73759
#
# Poissons Ratio (x) = 0.15588 0.37865
# Poissons Ratio (y) = 0.16014 0.29955
# Poissons Ratio (z) = 0.26972 0.20770
#
# Static dielectric constant tensor:
#      x y z
#    x 3.944030 0.000000 -0.184880 
#    y 0.000000 3.716610 0.000000 
#    z -0.184880 0.000000 3.610190 
# 
# 
# High freq. dielectric constant tensor:
#      x y z
#    x 1.821210 0.000000 -0.014980 
#    y 0.000000 1.820630 0.000000 
#    z -0.014980 0.000000 1.809060 
# 
# From -- ./inp_files/174783.got.cif
#   From: 2010.06.25/outbox.cif.g09.slc.cpg/sg15_88_cif.got.tgz:174783.got - 2010.06.28 07:06:18.
