data_PCOD8135901
_publ_section_title
;
Structure prediction by ZEFSAII (Michael W. Deem and Ramdas Pophale) SiO2 
 PCOD8135901
Probable space group: C 2/C
;
_chemical_formula_sum "Si O2"
_cell_formula_units_Z 48
_cell_length_a 18.125383
_cell_length_b 13.240318
_cell_length_c 9.715693
_cell_angle_alpha 90.000000
_cell_angle_beta 101.141759
_cell_angle_gamma 90.000000
_cell_volume 2287.682361
_symmetry_space_group_name_H-M "C 2/C"
_symmetry_group_IT_number 15
_symmetry_cell_setting 'monoclinic'
loop_
_space_group_symop_operation_xyz
x,y,z
-x,y,1/2-z
-x,-y,-z
x,-y,1/2+z
1/2+x,1/2+y,z
1/2-x,1/2+y,1/2-z
1/2-x,1/2-y,-z
1/2+x,1/2-y,1/2+z
loop_
_atom_site_type_symbol
_atom_site_label
_atom_site_fract_x
_atom_site_fract_y
_atom_site_fract_z
Si Si1 0.710681 0.103861 0.995990
Si Si2 0.369283 0.684243 0.038060
Si Si3 0.062039 0.699872 0.506581
Si Si4 0.854897 0.548179 0.812342
Si Si5 0.005206 0.100089 0.592788
Si Si6 0.000000 0.757613 0.750000
Si Si7 0.000000 0.442835 0.750000
O O1 0.665900 0.206750 0.002806
O O2 0.695157 0.061312 0.839471
O O3 0.800558 0.109629 0.042579
O O4 0.685058 0.031202 0.106312
O O5 0.423974 0.677226 0.193651
O O6 0.415602 0.653261 0.917120
O O7 0.139191 0.654618 0.599787
O O8 0.062422 0.818781 0.463823
O O9 0.003724 0.690016 0.613727
O O10 0.038727 0.629430 0.373988
O O11 0.938372 0.511928 0.801479
O O12 0.000000 0.069827 0.750000
O O13 0.000000 0.000000 0.500000
#
# Coordination Sequence:
#
# PCOD8135901 Si02
#       7
#     8   8   8   8   8   4   4
#     4  11  25  43  68  99 147 183 222 277 367 420
#     4  10  24  46  70  97 137 184 229 286 346 416
#     4  11  22  39  64 102 138 170 224 286 343 402
#     4  12  23  39  66 105 139 184 221 282 348 428
#     4  11  26  43  71  98 129 176 240 296 332 393
#     4  10  19  40  75  92 126 186 233 278 337 406
#     4  12  23  36  67 106 146 174 223 282 343 424
#
# _framework density 20.981933999999999
#
# number of rings (size 3 to 8) (size 9 to 14) (size 15 to 20)
#    0.000    1.000    4.167    3.000    7.000    1.333 
#    0.000    0.000    0.000    5.000    0.000    0.000 
#    0.000    0.000    0.000    0.000    0.000    0.000 
#
# Total GULP energy -297357.523886 kJ/mol
# GULP energy per Si atom -12389.896829 kJ/mol
# Density = 2.093418 g / cm^3
# Si number density = 20.981934 Si / 1000 Ang^3
#
#
#
# Elastic Constant Matrix: (Units=GPa)
#
#
# Indices 1 2 3 4 5 6 
#
# 1 128.7772 47.4994 54.2598 0.0000 5.1206 0.0000
# 2 47.4994 122.9797 61.5719 0.0000 -0.6492 0.0000
# 3 54.2598 61.5719 158.5555 0.0000 -8.4818 0.0000
# 4 0.0000 0.0000 0.0000 -13.3938 0.0000 143.5465
# 5 5.1206 -0.6492 -8.4818 0.0000 25.0806 0.0000
# 6 0.0000 0.0000 0.0000 143.5465 0.0000 -478.1598
#
#
#
# Elastic Compliance Matrix: (Units=1/GPa)
#
#
# Indices 1 2 3 4 5 6 
#
# 1 0.009903 -0.002563 -0.002552 0.000000 -0.002951 0.000000
# 2 -0.002563 0.010786 -0.003329 0.000000 -0.000323 0.000000
# 3 -0.002552 -0.003329 0.008653 0.000000 0.003361 0.000000
# 4 0.000000 0.000000 0.000000 0.033670 0.000000 0.010108
# 5 -0.002951 -0.000323 0.003361 0.000000 0.041602 0.000000
# 6 0.000000 0.000000 0.000000 0.010108 0.000000 0.000943
#
#
# Mechanical properties :
#
#
# Convention : Reuss Voigt Hill
#
# Bulk Modulus (GPa) = 80.28792 81.88604 81.08698
# Shear Modulus (GPa) = 39.49558 -76.82919 -18.66681
#
# Velocity S-wave (km/s) = 4.34333 -6.05775 -2.98595
# Velocity P-wave (km/s) = 7.96875 3.13317 5.18094
#
# Compressibility (1/GPa) = 0.01245517
#
# Stress axis : x y z
#
# Youngs Moduli (GPa) = 100.97781 92.71011 115.57240
#
# Poissons Ratio (x) = 0.23762 0.29489
# Poissons Ratio (y) = 0.25881 0.38472
# Poissons Ratio (z) = 0.25765 0.30862
#
# Static dielectric constant tensor:
#      x y z
#    x 3.457090 0.000000 -0.156070 
#    y 0.000000 4.033610 0.000000 
#    z -0.156070 0.000000 3.896930 
# 
# 
# High freq. dielectric constant tensor:
#      x y z
#    x 1.796220 0.000000 0.000330 
#    y 0.000000 1.827680 0.000000 
#    z 0.000330 0.000000 1.838840 
# 
# From -- ./inp_files/47505.got.cif
#   From: 2010.06.25/outbox.cif.g09.slc.cpg/sg15_24_cif.got.tgz:47505.got - 2010.06.28 07:06:18.
