data_PCOD8135887
_publ_section_title
;
Structure prediction by ZEFSAII (Michael W. Deem and Ramdas Pophale) SiO2 
 PCOD8135887
Probable space group: C 2/C
;
_chemical_formula_sum "Si O2"
_cell_formula_units_Z 44
_cell_length_a 11.111022
_cell_length_b 15.876480
_cell_length_c 10.670407
_cell_angle_alpha 90.000000
_cell_angle_beta 92.794476
_cell_angle_gamma 90.000000
_cell_volume 1880.063254
_symmetry_space_group_name_H-M "C 2/C"
_symmetry_group_IT_number 15
_symmetry_cell_setting 'monoclinic'
loop_
_space_group_symop_operation_xyz
x,y,z
-x,y,1/2-z
-x,-y,-z
x,-y,1/2+z
1/2+x,1/2+y,z
1/2-x,1/2+y,1/2-z
1/2-x,1/2-y,-z
1/2+x,1/2-y,1/2+z
loop_
_atom_site_type_symbol
_atom_site_label
_atom_site_fract_x
_atom_site_fract_y
_atom_site_fract_z
Si Si1 0.557427 0.948852 0.614678
Si Si2 0.000000 0.990492 0.750000
Si Si3 0.725177 0.566314 0.880584
Si Si4 0.203534 0.224050 0.750356
Si Si5 0.136898 0.149078 0.115722
Si Si6 0.510543 0.756760 0.567549
O O1 0.500000 0.961149 0.750000
O O2 0.543952 0.854736 0.564155
O O3 0.500000 0.000000 0.500000
O O4 0.695790 0.981939 0.627048
O O5 0.922004 0.935040 0.838436
O O6 0.914272 0.048009 0.659690
O O7 0.772951 0.636837 0.784107
O O8 0.729735 0.615027 0.014498
O O9 0.291462 0.304278 0.768800
O O10 0.139513 0.215035 0.612074
O O11 0.095688 0.240099 0.841520
O O12 0.034265 0.215265 0.064284
#
# Coordination Sequence:
#
# PCOD8135887 Si02
#       6
#     8   4   8   8   8   8
#     4  12  25  44  71 106 140 179 232 292 348 410
#     4  12  26  42  66 102 142 168 232 296 350 402
#     4  11  24  41  71  97 137 177 226 281 354 409
#     4  10  19  40  69  90 126 180 228 265 335 425
#     4  11  23  44  65  99 132 184 226 281 341 420
#     4  10  20  40  70  91 129 182 231 264 344 420
#
# _framework density 23.403469000000001
#
# number of rings (size 3 to 8) (size 9 to 14) (size 15 to 20)
#    0.000    1.091    1.818    8.182    2.545    0.000 
#    6.545    1.818    0.000    0.000    0.000    0.000 
#    0.000    0.000    0.000    0.000    0.000    0.000 
#
# Total GULP energy -272609.512576 kJ/mol
# GULP energy per Si atom -12391.341481 kJ/mol
# Density = 2.335020 g / cm^3
# Si number density = 23.403469 Si / 1000 Ang^3
#
#
#
# Elastic Constant Matrix: (Units=GPa)
#
#
# Indices 1 2 3 4 5 6 
#
# 1 60.4365 12.0591 12.3883 0.0000 14.3671 0.0000
# 2 12.0591 108.0088 -4.5668 0.0000 -5.2913 0.0000
# 3 12.3883 -4.5668 56.7574 0.0000 11.6710 0.0000
# 4 0.0000 0.0000 0.0000 26.5134 0.0000 11.0697
# 5 14.3671 -5.2913 11.6710 0.0000 27.1392 0.0000
# 6 0.0000 0.0000 0.0000 11.0697 0.0000 46.5523
#
#
#
# Elastic Compliance Matrix: (Units=1/GPa)
#
#
# Indices 1 2 3 4 5 6 
#
# 1 0.020023 -0.002836 -0.002529 0.000000 -0.010065 0.000000
# 2 -0.002836 0.009758 0.000772 0.000000 0.003071 0.000000
# 3 -0.002529 0.000772 0.019666 0.000000 -0.006968 0.000000
# 4 0.000000 0.000000 0.000000 0.041874 0.000000 -0.009957
# 5 -0.010065 0.003071 -0.006968 0.000000 0.045771 0.000000
# 6 0.000000 0.000000 0.000000 -0.009957 0.000000 0.023849
#
#
# Mechanical properties :
#
#
# Convention : Reuss Voigt Hill
#
# Bulk Modulus (GPa) = 24.83654 29.44044 27.13849
# Shear Modulus (GPa) = 27.24114 33.72912 30.48513
#
# Velocity S-wave (km/s) = 3.41541 3.80043 3.61306
# Velocity P-wave (km/s) = 5.11750 5.64487 5.38764
#
# Compressibility (1/GPa) = 0.04026326
#
# Stress axis : x y z
#
# Youngs Moduli (GPa) = 49.94210 102.47758 50.84980
#
# Poissons Ratio (x) = 0.29058 0.12859
# Poissons Ratio (y) = 0.14162 -0.03928
# Poissons Ratio (z) = 0.12630 -0.07916
#
# Static dielectric constant tensor:
#      x y z
#    x 4.171850 0.000000 0.622120 
#    y 0.000000 4.811400 0.000000 
#    z 0.622120 0.000000 4.503360 
# 
# 
# High freq. dielectric constant tensor:
#      x y z
#    x 1.909410 0.000000 0.038310 
#    y 0.000000 1.946680 0.000000 
#    z 0.038310 0.000000 1.914410 
# 
# From -- ./inp_files/86085.got.cif
#   From: 2010.06.25/outbox.cif.g09.slc.cpg/sg15_44_cif.got.tgz:86085.got - 2010.06.28 07:06:18.
