data_PCOD8135286
_publ_section_title
;
Structure prediction by ZEFSAII (Michael W. Deem and Ramdas Pophale) SiO2 
 PCOD8135286
Probable space group: C 2/C
;
_chemical_formula_sum "Si O2"
_cell_formula_units_Z 40
_cell_length_a 9.061205
_cell_length_b 15.829029
_cell_length_c 30.344123
_cell_angle_alpha 90.000000
_cell_angle_beta 150.499106
_cell_angle_gamma 90.000000
_cell_volume 2143.214415
_symmetry_space_group_name_H-M "C 2/C"
_symmetry_group_IT_number 15
_symmetry_cell_setting 'monoclinic'
loop_
_space_group_symop_operation_xyz
x,y,z
-x,y,1/2-z
-x,-y,-z
x,-y,1/2+z
1/2+x,1/2+y,z
1/2-x,1/2+y,1/2-z
1/2-x,1/2-y,-z
1/2+x,1/2-y,1/2+z
loop_
_atom_site_type_symbol
_atom_site_label
_atom_site_fract_x
_atom_site_fract_y
_atom_site_fract_z
Si Si1 0.500000 0.234569 0.750000
Si Si2 0.500000 0.948975 0.750000
Si Si3 0.850415 0.949654 0.168623
Si Si4 0.039183 0.907237 0.121505
Si Si5 0.280490 0.965097 0.544582
Si Si6 0.758589 0.613675 0.271934
O O1 0.766849 0.176040 0.837107
O O2 0.390260 0.294916 0.760855
O O3 0.591678 0.884632 0.736346
O O4 0.768304 0.008534 0.835563
O O5 0.000000 0.901299 0.250000
O O6 0.903390 0.902340 0.135857
O O7 0.493840 0.957035 0.084668
O O8 0.002563 0.042287 0.207034
O O9 0.798120 0.912318 0.019896
O O10 0.476768 0.901234 0.624422
O O11 0.000000 0.000000 0.500000
#
# Coordination Sequence:
#
# PCOD8135286 Si02
#       6
#     4   4   8   8   8   8
#     4  11  22  38  56  85 116 156 180 229 296 348
#     4   9  18  36  58  79 108 150 192 227 272 342
#     4   9  19  37  60  80 112 153 191 225 276 342
#     4  10  21  34  59  87 111 143 194 237 279 331
#     4  11  19  34  62  90 110 142 199 246 272 323
#     4  10  19  38  56  81 115 156 184 226 289 344
#
# _framework density 18.663556
#
# number of rings (size 3 to 8) (size 9 to 14) (size 15 to 20)
#    0.000    2.000    5.000    0.600    2.800    0.800 
#    1.800    0.000    0.000    2.400    0.000    0.000 
#    0.000    0.000    0.000    0.000    0.000    0.000 
#
# Total GULP energy -247846.301269 kJ/mol
# GULP energy per Si atom -12392.315063 kJ/mol
# Density = 1.862108 g / cm^3
# Si number density = 18.663556 Si / 1000 Ang^3
#
#
#
# Elastic Constant Matrix: (Units=GPa)
#
#
# Indices 1 2 3 4 5 6 
#
# 1 172.7933 49.5828 57.3487 -0.0002 -4.2672 0.0001
# 2 49.5828 72.1956 31.1728 -0.0001 -8.3019 0.0001
# 3 57.3487 31.1728 98.9371 -0.0022 -3.3021 -0.0002
# 4 -0.0002 -0.0001 -0.0022 11.0339 0.0005 7.2295
# 5 -4.2672 -8.3019 -3.3021 0.0005 35.5658 0.0004
# 6 0.0001 0.0001 -0.0002 7.2295 0.0004 31.1133
#
#
#
# Elastic Compliance Matrix: (Units=1/GPa)
#
#
# Indices 1 2 3 4 5 6 
#
# 1 0.008092 -0.004124 -0.003401 -0.000001 -0.000308 0.000000
# 2 -0.004124 0.018526 -0.003329 -0.000001 0.003520 0.000000
# 3 -0.003401 -0.003329 0.013129 0.000003 0.000034 -0.000001
# 4 -0.000001 -0.000001 0.000003 0.106905 -0.000001 -0.024841
# 5 -0.000308 0.003520 0.000034 -0.000001 0.028905 0.000000
# 6 0.000000 0.000000 -0.000001 -0.024841 0.000000 0.037912
#
#
# Mechanical properties :
#
#
# Convention : Reuss Voigt Hill
#
# Bulk Modulus (GPa) = 55.43891 68.90385 62.17138
# Shear Modulus (GPa) = 20.73043 29.26406 24.99725
#
# Velocity S-wave (km/s) = 3.33640 3.96407 3.66370
# Velocity P-wave (km/s) = 6.67914 7.61255 7.16107
#
# Compressibility (1/GPa) = 0.01803787
#
# Stress axis : x y z
#
# Youngs Moduli (GPa) = 123.57939 53.97845 76.16707
#
# Poissons Ratio (x) = 0.22262 0.25907
# Poissons Ratio (y) = 0.50966 0.25356
# Poissons Ratio (z) = 0.42033 0.17970
#
# Static dielectric constant tensor:
#      x y z
#    x 3.951740 0.000000 -0.004870 
#    y 0.000000 2.972940 0.000000 
#    z -0.004870 0.000000 3.496380 
# 
# 
# High freq. dielectric constant tensor:
#      x y z
#    x 1.748490 0.000000 0.001320 
#    y 0.000000 1.675440 0.000000 
#    z 0.001320 0.000000 1.727480 
# 
# From -- ./inp_files/133230.got.cif
#   From: 2010.06.25/outbox.cif.g09.slc.cpg/sg15_67_cif.got.tgz:133230.got - 2010.06.28 07:06:18.
