data_PCOD8135220
_publ_section_title
;
Structure prediction by ZEFSAII (Michael W. Deem and Ramdas Pophale) SiO2 
 PCOD8135220
Probable space group: C 2/C
;
_chemical_formula_sum "Si O2"
_cell_formula_units_Z 32
_cell_length_a 17.352141
_cell_length_b 7.863752
_cell_length_c 19.075429
_cell_angle_alpha 90.000000
_cell_angle_beta 151.949236
_cell_angle_gamma 90.000000
_cell_volume 1224.022450
_symmetry_space_group_name_H-M "C 2/C"
_symmetry_group_IT_number 15
_symmetry_cell_setting 'monoclinic'
loop_
_space_group_symop_operation_xyz
x,y,z
-x,y,1/2-z
-x,-y,-z
x,-y,1/2+z
1/2+x,1/2+y,z
1/2-x,1/2+y,1/2-z
1/2-x,1/2-y,-z
1/2+x,1/2-y,1/2+z
loop_
_atom_site_type_symbol
_atom_site_label
_atom_site_fract_x
_atom_site_fract_y
_atom_site_fract_z
Si Si1 0.845391 0.423782 0.076383
Si Si2 0.685537 0.767030 0.722740
Si Si3 0.618175 0.543818 0.999827
Si Si4 0.478861 0.841430 0.043728
O O1 0.719304 0.561153 0.007790
O O2 0.000000 0.402921 0.250000
O O3 0.905994 0.467820 0.045616
O O4 0.750000 0.250000 0.000000
O O5 0.554251 0.637279 0.650052
O O6 0.771778 0.874397 0.851702
O O7 0.590130 0.891753 0.589850
O O8 0.824323 0.660828 0.792770
O O9 0.584316 0.350492 0.994301
#
# Coordination Sequence:
#
# PCOD8135220 Si02
#       4
#     8   8   8   8
#     4  10  21  41  65  93 126 165 215 269 317 378
#     4  10  19  37  65  97 128 163 209 270 326 372
#     4  10  22  40  63  96 134 167 215 269 322 389
#     4  10  20  38  65  96 124 167 220 266 315 385
#
# _framework density 26.143312000000002
#
# number of rings (size 3 to 8) (size 9 to 14) (size 15 to 20)
#    0.000    2.000    0.000    6.000    0.000    0.000 
#    0.000   42.500    0.000    1.500    0.000    1.750 
#    0.000    0.000    0.000    0.000    0.000    0.000 
#
# Total GULP energy -198383.606705 kJ/mol
# GULP energy per Si atom -12398.975419 kJ/mol
# Density = 2.608381 g / cm^3
# Si number density = 26.143312 Si / 1000 Ang^3
#
#
#
# Elastic Constant Matrix: (Units=GPa)
#
#
# Indices 1 2 3 4 5 6 
#
# 1 241.8023 31.4417 91.7057 0.0004 30.0396 0.0000
# 2 31.4417 48.9793 33.6277 0.0004 8.6493 -0.0001
# 3 91.7057 33.6277 167.2596 0.0004 33.0869 -0.0002
# 4 0.0004 0.0004 0.0004 36.4234 -0.0002 10.1012
# 5 30.0396 8.6493 33.0869 -0.0002 42.6130 0.0000
# 6 0.0000 -0.0001 -0.0002 10.1012 0.0000 43.8795
#
#
#
# Elastic Compliance Matrix: (Units=1/GPa)
#
#
# Indices 1 2 3 4 5 6 
#
# 1 0.005435 -0.001594 -0.002323 0.000000 -0.001705 0.000000
# 2 -0.001594 0.024216 -0.003834 0.000000 -0.000815 0.000000
# 3 -0.002323 -0.003834 0.008914 0.000000 -0.004506 0.000000
# 4 0.000000 0.000000 0.000000 0.029327 0.000000 -0.006751
# 5 -0.001705 -0.000815 -0.004506 0.000000 0.028333 0.000000
# 6 0.000000 0.000000 0.000000 -0.006751 0.000000 0.024344
#
#
# Mechanical properties :
#
#
# Convention : Reuss Voigt Hill
#
# Bulk Modulus (GPa) = 43.35377 85.73238 64.54307
# Shear Modulus (GPa) = 34.78075 44.66760 39.72417
#
# Velocity S-wave (km/s) = 3.65141 4.13797 3.90228
# Velocity P-wave (km/s) = 5.86482 7.46289 6.71159
#
# Compressibility (1/GPa) = 0.02306605
#
# Stress axis : x y z
#
# Youngs Moduli (GPa) = 183.97678 41.29545 112.17958
#
# Poissons Ratio (x) = 0.06581 0.26054
# Poissons Ratio (y) = 0.29318 0.43005
# Poissons Ratio (z) = 0.42729 0.15831
#
# Static dielectric constant tensor:
#      x y z
#    x 6.440500 0.000000 0.600060 
#    y 0.000000 4.695340 0.000000 
#    z 0.600060 0.000000 5.099940 
# 
# 
# High freq. dielectric constant tensor:
#      x y z
#    x 2.060170 0.000000 0.018190 
#    y 0.000000 2.051390 0.000000 
#    z 0.018190 0.000000 2.067910 
# 
# From -- ./inp_files/53461.got.cif
#   From: 2010.06.25/outbox.cif.g09.slc.cpg/sg15_27_cif.got.tgz:53461.got - 2010.06.28 07:06:18.
