data_PCOD8135179
_publ_section_title
;
Structure prediction by ZEFSAII (Michael W. Deem and Ramdas Pophale) SiO2 
 PCOD8135179
Probable space group: C 2/C
;
_chemical_formula_sum "Si O2"
_cell_formula_units_Z 64
_cell_length_a 20.773111
_cell_length_b 9.010971
_cell_length_c 18.835150
_cell_angle_alpha 90.000000
_cell_angle_beta 109.137303
_cell_angle_gamma 90.000000
_cell_volume 3330.830491
_symmetry_space_group_name_H-M "C 2/C"
_symmetry_group_IT_number 15
_symmetry_cell_setting 'monoclinic'
loop_
_space_group_symop_operation_xyz
x,y,z
-x,y,1/2-z
-x,-y,-z
x,-y,1/2+z
1/2+x,1/2+y,z
1/2-x,1/2+y,1/2-z
1/2-x,1/2-y,-z
1/2+x,1/2-y,1/2+z
loop_
_atom_site_type_symbol
_atom_site_label
_atom_site_fract_x
_atom_site_fract_y
_atom_site_fract_z
Si Si1 0.810953 0.336768 0.985176
Si Si2 0.926655 0.850225 0.134724
Si Si3 0.295800 0.754098 0.821653
Si Si4 0.083070 0.916794 0.598426
Si Si5 0.064716 0.128163 0.463031
Si Si6 0.693250 0.848504 0.943616
Si Si7 0.578585 0.348656 0.206188
Si Si8 0.729748 0.407184 0.668542
O O1 0.883768 0.263026 0.030426
O O2 0.813176 0.501098 0.015499
O O3 0.750000 0.250000 0.000000
O O4 0.796689 0.341694 0.896067
O O5 0.879230 0.733489 0.076751
O O6 0.900022 0.870537 0.204720
O O7 0.002936 0.784563 0.165576
O O8 0.923868 0.007465 0.094201
O O9 0.370405 0.765060 0.813474
O O10 0.274357 0.584093 0.824965
O O11 0.243962 0.834573 0.749765
O O12 0.079742 0.057435 0.544570
O O13 0.083630 0.984889 0.677435
O O14 0.156623 0.838236 0.614537
O O15 0.015008 0.815398 0.565105
O O16 0.712344 0.873496 0.868168
O O17 0.750000 0.750000 0.000000
#
# Coordination Sequence:
#
# PCOD8135179 Si02
#       8
#     8   8   8   8   8   8   8   8
#     4  12  23  40  60  91 123 157 200 256 306 356
#     4  10  20  36  63  89 114 160 201 245 297 367
#     4  11  23  40  63  88 120 159 202 249 303 368
#     4   9  18  35  62  89 116 155 200 247 296 364
#     4  10  19  37  64  88 119 153 200 254 303 355
#     4  12  25  39  59  89 126 163 202 248 309 370
#     4   9  18  37  62  84 116 157 206 236 294 366
#     4  11  22  41  60  91 121 162 202 249 305 363
#
# _framework density 19.214428000000002
#
# number of rings (size 3 to 8) (size 9 to 14) (size 15 to 20)
#    0.000    1.500    5.000    1.500    1.750    2.000 
#    0.000    1.875    0.000    0.000    0.000    0.000 
#    0.000    0.000    0.000    0.000    0.000    0.000 
#
# Total GULP energy -396685.829270 kJ/mol
# GULP energy per Si atom -12396.432165 kJ/mol
# Density = 1.917070 g / cm^3
# Si number density = 19.214428 Si / 1000 Ang^3
#
#
#
# Elastic Constant Matrix: (Units=GPa)
#
#
# Indices 1 2 3 4 5 6 
#
# 1 93.4823 32.3390 31.7631 0.0000 7.5847 0.0000
# 2 32.3390 82.7208 40.9050 0.0000 8.1389 0.0000
# 3 31.7631 40.9050 111.4069 0.0000 -2.8600 0.0000
# 4 0.0000 0.0000 0.0000 31.1421 0.0000 2.4791
# 5 7.5847 8.1389 -2.8600 0.0000 42.3594 0.0000
# 6 0.0000 0.0000 0.0000 2.4791 0.0000 25.8308
#
#
#
# Elastic Compliance Matrix: (Units=1/GPa)
#
#
# Indices 1 2 3 4 5 6 
#
# 1 0.012928 -0.003709 -0.002369 0.000000 -0.001762 0.000000
# 2 -0.003709 0.016284 -0.004993 0.000000 -0.002802 0.000000
# 3 -0.002369 -0.004993 0.011541 0.000000 0.002163 0.000000
# 4 0.000000 0.000000 0.000000 0.032358 0.000000 -0.003106
# 5 -0.001762 -0.002802 0.002163 0.000000 0.024607 0.000000
# 6 0.000000 0.000000 0.000000 -0.003106 0.000000 0.039011
#
#
# Mechanical properties :
#
#
# Convention : Reuss Voigt Hill
#
# Bulk Modulus (GPa) = 53.73744 55.29160 54.51452
# Shear Modulus (GPa) = 30.28903 32.03999 31.16451
#
# Velocity S-wave (km/s) = 3.97466 4.08793 4.03169
# Velocity P-wave (km/s) = 7.00656 7.14983 7.07856
#
# Compressibility (1/GPa) = 0.01860900
#
# Stress axis : x y z
#
# Youngs Moduli (GPa) = 77.34918 61.41090 86.65131
#
# Poissons Ratio (x) = 0.22779 0.20531
# Poissons Ratio (y) = 0.28691 0.43267
# Poissons Ratio (z) = 0.18327 0.30664
#
# Static dielectric constant tensor:
#      x y z
#    x 4.003880 0.000000 0.040650 
#    y 0.000000 3.127500 0.000000 
#    z 0.040650 0.000000 3.775270 
# 
# 
# High freq. dielectric constant tensor:
#      x y z
#    x 1.768310 0.000000 -0.000480 
#    y 0.000000 1.701410 0.000000 
#    z -0.000480 0.000000 1.768100 
# 
# From -- ./inp_files/251901.got.cif
#   From: 2010.06.25/outbox.cif.g09.slc.cpg/sg15_126_cif.got.tgz:251901.got - 2010.06.28 07:06:18.
