data_PCOD8135914
_publ_section_title
;
Structure prediction by ZEFSAII (Michael W. Deem and Ramdas Pophale) SiO2 
 PCOD8135914
Probable space group: C 2/C
;
_chemical_formula_sum "Si O2"
_cell_formula_units_Z 52
_cell_length_a 8.778906
_cell_length_b 16.285467
_cell_length_c 25.957576
_cell_angle_alpha 90.000000
_cell_angle_beta 39.910464
_cell_angle_gamma 90.000000
_cell_volume 2381.015118
_symmetry_space_group_name_H-M "C 2/C"
_symmetry_group_IT_number 15
_symmetry_cell_setting 'monoclinic'
loop_
_space_group_symop_operation_xyz
x,y,z
-x,y,1/2-z
-x,-y,-z
x,-y,1/2+z
1/2+x,1/2+y,z
1/2-x,1/2+y,1/2-z
1/2-x,1/2-y,-z
1/2+x,1/2-y,1/2+z
loop_
_atom_site_type_symbol
_atom_site_label
_atom_site_fract_x
_atom_site_fract_y
_atom_site_fract_z
Si Si1 0.368905 0.364819 0.650619
Si Si2 0.470619 0.935378 0.685633
Si Si3 0.577206 0.146618 0.058380
Si Si4 0.000000 0.583036 0.750000
Si Si5 0.906939 0.178386 0.599923
Si Si6 0.888393 0.584456 0.008117
Si Si7 0.405947 0.798563 0.418763
O O1 0.275581 0.398137 0.729580
O O2 0.604482 0.417085 0.575898
O O3 0.389282 0.265867 0.649975
O O4 0.186809 0.382207 0.651996
O O5 0.481311 0.925592 0.621018
O O6 0.493083 0.029016 0.699386
O O7 0.506347 0.236348 0.098415
O O8 0.442708 0.149025 0.038983
O O9 0.856433 0.128418 0.977168
O O10 0.243486 0.636030 0.686199
O O11 0.741702 0.179460 0.592957
O O12 0.997685 0.618777 0.925308
O O13 0.000000 0.500000 0.000000
O O14 0.250000 0.750000 0.500000
#
# Coordination Sequence:
#
# PCOD8135914 Si02
#       7
#     8   8   8   4   8   8   8
#     4   9  20  42  63  85 130 175 212 259 332 398
#     4  10  24  43  66  94 131 175 219 267 337 398
#     4  11  24  40  67 101 127 170 221 280 323 395
#     4  10  26  44  64  96 130 184 218 272 330 402
#     4  11  24  41  69  97 132 173 229 268 326 407
#     4  11  24  37  64  95 132 167 215 276 334 385
#     4  10  19  41  61  91 128 173 214 262 330 392
#
# _framework density 21.839424000000001
#
# number of rings (size 3 to 8) (size 9 to 14) (size 15 to 20)
#    0.000    1.846    3.077    1.846   10.769    1.231 
#    0.000    0.000    0.000    0.000    0.000    0.000 
#    0.000    0.000    0.000    0.000    0.000    0.000 
#
# Total GULP energy -322156.593188 kJ/mol
# GULP energy per Si atom -12390.638200 kJ/mol
# Density = 2.178972 g / cm^3
# Si number density = 21.839424 Si / 1000 Ang^3
#
#
#
# Elastic Constant Matrix: (Units=GPa)
#
#
# Indices 1 2 3 4 5 6 
#
# 1 76.9173 15.2213 17.9776 -0.0079 3.5958 0.0021
# 2 15.2213 93.3582 45.6122 -0.0001 -11.6606 0.0050
# 3 17.9776 45.6122 105.0043 -0.0046 -15.4385 0.0117
# 4 -0.0079 -0.0001 -0.0046 35.1768 0.0189 -0.9890
# 5 3.5958 -11.6606 -15.4385 0.0189 28.5342 -0.0056
# 6 0.0021 0.0050 0.0117 -0.9890 -0.0056 30.6689
#
#
#
# Elastic Compliance Matrix: (Units=1/GPa)
#
#
# Indices 1 2 3 4 5 6 
#
# 1 0.014017 -0.001658 -0.002215 0.000005 -0.003642 0.000000
# 2 -0.001658 0.013968 -0.005338 -0.000003 0.003029 0.000000
# 3 -0.002215 -0.005338 0.012974 -0.000002 0.005117 -0.000003
# 4 0.000005 -0.000003 -0.000002 0.028454 -0.000021 0.000918
# 5 -0.003642 0.003029 0.005117 -0.000021 0.039511 0.000004
# 6 0.000000 0.000000 -0.000003 0.000918 0.000004 0.032636
#
#
# Mechanical properties :
#
#
# Convention : Reuss Voigt Hill
#
# Bulk Modulus (GPa) = 44.37329 48.10022 46.23675
# Shear Modulus (GPa) = 29.85160 31.97390 30.91275
#
# Velocity S-wave (km/s) = 3.70113 3.83044 3.76634
# Velocity P-wave (km/s) = 6.21503 6.45254 6.33490
#
# Compressibility (1/GPa) = 0.02253608
#
# Stress axis : x y z
#
# Youngs Moduli (GPa) = 71.34134 71.59092 77.07748
#
# Poissons Ratio (x) = 0.11870 0.17074
# Poissons Ratio (y) = 0.11829 0.41147
# Poissons Ratio (z) = 0.15803 0.38218
#
# Static dielectric constant tensor:
#      x y z
#    x 3.724670 -0.002390 0.337300 
#    y -0.002390 5.121330 0.003080 
#    z 0.337300 0.003080 3.813870 
# 
# 
# High freq. dielectric constant tensor:
#      x y z
#    x 1.849840 0.000000 0.000740 
#    y 0.000000 1.859080 0.000000 
#    z 0.000740 0.000000 1.850250 
# 
# From -- ./inp_files/289544.got.cif
#   From: 2010.06.25/outbox.cif.g09.slc.cpg/sg15_145_cif.got.tgz:289544.got - 2010.06.28 07:06:18.
