data_PCOD8135481
_publ_section_title
;
Structure prediction by ZEFSAII (Michael W. Deem and Ramdas Pophale) SiO2 
 PCOD8135481
Probable space group: C 2/C
;
_chemical_formula_sum "Si O2"
_cell_formula_units_Z 52
_cell_length_a 8.266757
_cell_length_b 25.708231
_cell_length_c 14.802545
_cell_angle_alpha 90.000000
_cell_angle_beta 130.768896
_cell_angle_gamma 90.000000
_cell_volume 2382.539957
_symmetry_space_group_name_H-M "C 2/C"
_symmetry_group_IT_number 15
_symmetry_cell_setting 'monoclinic'
loop_
_space_group_symop_operation_xyz
x,y,z
-x,y,1/2-z
-x,-y,-z
x,-y,1/2+z
1/2+x,1/2+y,z
1/2-x,1/2+y,1/2-z
1/2-x,1/2-y,-z
1/2+x,1/2-y,1/2+z
loop_
_atom_site_type_symbol
_atom_site_label
_atom_site_fract_x
_atom_site_fract_y
_atom_site_fract_z
Si Si1 0.000000 0.005952 0.750000
Si Si2 0.000000 0.205914 0.250000
Si Si3 0.119093 0.955674 0.487047
Si Si4 0.615740 0.660539 0.980952
Si Si5 0.434096 0.957850 0.905001
Si Si6 0.948290 0.748113 0.911814
Si Si7 0.500000 0.296035 0.250000
Si Si8 0.931068 0.658458 0.420815
O O1 0.196034 0.970732 0.782458
O O2 0.076527 0.039669 0.863632
O O3 0.933629 0.241113 0.140073
O O4 0.202094 0.171195 0.291677
O O5 0.047231 0.897320 0.489742
O O6 0.375485 0.959654 0.600390
O O7 0.000000 0.000000 0.500000
O O8 0.536776 0.667162 0.849555
O O9 0.507839 0.704093 0.003909
O O10 0.873589 0.668506 0.077256
O O11 0.430671 0.901449 0.951229
O O12 0.500000 0.000000 0.000000
O O13 0.696995 0.742078 0.803085
O O14 0.043018 0.694046 0.981657
#
# Coordination Sequence:
#
# PCOD8135481 Si02
#       8
#     4   4   8   8   8   8   4   8
#     4  10  20  40  62  84 116 156 192 242 298 352
#     4  12  23  36  56  87 122 159 193 240 298 346
#     4  10  22  39  61  89 118 152 197 247 297 353
#     4  10  21  39  61  85 115 152 197 241 288 353
#     4   9  20  38  60  86 115 151 195 243 297 354
#     4  11  22  37  57  86 119 154 195 241 290 348
#     4  10  19  38  64  87 112 157 199 238 292 350
#     4  10  21  37  58  83 114 151 195 241 287 345
#
# _framework density 21.825448000000002
#
# number of rings (size 3 to 8) (size 9 to 14) (size 15 to 20)
#    0.000    1.846    0.000    5.077    0.000    5.538 
#    0.000    3.077    0.000    3.692    0.000    0.000 
#    0.000    0.000    0.000    0.000    0.000    0.000 
#
# Total GULP energy -322242.378484 kJ/mol
# GULP energy per Si atom -12393.937634 kJ/mol
# Density = 2.177577 g / cm^3
# Si number density = 21.825448 Si / 1000 Ang^3
#
#
#
# Elastic Constant Matrix: (Units=GPa)
#
#
# Indices 1 2 3 4 5 6 
#
# 1 87.1699 49.1678 31.6341 0.0000 9.7974 0.0000
# 2 49.1678 160.1696 29.2495 0.0000 -1.0766 0.0000
# 3 31.6341 29.2495 60.9586 0.0000 8.6866 0.0000
# 4 0.0000 0.0000 0.0000 22.8451 0.0000 -2.3624
# 5 9.7974 -1.0766 8.6866 0.0000 42.2565 0.0000
# 6 0.0000 0.0000 0.0000 -2.3624 0.0000 31.2960
#
#
#
# Elastic Compliance Matrix: (Units=1/GPa)
#
#
# Indices 1 2 3 4 5 6 
#
# 1 0.016179 -0.003855 -0.006178 0.000000 -0.002579 0.000000
# 2 -0.003855 0.007793 -0.001952 0.000000 0.001494 0.000000
# 3 -0.006178 -0.001952 0.020964 0.000000 -0.002927 0.000000
# 4 0.000000 0.000000 0.000000 0.044118 0.000000 0.003330
# 5 -0.002579 0.001494 -0.002927 0.000000 0.024903 0.000000
# 6 0.000000 0.000000 0.000000 0.003330 0.000000 0.032204
#
#
# Mechanical properties :
#
#
# Convention : Reuss Voigt Hill
#
# Bulk Modulus (GPa) = 47.69718 58.71122 53.20420
# Shear Modulus (GPa) = 28.22951 32.49595 30.36273
#
# Velocity S-wave (km/s) = 3.60032 3.86282 3.73387
# Velocity P-wave (km/s) = 6.25975 6.84499 6.55890
#
# Compressibility (1/GPa) = 0.02096560
#
# Stress axis : x y z
#
# Youngs Moduli (GPa) = 61.81043 128.31493 47.70031
#
# Poissons Ratio (x) = 0.49471 0.29470
# Poissons Ratio (y) = 0.23831 0.09309
# Poissons Ratio (z) = 0.38188 0.25041
#
# Static dielectric constant tensor:
#      x y z
#    x 4.256290 0.000000 0.569710 
#    y 0.000000 3.962220 0.000000 
#    z 0.569710 0.000000 3.949890 
# 
# 
# High freq. dielectric constant tensor:
#      x y z
#    x 1.853220 0.000000 0.026600 
#    y 0.000000 1.863670 0.000000 
#    z 0.026600 0.000000 1.847840 
# 
# From -- ./inp_files/138796.got.cif
#   From: 2010.06.25/outbox.cif.g09.slc.cpg/sg15_70_cif.got.tgz:138796.got - 2010.06.28 07:06:18.
