data_PCOD8135516
_publ_section_title
;
Structure prediction by ZEFSAII (Michael W. Deem and Ramdas Pophale) SiO2 
 PCOD8135516
Probable space group: C 2/C
;
_chemical_formula_sum "Si O2"
_cell_formula_units_Z 64
_cell_length_a 21.187850
_cell_length_b 15.461464
_cell_length_c 30.997250
_cell_angle_alpha 90.000000
_cell_angle_beta 162.527632
_cell_angle_gamma 90.000000
_cell_volume 3048.861060
_symmetry_space_group_name_H-M "C 2/C"
_symmetry_group_IT_number 15
_symmetry_cell_setting 'monoclinic'
loop_
_space_group_symop_operation_xyz
x,y,z
-x,y,1/2-z
-x,-y,-z
x,-y,1/2+z
1/2+x,1/2+y,z
1/2-x,1/2+y,1/2-z
1/2-x,1/2-y,-z
1/2+x,1/2-y,1/2+z
loop_
_atom_site_type_symbol
_atom_site_label
_atom_site_fract_x
_atom_site_fract_y
_atom_site_fract_z
Si Si1 0.803393 0.116383 0.555052
Si Si2 0.600253 0.360720 0.927337
Si Si3 0.087815 0.946874 0.619274
Si Si4 0.522898 0.006093 0.926047
Si Si5 0.475376 0.168902 0.841853
Si Si6 0.111015 0.018280 0.277669
Si Si7 0.224618 0.705680 0.414697
Si Si8 0.008496 0.130650 0.528791
O O1 0.773428 0.195873 0.567999
O O2 0.771728 0.141725 0.484946
O O3 0.649217 0.039322 0.469166
O O4 0.036486 0.075191 0.710749
O O5 0.591553 0.414169 0.965627
O O6 0.514241 0.266028 0.882255
O O7 0.446235 0.403354 0.791357
O O8 0.845077 0.359178 0.074749
O O9 0.116820 0.879857 0.598146
O O10 0.303927 0.954914 0.787267
O O11 0.008241 0.038255 0.551133
O O12 0.483976 0.106071 0.888688
O O13 0.641448 0.006498 0.049625
O O14 0.243312 0.162133 0.669981
O O15 0.000000 0.042323 0.250000
O O16 0.393945 0.697295 0.486521
O O17 0.000000 0.678784 0.250000
#
# Coordination Sequence:
#
# PCOD8135516 Si02
#       8
#     8   8   8   8   8   8   8   8
#     4  10  21  37  64  97 122 166 209 260 313 390
#     4  11  22  40  65  93 121 172 213 260 317 381
#     4  10  23  41  63  89 123 167 213 258 322 382
#     4  10  20  40  65  87 131 162 201 267 320 376
#     4  10  23  40  62  92 128 161 216 266 307 378
#     4  10  19  38  65  90 126 159 207 262 318 380
#     4  11  22  38  64  94 128 165 213 259 322 386
#     4  10  23  43  59  94 129 163 210 268 318 380
#
# _framework density 20.991447000000001
#
# number of rings (size 3 to 8) (size 9 to 14) (size 15 to 20)
#    0.000    1.750    2.500    2.625    1.750    2.000 
#    0.000    0.000    5.500    0.000    0.000    0.000 
#    0.000    0.000    0.000    0.000    0.000    0.000 
#
# Total GULP energy -396739.840955 kJ/mol
# GULP energy per Si atom -12398.120030 kJ/mol
# Density = 2.094367 g / cm^3
# Si number density = 20.991447 Si / 1000 Ang^3
#
#
#
# Elastic Constant Matrix: (Units=GPa)
#
#
# Indices 1 2 3 4 5 6 
#
# 1 98.6106 38.9608 53.3073 -0.0961 -1.5648 -0.0722
# 2 38.9608 98.3929 45.6019 -0.1431 1.4378 0.0270
# 3 53.3073 45.6019 148.8217 -0.3361 0.1612 -0.0970
# 4 -0.0961 -0.1431 -0.3361 21.5048 -0.0306 -2.7281
# 5 -1.5648 1.4378 0.1612 -0.0306 26.1134 -0.0081
# 6 -0.0722 0.0270 -0.0970 -2.7281 -0.0081 23.3806
#
#
#
# Elastic Compliance Matrix: (Units=1/GPa)
#
#
# Indices 1 2 3 4 5 6 
#
# 1 0.013643 -0.003674 -0.003762 -0.000017 0.001043 0.000029
# 2 -0.003674 0.012845 -0.002619 0.000022 -0.000911 -0.000035
# 3 -0.003762 -0.002619 0.008870 0.000109 -0.000136 0.000041
# 4 -0.000017 0.000022 0.000109 0.047202 0.000054 0.005508
# 5 0.001043 -0.000911 -0.000136 0.000054 0.038408 0.000023
# 6 0.000029 -0.000035 0.000041 0.005508 0.000023 0.043414
#
#
# Mechanical properties :
#
#
# Convention : Reuss Voigt Hill
#
# Bulk Modulus (GPa) = 65.58284 69.06281 67.32283
# Shear Modulus (GPa) = 26.37488 28.06344 27.21916
#
# Velocity S-wave (km/s) = 3.54850 3.66033 3.60485
# Velocity P-wave (km/s) = 6.93539 7.12993 7.03333
#
# Compressibility (1/GPa) = 0.01524789
#
# Stress axis : x y z
#
# Youngs Moduli (GPa) = 73.29907 77.84973 112.73931
#
# Poissons Ratio (x) = 0.28600 0.42415
# Poissons Ratio (y) = 0.26928 0.29528
# Poissons Ratio (z) = 0.27577 0.20390
#
# Static dielectric constant tensor:
#      x y z
#    x 3.648360 0.000050 -0.076370 
#    y 0.000050 3.858680 -0.000570 
#    z -0.076370 -0.000570 4.146320 
# 
# 
# High freq. dielectric constant tensor:
#      x y z
#    x 1.811670 0.000010 -0.002690 
#    y 0.000010 1.825220 -0.000050 
#    z -0.002690 -0.000050 1.825080 
# 
# From -- ./inp_files/318009.got.cif
#   From: 2010.06.25/outbox.cif.g09.slc.cpg/sg15_160_cif.got.tgz:318009.got - 2010.06.28 07:06:18.
