data_PCOD8135256
_publ_section_title
;
Structure prediction by ZEFSAII (Michael W. Deem and Ramdas Pophale) SiO2 
 PCOD8135256
Probable space group: C 2/C
;
_chemical_formula_sum "Si O2"
_cell_formula_units_Z 52
_cell_length_a 21.029475
_cell_length_b 9.321260
_cell_length_c 17.288489
_cell_angle_alpha 90.000000
_cell_angle_beta 47.930020
_cell_angle_gamma 90.000000
_cell_volume 2515.679740
_symmetry_space_group_name_H-M "C 2/C"
_symmetry_group_IT_number 15
_symmetry_cell_setting 'monoclinic'
loop_
_space_group_symop_operation_xyz
x,y,z
-x,y,1/2-z
-x,-y,-z
x,-y,1/2+z
1/2+x,1/2+y,z
1/2-x,1/2+y,1/2-z
1/2-x,1/2-y,-z
1/2+x,1/2-y,1/2+z
loop_
_atom_site_type_symbol
_atom_site_label
_atom_site_fract_x
_atom_site_fract_y
_atom_site_fract_z
Si Si1 0.412956 0.644081 0.128895
Si Si2 0.000000 0.229253 0.750000
Si Si3 0.227454 0.919180 0.005782
Si Si4 0.350132 0.156815 0.293579
Si Si5 0.553470 0.559661 0.568738
Si Si6 0.233345 0.041654 0.670275
Si Si7 0.589162 0.035607 0.886735
O O1 0.503269 0.583789 0.086259
O O2 0.330666 0.561259 0.229742
O O3 0.411275 0.809720 0.154320
O O4 0.413735 0.640670 0.034596
O O5 0.911129 0.314924 0.819121
O O6 0.010772 0.148288 0.823901
O O7 0.284320 0.960154 0.884335
O O8 0.250000 0.750000 0.000000
O O9 0.131928 0.966115 0.062237
O O10 0.242934 0.005775 0.072612
O O11 0.301647 0.295633 0.297854
O O12 0.404751 0.086068 0.182316
O O13 0.328575 0.027281 0.625264
O O14 0.500000 0.000000 0.000000
#
# Coordination Sequence:
#
# PCOD8135256 Si02
#       7
#     8   4   8   8   8   8   8
#     4  11  24  41  68  99 134 178 221 280 329 402
#     4  12  20  40  70  96 126 174 228 268 320 400
#     4  10  19  37  67  99 124 170 225 278 318 386
#     4  11  24  40  71  98 132 179 223 280 330 400
#     4  11  20  38  67  98 125 170 231 267 326 393
#     4  11  22  44  71  94 130 176 229 277 329 396
#     4  12  27  43  63  99 141 174 218 280 345 398
#
# _framework density 20.670356999999999
#
# number of rings (size 3 to 8) (size 9 to 14) (size 15 to 20)
#    0.000    0.923    4.615    4.615    4.308    0.000 
#    2.769    3.077    0.000    0.000    0.000    0.000 
#    0.000    0.000    0.000    0.000    0.000    0.000 
#
# Total GULP energy -322141.758894 kJ/mol
# GULP energy per Si atom -12390.067650 kJ/mol
# Density = 2.062331 g / cm^3
# Si number density = 20.670357 Si / 1000 Ang^3
#
#
#
# Elastic Constant Matrix: (Units=GPa)
#
#
# Indices 1 2 3 4 5 6 
#
# 1 134.0269 38.8015 41.2947 -0.0001 -6.8082 0.0000
# 2 38.8015 84.0751 50.2284 -0.0005 -0.5568 0.0002
# 3 41.2947 50.2284 162.9291 -0.0002 2.0826 0.0001
# 4 -0.0001 -0.0005 -0.0002 22.1664 0.0000 -8.7341
# 5 -6.8082 -0.5568 2.0826 0.0000 42.0318 0.0000
# 6 0.0000 0.0002 0.0001 -8.7341 0.0000 14.4791
#
#
#
# Elastic Compliance Matrix: (Units=1/GPa)
#
#
# Indices 1 2 3 4 5 6 
#
# 1 0.008887 -0.003352 -0.001238 0.000000 0.001456 0.000000
# 2 -0.003352 0.015851 -0.004035 0.000000 -0.000133 0.000000
# 3 -0.001238 -0.004035 0.007703 0.000000 -0.000636 0.000000
# 4 0.000000 0.000000 0.000000 0.059179 0.000000 0.035698
# 5 0.001456 -0.000133 -0.000636 0.000000 0.024057 0.000000
# 6 0.000000 0.000000 0.000000 0.035698 0.000000 0.090598
#
#
# Mechanical properties :
#
#
# Convention : Reuss Voigt Hill
#
# Bulk Modulus (GPa) = 65.82805 71.29779 68.56292
# Shear Modulus (GPa) = 21.87318 32.44924 27.16121
#
# Velocity S-wave (km/s) = 3.25651 3.96642 3.62887
# Velocity P-wave (km/s) = 6.78643 7.45281 7.12741
#
# Compressibility (1/GPa) = 0.01519109
#
# Stress axis : x y z
#
# Youngs Moduli (GPa) = 112.52357 63.08665 129.81229
#
# Poissons Ratio (x) = 0.21150 0.16065
# Poissons Ratio (y) = 0.37723 0.52383
# Poissons Ratio (z) = 0.13925 0.25457
#
# Static dielectric constant tensor:
#      x y z
#    x 3.806740 0.000000 -0.050240 
#    y 0.000000 3.448050 0.000000 
#    z -0.050240 0.000000 4.445870 
# 
# 
# High freq. dielectric constant tensor:
#      x y z
#    x 1.825020 0.000000 -0.008670 
#    y 0.000000 1.762500 0.000000 
#    z -0.008670 0.000000 1.840050 
# 
# From -- ./inp_files/214223.got.cif
#   From: 2010.06.25/outbox.cif.g09.slc.cpg/sg15_108_cif.got.tgz:214223.got - 2010.06.28 07:06:18.
