data_PCOD8135149
_publ_section_title
;
Structure prediction by ZEFSAII (Michael W. Deem and Ramdas Pophale) SiO2 
 PCOD8135149
Probable space group: C 2/C
;
_chemical_formula_sum "Si O2"
_cell_formula_units_Z 56
_cell_length_a 14.118439
_cell_length_b 17.626358
_cell_length_c 12.475839
_cell_angle_alpha 90.000000
_cell_angle_beta 65.375934
_cell_angle_gamma 90.000000
_cell_volume 2822.358264
_symmetry_space_group_name_H-M "C 2/C"
_symmetry_group_IT_number 15
_symmetry_cell_setting 'monoclinic'
loop_
_space_group_symop_operation_xyz
x,y,z
-x,y,1/2-z
-x,-y,-z
x,-y,1/2+z
1/2+x,1/2+y,z
1/2-x,1/2+y,1/2-z
1/2-x,1/2-y,-z
1/2+x,1/2-y,1/2+z
loop_
_atom_site_type_symbol
_atom_site_label
_atom_site_fract_x
_atom_site_fract_y
_atom_site_fract_z
Si Si1 0.192275 0.121540 0.219335
Si Si2 0.387572 0.776570 0.339129
Si Si3 0.304955 0.364856 0.535935
Si Si4 0.122056 0.959916 0.187917
Si Si5 0.730758 0.666995 0.760792
Si Si6 0.626220 0.796783 0.508485
Si Si7 0.391718 0.798051 0.585230
O O1 0.131499 0.194416 0.203987
O O2 0.170578 0.112168 0.355171
O O3 0.315829 0.130159 0.139190
O O4 0.148489 0.047991 0.182202
O O5 0.500000 0.806843 0.250000
O O6 0.300819 0.836270 0.336088
O O7 0.379314 0.768860 0.469953
O O8 0.336135 0.434974 0.447248
O O9 0.374182 0.292815 0.464907
O O10 0.182420 0.343870 0.576927
O O11 0.178414 0.913396 0.257526
O O12 0.000000 0.945941 0.250000
O O13 0.808445 0.693566 0.630987
O O14 0.640707 0.730108 0.819219
O O15 0.508497 0.826077 0.553395
#
# Coordination Sequence:
#
# PCOD8135149 Si02
#       7
#     8   8   8   8   8   8   8
#     4  11  23  39  57  93 127 160 205 248 309 376
#     4  11  20  37  65  91 121 164 204 258 307 357
#     4  10  21  39  60  89 126 158 205 262 295 370
#     4  11  25  40  62  89 126 166 199 252 316 365
#     4  10  20  38  58  94 119 156 213 252 297 365
#     4  10  19  37  63  89 119 157 212 260 299 351
#     4  11  21  37  65  90 123 164 206 256 311 356
#
# _framework density 19.841562
#
# number of rings (size 3 to 8) (size 9 to 14) (size 15 to 20)
#    0.000    1.429    4.286    3.000    0.000    3.429 
#    0.000    2.857    3.143    0.000    0.000    0.000 
#    0.000    0.000    0.000    0.000    0.000    0.000 
#
# Total GULP energy -347212.069588 kJ/mol
# GULP energy per Si atom -12400.431057 kJ/mol
# Density = 1.979640 g / cm^3
# Si number density = 19.841562 Si / 1000 Ang^3
#
#
#
# Elastic Constant Matrix: (Units=GPa)
#
#
# Indices 1 2 3 4 5 6 
#
# 1 130.7090 38.8016 22.0860 0.0000 -11.9582 0.0000
# 2 38.8016 72.2117 28.9129 0.0000 7.1343 0.0000
# 3 22.0860 28.9129 71.4521 0.0000 -4.5895 0.0000
# 4 0.0000 0.0000 0.0000 22.8864 0.0000 5.5217
# 5 -11.9582 7.1343 -4.5895 0.0000 29.9883 0.0000
# 6 0.0000 0.0000 0.0000 5.5217 0.0000 25.6619
#
#
#
# Elastic Compliance Matrix: (Units=1/GPa)
#
#
# Indices 1 2 3 4 5 6 
#
# 1 0.009878 -0.005650 -0.000432 0.000000 0.005217 0.000000
# 2 -0.005650 0.020536 -0.007092 0.000000 -0.008224 0.000000
# 3 -0.000432 -0.007092 0.017266 0.000000 0.004157 0.000000
# 4 0.000000 0.000000 0.000000 0.046087 0.000000 -0.009916
# 5 0.005217 -0.008224 0.004157 0.000000 0.038020 0.000000
# 6 0.000000 0.000000 0.000000 -0.009916 0.000000 0.041102
#
#
# Mechanical properties :
#
#
# Convention : Reuss Voigt Hill
#
# Bulk Modulus (GPa) = 46.87748 50.44153 48.65951
# Shear Modulus (GPa) = 24.23109 28.01215 26.12162
#
# Velocity S-wave (km/s) = 3.49840 3.76146 3.63231
# Velocity P-wave (km/s) = 6.32421 6.65899 6.49375
#
# Compressibility (1/GPa) = 0.02133220
#
# Stress axis : x y z
#
# Youngs Moduli (GPa) = 101.23301 48.69442 57.91894
#
# Poissons Ratio (x) = 0.27514 0.02501
# Poissons Ratio (y) = 0.57201 0.41074
# Poissons Ratio (z) = 0.04372 0.34532
#
# Static dielectric constant tensor:
#      x y z
#    x 3.936090 0.000000 0.098230 
#    y 0.000000 3.293930 0.000000 
#    z 0.098230 0.000000 3.684160 
# 
# 
# High freq. dielectric constant tensor:
#      x y z
#    x 1.788150 0.000000 0.005570 
#    y 0.000000 1.737660 0.000000 
#    z 0.005570 0.000000 1.782780 
# 
# From -- ./inp_files/98262.got.cif
#   From: 2010.06.25/outbox.cif.g09.slc.cpg/sg15_50_cif.got.tgz:98262.got - 2010.06.28 07:06:18.
