data_PCOD8135894
_publ_section_title
;
Structure prediction by ZEFSAII (Michael W. Deem and Ramdas Pophale) SiO2 
 PCOD8135894
Probable space group: C 2/C
;
_chemical_formula_sum "Si O2"
_cell_formula_units_Z 40
_cell_length_a 11.991687
_cell_length_b 8.662848
_cell_length_c 22.191773
_cell_angle_alpha 90.000000
_cell_angle_beta 44.267528
_cell_angle_gamma 90.000000
_cell_volume 1609.141925
_symmetry_space_group_name_H-M "C 2/C"
_symmetry_group_IT_number 15
_symmetry_cell_setting 'monoclinic'
loop_
_space_group_symop_operation_xyz
x,y,z
-x,y,1/2-z
-x,-y,-z
x,-y,1/2+z
1/2+x,1/2+y,z
1/2-x,1/2+y,1/2-z
1/2-x,1/2-y,-z
1/2+x,1/2-y,1/2+z
loop_
_atom_site_type_symbol
_atom_site_label
_atom_site_fract_x
_atom_site_fract_y
_atom_site_fract_z
Si Si1 0.165982 0.378271 0.113973
Si Si2 0.505038 0.366376 0.949922
Si Si3 0.342888 0.252414 0.751894
Si Si4 0.216999 0.268344 0.583344
Si Si5 0.424277 0.563174 0.694953
O O1 0.175051 0.344526 0.181104
O O2 0.145085 0.561399 0.117172
O O3 0.003947 0.297965 0.151343
O O4 0.320502 0.306665 0.019078
O O5 0.630932 0.243415 0.930576
O O6 0.565046 0.447880 0.866448
O O7 0.500000 0.500000 0.000000
O O8 0.352280 0.433863 0.768388
O O9 0.192284 0.209069 0.768670
O O10 0.250000 0.250000 0.500000
O O11 0.090932 0.136260 0.652303
#
# Coordination Sequence:
#
# PCOD8135894 Si02
#       5
#     8   8   8   8   8
#     4  10  21  44  66  94 144 181 230 309 352 412
#     4  10  19  40  70  98 135 177 244 291 347 428
#     4  11  24  41  64  99 146 185 231 300 358 433
#     4  11  19  39  76  98 126 184 239 298 360 419
#     4  12  23  43  68 106 137 192 242 287 370 434
#
# _framework density 24.857969000000001
#
# number of rings (size 3 to 8) (size 9 to 14) (size 15 to 20)
#    0.000    1.200    8.000    1.200    0.000    0.800 
#    7.200    1.000    0.000    0.000    0.000    0.000 
#    0.000    0.000    0.000    0.000    0.000    0.000 
#
# Total GULP energy -247783.272571 kJ/mol
# GULP energy per Si atom -12389.163629 kJ/mol
# Density = 2.480139 g / cm^3
# Si number density = 24.857969 Si / 1000 Ang^3
#
#
#
# Elastic Constant Matrix: (Units=GPa)
#
#
# Indices 1 2 3 4 5 6 
#
# 1 117.5077 53.7540 34.8434 0.0000 -41.6584 0.0000
# 2 53.7540 168.2212 31.4939 0.0000 -24.0859 0.0000
# 3 34.8434 31.4939 73.7251 0.0000 -40.9349 0.0000
# 4 0.0000 0.0000 0.0000 32.9375 0.0000 -17.5209
# 5 -41.6584 -24.0859 -40.9349 0.0000 43.2447 0.0000
# 6 0.0000 0.0000 0.0000 -17.5209 0.0000 49.1366
#
#
#
# Elastic Compliance Matrix: (Units=1/GPa)
#
#
# Indices 1 2 3 4 5 6 
#
# 1 0.014246 -0.002958 0.002605 0.000000 0.014542 0.000000
# 2 -0.002958 0.007165 -0.002169 0.000000 -0.000912 0.000000
# 3 0.002605 -0.002169 0.029472 0.000000 0.029198 0.000000
# 4 0.000000 0.000000 0.000000 0.037467 0.000000 0.013360
# 5 0.014542 -0.000912 0.029198 0.000000 0.064263 0.000000
# 6 0.000000 0.000000 0.000000 0.013360 0.000000 0.025115
#
#
# Mechanical properties :
#
#
# Convention : Reuss Voigt Hill
#
# Bulk Modulus (GPa) = 21.81588 66.62630 44.22109
# Shear Modulus (GPa) = 25.24578 41.02128 33.13353
#
# Velocity S-wave (km/s) = 3.19031 4.06670 3.65487
# Velocity P-wave (km/s) = 4.72927 6.99369 5.96983
#
# Compressibility (1/GPa) = 0.04583817
#
# Stress axis : x y z
#
# Youngs Moduli (GPa) = 70.19492 139.56219 33.93098
#
# Poissons Ratio (x) = 0.41280 -0.08838
# Poissons Ratio (y) = 0.20762 0.07361
# Poissons Ratio (z) = -0.18284 0.30275
#
# Static dielectric constant tensor:
#      x y z
#    x 5.845550 0.000000 -3.206000 
#    y 0.000000 14.666400 0.000000 
#    z -3.206000 0.000000 7.246490 
# 
# 
# High freq. dielectric constant tensor:
#      x y z
#    x 2.000660 0.000000 -0.003840 
#    y 0.000000 1.985770 0.000000 
#    z -0.003840 0.000000 1.996480 
# 
# From -- ./inp_files/294702.got.cif
#   From: 2010.06.25/outbox.cif.g09.slc.cpg/sg15_148_cif.got.tgz:294702.got - 2010.06.28 07:06:18.
