data_PCOD8135830
_publ_section_title
;
Structure prediction by ZEFSAII (Michael W. Deem and Ramdas Pophale) SiO2 
 PCOD8135830
Probable space group: C 2/C
;
_chemical_formula_sum "Si O2"
_cell_formula_units_Z 32
_cell_length_a 17.993818
_cell_length_b 7.291659
_cell_length_c 18.628011
_cell_angle_alpha 90.000000
_cell_angle_beta 45.603795
_cell_angle_gamma 90.000000
_cell_volume 1746.344632
_symmetry_space_group_name_H-M "C 2/C"
_symmetry_group_IT_number 15
_symmetry_cell_setting 'monoclinic'
loop_
_space_group_symop_operation_xyz
x,y,z
-x,y,1/2-z
-x,-y,-z
x,-y,1/2+z
1/2+x,1/2+y,z
1/2-x,1/2+y,1/2-z
1/2-x,1/2-y,-z
1/2+x,1/2-y,1/2+z
loop_
_atom_site_type_symbol
_atom_site_label
_atom_site_fract_x
_atom_site_fract_y
_atom_site_fract_z
Si Si1 0.535160 0.521746 0.056997
Si Si2 0.764904 0.600193 0.430041
Si Si3 0.051349 0.628403 0.641636
Si Si4 0.439790 0.763889 0.720043
O O1 0.537437 0.726875 0.087180
O O2 0.450483 0.400043 0.156714
O O3 0.500000 0.500000 0.000000
O O4 0.652451 0.456149 0.980517
O O5 0.750000 0.750000 0.500000
O O6 0.829437 0.427780 0.419573
O O7 0.821390 0.690615 0.322356
O O8 0.000000 0.704066 0.750000
O O9 0.992937 0.447019 0.652812
O O10 0.500000 0.698255 0.750000
#
# Coordination Sequence:
#
# PCOD8135830 Si02
#       4
#     8   8   8   8
#     4  12  23  38  59  92 122 152 194 249 309 345
#     4  10  19  40  64  85 112 162 200 237 292 354
#     4   9  20  38  65  83 112 157 207 233 282 365
#     4   9  19  40  60  83 118 153 203 242 279 356
#
# _framework density 18.323989000000001
#
# number of rings (size 3 to 8) (size 9 to 14) (size 15 to 20)
#    0.000    2.500    5.000    1.500    0.000    1.000 
#    9.000    0.000    0.000    0.000    0.000    0.000 
#    0.000    0.000    0.000    0.000    0.000    0.000 
#
# Total GULP energy -198259.122923 kJ/mol
# GULP energy per Si atom -12391.195183 kJ/mol
# Density = 1.828228 g / cm^3
# Si number density = 18.323989 Si / 1000 Ang^3
#
#
#
# Elastic Constant Matrix: (Units=GPa)
#
#
# Indices 1 2 3 4 5 6 
#
# 1 103.7334 65.8725 52.0923 0.0004 12.0846 0.0001
# 2 65.8725 105.9156 62.8810 0.0021 18.0301 0.0005
# 3 52.0923 62.8810 101.6730 0.0008 1.3691 0.0003
# 4 0.0004 0.0021 0.0008 34.9839 -0.0002 2.0407
# 5 12.0846 18.0301 1.3691 -0.0002 33.5871 -0.0001
# 6 0.0001 0.0005 0.0003 2.0407 -0.0001 6.2801
#
#
#
# Elastic Compliance Matrix: (Units=1/GPa)
#
#
# Indices 1 2 3 4 5 6 
#
# 1 0.016699 -0.007980 -0.003599 0.000000 -0.001578 0.000000
# 2 -0.007980 0.020987 -0.008783 -0.000001 -0.008037 -0.000001
# 3 -0.003599 -0.008783 0.017040 0.000000 0.005315 0.000000
# 4 0.000000 -0.000001 0.000000 0.029137 0.000001 -0.009468
# 5 -0.001578 -0.008037 0.005315 0.000001 0.034439 0.000001
# 6 0.000000 -0.000001 0.000000 -0.009468 0.000001 0.162310
#
#
# Mechanical properties :
#
#
# Convention : Reuss Voigt Hill
#
# Bulk Modulus (GPa) = 71.42100 74.77928 73.10014
# Shear Modulus (GPa) = 15.33731 23.66862 19.50296
#
# Velocity S-wave (km/s) = 2.89625 3.59789 3.26596
# Velocity P-wave (km/s) = 7.08842 7.62613 7.36218
#
# Compressibility (1/GPa) = 0.01400148
#
# Stress axis : x y z
#
# Youngs Moduli (GPa) = 59.88444 47.64812 58.68693
#
# Poissons Ratio (x) = 0.38025 0.21120
# Poissons Ratio (y) = 0.47791 0.51543
# Poissons Ratio (z) = 0.21551 0.41848
#
# Static dielectric constant tensor:
#      x y z
#    x 2.985760 0.000000 0.110980 
#    y 0.000000 3.399870 0.000000 
#    z 0.110980 0.000000 3.572270 
# 
# 
# High freq. dielectric constant tensor:
#      x y z
#    x 1.678140 0.000000 -0.012250 
#    y 0.000000 1.712830 0.000000 
#    z -0.012250 0.000000 1.725510 
# 
# From -- ./inp_files/149852.got.cif
#   From: 2010.06.25/outbox.cif.g09.slc.cpg/sg15_75_cif.got.tgz:149852.got - 2010.06.28 07:06:18.
