data_PCOD8135678
_publ_section_title
;
Structure prediction by ZEFSAII (Michael W. Deem and Ramdas Pophale) SiO2 
 PCOD8135678
Probable space group: C 2/C
;
_chemical_formula_sum "Si O2"
_cell_formula_units_Z 56
_cell_length_a 21.642039
_cell_length_b 19.955963
_cell_length_c 8.853308
_cell_angle_alpha 90.000000
_cell_angle_beta 134.858669
_cell_angle_gamma 90.000000
_cell_volume 2710.379308
_symmetry_space_group_name_H-M "C 2/C"
_symmetry_group_IT_number 15
_symmetry_cell_setting 'monoclinic'
loop_
_space_group_symop_operation_xyz
x,y,z
-x,y,1/2-z
-x,-y,-z
x,-y,1/2+z
1/2+x,1/2+y,z
1/2-x,1/2+y,1/2-z
1/2-x,1/2-y,-z
1/2+x,1/2-y,1/2+z
loop_
_atom_site_type_symbol
_atom_site_label
_atom_site_fract_x
_atom_site_fract_y
_atom_site_fract_z
Si Si1 0.158031 0.335961 0.257537
Si Si2 0.421120 0.698976 0.416224
Si Si3 0.944289 0.546375 0.007130
Si Si4 0.886122 0.782237 0.206543
Si Si5 0.715885 0.152692 0.518189
Si Si6 0.228650 0.527782 0.344891
Si Si7 0.795797 0.913217 0.661838
O O1 0.131894 0.260105 0.251321
O O2 0.071477 0.382208 0.101072
O O3 0.218181 0.360345 0.498242
O O4 0.207756 0.346850 0.184290
O O5 0.522712 0.707051 0.548845
O O6 0.402954 0.703083 0.561685
O O7 0.386460 0.627272 0.296268
O O8 0.851541 0.509754 0.876221
O O9 0.000000 0.561895 0.250000
O O10 0.000000 0.500000 0.000000
O O11 0.849743 0.707096 0.167580
O O12 0.816556 0.833821 0.153235
O O13 0.691475 0.081068 0.402978
O O14 0.291074 0.474904 0.537943
O O15 0.287525 0.562780 0.319903
#
# Coordination Sequence:
#
# PCOD8135678 Si02
#       7
#     8   8   8   8   8   8   8
#     4  10  22  36  62  89 126 163 199 253 313 370
#     4  10  20  38  63  92 123 159 211 258 308 360
#     4  11  22  35  54  88 124 157 202 251 303 372
#     4   9  20  36  65  92 120 158 203 260 303 373
#     4  10  19  39  63  91 120 162 204 245 316 375
#     4  11  22  38  61  86 126 167 209 249 317 374
#     4  11  22  41  60  91 121 169 206 256 306 374
#
# _framework density 20.661314999999998
#
# number of rings (size 3 to 8) (size 9 to 14) (size 15 to 20)
#    0.000    1.714    1.429    4.714    6.000    0.000 
#    0.000    1.429    0.000    0.000    0.000    0.000 
#    0.000    0.000    0.000    0.000    0.000    0.000 
#
# Total GULP energy -347195.734958 kJ/mol
# GULP energy per Si atom -12399.847677 kJ/mol
# Density = 2.061429 g / cm^3
# Si number density = 20.661315 Si / 1000 Ang^3
#
#
#
# Elastic Constant Matrix: (Units=GPa)
#
#
# Indices 1 2 3 4 5 6 
#
# 1 74.6867 31.1021 28.9161 0.0000 19.3129 0.0000
# 2 31.1021 124.8895 52.7176 0.0000 15.5105 0.0000
# 3 28.9161 52.7176 91.9876 0.0000 16.7369 0.0000
# 4 0.0000 0.0000 0.0000 32.9364 0.0000 1.9257
# 5 19.3129 15.5105 16.7369 0.0000 27.3631 0.0000
# 6 0.0000 0.0000 0.0000 1.9257 0.0000 32.1647
#
#
#
# Elastic Compliance Matrix: (Units=1/GPa)
#
#
# Indices 1 2 3 4 5 6 
#
# 1 0.017808 -0.002122 -0.002604 0.000000 -0.009774 0.000000
# 2 -0.002122 0.010978 -0.005361 0.000000 -0.001446 0.000000
# 3 -0.002604 -0.005361 0.015612 0.000000 -0.004673 0.000000
# 4 0.000000 0.000000 0.000000 0.030468 0.000000 -0.001824
# 5 -0.009774 -0.001446 -0.004673 0.000000 0.047122 0.000000
# 6 0.000000 0.000000 0.000000 -0.001824 0.000000 0.031199
#
#
# Mechanical properties :
#
#
# Convention : Reuss Voigt Hill
#
# Bulk Modulus (GPa) = 41.28025 57.44839 49.36432
# Shear Modulus (GPa) = 27.55779 30.41469 28.98624
#
# Velocity S-wave (km/s) = 3.65607 3.84091 3.74963
# Velocity P-wave (km/s) = 6.15185 6.89458 6.53378
#
# Compressibility (1/GPa) = 0.02422466
#
# Stress axis : x y z
#
# Youngs Moduli (GPa) = 56.15345 91.08914 64.05233
#
# Poissons Ratio (x) = 0.19330 0.16676
# Poissons Ratio (y) = 0.11916 0.34341
# Poissons Ratio (z) = 0.14620 0.48837
#
# Static dielectric constant tensor:
#      x y z
#    x 3.558290 0.000000 0.245630 
#    y 0.000000 4.003600 0.000000 
#    z 0.245630 0.000000 3.670540 
# 
# 
# High freq. dielectric constant tensor:
#      x y z
#    x 1.785790 0.000000 0.002850 
#    y 0.000000 1.822290 0.000000 
#    z 0.002850 0.000000 1.799400 
# 
# From -- ./inp_files/57917.got.cif
#   From: 2010.06.25/outbox.cif.g09.slc.cpg/sg15_29_cif.got.tgz:57917.got - 2010.06.28 07:06:18.
