data_PCOD8135647
_publ_section_title
;
Structure prediction by ZEFSAII (Michael W. Deem and Ramdas Pophale) SiO2 
 PCOD8135647
Probable space group: C 2/C
;
_chemical_formula_sum "Si O2"
_cell_formula_units_Z 56
_cell_length_a 27.588567
_cell_length_b 14.893404
_cell_length_c 12.177093
_cell_angle_alpha 90.000000
_cell_angle_beta 142.956994
_cell_angle_gamma 90.000000
_cell_volume 3014.130235
_symmetry_space_group_name_H-M "C 2/C"
_symmetry_group_IT_number 15
_symmetry_cell_setting 'monoclinic'
loop_
_space_group_symop_operation_xyz
x,y,z
-x,y,1/2-z
-x,-y,-z
x,-y,1/2+z
1/2+x,1/2+y,z
1/2-x,1/2+y,1/2-z
1/2-x,1/2-y,-z
1/2+x,1/2-y,1/2+z
loop_
_atom_site_type_symbol
_atom_site_label
_atom_site_fract_x
_atom_site_fract_y
_atom_site_fract_z
Si Si1 0.556271 0.859061 0.755125
Si Si2 0.214324 0.252469 0.055735
Si Si3 0.248142 0.112239 0.692514
Si Si4 0.747386 0.413491 0.759084
Si Si5 0.905970 0.337062 0.349524
Si Si6 0.086580 0.438138 0.358011
Si Si7 0.315179 0.674092 0.137668
O O1 0.500000 0.825382 0.750000
O O2 0.498159 0.860703 0.544331
O O3 0.594096 0.956621 0.844486
O O4 0.624585 0.785459 0.870835
O O5 0.263334 0.316846 0.228608
O O6 0.212867 0.152868 0.104264
O O7 0.250000 0.250000 0.000000
O O8 0.341329 0.122786 0.820310
O O9 0.182394 0.125238 0.475934
O O10 0.223928 0.014995 0.691252
O O11 0.709898 0.392552 0.810502
O O12 0.844851 0.409192 0.931731
O O13 0.889440 0.384206 0.205600
O O14 0.896082 0.228623 0.317798
O O15 0.000000 0.412331 0.250000
O O16 0.250000 0.750000 0.000000
#
# Coordination Sequence:
#
# PCOD8135647 Si02
#       7
#     8   8   8   8   8   8   8
#     4  11  21  39  56  88 125 158 194 245 312 376
#     4  12  26  37  57  95 126 159 203 257 305 353
#     4  11  21  39  61  89 122 159 207 250 302 369
#     4  12  22  38  60  86 123 158 202 248 301 362
#     4  11  20  39  62  82 124 162 203 244 304 376
#     4  11  22  34  58  92 122 156 194 245 320 369
#     4  10  19  39  62  82 111 168 207 238 291 365
#
# _framework density 18.579156999999999
#
# number of rings (size 3 to 8) (size 9 to 14) (size 15 to 20)
#    0.000    0.857    8.571    1.286    6.000    0.000 
#    0.000    0.000    0.000    0.857    3.714    0.000 
#    0.000    0.000    0.000    0.000    0.000    0.000 
#
# Total GULP energy -347054.138914 kJ/mol
# GULP energy per Si atom -12394.790675 kJ/mol
# Density = 1.853687 g / cm^3
# Si number density = 18.579157 Si / 1000 Ang^3
#
#
#
# Elastic Constant Matrix: (Units=GPa)
#
#
# Indices 1 2 3 4 5 6 
#
# 1 95.5625 57.5378 29.0099 0.0000 -17.9943 0.0000
# 2 57.5378 116.9838 38.0656 0.0000 -8.0803 0.0000
# 3 29.0099 38.0656 67.6274 0.0000 -5.1637 0.0000
# 4 0.0000 0.0000 0.0000 35.7322 0.0000 -2.9538
# 5 -17.9943 -8.0803 -5.1637 0.0000 34.6581 0.0000
# 6 0.0000 0.0000 0.0000 -2.9538 0.0000 35.7338
#
#
#
# Elastic Compliance Matrix: (Units=1/GPa)
#
#
# Indices 1 2 3 4 5 6 
#
# 1 0.016682 -0.006834 -0.002802 0.000000 0.006650 0.000000
# 2 -0.006834 0.013351 -0.004670 0.000000 -0.001131 0.000000
# 3 -0.002802 -0.004670 0.018635 0.000000 0.000233 0.000000
# 4 0.000000 0.000000 0.000000 0.028178 0.000000 0.002329
# 5 0.006650 -0.001131 0.000233 0.000000 0.032077 0.000000
# 6 0.000000 0.000000 0.000000 0.002329 0.000000 0.028177
#
#
# Mechanical properties :
#
#
# Convention : Reuss Voigt Hill
#
# Bulk Modulus (GPa) = 49.85717 58.82226 54.33971
# Shear Modulus (GPa) = 29.00302 31.59552 30.29927
#
# Velocity S-wave (km/s) = 3.95530 4.12829 4.04272
# Velocity P-wave (km/s) = 6.91032 7.37922 7.14861
#
# Compressibility (1/GPa) = 0.02005730
#
# Stress axis : x y z
#
# Youngs Moduli (GPa) = 59.94597 74.90248 53.66285
#
# Poissons Ratio (x) = 0.51187 0.15034
# Poissons Ratio (y) = 0.40966 0.25059
# Poissons Ratio (z) = 0.16794 0.34977
#
# Static dielectric constant tensor:
#      x y z
#    x 3.269680 0.000000 -0.859810 
#    y 0.000000 3.825050 0.000000 
#    z -0.859810 0.000000 9.126190 
# 
# 
# High freq. dielectric constant tensor:
#      x y z
#    x 1.705210 0.000000 -0.026640 
#    y 0.000000 1.718010 0.000000 
#    z -0.026640 0.000000 1.723940 
# 
# From -- ./inp_files/123348.got.cif
#   From: 2010.06.25/outbox.cif.g09.slc.cpg/sg15_62_cif.got.tgz:123348.got - 2010.06.28 07:06:18.
