data_PCOD8135267
_publ_section_title
;
Structure prediction by ZEFSAII (Michael W. Deem and Ramdas Pophale) SiO2 
 PCOD8135267
Probable space group: C 2/C
;
_chemical_formula_sum "Si O2"
_cell_formula_units_Z 40
_cell_length_a 26.284637
_cell_length_b 9.635287
_cell_length_c 10.180117
_cell_angle_alpha 90.000000
_cell_angle_beta 142.993503
_cell_angle_gamma 90.000000
_cell_volume 1551.842986
_symmetry_space_group_name_H-M "C 2/C"
_symmetry_group_IT_number 15
_symmetry_cell_setting 'monoclinic'
loop_
_space_group_symop_operation_xyz
x,y,z
-x,y,1/2-z
-x,-y,-z
x,-y,1/2+z
1/2+x,1/2+y,z
1/2-x,1/2+y,1/2-z
1/2-x,1/2-y,-z
1/2+x,1/2-y,1/2+z
loop_
_atom_site_type_symbol
_atom_site_label
_atom_site_fract_x
_atom_site_fract_y
_atom_site_fract_z
Si Si1 0.376901 0.392296 0.175943
Si Si2 0.719807 0.030327 0.963427
Si Si3 0.040590 0.827994 0.648138
Si Si4 0.343302 0.739826 0.341198
Si Si5 0.948008 0.472432 0.264385
O O1 0.439635 0.342507 0.421242
O O2 0.414478 0.537482 0.193332
O O3 0.284849 0.412542 0.052002
O O4 0.368477 0.276165 0.045624
O O5 0.679374 0.102171 0.748697
O O6 0.645352 0.963653 0.900963
O O7 0.762371 0.145572 0.142950
O O8 0.076885 0.812732 0.576651
O O9 0.061331 0.693800 0.779313
O O10 0.000000 0.541188 0.250000
O O11 0.000000 0.500000 0.500000
#
# Coordination Sequence:
#
# PCOD8135267 Si02
#       5
#     8   8   8   8   8
#     4  10  19  37  71  96 134 164 217 276 336 391
#     4   9  21  39  59  96 128 172 216 267 332 392
#     4   9  21  40  64 102 124 168 226 271 330 392
#     4   9  18  37  64  91 133 172 207 271 332 391
#     4  11  26  45  67  90 134 181 227 271 330 400
#
# _framework density 25.775804999999998
#
# number of rings (size 3 to 8) (size 9 to 14) (size 15 to 20)
#    0.000    2.400    0.000    1.800    2.800    8.000 
#    0.000    1.000    4.400    0.000    0.000    0.000 
#    0.000    0.000    0.000    0.000    0.000    0.000 
#
# Total GULP energy -247906.010353 kJ/mol
# GULP energy per Si atom -12395.300518 kJ/mol
# Density = 2.571714 g / cm^3
# Si number density = 25.775805 Si / 1000 Ang^3
#
#
#
# Elastic Constant Matrix: (Units=GPa)
#
#
# Indices 1 2 3 4 5 6 
#
# 1 186.1157 15.2390 72.4507 0.0000 38.0093 0.0000
# 2 15.2390 53.8104 8.6624 0.0000 3.6293 0.0000
# 3 72.4507 8.6624 102.9195 0.0000 29.2139 0.0000
# 4 0.0000 0.0000 0.0000 33.9475 0.0000 -4.7562
# 5 38.0093 3.6293 29.2139 0.0000 48.2548 0.0000
# 6 0.0000 0.0000 0.0000 -4.7562 0.0000 25.0868
#
#
#
# Elastic Compliance Matrix: (Units=1/GPa)
#
#
# Indices 1 2 3 4 5 6 
#
# 1 0.007931 -0.001290 -0.004502 0.000000 -0.003424 0.000000
# 2 -0.001290 0.019061 -0.000697 0.000000 0.000005 0.000000
# 3 -0.004502 -0.000697 0.014397 0.000000 -0.005117 0.000000
# 4 0.000000 0.000000 0.000000 0.030261 0.000000 0.005737
# 5 -0.003424 0.000005 -0.005117 0.000000 0.026518 0.000000
# 6 0.000000 0.000000 0.000000 0.005737 0.000000 0.040949
#
#
# Mechanical properties :
#
#
# Convention : Reuss Voigt Hill
#
# Bulk Modulus (GPa) = 35.20038 59.50552 47.35295
# Shear Modulus (GPa) = 30.94706 37.89072 34.41889
#
# Velocity S-wave (km/s) = 3.46876 3.83823 3.65816
# Velocity P-wave (km/s) = 5.45244 6.54054 6.02112
#
# Compressibility (1/GPa) = 0.02840879
#
# Stress axis : x y z
#
# Youngs Moduli (GPa) = 126.09502 52.46283 69.45921
#
# Poissons Ratio (x) = 0.06769 0.31272
# Poissons Ratio (y) = 0.16269 0.04844
# Poissons Ratio (z) = 0.56771 0.03659
#
# Static dielectric constant tensor:
#      x y z
#    x 4.699720 0.000000 0.611780 
#    y 0.000000 5.117660 0.000000 
#    z 0.611780 0.000000 4.784520 
# 
# 
# High freq. dielectric constant tensor:
#      x y z
#    x 2.014950 0.000000 0.025310 
#    y 0.000000 2.023180 0.000000 
#    z 0.025310 0.000000 2.030210 
# 
# From -- ./inp_files/126515.got.cif
#   From: 2010.06.25/outbox.cif.g09.slc.cpg/sg15_64_cif.got.tgz:126515.got - 2010.06.28 07:06:18.
