data_PCOD8135173
_publ_section_title
;
Structure prediction by ZEFSAII (Michael W. Deem and Ramdas Pophale) SiO2 
 PCOD8135173
Probable space group: C 2/C
;
_chemical_formula_sum "Si O2"
_cell_formula_units_Z 56
_cell_length_a 19.066191
_cell_length_b 8.629431
_cell_length_c 21.751213
_cell_angle_alpha 90.000000
_cell_angle_beta 127.920074
_cell_angle_gamma 90.000000
_cell_volume 2823.152709
_symmetry_space_group_name_H-M "C 2/C"
_symmetry_group_IT_number 15
_symmetry_cell_setting 'monoclinic'
loop_
_space_group_symop_operation_xyz
x,y,z
-x,y,1/2-z
-x,-y,-z
x,-y,1/2+z
1/2+x,1/2+y,z
1/2-x,1/2+y,1/2-z
1/2-x,1/2-y,-z
1/2+x,1/2-y,1/2+z
loop_
_atom_site_type_symbol
_atom_site_label
_atom_site_fract_x
_atom_site_fract_y
_atom_site_fract_z
Si Si1 0.667454 0.386260 0.989139
Si Si2 0.794372 0.169529 0.659523
Si Si3 0.942074 0.030321 0.664812
Si Si4 0.521965 0.138814 0.467791
Si Si5 0.139204 0.897033 0.580981
Si Si6 0.905256 0.135272 0.838156
Si Si7 0.318270 0.038384 0.486325
O O1 0.613164 0.390476 0.895594
O O2 0.663421 0.218566 0.018356
O O3 0.621790 0.497198 0.012953
O O4 0.764567 0.454779 0.022292
O O5 0.880232 0.168007 0.660402
O O6 0.739177 0.328989 0.629747
O O7 0.825003 0.150057 0.746595
O O8 0.733700 0.028394 0.601443
O O9 0.000000 0.952569 0.750000
O O10 0.001964 0.103833 0.644877
O O11 0.564704 0.266090 0.536118
O O12 0.430979 0.205573 0.388109
O O13 0.500000 0.000000 0.500000
O O14 0.593844 0.069042 0.457166
O O15 0.125147 0.994392 0.635086
#
# Coordination Sequence:
#
# PCOD8135173 Si02
#       7
#     8   8   8   8   8   8   8
#     4  10  19  37  64  86 117 154 203 237 299 358
#     4   9  22  40  58  88 119 162 198 246 298 355
#     4   9  19  36  62  86 117 154 200 245 299 354
#     4  11  23  36  56  88 121 150 198 251 297 348
#     4  11  23  36  61  87 114 158 201 237 295 365
#     4  11  22  38  61  87 121 159 198 250 300 353
#     4   9  21  37  60  88 116 155 198 246 290 357
#
# _framework density 19.835978999999998
#
# number of rings (size 3 to 8) (size 9 to 14) (size 15 to 20)
#    0.000    2.000    1.429    1.286    4.000    5.143 
#    0.000    0.000    6.286    0.000    0.000    0.000 
#    0.000    0.000    0.000    0.000    0.000    0.000 
#
# Total GULP energy -346873.931900 kJ/mol
# GULP energy per Si atom -12388.354711 kJ/mol
# Density = 1.979083 g / cm^3
# Si number density = 19.835979 Si / 1000 Ang^3
#
#
#
# Elastic Constant Matrix: (Units=GPa)
#
#
# Indices 1 2 3 4 5 6 
#
# 1 77.7742 50.8065 40.6844 0.0000 -2.7757 0.0000
# 2 50.8065 115.8760 57.7967 0.0000 -8.7507 0.0000
# 3 40.6844 57.7967 111.2010 0.0000 -6.3351 0.0000
# 4 0.0000 0.0000 0.0000 21.6727 0.0000 -1.5580
# 5 -2.7757 -8.7507 -6.3351 0.0000 23.8271 0.0000
# 6 0.0000 0.0000 0.0000 -1.5580 0.0000 39.5925
#
#
#
# Elastic Compliance Matrix: (Units=1/GPa)
#
#
# Indices 1 2 3 4 5 6 
#
# 1 0.019029 -0.006650 -0.003573 0.000000 -0.001175 0.000000
# 2 -0.006650 0.014149 -0.004741 0.000000 0.003161 0.000000
# 3 -0.003573 -0.004741 0.012835 0.000000 0.001255 0.000000
# 4 0.000000 0.000000 0.000000 0.046272 0.000000 0.001821
# 5 -0.001175 0.003161 0.001255 0.000000 0.043327 0.000000
# 6 0.000000 0.000000 0.000000 0.001821 0.000000 0.025329
#
#
# Mechanical properties :
#
#
# Convention : Reuss Voigt Hill
#
# Bulk Modulus (GPa) = 62.16494 67.04741 64.60617
# Shear Modulus (GPa) = 25.48030 27.38937 26.43484
#
# Velocity S-wave (km/s) = 3.58795 3.71993 3.65454
# Velocity P-wave (km/s) = 6.96936 7.23359 7.10271
#
# Compressibility (1/GPa) = 0.01608624
#
# Stress axis : x y z
#
# Youngs Moduli (GPa) = 52.55173 70.67591 77.90986
#
# Poissons Ratio (x) = 0.47001 0.27833
# Poissons Ratio (y) = 0.34948 0.36936
# Poissons Ratio (z) = 0.18774 0.33506
#
# Static dielectric constant tensor:
#      x y z
#    x 3.937700 0.000000 0.128560 
#    y 0.000000 3.550710 0.000000 
#    z 0.128560 0.000000 3.697400 
# 
# 
# High freq. dielectric constant tensor:
#      x y z
#    x 1.788160 0.000000 0.002420 
#    y 0.000000 1.758000 0.000000 
#    z 0.002420 0.000000 1.765910 
# 
# From -- ./inp_files/251978.got.cif
#   From: 2010.06.25/outbox.cif.g09.slc.cpg/sg15_126_cif.got.tgz:251978.got - 2010.06.28 07:06:18.
