data_PCOD8135862
_publ_section_title
;
Structure prediction by ZEFSAII (Michael W. Deem and Ramdas Pophale) SiO2 
 PCOD8135862
Probable space group: C 2/C
;
_chemical_formula_sum "Si O2"
_cell_formula_units_Z 48
_cell_length_a 17.006907
_cell_length_b 15.774427
_cell_length_c 9.239735
_cell_angle_alpha 90.000000
_cell_angle_beta 123.263650
_cell_angle_gamma 90.000000
_cell_volume 2072.647754
_symmetry_space_group_name_H-M "C 2/C"
_symmetry_group_IT_number 15
_symmetry_cell_setting 'monoclinic'
loop_
_space_group_symop_operation_xyz
x,y,z
-x,y,1/2-z
-x,-y,-z
x,-y,1/2+z
1/2+x,1/2+y,z
1/2-x,1/2+y,1/2-z
1/2-x,1/2-y,-z
1/2+x,1/2-y,1/2+z
loop_
_atom_site_type_symbol
_atom_site_label
_atom_site_fract_x
_atom_site_fract_y
_atom_site_fract_z
Si Si1 0.373119 0.211837 0.373230
Si Si2 0.685829 0.076145 0.696288
Si Si3 0.000000 0.984691 0.250000
Si Si4 0.316163 0.258481 0.928863
Si Si5 0.098685 0.439990 0.407313
Si Si6 0.604943 0.591648 0.590527
Si Si7 0.500000 0.252157 0.250000
O O1 0.258849 0.191987 0.250262
O O2 0.415454 0.152642 0.538164
O O3 0.390760 0.308671 0.437358
O O4 0.432374 0.194947 0.284426
O O5 0.654793 0.168709 0.610819
O O6 0.673967 0.066719 0.855870
O O7 0.793192 0.055905 0.770093
O O8 0.625859 0.005468 0.557450
O O9 0.951330 0.922900 0.317165
O O10 0.067583 0.045869 0.409645
O O11 0.250000 0.250000 0.000000
O O12 0.418041 0.303324 0.071065
O O13 0.000000 0.472316 0.250000
#
# Coordination Sequence:
#
# PCOD8135862 Si02
#       7
#     8   8   4   8   8   8   4
#     4  10  23  42  65 101 135 177 231 281 339 410
#     4  11  25  44  66  99 137 180 229 280 349 399
#     4  10  21  42  70 103 126 178 224 280 345 404
#     4   9  21  39  67  95 132 174 225 276 338 401
#     4  12  27  44  69 101 136 185 230 281 343 409
#     4  10  22  43  68  98 137 172 223 282 340 407
#     4  10  19  40  66  99 128 178 222 276 339 398
#
# _framework density 23.158783
#
# number of rings (size 3 to 8) (size 9 to 14) (size 15 to 20)
#    0.000    1.667    0.000    3.000    7.000    2.667 
#   12.000    0.000    0.000    0.000    0.000    0.000 
#    0.000    0.000    0.000    0.000    0.000    0.000 
#
# Total GULP energy -297341.693151 kJ/mol
# GULP energy per Si atom -12389.237215 kJ/mol
# Density = 2.310607 g / cm^3
# Si number density = 23.158783 Si / 1000 Ang^3
#
#
#
# Elastic Constant Matrix: (Units=GPa)
#
#
# Indices 1 2 3 4 5 6 
#
# 1 121.0248 28.7594 42.0599 0.0000 19.2399 0.0000
# 2 28.7594 77.1790 41.9099 0.0000 -3.6245 0.0000
# 3 42.0599 41.9099 109.7684 0.0000 13.4400 0.0000
# 4 0.0000 0.0000 0.0000 14.5194 0.0000 -8.2430
# 5 19.2399 -3.6245 13.4400 0.0000 58.7173 0.0000
# 6 0.0000 0.0000 0.0000 -8.2430 0.0000 24.6815
#
#
#
# Elastic Compliance Matrix: (Units=1/GPa)
#
#
# Indices 1 2 3 4 5 6 
#
# 1 0.010231 -0.002541 -0.002593 0.000000 -0.002916 0.000000
# 2 -0.002541 0.017344 -0.006051 0.000000 0.003288 0.000000
# 3 -0.002593 -0.006051 0.012712 0.000000 -0.002434 0.000000
# 4 0.000000 0.000000 0.000000 0.084988 0.000000 0.028384
# 5 -0.002916 0.003288 -0.002434 0.000000 0.018746 0.000000
# 6 0.000000 0.000000 0.000000 0.028384 0.000000 0.049996
#
#
# Mechanical properties :
#
#
# Convention : Reuss Voigt Hill
#
# Bulk Modulus (GPa) = 55.81371 59.27006 57.54189
# Shear Modulus (GPa) = 22.48609 32.59983 27.54296
#
# Velocity S-wave (km/s) = 3.11939 3.75596 3.45238
# Velocity P-wave (km/s) = 6.09319 6.66769 6.38690
#
# Compressibility (1/GPa) = 0.01791675
#
# Stress axis : x y z
#
# Youngs Moduli (GPa) = 97.73836 57.65654 78.66680
#
# Poissons Ratio (x) = 0.14653 0.20398
# Poissons Ratio (y) = 0.24839 0.47600
# Poissons Ratio (z) = 0.25344 0.34887
#
# Static dielectric constant tensor:
#      x y z
#    x 4.514890 0.000000 0.605360 
#    y 0.000000 3.869340 0.000000 
#    z 0.605360 0.000000 3.898500 
# 
# 
# High freq. dielectric constant tensor:
#      x y z
#    x 1.928300 0.000000 0.012400 
#    y 0.000000 1.894770 0.000000 
#    z 0.012400 0.000000 1.930660 
# 
# From -- ./inp_files/48763.got.cif
#   From: 2010.06.25/outbox.cif.g09.slc.cpg/sg15_25_cif.got.tgz:48763.got - 2010.06.28 07:06:18.
