data_PCOD8135182
_publ_section_title
;
Structure prediction by ZEFSAII (Michael W. Deem and Ramdas Pophale) SiO2 
 PCOD8135182
Probable space group: C 2/C
;
_chemical_formula_sum "Si O2"
_cell_formula_units_Z 48
_cell_length_a 14.705918
_cell_length_b 33.696696
_cell_length_c 8.480710
_cell_angle_alpha 90.000000
_cell_angle_beta 35.711893
_cell_angle_gamma 90.000000
_cell_volume 2453.062599
_symmetry_space_group_name_H-M "C 2/C"
_symmetry_group_IT_number 15
_symmetry_cell_setting 'monoclinic'
loop_
_space_group_symop_operation_xyz
x,y,z
-x,y,1/2-z
-x,-y,-z
x,-y,1/2+z
1/2+x,1/2+y,z
1/2-x,1/2+y,1/2-z
1/2-x,1/2-y,-z
1/2+x,1/2-y,1/2+z
loop_
_atom_site_type_symbol
_atom_site_label
_atom_site_fract_x
_atom_site_fract_y
_atom_site_fract_z
Si Si1 0.029700 0.043340 0.023701
Si Si2 0.661896 0.250736 0.962518
Si Si3 0.681225 0.911039 0.499240
Si Si4 0.284663 0.329085 0.194670
Si Si5 0.359230 0.320580 0.730039
Si Si6 0.352855 0.603668 0.059631
O O1 0.000000 0.045198 0.250000
O O2 0.903445 0.071510 0.117934
O O3 0.208271 0.056193 0.738980
O O4 0.000000 0.000000 0.000000
O O5 0.662748 0.206091 0.897381
O O6 0.713196 0.280774 0.748643
O O7 0.500000 0.266723 0.250000
O O8 0.750000 0.250000 0.000000
O O9 0.714445 0.869190 0.366500
O O10 0.718260 0.911646 0.633522
O O11 0.500000 0.922965 0.750000
O O12 0.296298 0.329770 0.991152
O O13 0.452555 0.319625 0.034641
O O14 0.290128 0.356854 0.728617
O O15 0.500000 0.616116 0.750000
#
# Coordination Sequence:
#
# PCOD8135182 Si02
#       6
#     8   8   8   8   8   8
#     4  11  22  42  70 100 128 169 216 250 306 389
#     4  12  23  38  56  81 117 160 212 266 318 371
#     4  11  23  41  65  98 132 164 208 267 320 368
#     4  11  22  38  60  87 124 162 212 263 322 378
#     4  11  21  38  60  87 118 166 216 261 313 387
#     4  10  19  37  64  89 122 166 210 251 309 386
#
# _framework density 19.567378000000001
#
# number of rings (size 3 to 8) (size 9 to 14) (size 15 to 20)
#    0.000    1.000    5.000    5.000    0.000    0.000 
#    0.000    8.333    0.000    0.000    0.000    0.000 
#    0.000    0.000    0.000    0.000    0.000    0.000 
#
# Total GULP energy -297429.980090 kJ/mol
# GULP energy per Si atom -12392.915837 kJ/mol
# Density = 1.952284 g / cm^3
# Si number density = 19.567378 Si / 1000 Ang^3
#
#
#
# Elastic Constant Matrix: (Units=GPa)
#
#
# Indices 1 2 3 4 5 6 
#
# 1 150.6552 47.4199 67.6275 0.0000 14.7283 0.0000
# 2 47.4199 147.6283 50.3322 0.0000 13.3693 0.0000
# 3 67.6275 50.3322 88.7596 0.0000 7.8635 0.0000
# 4 0.0000 0.0000 0.0000 30.5809 0.0000 4.8707
# 5 14.7283 13.3693 7.8635 0.0000 35.9095 0.0000
# 6 0.0000 0.0000 0.0000 4.8707 0.0000 36.9466
#
#
#
# Elastic Compliance Matrix: (Units=1/GPa)
#
#
# Indices 1 2 3 4 5 6 
#
# 1 0.010356 -0.000608 -0.007332 0.000000 -0.002416 0.000000
# 2 -0.000608 0.008595 -0.004231 0.000000 -0.002024 0.000000
# 3 -0.007332 -0.004231 0.019219 0.000000 0.000374 0.000000
# 4 0.000000 0.000000 0.000000 0.033401 0.000000 -0.004403
# 5 -0.002416 -0.002024 0.000374 0.000000 0.029510 0.000000
# 6 0.000000 0.000000 0.000000 -0.004403 0.000000 0.027647
#
#
# Mechanical properties :
#
#
# Convention : Reuss Voigt Hill
#
# Bulk Modulus (GPa) = 72.31779 79.75582 76.03680
# Shear Modulus (GPa) = 31.70966 35.46496 33.58731
#
# Velocity S-wave (km/s) = 4.02996 4.26191 4.14756
# Velocity P-wave (km/s) = 7.66111 8.06639 7.86636
#
# Compressibility (1/GPa) = 0.01382786
#
# Stress axis : x y z
#
# Youngs Moduli (GPa) = 96.55799 116.34684 52.03187
#
# Poissons Ratio (x) = 0.07075 0.38149
# Poissons Ratio (y) = 0.05872 0.22016
# Poissons Ratio (z) = 0.70796 0.49229
#
# Static dielectric constant tensor:
#      x y z
#    x 3.883240 0.000000 -0.708240 
#    y 0.000000 5.331670 0.000000 
#    z -0.708240 0.000000 0.611100 
# 
# 
# High freq. dielectric constant tensor:
#      x y z
#    x 1.776780 0.000000 0.024450 
#    y 0.000000 1.764550 0.000000 
#    z 0.024450 0.000000 1.747410 
# 
# From -- ./inp_files/44420.got.cif
#   From: 2010.06.25/outbox.cif.g09.slc.cpg/sg15_23_cif.got.tgz:44420.got - 2010.06.28 07:06:18.
