data_PCOD8135876
_publ_section_title
;
Structure prediction by ZEFSAII (Michael W. Deem and Ramdas Pophale) SiO2 
 PCOD8135876
Probable space group: C 2/C
;
_chemical_formula_sum "Si O2"
_cell_formula_units_Z 36
_cell_length_a 8.686044
_cell_length_b 24.048197
_cell_length_c 9.200421
_cell_angle_alpha 90.000000
_cell_angle_beta 71.806035
_cell_angle_gamma 90.000000
_cell_volume 1825.736560
_symmetry_space_group_name_H-M "C 2/C"
_symmetry_group_IT_number 15
_symmetry_cell_setting 'monoclinic'
loop_
_space_group_symop_operation_xyz
x,y,z
-x,y,1/2-z
-x,-y,-z
x,-y,1/2+z
1/2+x,1/2+y,z
1/2-x,1/2+y,1/2-z
1/2-x,1/2-y,-z
1/2+x,1/2-y,1/2+z
loop_
_atom_site_type_symbol
_atom_site_label
_atom_site_fract_x
_atom_site_fract_y
_atom_site_fract_z
Si Si1 0.500000 0.373482 0.750000
Si Si2 0.000000 0.344914 0.750000
Si Si3 0.692582 0.808890 0.958872
Si Si4 0.343932 0.974326 0.121898
Si Si5 0.773316 0.933487 0.623498
Si Si6 0.000000 0.621184 0.750000
O O1 0.351695 0.338190 0.851917
O O2 0.444591 0.410568 0.629000
O O3 0.936554 0.305694 0.636500
O O4 0.856930 0.384013 0.850542
O O5 0.750000 0.750000 0.000000
O O6 0.613131 0.841349 0.115516
O O7 0.382417 0.916900 0.189777
O O8 0.282250 0.019775 0.249447
O O9 0.207255 0.960974 0.040930
O O10 0.500000 0.000000 0.000000
#
# Coordination Sequence:
#
# PCOD8135876 Si02
#       6
#     4   4   8   8   8   4
#     4  10  25  44  62  94 142 160 201 284 334 352
#     4  10  19  40  68  86 124 172 209 252 318 392
#     4  11  24  46  68  93 122 169 223 276 320 370
#     4  12  19  35  64  96 126 170 217 244 301 407
#     4  11  21  37  62  92 130 170 204 251 318 384
#     4  12  22  40  70  96 120 174 226 254 302 406
#
# _framework density 19.718067999999999
#
# number of rings (size 3 to 8) (size 9 to 14) (size 15 to 20)
#    0.000    0.889    6.667    2.000    0.000    0.889 
#    4.000    3.333    0.000    0.000    0.000    0.000 
#    0.000    0.000    0.000    0.000    0.000    0.000 
#
# Total GULP energy -223169.642856 kJ/mol
# GULP energy per Si atom -12398.313492 kJ/mol
# Density = 1.967319 g / cm^3
# Si number density = 19.718068 Si / 1000 Ang^3
#
#
#
# Elastic Constant Matrix: (Units=GPa)
#
#
# Indices 1 2 3 4 5 6 
#
# 1 129.9500 63.0239 63.4003 0.0000 34.5507 0.0000
# 2 63.0239 127.0524 63.2308 0.0000 24.1935 0.0000
# 3 63.4003 63.2308 132.2260 0.0000 26.3118 0.0000
# 4 0.0000 0.0000 0.0000 39.9408 0.0000 8.8656
# 5 34.5507 24.1935 26.3118 0.0000 47.9761 0.0000
# 6 0.0000 0.0000 0.0000 8.8656 0.0000 26.7933
#
#
#
# Elastic Compliance Matrix: (Units=1/GPa)
#
#
# Indices 1 2 3 4 5 6 
#
# 1 0.012398 -0.003541 -0.003177 0.000000 -0.005401 0.000000
# 2 -0.003541 0.011688 -0.003621 0.000000 -0.001358 0.000000
# 3 -0.003177 -0.003621 0.011224 0.000000 -0.002042 0.000000
# 4 0.000000 0.000000 0.000000 0.027022 0.000000 -0.008941
# 5 -0.005401 -0.001358 -0.002042 0.000000 0.026538 0.000000
# 6 0.000000 0.000000 0.000000 -0.008941 0.000000 0.040281
#
#
# Mechanical properties :
#
#
# Convention : Reuss Voigt Hill
#
# Bulk Modulus (GPa) = 68.33987 85.39317 76.86652
# Shear Modulus (GPa) = 32.31925 36.24693 34.28309
#
# Velocity S-wave (km/s) = 4.05293 4.29214 4.17425
# Velocity P-wave (km/s) = 7.52565 8.24405 7.89303
#
# Compressibility (1/GPa) = 0.01463275
#
# Stress axis : x y z
#
# Youngs Moduli (GPa) = 80.65542 85.55852 89.09432
#
# Poissons Ratio (x) = 0.30293 0.28305
# Poissons Ratio (y) = 0.28557 0.32263
# Poissons Ratio (z) = 0.25624 0.30983
#
# Static dielectric constant tensor:
#      x y z
#    x 4.507780 0.000000 0.484600 
#    y 0.000000 3.853000 0.000000 
#    z 0.484600 0.000000 3.844490 
# 
# 
# High freq. dielectric constant tensor:
#      x y z
#    x 1.771560 0.000000 0.022880 
#    y 0.000000 1.766080 0.000000 
#    z 0.022880 0.000000 1.776480 
# 
# From -- ./inp_files/23120.got.cif
#   From: 2010.06.25/outbox.cif.g09.slc.cpg/sg15_12_cif.got.tgz:23120.got - 2010.06.28 07:06:18.
