data_PCOD8135392
_publ_section_title
;
Structure prediction by ZEFSAII (Michael W. Deem and Ramdas Pophale) SiO2 
 PCOD8135392
Probable space group: C 2/C
;
_chemical_formula_sum "Si O2"
_cell_formula_units_Z 56
_cell_length_a 13.677099
_cell_length_b 13.208162
_cell_length_c 18.010322
_cell_angle_alpha 90.000000
_cell_angle_beta 62.635507
_cell_angle_gamma 90.000000
_cell_volume 2889.481539
_symmetry_space_group_name_H-M "C 2/C"
_symmetry_group_IT_number 15
_symmetry_cell_setting 'monoclinic'
loop_
_space_group_symop_operation_xyz
x,y,z
-x,y,1/2-z
-x,-y,-z
x,-y,1/2+z
1/2+x,1/2+y,z
1/2-x,1/2+y,1/2-z
1/2-x,1/2-y,-z
1/2+x,1/2-y,1/2+z
loop_
_atom_site_type_symbol
_atom_site_label
_atom_site_fract_x
_atom_site_fract_y
_atom_site_fract_z
Si Si1 0.766867 0.525372 0.418987
Si Si2 0.807622 0.052610 0.837261
Si Si3 0.112055 0.548384 0.485099
Si Si4 0.458292 0.727779 0.503165
Si Si5 0.566155 0.535233 0.080286
Si Si6 0.857509 0.082586 0.648714
Si Si7 0.780000 0.758726 0.573675
O O1 0.864766 0.495064 0.440333
O O2 0.656024 0.531676 0.506440
O O3 0.754297 0.441836 0.358184
O O4 0.776457 0.636493 0.378241
O O5 0.832815 0.069877 0.742808
O O6 0.783830 0.167362 0.866889
O O7 0.911240 0.995517 0.841141
O O8 0.702771 0.982235 0.892166
O O9 0.105337 0.668911 0.491470
O O10 0.000000 0.500000 0.500000
O O11 0.423004 0.653001 0.447386
O O12 0.412102 0.687137 0.599433
O O13 0.588932 0.746931 0.458406
O O14 0.445285 0.503935 0.096542
O O15 0.750000 0.750000 0.500000
#
# Coordination Sequence:
#
# PCOD8135392 Si02
#       7
#     8   8   8   8   8   8   8
#     4  10  20  36  64  85 116 160 200 245 295 362
#     4  11  24  35  62  91 127 152 199 258 308 350
#     4  11  22  40  60  89 119 161 202 243 295 369
#     4  11  21  38  67  85 119 161 208 243 297 366
#     4  10  19  38  61  89 112 159 203 246 291 359
#     4  11  21  38  59  95 123 149 202 261 305 345
#     4  12  18  37  63  91 111 163 213 240 289 362
#
# _framework density 19.380638999999999
#
# number of rings (size 3 to 8) (size 9 to 14) (size 15 to 20)
#    0.000    1.143    7.143    1.286    0.000    6.286 
#    0.000    0.714    0.000    3.429    0.000    0.000 
#    0.000    0.000    0.000    0.000    0.000    0.000 
#
# Total GULP energy -346865.621472 kJ/mol
# GULP energy per Si atom -12388.057910 kJ/mol
# Density = 1.933653 g / cm^3
# Si number density = 19.380639 Si / 1000 Ang^3
#
#
#
# Elastic Constant Matrix: (Units=GPa)
#
#
# Indices 1 2 3 4 5 6 
#
# 1 108.9314 38.5052 25.0045 0.0000 19.3913 0.0000
# 2 38.5052 147.5980 30.4462 0.0000 4.4032 0.0000
# 3 25.0045 30.4462 68.7346 0.0000 27.2032 0.0000
# 4 0.0000 0.0000 0.0000 14.4909 0.0000 1.4096
# 5 19.3913 4.4032 27.2032 0.0000 23.5237 0.0000
# 6 0.0000 0.0000 0.0000 1.4096 0.0000 34.5408
#
#
#
# Elastic Compliance Matrix: (Units=1/GPa)
#
#
# Indices 1 2 3 4 5 6 
#
# 1 0.011863 -0.003033 0.001242 0.000000 -0.010647 0.000000
# 2 -0.003033 0.008496 -0.005569 0.000000 0.007350 0.000000
# 3 0.001242 -0.005569 0.030528 0.000000 -0.035285 0.000000
# 4 0.000000 0.000000 0.000000 0.069284 0.000000 -0.002827
# 5 -0.010647 0.007350 -0.035285 0.000000 0.090715 0.000000
# 6 0.000000 0.000000 0.000000 -0.002827 0.000000 0.029067
#
#
# Mechanical properties :
#
#
# Convention : Reuss Voigt Hill
#
# Bulk Modulus (GPa) = 27.64954 57.01954 42.33454
# Shear Modulus (GPa) = 18.74566 29.93162 24.33864
#
# Velocity S-wave (km/s) = 3.11342 3.93416 3.54760
# Velocity P-wave (km/s) = 5.21747 7.07966 6.21867
#
# Compressibility (1/GPa) = 0.03616697
#
# Stress axis : x y z
#
# Youngs Moduli (GPa) = 84.29903 117.70366 32.75643
#
# Poissons Ratio (x) = 0.35703 -0.04069
# Poissons Ratio (y) = 0.25570 0.18241
# Poissons Ratio (z) = -0.10470 0.65546
#
# Static dielectric constant tensor:
#      x y z
#    x 3.820120 0.000000 0.389700 
#    y 0.000000 3.855950 0.000000 
#    z 0.389700 0.000000 3.147480 
# 
# 
# High freq. dielectric constant tensor:
#      x y z
#    x 1.764160 0.000000 0.016440 
#    y 0.000000 1.763180 0.000000 
#    z 0.016440 0.000000 1.724910 
# 
# From -- ./inp_files/203960.got.cif
#   From: 2010.06.25/outbox.cif.g09.slc.cpg/sg15_102_cif.got.tgz:203960.got - 2010.06.28 07:06:18.
