data_PCOD8135194
_publ_section_title
;
Structure prediction by ZEFSAII (Michael W. Deem and Ramdas Pophale) SiO2 
 PCOD8135194
Probable space group: C 2/C
;
_chemical_formula_sum "Si O2"
_cell_formula_units_Z 56
_cell_length_a 10.339628
_cell_length_b 10.480679
_cell_length_c 22.325024
_cell_angle_alpha 90.000000
_cell_angle_beta 95.424970
_cell_angle_gamma 90.000000
_cell_volume 2408.444436
_symmetry_space_group_name_H-M "C 2/C"
_symmetry_group_IT_number 15
_symmetry_cell_setting 'monoclinic'
loop_
_space_group_symop_operation_xyz
x,y,z
-x,y,1/2-z
-x,-y,-z
x,-y,1/2+z
1/2+x,1/2+y,z
1/2-x,1/2+y,1/2-z
1/2-x,1/2-y,-z
1/2+x,1/2-y,1/2+z
loop_
_atom_site_type_symbol
_atom_site_label
_atom_site_fract_x
_atom_site_fract_y
_atom_site_fract_z
Si Si1 0.258638 0.487704 0.305730
Si Si2 0.415498 0.159394 0.372368
Si Si3 0.353236 0.264919 0.649605
Si Si4 0.930743 0.245921 0.524502
Si Si5 0.945489 0.422753 0.061521
Si Si6 0.000000 0.618214 0.250000
Si Si7 0.500000 0.577476 0.250000
Si Si8 0.219574 0.908598 0.564376
O O1 0.233045 0.342095 0.320829
O O2 0.378192 0.491435 0.264599
O O3 0.300789 0.571461 0.365825
O O4 0.127627 0.534822 0.268584
O O5 0.261171 0.135650 0.372984
O O6 0.457688 0.274988 0.420147
O O7 0.463757 0.199432 0.307704
O O8 0.486281 0.026727 0.392661
O O9 0.432042 0.209462 0.597191
O O10 0.460101 0.330476 0.694608
O O11 0.912946 0.123226 0.479664
O O12 0.800441 0.277217 0.556547
O O13 0.973129 0.381093 0.493452
O O14 0.798575 0.471124 0.040338
#
# Coordination Sequence:
#
# PCOD8135194 Si02
#       8
#     8   8   8   8   8   4   4   8
#     4  11  23  43  63  94 132 168 217 270 312 387
#     4  11  22  39  66  93 125 166 215 258 312 391
#     4  11  24  40  64  93 129 170 209 264 328 366
#     4  10  19  37  64  93 121 166 212 258 320 374
#     4  10  21  40  63  92 124 161 212 266 311 378
#     4  12  19  43  68  86 130 172 203 267 318 368
#     4  12  25  41  64  96 130 170 225 261 312 396
#     4   9  18  36  61  88 123 161 209 259 312 377
#
# _framework density 23.251522999999999
#
# number of rings (size 3 to 8) (size 9 to 14) (size 15 to 20)
#    0.000    1.429    5.714    3.000    0.000    1.143 
#    0.000    8.571    3.143    0.000    0.000    0.000 
#    0.000    0.000    0.000    0.000    0.000    0.000 
#
# Total GULP energy -346928.114368 kJ/mol
# GULP energy per Si atom -12390.289799 kJ/mol
# Density = 2.319860 g / cm^3
# Si number density = 23.251523 Si / 1000 Ang^3
#
#
#
# Elastic Constant Matrix: (Units=GPa)
#
#
# Indices 1 2 3 4 5 6 
#
# 1 103.6601 8.9242 35.9682 0.0000 2.1150 0.0000
# 2 8.9242 41.0951 12.6976 0.0000 3.7486 0.0000
# 3 35.9682 12.6976 116.2244 0.0000 3.8541 0.0000
# 4 0.0000 0.0000 0.0000 11.4982 0.0000 -7.7628
# 5 2.1150 3.7486 3.8541 0.0000 38.8068 0.0000
# 6 0.0000 0.0000 0.0000 -7.7628 0.0000 23.0304
#
#
#
# Elastic Compliance Matrix: (Units=1/GPa)
#
#
# Indices 1 2 3 4 5 6 
#
# 1 0.010882 -0.001357 -0.003215 0.000000 -0.000143 0.000000
# 2 -0.001357 0.025536 -0.002298 0.000000 -0.002165 0.000000
# 3 -0.003215 -0.002298 0.009869 0.000000 -0.000583 0.000000
# 4 0.000000 0.000000 0.000000 0.112592 0.000000 0.037951
# 5 -0.000143 -0.002165 -0.000583 0.000000 0.026043 0.000000
# 6 0.000000 0.000000 0.000000 0.037951 0.000000 0.056213
#
#
# Mechanical properties :
#
#
# Convention : Reuss Voigt Hill
#
# Bulk Modulus (GPa) = 30.72388 41.79550 36.25969
# Shear Modulus (GPa) = 18.81650 28.22641 23.52146
#
# Velocity S-wave (km/s) = 2.84783 3.48797 3.18403
# Velocity P-wave (km/s) = 4.90469 5.85113 5.39869
#
# Compressibility (1/GPa) = 0.03254797
#
# Stress axis : x y z
#
# Youngs Moduli (GPa) = 91.89417 39.16042 101.32412
#
# Poissons Ratio (x) = 0.05313 0.32573
# Poissons Ratio (y) = 0.12468 0.23286
# Poissons Ratio (z) = 0.29541 0.09000
#
# Static dielectric constant tensor:
#      x y z
#    x 4.366490 0.000000 0.121460 
#    y 0.000000 3.741390 0.000000 
#    z 0.121460 0.000000 4.495280 
# 
# 
# High freq. dielectric constant tensor:
#      x y z
#    x 1.927430 0.000000 -0.001430 
#    y 0.000000 1.880780 0.000000 
#    z -0.001430 0.000000 1.930120 
# 
# From -- ./inp_files/268519.got.cif
#   From: 2010.06.25/outbox.cif.g09.slc.cpg/sg15_135_cif.got.tgz:268519.got - 2010.06.28 07:06:18.
