data_PCOD8135121
_publ_section_title
;
Structure prediction by ZEFSAII (Michael W. Deem and Ramdas Pophale) SiO2 
 PCOD8135121
Probable space group: C 2/C
;
_chemical_formula_sum "Si O2"
_cell_formula_units_Z 48
_cell_length_a 27.341682
_cell_length_b 11.325868
_cell_length_c 17.874561
_cell_angle_alpha 90.000000
_cell_angle_beta 26.095695
_cell_angle_gamma 90.000000
_cell_volume 2434.771019
_symmetry_space_group_name_H-M "C 2/C"
_symmetry_group_IT_number 15
_symmetry_cell_setting 'monoclinic'
loop_
_space_group_symop_operation_xyz
x,y,z
-x,y,1/2-z
-x,-y,-z
x,-y,1/2+z
1/2+x,1/2+y,z
1/2-x,1/2+y,1/2-z
1/2-x,1/2-y,-z
1/2+x,1/2-y,1/2+z
loop_
_atom_site_type_symbol
_atom_site_label
_atom_site_fract_x
_atom_site_fract_y
_atom_site_fract_z
Si Si1 0.574253 0.952339 0.832095
Si Si2 0.842490 0.302149 0.283355
Si Si3 0.395488 0.646144 0.342190
Si Si4 0.088836 0.270906 0.482089
Si Si5 0.895562 0.877817 0.294107
Si Si6 0.248020 0.754853 0.891736
O O1 0.670539 0.866271 0.730419
O O2 0.627609 0.068944 0.723058
O O3 0.495150 0.879798 0.883882
O O4 0.500000 0.000000 0.000000
O O5 0.709271 0.296500 0.470992
O O6 0.905636 0.206574 0.247239
O O7 0.880595 0.275060 0.147029
O O8 0.500000 0.676041 0.250000
O O9 0.386560 0.507265 0.339892
O O10 0.201245 0.282505 0.375155
O O11 0.022640 0.150706 0.594936
O O12 0.856059 0.786608 0.412404
O O13 0.813835 0.857868 0.335220
#
# Coordination Sequence:
#
# PCOD8135121 Si02
#       6
#     8   8   8   8   8   8
#     4   9  19  38  59  85 122 154 196 251 301 364
#     4  10  23  42  57  90 124 160 207 247 301 388
#     4  11  23  42  63  83 124 169 200 250 314 366
#     4  10  21  38  64  92 120 156 206 255 314 353
#     4  10  21  37  61  93 121 155 207 256 299 368
#     4  10  19  37  62  90 123 158 201 258 307 356
#
# _framework density 19.714380999999999
#
# number of rings (size 3 to 8) (size 9 to 14) (size 15 to 20)
#    0.000    2.000    1.667    1.500    0.000    4.667 
#   12.000    0.000    0.000    0.000    0.000    0.000 
#    0.000    0.000    0.000    0.000    0.000    0.000 
#
# Total GULP energy -297492.231613 kJ/mol
# GULP energy per Si atom -12395.509651 kJ/mol
# Density = 1.966951 g / cm^3
# Si number density = 19.714381 Si / 1000 Ang^3
#
#
#
# Elastic Constant Matrix: (Units=GPa)
#
#
# Indices 1 2 3 4 5 6 
#
# 1 123.9083 29.1317 50.8727 0.0000 -17.9362 0.0000
# 2 29.1317 43.8733 20.6652 -0.0001 -12.6361 0.0000
# 3 50.8727 20.6652 91.6137 -0.0001 -5.9261 0.0000
# 4 0.0000 -0.0001 -0.0001 28.5410 0.0000 3.6722
# 5 -17.9362 -12.6361 -5.9261 0.0000 33.2454 0.0000
# 6 0.0000 0.0000 0.0000 3.6722 0.0000 18.7795
#
#
#
# Elastic Compliance Matrix: (Units=1/GPa)
#
#
# Indices 1 2 3 4 5 6 
#
# 1 0.011817 -0.004222 -0.005363 0.000000 0.003815 0.000000
# 2 -0.004222 0.029815 -0.003840 0.000000 0.008370 0.000000
# 3 -0.005363 -0.003840 0.014647 0.000000 -0.001742 0.000000
# 4 0.000000 0.000000 0.000000 0.035942 0.000000 -0.007028
# 5 0.003815 0.008370 -0.001742 0.000000 0.035008 0.000000
# 6 0.000000 0.000000 0.000000 -0.007028 0.000000 0.054624
#
#
# Mechanical properties :
#
#
# Convention : Reuss Voigt Hill
#
# Bulk Modulus (GPa) = 33.97814 51.19274 42.58544
# Shear Modulus (GPa) = 22.88203 26.69491 24.78847
#
# Velocity S-wave (km/s) = 3.41057 3.68378 3.54980
# Velocity P-wave (km/s) = 5.72555 6.64208 6.20077
#
# Compressibility (1/GPa) = 0.02943069
#
# Stress axis : x y z
#
# Youngs Moduli (GPa) = 84.62316 33.53966 68.27408
#
# Poissons Ratio (x) = 0.14160 0.36615
# Poissons Ratio (y) = 0.35726 0.26215
# Poissons Ratio (z) = 0.45383 0.12878
#
# Static dielectric constant tensor:
#      x y z
#    x 3.525530 0.000000 -0.119660 
#    y 0.000000 3.944160 0.000000 
#    z -0.119660 0.000000 3.793380 
# 
# 
# High freq. dielectric constant tensor:
#      x y z
#    x 1.753610 0.000000 -0.006820 
#    y 0.000000 1.762530 0.000000 
#    z -0.006820 0.000000 1.782580 
# 
# From -- ./inp_files/219247.got.cif
#   From: 2010.06.25/outbox.cif.g09.slc.cpg/sg15_110_cif.got.tgz:219247.got - 2010.06.28 07:06:18.
