data_PCOD8135578
_publ_section_title
;
Structure prediction by ZEFSAII (Michael W. Deem and Ramdas Pophale) SiO2 
 PCOD8135578
Probable space group: C 2/C
;
_chemical_formula_sum "Si O2"
_cell_formula_units_Z 40
_cell_length_a 21.689416
_cell_length_b 16.085360
_cell_length_c 9.411047
_cell_angle_alpha 90.000000
_cell_angle_beta 148.419340
_cell_angle_gamma 90.000000
_cell_volume 1719.482718
_symmetry_space_group_name_H-M "C 2/C"
_symmetry_group_IT_number 15
_symmetry_cell_setting 'monoclinic'
loop_
_space_group_symop_operation_xyz
x,y,z
-x,y,1/2-z
-x,-y,-z
x,-y,1/2+z
1/2+x,1/2+y,z
1/2-x,1/2+y,1/2-z
1/2-x,1/2-y,-z
1/2+x,1/2-y,1/2+z
loop_
_atom_site_type_symbol
_atom_site_label
_atom_site_fract_x
_atom_site_fract_y
_atom_site_fract_z
Si Si1 0.617159 0.200536 0.046520
Si Si2 0.130576 0.425524 0.056293
Si Si3 0.561153 0.671259 0.659972
Si Si4 0.348259 0.737417 0.376917
Si Si5 0.766336 0.437467 0.542167
O O1 0.587971 0.289801 0.058975
O O2 0.710329 0.213264 0.100119
O O3 0.661879 0.140269 0.256516
O O4 0.500000 0.160971 0.750000
O O5 0.216788 0.439958 0.093149
O O6 0.000000 0.452626 0.750000
O O7 0.129905 0.333094 0.121290
O O8 0.184589 0.480080 0.289203
O O9 0.420165 0.672511 0.415973
O O10 0.613763 0.730961 0.884588
O O11 0.625709 0.580750 0.794587
#
# Coordination Sequence:
#
# PCOD8135578 Si02
#       5
#     8   8   8   8   8
#     4  11  21  38  65  95 125 171 225 274 323 394
#     4  12  21  38  64 102 133 174 216 280 334 397
#     4  10  19  41  66  91 125 177 222 269 327 396
#     4  10  19  38  70  88 125 173 225 264 333 387
#     4  11  23  39  65  97 139 168 218 279 341 390
#
# _framework density 23.262810999999999
#
# number of rings (size 3 to 8) (size 9 to 14) (size 15 to 20)
#    0.000    1.200    6.000    2.400    0.000    2.400 
#    0.000    4.000    8.800   20.400    0.000    0.000 
#    0.000    0.000    0.000    0.000    0.000    0.000 
#
# Total GULP energy -247895.642595 kJ/mol
# GULP energy per Si atom -12394.782130 kJ/mol
# Density = 2.320986 g / cm^3
# Si number density = 23.262811 Si / 1000 Ang^3
#
#
#
# Elastic Constant Matrix: (Units=GPa)
#
#
# Indices 1 2 3 4 5 6 
#
# 1 93.4725 15.6006 48.3712 0.0000 42.1535 0.0000
# 2 15.6006 48.1062 6.8230 0.0000 14.3320 0.0000
# 3 48.3712 6.8230 85.7865 0.0000 40.7621 0.0000
# 4 0.0000 0.0000 0.0000 23.7999 0.0000 1.1576
# 5 42.1535 14.3320 40.7621 0.0000 42.3744 0.0000
# 6 0.0000 0.0000 0.0000 1.1576 0.0000 24.0385
#
#
#
# Elastic Compliance Matrix: (Units=1/GPa)
#
#
# Indices 1 2 3 4 5 6 
#
# 1 0.019970 -0.001189 -0.003531 0.000000 -0.016067 0.000000
# 2 -0.001189 0.023758 0.003752 0.000000 -0.010462 0.000000
# 3 -0.003531 0.003752 0.022625 0.000000 -0.019520 0.000000
# 4 0.000000 0.000000 0.000000 0.042116 0.000000 -0.002028
# 5 -0.016067 -0.010462 -0.019520 0.000000 0.061898 0.000000
# 6 0.000000 0.000000 0.000000 -0.002028 0.000000 0.041698
#
#
# Mechanical properties :
#
#
# Convention : Reuss Voigt Hill
#
# Bulk Modulus (GPa) = 15.52424 40.99499 28.25962
# Shear Modulus (GPa) = 21.23404 28.48058 24.85731
#
# Velocity S-wave (km/s) = 3.02452 3.50279 3.27240
# Velocity P-wave (km/s) = 4.34567 5.83268 5.14320
#
# Compressibility (1/GPa) = 0.06441538
#
# Stress axis : x y z
#
# Youngs Moduli (GPa) = 50.07567 42.09193 44.19978
#
# Poissons Ratio (x) = 0.05003 0.15608
# Poissons Ratio (y) = 0.05952 -0.16582
# Poissons Ratio (z) = 0.17683 -0.15792
#
# Static dielectric constant tensor:
#      x y z
#    x 4.254750 0.000000 0.509160 
#    y 0.000000 3.860560 0.000000 
#    z 0.509160 0.000000 4.432950 
# 
# 
# High freq. dielectric constant tensor:
#      x y z
#    x 1.926190 0.000000 0.015200 
#    y 0.000000 1.884410 0.000000 
#    z 0.015200 0.000000 1.914550 
# 
# From -- ./inp_files/29107.got.cif
#   From: 2010.06.25/outbox.cif.g09.slc.cpg/sg15_15_cif.got.tgz:29107.got - 2010.06.28 07:06:18.
