data_PCOD8135944
_publ_section_title
;
Structure prediction by ZEFSAII (Michael W. Deem and Ramdas Pophale) SiO2 
 PCOD8135944
Probable space group: C 2/C
;
_chemical_formula_sum "Si O2"
_cell_formula_units_Z 64
_cell_length_a 19.724025
_cell_length_b 9.611265
_cell_length_c 18.129068
_cell_angle_alpha 90.000000
_cell_angle_beta 116.958162
_cell_angle_gamma 90.000000
_cell_volume 3063.330791
_symmetry_space_group_name_H-M "C 2/C"
_symmetry_group_IT_number 15
_symmetry_cell_setting 'monoclinic'
loop_
_space_group_symop_operation_xyz
x,y,z
-x,y,1/2-z
-x,-y,-z
x,-y,1/2+z
1/2+x,1/2+y,z
1/2-x,1/2+y,1/2-z
1/2-x,1/2-y,-z
1/2+x,1/2-y,1/2+z
loop_
_atom_site_type_symbol
_atom_site_label
_atom_site_fract_x
_atom_site_fract_y
_atom_site_fract_z
Si Si1 0.154997 0.160644 0.500708
Si Si2 0.332341 0.671326 0.827389
Si Si3 0.778973 0.536906 0.473475
Si Si4 0.933902 0.598124 0.880261
Si Si5 0.932584 0.394898 0.553722
Si Si6 0.226021 0.469046 0.694007
Si Si7 0.997768 0.153632 0.161887
Si Si8 0.515474 0.664730 0.672459
O O1 0.134209 0.129618 0.575541
O O2 0.199354 0.303898 0.525101
O O3 0.207230 0.034248 0.494082
O O4 0.083655 0.187137 0.413161
O O5 0.291183 0.533790 0.776911
O O6 0.273640 0.801150 0.799413
O O7 0.402000 0.720907 0.810413
O O8 0.849070 0.445245 0.538836
O O9 0.755524 0.482658 0.380713
O O10 0.855479 0.525602 0.819483
O O11 0.004160 0.503940 0.886543
O O12 0.938848 0.747502 0.843175
O O13 0.938398 0.619109 0.969433
O O14 0.948593 0.244094 0.596056
O O15 0.000000 0.179766 0.250000
O O16 0.016117 0.996004 0.150582
O O17 0.500000 0.690034 0.750000
#
# Coordination Sequence:
#
# PCOD8135944 Si02
#       8
#     8   8   8   8   8   8   8   8
#     4  10  21  41  64  95 127 167 216 263 323 380
#     4  11  24  43  65  93 131 173 215 262 325 387
#     4   9  20  38  67  93 126 168 208 275 318 377
#     4  10  20  39  67  93 120 163 221 270 315 390
#     4  10  19  41  65  92 126 166 215 265 332 382
#     4  10  23  40  65  95 128 169 212 267 323 382
#     4  11  25  40  64  95 125 170 220 273 319 388
#     4  11  26  42  61  90 135 175 204 276 331 375
#
# _framework density 20.892291
#
# number of rings (size 3 to 8) (size 9 to 14) (size 15 to 20)
#    0.000    1.750    2.500    0.750    5.250    5.500 
#    2.250    0.625    0.000    0.000    0.000    0.000 
#    0.000    0.000    0.000    0.000    0.000    0.000 
#
# Total GULP energy -396801.547037 kJ/mol
# GULP energy per Si atom -12400.048345 kJ/mol
# Density = 2.084474 g / cm^3
# Si number density = 20.892291 Si / 1000 Ang^3
#
#
#
# Elastic Constant Matrix: (Units=GPa)
#
#
# Indices 1 2 3 4 5 6 
#
# 1 96.2481 23.2209 39.7521 0.0000 -13.3862 0.0000
# 2 23.2209 80.0348 29.2999 0.0000 -9.7654 0.0000
# 3 39.7521 29.2999 107.9974 0.0000 0.9399 0.0000
# 4 0.0000 0.0000 0.0000 36.7602 0.0000 2.4486
# 5 -13.3862 -9.7654 0.9399 0.0000 17.8005 0.0000
# 6 0.0000 0.0000 0.0000 2.4486 0.0000 33.7043
#
#
#
# Elastic Compliance Matrix: (Units=1/GPa)
#
#
# Indices 1 2 3 4 5 6 
#
# 1 0.014147 -0.001001 -0.005026 0.000000 0.010355 0.000000
# 2 -0.001001 0.015122 -0.003801 0.000000 0.007743 0.000000
# 3 -0.005026 -0.003801 0.012197 0.000000 -0.006509 0.000000
# 4 0.000000 0.000000 0.000000 0.027336 0.000000 -0.001986
# 5 0.010355 0.007743 -0.006509 0.000000 0.068557 0.000000
# 6 0.000000 0.000000 0.000000 -0.001986 0.000000 0.029814
#
#
# Mechanical properties :
#
#
# Convention : Reuss Voigt Hill
#
# Bulk Modulus (GPa) = 45.85199 52.09176 48.97187
# Shear Modulus (GPa) = 25.75996 30.45349 28.10672
#
# Velocity S-wave (km/s) = 3.51520 3.82205 3.67183
# Velocity P-wave (km/s) = 6.20242 6.66821 6.43953
#
# Compressibility (1/GPa) = 0.02180930
#
# Stress axis : x y z
#
# Youngs Moduli (GPa) = 70.68468 66.13094 81.98481
#
# Poissons Ratio (x) = 0.06621 0.41205
# Poissons Ratio (y) = 0.07077 0.31165
# Poissons Ratio (z) = 0.35525 0.25139
#
# Static dielectric constant tensor:
#      x y z
#    x 3.955340 0.000000 -0.105280 
#    y 0.000000 3.744520 0.000000 
#    z -0.105280 0.000000 3.729180 
# 
# 
# High freq. dielectric constant tensor:
#      x y z
#    x 1.815450 0.000000 -0.000330 
#    y 0.000000 1.813760 0.000000 
#    z -0.000330 0.000000 1.814040 
# 
# From -- ./inp_files/251908.got.cif
#   From: 2010.06.25/outbox.cif.g09.slc.cpg/sg15_126_cif.got.tgz:251908.got - 2010.06.28 07:06:18.
