data_PCOD8135865
_publ_section_title
;
Structure prediction by ZEFSAII (Michael W. Deem and Ramdas Pophale) SiO2 
 PCOD8135865
Probable space group: C 2/C
;
_chemical_formula_sum "Si O2"
_cell_formula_units_Z 48
_cell_length_a 13.264511
_cell_length_b 13.824119
_cell_length_c 13.110891
_cell_angle_alpha 90.000000
_cell_angle_beta 62.353372
_cell_angle_gamma 90.000000
_cell_volume 2129.656010
_symmetry_space_group_name_H-M "C 2/C"
_symmetry_group_IT_number 15
_symmetry_cell_setting 'monoclinic'
loop_
_space_group_symop_operation_xyz
x,y,z
-x,y,1/2-z
-x,-y,-z
x,-y,1/2+z
1/2+x,1/2+y,z
1/2-x,1/2+y,1/2-z
1/2-x,1/2-y,-z
1/2+x,1/2-y,1/2+z
loop_
_atom_site_type_symbol
_atom_site_label
_atom_site_fract_x
_atom_site_fract_y
_atom_site_fract_z
Si Si1 0.260088 0.031863 0.919944
Si Si2 0.594235 0.315913 0.411270
Si Si3 0.263022 0.186254 0.396423
Si Si4 0.074321 0.769266 0.838086
Si Si5 0.000000 0.402391 0.250000
Si Si6 0.738530 0.325391 0.597222
Si Si7 0.500000 0.257445 0.250000
O O1 0.185547 0.097212 0.877208
O O2 0.390766 0.032314 0.822917
O O3 0.216133 0.922356 0.934432
O O4 0.251779 0.068265 0.041948
O O5 0.514395 0.327651 0.549441
O O6 0.658086 0.210104 0.377932
O O7 0.520346 0.324604 0.341749
O O8 0.250000 0.250000 0.500000
O O9 0.192561 0.241236 0.342630
O O10 0.395632 0.184742 0.309397
O O11 0.022936 0.664185 0.838674
O O12 0.113843 0.819257 0.711187
O O13 0.750000 0.250000 0.500000
#
# Coordination Sequence:
#
# PCOD8135865 Si02
#       7
#     8   8   8   8   4   8   4
#     4  11  24  43  69 105 134 176 237 280 334 410
#     4  11  22  42  74 100 137 178 226 284 344 406
#     4  12  27  48  64  99 144 186 223 281 344 408
#     4  12  22  42  73  99 140 174 224 284 353 393
#     4  12  19  42  77 100 124 180 231 288 329 402
#     4  10  19  40  67 104 132 170 222 287 337 393
#     4  12  23  48  69  96 140 186 223 278 349 408
#
# _framework density 22.53885
#
# number of rings (size 3 to 8) (size 9 to 14) (size 15 to 20)
#    0.000    0.667    8.333    1.500    0.000    0.667 
#    6.000    2.500    0.000    0.000    0.000    0.000 
#    0.000    0.000    0.000    0.000    0.000    0.000 
#
# Total GULP energy -297425.408759 kJ/mol
# GULP energy per Si atom -12392.725365 kJ/mol
# Density = 2.248755 g / cm^3
# Si number density = 22.538850 Si / 1000 Ang^3
#
#
#
# Elastic Constant Matrix: (Units=GPa)
#
#
# Indices 1 2 3 4 5 6 
#
# 1 99.6324 39.4592 22.8713 0.0000 0.4432 0.0000
# 2 39.4592 97.9899 26.9664 0.0000 18.8166 0.0000
# 3 22.8713 26.9664 134.3859 0.0000 -4.4450 0.0000
# 4 0.0000 0.0000 0.0000 14.9233 0.0000 -4.6466
# 5 0.4432 18.8166 -4.4450 0.0000 50.0151 0.0000
# 6 0.0000 0.0000 0.0000 -4.6466 0.0000 17.7770
#
#
#
# Elastic Compliance Matrix: (Units=1/GPa)
#
#
# Indices 1 2 3 4 5 6 
#
# 1 0.012231 -0.004962 -0.001031 0.000000 0.001667 0.000000
# 2 -0.004962 0.013807 -0.002103 0.000000 -0.005337 0.000000
# 3 -0.001031 -0.002103 0.008089 0.000000 0.001519 0.000000
# 4 0.000000 0.000000 0.000000 0.072946 0.000000 0.019067
# 5 0.001667 -0.005337 0.001519 0.000000 0.022122 0.000000
# 6 0.000000 0.000000 0.000000 0.019067 0.000000 0.061236
#
#
# Mechanical properties :
#
#
# Convention : Reuss Voigt Hill
#
# Bulk Modulus (GPa) = 55.75265 56.73357 56.24311
# Shear Modulus (GPa) = 23.51836 32.72385 28.12110
#
# Velocity S-wave (km/s) = 3.23377 3.81450 3.53607
# Velocity P-wave (km/s) = 6.22358 6.68032 6.45599
#
# Compressibility (1/GPa) = 0.01793637
#
# Stress axis : x y z
#
# Youngs Moduli (GPa) = 81.75821 72.42888 123.62674
#
# Poissons Ratio (x) = 0.35937 0.12744
# Poissons Ratio (y) = 0.40566 0.25994
# Poissons Ratio (z) = 0.08428 0.15229
#
# Static dielectric constant tensor:
#      x y z
#    x 4.689280 0.000000 0.075590 
#    y 0.000000 3.646450 0.000000 
#    z 0.075590 0.000000 4.781840 
# 
# 
# High freq. dielectric constant tensor:
#      x y z
#    x 1.912490 0.000000 -0.009980 
#    y 0.000000 1.832770 0.000000 
#    z -0.009980 0.000000 1.905570 
# 
# From -- ./inp_files/96904.got.cif
#   From: 2010.06.25/outbox.cif.g09.slc.cpg/sg15_49_cif.got.tgz:96904.got - 2010.06.28 07:06:18.
