data_PCOD8135597
_publ_section_title
;
Structure prediction by ZEFSAII (Michael W. Deem and Ramdas Pophale) SiO2 
 PCOD8135597
Probable space group: C 2/C
;
_chemical_formula_sum "Si O2"
_cell_formula_units_Z 60
_cell_length_a 22.315074
_cell_length_b 9.593897
_cell_length_c 13.941223
_cell_angle_alpha 90.000000
_cell_angle_beta 98.068432
_cell_angle_gamma 90.000000
_cell_volume 2955.111127
_symmetry_space_group_name_H-M "C 2/C"
_symmetry_group_IT_number 15
_symmetry_cell_setting 'monoclinic'
loop_
_space_group_symop_operation_xyz
x,y,z
-x,y,1/2-z
-x,-y,-z
x,-y,1/2+z
1/2+x,1/2+y,z
1/2-x,1/2+y,1/2-z
1/2-x,1/2-y,-z
1/2+x,1/2-y,1/2+z
loop_
_atom_site_type_symbol
_atom_site_label
_atom_site_fract_x
_atom_site_fract_y
_atom_site_fract_z
Si Si1 0.316637 0.512970 0.387813
Si Si2 0.442466 0.031439 0.423048
Si Si3 0.303765 0.339107 0.559526
Si Si4 0.500000 0.988341 0.250000
Si Si5 0.895875 0.611804 0.601816
Si Si6 0.310590 0.861944 0.588722
Si Si7 0.718899 0.593737 0.811720
Si Si8 0.841041 0.687650 0.884582
O O1 0.338710 0.424882 0.484191
O O2 0.247534 0.558906 0.386270
O O3 0.319293 0.418682 0.294133
O O4 0.358281 0.649400 0.380668
O O5 0.404406 0.130906 0.486551
O O6 0.500000 0.000000 0.500000
O O7 0.464709 0.084869 0.322256
O O8 0.403299 0.894527 0.388879
O O9 0.250000 0.250000 0.500000
O O10 0.351609 0.236769 0.622497
O O11 0.278375 0.445428 0.632808
O O12 0.543442 0.883882 0.320524
O O13 0.868933 0.458975 0.619412
O O14 0.318493 0.712335 0.640459
O O15 0.303729 0.836185 0.474459
O O16 0.788301 0.637994 0.799128
#
# Coordination Sequence:
#
# PCOD8135597 Si02
#       8
#     8   8   8   4   8   8   8   8
#     4  11  22  33  55  90 124 160 192 233 298 361
#     4   9  20  38  58  87 106 150 207 249 289 337
#     4  12  22  37  55  93 128 156 192 243 292 360
#     4  10  22  38  62  86 110 152 204 256 290 340
#     4  10  22  37  64  87 119 152 198 250 290 350
#     4  10  19  40  55  79 124 163 189 234 294 352
#     4  11  23  34  56  89 127 159 191 227 299 373
#     4  10  19  39  58  78 123 163 193 238 300 354
#
# _framework density 20.303805000000001
#
# number of rings (size 3 to 8) (size 9 to 14) (size 15 to 20)
#    0.000    1.600    4.000    1.600    7.467    1.067 
#    0.000    0.000    0.000    4.000    0.000    0.000 
#    0.000    0.000    0.000    0.000    0.000    0.000 
#
# Total GULP energy -371728.625987 kJ/mol
# GULP energy per Si atom -12390.954200 kJ/mol
# Density = 2.025759 g / cm^3
# Si number density = 20.303805 Si / 1000 Ang^3
#
#
#
# Elastic Constant Matrix: (Units=GPa)
#
#
# Indices 1 2 3 4 5 6 
#
# 1 69.2331 27.1020 13.9657 0.0000 4.6638 0.0000
# 2 27.1020 88.8112 12.9641 0.0000 6.9376 0.0000
# 3 13.9657 12.9641 79.8098 0.0000 -6.5109 0.0000
# 4 0.0000 0.0000 0.0000 26.2217 0.0000 3.0387
# 5 4.6638 6.9376 -6.5109 0.0000 36.1928 0.0000
# 6 0.0000 0.0000 0.0000 3.0387 0.0000 6.8526
#
#
#
# Elastic Compliance Matrix: (Units=1/GPa)
#
#
# Indices 1 2 3 4 5 6 
#
# 1 0.016857 -0.004672 -0.002329 0.000000 -0.001696 0.000000
# 2 -0.004672 0.013071 -0.001483 0.000000 -0.002170 0.000000
# 3 -0.002329 -0.001483 0.013423 0.000000 0.002999 0.000000
# 4 0.000000 0.000000 0.000000 0.040202 0.000000 -0.017827
# 5 -0.001696 -0.002170 0.002999 0.000000 0.028804 0.000000
# 6 0.000000 0.000000 0.000000 -0.017827 0.000000 0.153834
#
#
# Mechanical properties :
#
#
# Convention : Reuss Voigt Hill
#
# Bulk Modulus (GPa) = 37.90217 38.43532 38.16874
# Shear Modulus (GPa) = 17.12600 26.10825 21.61712
#
# Velocity S-wave (km/s) = 2.90744 3.58981 3.26649
# Velocity P-wave (km/s) = 5.47530 6.01278 5.75032
#
# Compressibility (1/GPa) = 0.02638372
#
# Stress axis : x y z
#
# Youngs Moduli (GPa) = 59.32323 76.50258 74.49951
#
# Poissons Ratio (x) = 0.35739 0.17353
# Poissons Ratio (y) = 0.27714 0.11047
# Poissons Ratio (z) = 0.13818 0.11344
#
# Static dielectric constant tensor:
#      x y z
#    x 3.609110 0.000000 -0.269630 
#    y 0.000000 3.804110 0.000000 
#    z -0.269630 0.000000 4.045770 
# 
# 
# High freq. dielectric constant tensor:
#      x y z
#    x 1.766380 0.000000 -0.010120 
#    y 0.000000 1.772710 0.000000 
#    z -0.010120 0.000000 1.810110 
# 
# From -- ./inp_files/171924.got.cif
#   From: 2010.06.25/outbox.cif.g09.slc.cpg/sg15_86_cif.got.tgz:171924.got - 2010.06.28 07:06:18.
