data_PCOD8135309
_publ_section_title
;
Structure prediction by ZEFSAII (Michael W. Deem and Ramdas Pophale) SiO2 
 PCOD8135309
Probable space group: C 2/C
;
_chemical_formula_sum "Si O2"
_cell_formula_units_Z 56
_cell_length_a 8.862378
_cell_length_b 15.026642
_cell_length_c 20.932300
_cell_angle_alpha 90.000000
_cell_angle_beta 80.146525
_cell_angle_gamma 90.000000
_cell_volume 2746.470830
_symmetry_space_group_name_H-M "C 2/C"
_symmetry_group_IT_number 15
_symmetry_cell_setting 'monoclinic'
loop_
_space_group_symop_operation_xyz
x,y,z
-x,y,1/2-z
-x,-y,-z
x,-y,1/2+z
1/2+x,1/2+y,z
1/2-x,1/2+y,1/2-z
1/2-x,1/2-y,-z
1/2+x,1/2-y,1/2+z
loop_
_atom_site_type_symbol
_atom_site_label
_atom_site_fract_x
_atom_site_fract_y
_atom_site_fract_z
Si Si1 0.769476 0.778083 0.131394
Si Si2 0.178895 0.869229 0.737505
Si Si3 0.020411 0.875231 0.176148
Si Si4 0.709278 0.009818 0.862887
Si Si5 0.976617 0.635130 0.058943
Si Si6 0.208596 0.700149 0.139905
Si Si7 0.035906 0.329415 0.412326
O O1 0.706524 0.719670 0.194552
O O2 0.882891 0.725417 0.076507
O O3 0.634393 0.809426 0.096187
O O4 0.856682 0.865013 0.153029
O O5 0.276677 0.950771 0.701779
O O6 0.240107 0.858931 0.804248
O O7 0.000000 0.892024 0.750000
O O8 0.096349 0.777693 0.171702
O O9 0.000000 0.908696 0.250000
O O10 0.123087 0.948985 0.131246
O O11 0.637192 0.948739 0.923627
O O12 0.601197 0.095483 0.859183
O O13 0.121289 0.634616 0.097014
O O14 0.040724 0.631394 0.983068
O O15 0.360523 0.740887 0.096481
#
# Coordination Sequence:
#
# PCOD8135309 Si02
#       7
#     8   8   8   8   8   8   8
#     4  10  21  36  66  90 112 160 198 251 292 345
#     4  11  20  40  60  90 123 146 198 251 306 349
#     4  10  19  38  58  86 123 152 189 242 304 357
#     4  10  24  38  59  84 125 160 186 247 306 349
#     4  10  22  41  61  86 122 158 201 243 292 355
#     4  10  21  37  66  89 112 158 201 249 295 350
#     4  11  21  42  61  89 117 158 206 242 288 356
#
# _framework density 20.389802
#
# number of rings (size 3 to 8) (size 9 to 14) (size 15 to 20)
#    0.000    1.714    2.857    1.714    0.000    0.000 
#    7.714    0.714    0.000    0.000    0.000    0.000 
#    0.000    0.000    0.000    0.000    0.000    0.000 
#
# Total GULP energy -347190.681745 kJ/mol
# GULP energy per Si atom -12399.667205 kJ/mol
# Density = 2.034339 g / cm^3
# Si number density = 20.389802 Si / 1000 Ang^3
#
#
#
# Elastic Constant Matrix: (Units=GPa)
#
#
# Indices 1 2 3 4 5 6 
#
# 1 117.6377 36.2190 52.2810 0.0000 14.2183 0.0000
# 2 36.2190 83.0918 37.3380 0.0000 3.4718 0.0000
# 3 52.2810 37.3380 101.6136 0.0000 10.6451 0.0000
# 4 0.0000 0.0000 0.0000 17.4112 0.0000 -8.4114
# 5 14.2183 3.4718 10.6451 0.0000 33.5692 0.0000
# 6 0.0000 0.0000 0.0000 -8.4114 0.0000 33.9550
#
#
#
# Elastic Compliance Matrix: (Units=1/GPa)
#
#
# Indices 1 2 3 4 5 6 
#
# 1 0.011883 -0.002934 -0.004696 0.000000 -0.003240 0.000000
# 2 -0.002934 0.015141 -0.004158 0.000000 0.000995 0.000000
# 3 -0.004696 -0.004158 0.013997 0.000000 -0.002019 0.000000
# 4 0.000000 0.000000 0.000000 0.065242 0.000000 0.016162
# 5 -0.003240 0.000995 -0.002019 0.000000 0.031699 0.000000
# 6 0.000000 0.000000 0.000000 0.016162 0.000000 0.033454
#
#
# Mechanical properties :
#
#
# Convention : Reuss Voigt Hill
#
# Bulk Modulus (GPa) = 57.32744 61.55767 59.44255
# Shear Modulus (GPa) = 24.89946 28.75409 26.82678
#
# Velocity S-wave (km/s) = 3.49832 3.75936 3.63119
# Velocity P-wave (km/s) = 6.67041 7.00712 6.84084
#
# Compressibility (1/GPa) = 0.01744365
#
# Stress axis : x y z
#
# Youngs Moduli (GPa) = 84.15562 66.04726 71.44422
#
# Poissons Ratio (x) = 0.19378 0.33552
# Poissons Ratio (y) = 0.24690 0.29708
# Poissons Ratio (z) = 0.39521 0.27464
#
# Static dielectric constant tensor:
#      x y z
#    x 3.899730 0.000000 -0.174880 
#    y 0.000000 3.676100 0.000000 
#    z -0.174880 0.000000 3.539480 
# 
# 
# High freq. dielectric constant tensor:
#      x y z
#    x 1.806590 0.000000 -0.018070 
#    y 0.000000 1.790050 0.000000 
#    z -0.018070 0.000000 1.781440 
# 
# From -- ./inp_files/231553.got.cif
#   From: 2010.06.25/outbox.cif.g09.slc.cpg/sg15_116_cif.got.tgz:231553.got - 2010.06.28 07:06:18.
