data_PCOD8135052
_publ_section_title
;
Structure prediction by ZEFSAII (Michael W. Deem and Ramdas Pophale) SiO2 
 PCOD8135052
Probable space group: C 2/C
;
_chemical_formula_sum "Si O2"
_cell_formula_units_Z 52
_cell_length_a 10.896634
_cell_length_b 15.345460
_cell_length_c 17.409209
_cell_angle_alpha 90.000000
_cell_angle_beta 121.934085
_cell_angle_gamma 90.000000
_cell_volume 2470.492844
_symmetry_space_group_name_H-M "C 2/C"
_symmetry_group_IT_number 15
_symmetry_cell_setting 'monoclinic'
loop_
_space_group_symop_operation_xyz
x,y,z
-x,y,1/2-z
-x,-y,-z
x,-y,1/2+z
1/2+x,1/2+y,z
1/2-x,1/2+y,1/2-z
1/2-x,1/2-y,-z
1/2+x,1/2-y,1/2+z
loop_
_atom_site_type_symbol
_atom_site_label
_atom_site_fract_x
_atom_site_fract_y
_atom_site_fract_z
Si Si1 0.770704 0.040911 0.948345
Si Si2 0.858179 0.873946 0.061215
Si Si3 0.553696 0.013055 0.128181
Si Si4 0.500000 0.556732 0.750000
Si Si5 0.317546 0.544016 0.308423
Si Si6 0.003764 0.178505 0.458033
Si Si7 0.931637 0.639396 0.969134
O O1 0.598762 0.027982 0.893593
O O2 0.831175 0.023812 0.882903
O O3 0.835811 0.135409 0.994722
O O4 0.842798 0.974615 0.031337
O O5 0.702187 0.828277 0.022500
O O6 0.936297 0.874959 0.168502
O O7 0.947041 0.823583 0.026589
O O8 0.631338 0.930624 0.113206
O O9 0.647014 0.052313 0.229750
O O10 0.543827 0.090531 0.062521
O O11 0.610350 0.491662 0.744607
O O12 0.389103 0.635050 0.360521
O O13 0.009928 0.282773 0.447187
#
# Coordination Sequence:
#
# PCOD8135052 Si02
#       7
#     8   8   8   4   8   8   8
#     4  10  20  38  62  86 121 167 200 241 319 380
#     4  10  19  37  60  87 119 159 198 253 308 371
#     4  10  22  40  60  86 125 172 202 249 312 388
#     4  12  18  34  66  88 112 156 212 254 300 378
#     4  11  21  38  64  88 119 157 211 255 307 368
#     4  11  21  39  62  94 122 157 208 266 306 364
#     4  10  22  38  62  88 125 161 208 249 318 367
#
# _framework density 21.048431999999998
#
# number of rings (size 3 to 8) (size 9 to 14) (size 15 to 20)
#    0.000    1.538    4.615    1.846    0.000    0.615 
#    5.538    0.000    0.000    0.000    0.000    0.000 
#    0.000    0.000    0.000    0.000    0.000    0.000 
#
# Total GULP energy -322190.889170 kJ/mol
# GULP energy per Si atom -12391.957276 kJ/mol
# Density = 2.100053 g / cm^3
# Si number density = 21.048432 Si / 1000 Ang^3
#
#
#
# Elastic Constant Matrix: (Units=GPa)
#
#
# Indices 1 2 3 4 5 6 
#
# 1 69.1409 13.5303 19.7960 0.0000 8.1674 0.0000
# 2 13.5303 98.6707 35.4362 0.0000 20.0129 0.0000
# 3 19.7960 35.4362 128.0235 0.0000 12.7448 0.0000
# 4 0.0000 0.0000 0.0000 16.1150 0.0000 -1.7879
# 5 8.1674 20.0129 12.7448 0.0000 33.0009 0.0000
# 6 0.0000 0.0000 0.0000 -1.7879 0.0000 29.7686
#
#
#
# Elastic Compliance Matrix: (Units=1/GPa)
#
#
# Indices 1 2 3 4 5 6 
#
# 1 0.015485 -0.000932 -0.001884 0.000000 -0.002540 0.000000
# 2 -0.000932 0.012510 -0.002690 0.000000 -0.006317 0.000000
# 3 -0.001884 -0.002690 0.008983 0.000000 -0.001372 0.000000
# 4 0.000000 0.000000 0.000000 0.062470 0.000000 0.003752
# 5 -0.002540 -0.006317 -0.001372 0.000000 0.035292 0.000000
# 6 0.000000 0.000000 0.000000 0.003752 0.000000 0.033818
#
#
# Mechanical properties :
#
#
# Convention : Reuss Voigt Hill
#
# Bulk Modulus (GPa) = 38.50916 48.15112 43.33014
# Shear Modulus (GPa) = 26.56412 30.91507 28.73959
#
# Velocity S-wave (km/s) = 3.55638 3.83660 3.69914
# Velocity P-wave (km/s) = 5.93288 6.52319 6.23502
#
# Compressibility (1/GPa) = 0.02596784
#
# Stress axis : x y z
#
# Youngs Moduli (GPa) = 64.57908 79.93803 111.31639
#
# Poissons Ratio (x) = 0.07448 0.20968
# Poissons Ratio (y) = 0.06017 0.29940
# Poissons Ratio (z) = 0.12164 0.21501
#
# Static dielectric constant tensor:
#      x y z
#    x 3.901640 0.000000 -0.028620 
#    y 0.000000 3.537410 0.000000 
#    z -0.028620 0.000000 3.767760 
# 
# 
# High freq. dielectric constant tensor:
#      x y z
#    x 1.831950 0.000000 -0.000580 
#    y 0.000000 1.796430 0.000000 
#    z -0.000580 0.000000 1.821570 
# 
# From -- ./inp_files/198032.got.cif
#   From: 2010.06.25/outbox.cif.g09.slc.cpg/sg15_100_cif.got.tgz:198032.got - 2010.06.28 07:06:18.
