data_PCOD8135999
_publ_section_title
;
Structure prediction by ZEFSAII (Michael W. Deem and Ramdas Pophale) SiO2 
 PCOD8135999
Probable space group: C 2/C
;
_chemical_formula_sum "Si O2"
_cell_formula_units_Z 56
_cell_length_a 13.915890
_cell_length_b 9.742227
_cell_length_c 23.249180
_cell_angle_alpha 90.000000
_cell_angle_beta 60.805761
_cell_angle_gamma 90.000000
_cell_volume 2751.545833
_symmetry_space_group_name_H-M "C 2/C"
_symmetry_group_IT_number 15
_symmetry_cell_setting 'monoclinic'
loop_
_space_group_symop_operation_xyz
x,y,z
-x,y,1/2-z
-x,-y,-z
x,-y,1/2+z
1/2+x,1/2+y,z
1/2-x,1/2+y,1/2-z
1/2-x,1/2-y,-z
1/2+x,1/2-y,1/2+z
loop_
_atom_site_type_symbol
_atom_site_label
_atom_site_fract_x
_atom_site_fract_y
_atom_site_fract_z
Si Si1 0.148454 0.828797 0.252522
Si Si2 0.705958 0.073911 0.300418
Si Si3 0.566850 0.438131 0.156722
Si Si4 0.601829 0.273882 0.687011
Si Si5 0.731561 0.886957 0.472158
Si Si6 0.845193 0.345215 0.445431
Si Si7 0.940088 0.424451 0.068286
O O1 0.170978 0.668101 0.256677
O O2 0.118379 0.854363 0.195131
O O3 0.048853 0.868086 0.324836
O O4 0.250294 0.929520 0.237948
O O5 0.796921 0.166122 0.306149
O O6 0.604420 0.035176 0.372045
O O7 0.539697 0.595676 0.177967
O O8 0.648129 0.441121 0.079402
O O9 0.500000 0.197651 0.750000
O O10 0.653211 0.173265 0.623849
O O11 0.750000 0.750000 0.500000
O O12 0.664202 0.853631 0.432862
O O13 0.676867 0.997138 0.530972
O O14 0.750000 0.250000 0.500000
O O15 0.971375 0.315973 0.430748
O O16 0.000000 0.500000 0.000000
#
# Coordination Sequence:
#
# PCOD8135999 Si02
#       7
#     8   8   8   8   8   8   8
#     4  10  22  38  66  90 124 166 204 256 314 380
#     4  11  22  41  62  93 127 162 207 257 317 376
#     4  10  19  42  62  86 126 167 203 251 323 373
#     4  11  20  39  64  90 127 168 203 262 322 375
#     4  11  23  43  66  90 125 168 211 261 316 372
#     4  11  23  42  67  92 123 168 216 257 313 382
#     4  10  22  40  64  87 121 163 206 256 311 366
#
# _framework density 20.352194999999998
#
# number of rings (size 3 to 8) (size 9 to 14) (size 15 to 20)
#    0.000    1.429    7.143    0.857    6.000    0.000 
#    2.571    0.714    0.000    0.000    0.000    0.000 
#    0.000    0.000    0.000    0.000    0.000    0.000 
#
# Total GULP energy -346900.434234 kJ/mol
# GULP energy per Si atom -12389.301223 kJ/mol
# Density = 2.030587 g / cm^3
# Si number density = 20.352195 Si / 1000 Ang^3
#
#
#
# Elastic Constant Matrix: (Units=GPa)
#
#
# Indices 1 2 3 4 5 6 
#
# 1 55.3116 28.3811 31.4712 0.0000 -18.2399 0.0000
# 2 28.3811 94.8348 37.5655 0.0000 5.9527 0.0000
# 3 31.4712 37.5655 128.2200 0.0000 -20.8542 0.0000
# 4 0.0000 0.0000 0.0000 37.0272 0.0000 2.5986
# 5 -18.2399 5.9527 -20.8542 0.0000 33.8341 0.0000
# 6 0.0000 0.0000 0.0000 2.5986 0.0000 23.9416
#
#
#
# Elastic Compliance Matrix: (Units=1/GPa)
#
#
# Indices 1 2 3 4 5 6 
#
# 1 0.029049 -0.008952 -0.001894 0.000000 0.016068 0.000000
# 2 -0.008952 0.015409 -0.003938 0.000000 -0.009964 0.000000
# 3 -0.001894 -0.003938 0.010408 0.000000 0.006087 0.000000
# 4 0.000000 0.000000 0.000000 0.027214 0.000000 -0.002954
# 5 0.016068 -0.009964 0.006087 0.000000 0.043723 0.000000
# 6 0.000000 0.000000 0.000000 -0.002954 0.000000 0.042089
#
#
# Mechanical properties :
#
#
# Convention : Reuss Voigt Hill
#
# Bulk Modulus (GPa) = 39.52849 52.57800 46.05325
# Shear Modulus (GPa) = 24.28465 31.02382 27.65424
#
# Velocity S-wave (km/s) = 3.45805 3.90853 3.69017
# Velocity P-wave (km/s) = 5.95051 6.80139 6.39013
#
# Compressibility (1/GPa) = 0.02529821
#
# Stress axis : x y z
#
# Youngs Moduli (GPa) = 34.42477 64.89749 96.08333
#
# Poissons Ratio (x) = 0.58095 0.18198
# Poissons Ratio (y) = 0.30816 0.37836
# Poissons Ratio (z) = 0.06520 0.25556
#
# Static dielectric constant tensor:
#      x y z
#    x 4.315470 0.000000 -0.341430 
#    y 0.000000 3.486950 0.000000 
#    z -0.341430 0.000000 3.749310 
# 
# 
# High freq. dielectric constant tensor:
#      x y z
#    x 1.792340 0.000000 -0.028690 
#    y 0.000000 1.768350 0.000000 
#    z -0.028690 0.000000 1.804580 
# 
# From -- ./inp_files/273076.got.cif
#   From: 2010.06.25/outbox.cif.g09.slc.cpg/sg15_137_cif.got.tgz:273076.got - 2010.06.28 07:06:18.
