data_PCOD8135605
_publ_section_title
;
Structure prediction by ZEFSAII (Michael W. Deem and Ramdas Pophale) SiO2 
 PCOD8135605
Probable space group: C 2/C
;
_chemical_formula_sum "Si O2"
_cell_formula_units_Z 48
_cell_length_a 26.406267
_cell_length_b 9.286893
_cell_length_c 15.347536
_cell_angle_alpha 90.000000
_cell_angle_beta 39.500123
_cell_angle_gamma 90.000000
_cell_volume 2394.019972
_symmetry_space_group_name_H-M "C 2/C"
_symmetry_group_IT_number 15
_symmetry_cell_setting 'monoclinic'
loop_
_space_group_symop_operation_xyz
x,y,z
-x,y,1/2-z
-x,-y,-z
x,-y,1/2+z
1/2+x,1/2+y,z
1/2-x,1/2+y,1/2-z
1/2-x,1/2-y,-z
1/2+x,1/2-y,1/2+z
loop_
_atom_site_type_symbol
_atom_site_label
_atom_site_fract_x
_atom_site_fract_y
_atom_site_fract_z
Si Si1 0.536415 0.157688 0.437593
Si Si2 0.853246 0.152266 0.603125
Si Si3 0.613277 0.336963 0.908904
Si Si4 0.677328 0.915276 0.641004
Si Si5 0.286261 0.806643 0.083427
Si Si6 0.268485 0.789346 0.377303
O O1 0.589795 0.212672 0.448636
O O2 0.470396 0.278196 0.512357
O O3 0.593763 0.158936 0.277022
O O4 0.500000 0.000000 0.500000
O O5 0.782174 0.127354 0.766054
O O6 0.815909 0.185035 0.558415
O O7 0.900186 0.001102 0.542225
O O8 0.639898 0.240037 0.955178
O O9 0.679059 0.328269 0.744069
O O10 0.683641 0.924913 0.527245
O O11 0.754507 0.831533 0.573602
O O12 0.677947 0.067462 0.689217
O O13 0.250000 0.750000 0.500000
#
# Coordination Sequence:
#
# PCOD8135605 Si02
#       6
#     8   8   8   8   8   8
#     4  11  23  39  63  88 126 166 195 247 311 369
#     4  10  22  40  62  92 121 159 207 249 304 363
#     4  11  21  39  63  90 125 162 200 248 311 361
#     4  10  19  39  58  90 120 152 208 247 294 362
#     4   9  20  35  65  87 116 158 202 254 294 348
#     4  11  22  37  65  91 120 157 206 257 302 351
#
# _framework density 20.049959000000001
#
# number of rings (size 3 to 8) (size 9 to 14) (size 15 to 20)
#    0.000    1.667    3.333    1.500    0.000    2.000 
#    0.000    0.833    3.667    0.000    0.000    0.000 
#    0.000    0.000    0.000    0.000    0.000    0.000 
#
# Total GULP energy -297574.561004 kJ/mol
# GULP energy per Si atom -12398.940042 kJ/mol
# Density = 2.000432 g / cm^3
# Si number density = 20.049959 Si / 1000 Ang^3
#
#
#
# Elastic Constant Matrix: (Units=GPa)
#
#
# Indices 1 2 3 4 5 6 
#
# 1 129.7349 47.0696 64.0284 -0.0010 10.5534 0.0014
# 2 47.0696 92.5796 17.1891 0.0002 -6.7543 0.0020
# 3 64.0284 17.1891 71.4448 0.0022 3.8025 -0.0005
# 4 -0.0010 0.0002 0.0022 28.8148 0.0001 -3.0618
# 5 10.5534 -6.7543 3.8025 0.0001 34.0904 -0.0013
# 6 0.0014 0.0020 -0.0005 -3.0618 -0.0013 30.2249
#
#
#
# Elastic Compliance Matrix: (Units=1/GPa)
#
#
# Indices 1 2 3 4 5 6 
#
# 1 0.017220 -0.006610 -0.013569 0.000002 -0.005127 -0.000001
# 2 -0.006610 0.014070 0.002295 -0.000001 0.004578 0.000000
# 3 -0.013569 0.002295 0.025509 -0.000002 0.001810 0.000001
# 4 0.000002 -0.000001 -0.000002 0.035082 0.000000 0.003554
# 5 -0.005127 0.004578 0.001810 0.000000 0.031626 0.000001
# 6 -0.000001 0.000000 0.000001 0.003554 0.000001 0.033445
#
#
# Mechanical properties :
#
#
# Convention : Reuss Voigt Hill
#
# Bulk Modulus (GPa) = 47.54974 61.14816 54.34895
# Shear Modulus (GPa) = 25.03357 29.65749 27.34553
#
# Velocity S-wave (km/s) = 3.53733 3.85018 3.69707
# Velocity P-wave (km/s) = 6.36009 7.09432 6.73721
#
# Compressibility (1/GPa) = 0.02103061
#
# Stress axis : x y z
#
# Youngs Moduli (GPa) = 58.07143 71.07333 39.20145
#
# Poissons Ratio (x) = 0.46978 0.53194
# Poissons Ratio (y) = 0.38384 -0.08996
# Poissons Ratio (z) = 0.78800 -0.16310
#
# Static dielectric constant tensor:
#      x y z
#    x 3.768050 0.000000 0.073530 
#    y 0.000000 3.740320 0.000000 
#    z 0.073530 0.000000 3.455780 
# 
# 
# High freq. dielectric constant tensor:
#      x y z
#    x 1.785970 0.000000 0.002960 
#    y 0.000000 1.784950 0.000000 
#    z 0.002960 0.000000 1.764420 
# 
# From -- ./inp_files/176869.got.cif
#   From: 2010.06.25/outbox.cif.g09.slc.cpg/sg15_89_cif.got.tgz:176869.got - 2010.06.28 07:06:18.
