data_PCOD8135849
_publ_section_title
;
Structure prediction by ZEFSAII (Michael W. Deem and Ramdas Pophale) SiO2 
 PCOD8135849
Probable space group: C 2/C
;
_chemical_formula_sum "Si O2"
_cell_formula_units_Z 52
_cell_length_a 25.993664
_cell_length_b 6.842762
_cell_length_c 15.632944
_cell_angle_alpha 90.000000
_cell_angle_beta 120.197533
_cell_angle_gamma 90.000000
_cell_volume 2403.269319
_symmetry_space_group_name_H-M "C 2/C"
_symmetry_group_IT_number 15
_symmetry_cell_setting 'monoclinic'
loop_
_space_group_symop_operation_xyz
x,y,z
-x,y,1/2-z
-x,-y,-z
x,-y,1/2+z
1/2+x,1/2+y,z
1/2-x,1/2+y,1/2-z
1/2-x,1/2-y,-z
1/2+x,1/2-y,1/2+z
loop_
_atom_site_type_symbol
_atom_site_label
_atom_site_fract_x
_atom_site_fract_y
_atom_site_fract_z
Si Si1 0.180844 0.302939 0.538349
Si Si2 0.397885 0.440056 0.276440
Si Si3 0.068192 0.927565 0.958812
Si Si4 0.317443 0.775256 0.153719
Si Si5 0.963679 0.756291 0.953233
Si Si6 0.372934 0.953560 0.844885
Si Si7 0.500000 0.529253 0.750000
O O1 0.137989 0.115720 0.517894
O O2 0.247535 0.239529 0.612030
O O3 0.172024 0.370647 0.431970
O O4 0.161953 0.466475 0.592973
O O5 0.345945 0.557068 0.182130
O O6 0.430398 0.597611 0.361426
O O7 0.370450 0.267810 0.309715
O O8 0.448756 0.346322 0.256330
O O9 0.034977 0.779149 0.998525
O O10 0.037891 0.883994 0.842331
O O11 0.054887 0.156749 0.969331
O O12 0.341770 0.915114 0.247477
O O13 0.940187 0.536672 0.918066
#
# Coordination Sequence:
#
# PCOD8135849 Si02
#       7
#     8   8   8   8   8   8   4
#     4  11  23  44  67  93 132 177 217 272 328 384
#     4  10  20  42  62  94 127 169 213 265 328 387
#     4  10  19  40  65  89 130 175 207 267 334 381
#     4  10  25  45  63  97 135 168 221 271 322 395
#     4   9  21  39  62  93 129 162 216 267 321 394
#     4  11  24  41  69  99 128 171 220 271 327 391
#     4  10  20  36  66  88 126 174 206 270 326 386
#
# _framework density 21.637194000000001
#
# number of rings (size 3 to 8) (size 9 to 14) (size 15 to 20)
#    0.000    1.846    3.077    0.000    2.154    1.846 
#    2.769    1.538    0.000    0.000    0.000    0.000 
#    0.000    0.000    0.000    0.000    0.000    0.000 
#
# Total GULP energy -322089.858231 kJ/mol
# GULP energy per Si atom -12388.071470 kJ/mol
# Density = 2.158795 g / cm^3
# Si number density = 21.637194 Si / 1000 Ang^3
#
#
#
# Elastic Constant Matrix: (Units=GPa)
#
#
# Indices 1 2 3 4 5 6 
#
# 1 143.3187 28.5253 43.0159 0.0000 2.7815 0.0000
# 2 28.5253 83.3162 28.7293 0.0000 -6.0598 0.0000
# 3 43.0159 28.7293 91.5961 0.0000 -8.4075 0.0000
# 4 0.0000 0.0000 0.0000 24.2957 0.0000 -2.1493
# 5 2.7815 -6.0598 -8.4075 0.0000 43.2246 0.0000
# 6 0.0000 0.0000 0.0000 -2.1493 0.0000 17.8317
#
#
#
# Elastic Compliance Matrix: (Units=1/GPa)
#
#
# Indices 1 2 3 4 5 6 
#
# 1 0.008419 -0.001771 -0.003534 0.000000 -0.001478 0.000000
# 2 -0.001771 0.013881 -0.003393 0.000000 0.001400 0.000000
# 3 -0.003534 -0.003393 0.013866 0.000000 0.002449 0.000000
# 4 0.000000 0.000000 0.000000 0.041603 0.000000 0.005015
# 5 -0.001478 0.001400 0.002449 0.000000 0.023903 0.000000
# 6 0.000000 0.000000 0.000000 0.005015 0.000000 0.056684
#
#
# Mechanical properties :
#
#
# Convention : Reuss Voigt Hill
#
# Bulk Modulus (GPa) = 53.27938 57.64135 55.46036
# Shear Modulus (GPa) = 27.47092 31.60109 29.53601
#
# Velocity S-wave (km/s) = 3.56703 3.82579 3.69868
# Velocity P-wave (km/s) = 6.45309 6.79804 6.62781
#
# Compressibility (1/GPa) = 0.01876899
#
# Stress axis : x y z
#
# Youngs Moduli (GPa) = 118.77326 72.04153 72.11763
#
# Poissons Ratio (x) = 0.12762 0.25486
# Poissons Ratio (y) = 0.21040 0.24472
# Poissons Ratio (z) = 0.41974 0.24446
#
# Static dielectric constant tensor:
#      x y z
#    x 4.310160 0.000000 -0.245190 
#    y 0.000000 3.646420 0.000000 
#    z -0.245190 0.000000 4.461940 
# 
# 
# High freq. dielectric constant tensor:
#      x y z
#    x 1.857800 0.000000 -0.003250 
#    y 0.000000 1.803140 0.000000 
#    z -0.003250 0.000000 1.878130 
# 
# From -- ./inp_files/221345.got.cif
#   From: 2010.06.25/outbox.cif.g09.slc.cpg/sg15_111_cif.got.tgz:221345.got - 2010.06.28 07:06:18.
