data_PCOD8135275
_publ_section_title
;
Structure prediction by ZEFSAII (Michael W. Deem and Ramdas Pophale) SiO2 
 PCOD8135275
Probable space group: C 2/C
;
_chemical_formula_sum "Si O2"
_cell_formula_units_Z 40
_cell_length_a 35.067564
_cell_length_b 5.190278
_cell_length_c 13.532695
_cell_angle_alpha 90.000000
_cell_angle_beta 56.368912
_cell_angle_gamma 90.000000
_cell_volume 2050.821192
_symmetry_space_group_name_H-M "C 2/C"
_symmetry_group_IT_number 15
_symmetry_cell_setting 'monoclinic'
loop_
_space_group_symop_operation_xyz
x,y,z
-x,y,1/2-z
-x,-y,-z
x,-y,1/2+z
1/2+x,1/2+y,z
1/2-x,1/2+y,1/2-z
1/2-x,1/2-y,-z
1/2+x,1/2-y,1/2+z
loop_
_atom_site_type_symbol
_atom_site_label
_atom_site_fract_x
_atom_site_fract_y
_atom_site_fract_z
Si Si1 0.738387 0.247215 0.900468
Si Si2 0.902848 0.275798 0.565400
Si Si3 0.695283 0.250761 0.373615
Si Si4 0.009346 0.059064 0.129940
Si Si5 0.063904 0.214643 0.400435
O O1 0.706460 0.487281 0.916140
O O2 0.783827 0.256703 0.767169
O O3 0.712312 0.983094 0.916309
O O4 0.750000 0.250000 0.000000
O O5 0.858954 0.281783 0.558359
O O6 0.948054 0.260175 0.431296
O O7 0.906578 0.528284 0.628584
O O8 0.900715 0.025300 0.640071
O O9 0.000000 0.942429 0.250000
O O10 0.962463 0.205070 0.165632
O O11 0.022445 0.816843 0.040749
#
# Coordination Sequence:
#
# PCOD8135275 Si02
#       5
#     8   8   8   8   8
#     4  10  21  40  60  83 114 150 180 228 294 341
#     4  10  19  38  54  81 110 144 184 229 265 321
#     4  10  21  38  60  84 116 144 185 237 276 331
#     4   9  20  36  55  78 111 150 182 221 273 322
#     4   9  20  36  53  74 115 145 178 225 272 312
#
# _framework density 19.504382
#
# number of rings (size 3 to 8) (size 9 to 14) (size 15 to 20)
#    1.200    1.200    0.000    2.400    0.000    0.800 
#    7.200    0.000    0.000    0.000    0.000    0.000 
#    0.000    0.000    0.000    0.000    0.000    0.000 
#
# Total GULP energy -247823.344297 kJ/mol
# GULP energy per Si atom -12391.167215 kJ/mol
# Density = 1.945999 g / cm^3
# Si number density = 19.504382 Si / 1000 Ang^3
#
#
#
# Elastic Constant Matrix: (Units=GPa)
#
#
# Indices 1 2 3 4 5 6 
#
# 1 116.4006 25.5232 30.3657 0.0000 13.8464 0.0000
# 2 25.5232 113.2239 16.0883 0.0001 1.8478 0.0005
# 3 30.3657 16.0883 79.0362 0.0000 32.8715 0.0000
# 4 0.0000 0.0001 0.0000 12.6165 0.0000 6.6078
# 5 13.8464 1.8478 32.8715 0.0000 19.5136 0.0000
# 6 0.0000 0.0005 0.0000 6.6078 0.0000 21.6680
#
#
#
# Elastic Compliance Matrix: (Units=1/GPa)
#
#
# Indices 1 2 3 4 5 6 
#
# 1 0.009943 -0.001910 -0.001911 0.000000 -0.003655 0.000000
# 2 -0.001910 0.009807 -0.004809 0.000000 0.008528 0.000000
# 3 -0.001911 -0.004809 0.045466 0.000000 -0.074778 0.000000
# 4 0.000000 0.000000 0.000000 0.094327 0.000000 -0.028766
# 5 -0.003655 0.008528 -0.074778 0.000000 0.178999 0.000000
# 6 0.000000 0.000000 0.000000 -0.028766 0.000000 0.054923
#
#
# Mechanical properties :
#
#
# Convention : Reuss Voigt Hill
#
# Bulk Modulus (GPa) = 20.85288 50.29053 35.57171
# Shear Modulus (GPa) = 11.71752 26.53852 19.12802
#
# Velocity S-wave (km/s) = 2.45371 3.69269 3.13502
# Velocity P-wave (km/s) = 4.32922 6.63487 5.60195
#
# Compressibility (1/GPa) = 0.04795500
#
# Stress axis : x y z
#
# Youngs Moduli (GPa) = 100.57076 101.96958 21.99446
#
# Poissons Ratio (x) = 0.19478 0.04203
# Poissons Ratio (y) = 0.19211 0.10578
# Poissons Ratio (z) = 0.19220 0.49039
#
# Static dielectric constant tensor:
#      x y z
#    x 3.463050 0.000000 0.037350 
#    y 0.000000 3.518070 0.000000 
#    z 0.037350 0.000000 3.247290 
# 
# 
# High freq. dielectric constant tensor:
#      x y z
#    x 1.764900 0.000000 0.012020 
#    y 0.000000 1.764190 0.000000 
#    z 0.012020 0.000000 1.721200 
# 
# From -- ./inp_files/120722.got.cif
#   From: 2010.06.25/outbox.cif.g09.slc.cpg/sg15_61_cif.got.tgz:120722.got - 2010.06.28 07:06:18.
