data_PCOD8135968
_publ_section_title
;
Structure prediction by ZEFSAII (Michael W. Deem and Ramdas Pophale) SiO2 
 PCOD8135968
Probable space group: C 2/C
;
_chemical_formula_sum "Si O2"
_cell_formula_units_Z 48
_cell_length_a 9.557730
_cell_length_b 17.168431
_cell_length_c 30.165598
_cell_angle_alpha 90.000000
_cell_angle_beta 151.397051
_cell_angle_gamma 90.000000
_cell_volume 2369.705305
_symmetry_space_group_name_H-M "C 2/C"
_symmetry_group_IT_number 15
_symmetry_cell_setting 'monoclinic'
loop_
_space_group_symop_operation_xyz
x,y,z
-x,y,1/2-z
-x,-y,-z
x,-y,1/2+z
1/2+x,1/2+y,z
1/2-x,1/2+y,1/2-z
1/2-x,1/2-y,-z
1/2+x,1/2-y,1/2+z
loop_
_atom_site_type_symbol
_atom_site_label
_atom_site_fract_x
_atom_site_fract_y
_atom_site_fract_z
Si Si1 0.720070 0.821419 0.702841
Si Si2 0.591226 0.899018 0.326602
Si Si3 0.725365 0.554923 0.920595
Si Si4 0.225221 0.159488 0.001767
Si Si5 0.819590 0.448770 0.739196
Si Si6 0.940512 0.176792 0.783674
O O1 0.471158 0.864733 0.605426
O O2 0.559142 0.749293 0.682011
O O3 0.000000 0.797327 0.750000
O O4 0.820048 0.885707 0.766645
O O5 0.500000 0.879008 0.250000
O O6 0.555790 0.991470 0.326352
O O7 0.385544 0.855494 0.304242
O O8 0.906126 0.867446 0.428413
O O9 0.797336 0.618392 0.976625
O O10 0.440018 0.503400 0.852314
O O11 0.668790 0.607131 0.860541
O O12 0.000000 0.500000 0.000000
O O13 0.250000 0.250000 0.000000
O O14 0.000000 0.405566 0.750000
O O15 0.000000 0.204152 0.750000
#
# Coordination Sequence:
#
# PCOD8135968 Si02
#       6
#     8   8   8   8   8   8
#     4  12  25  41  69  98 131 180 233 276 335 410
#     4  10  19  41  67  91 131 178 212 270 340 400
#     4  11  23  41  68 101 138 174 224 284 338 404
#     4  12  21  40  71  98 128 181 231 270 332 410
#     4  10  21  43  64  92 140 176 213 280 345 389
#     4  11  23  43  66  95 137 175 219 281 342 395
#
# _framework density 20.255682
#
# number of rings (size 3 to 8) (size 9 to 14) (size 15 to 20)
#    0.000    1.000    6.667    3.000    0.000    6.000 
#    3.000    0.833    0.000    0.000    0.000    0.000 
#    0.000    0.000    0.000    0.000    0.000    0.000 
#
# Total GULP energy -297334.058011 kJ/mol
# GULP energy per Si atom -12388.919084 kJ/mol
# Density = 2.020958 g / cm^3
# Si number density = 20.255682 Si / 1000 Ang^3
#
#
#
# Elastic Constant Matrix: (Units=GPa)
#
#
# Indices 1 2 3 4 5 6 
#
# 1 121.9250 38.3967 39.1316 -0.0011 4.7661 -0.0022
# 2 38.3967 105.7064 37.7248 -0.0026 7.1027 -0.0023
# 3 39.1316 37.7248 121.7144 0.0020 11.6450 -0.0036
# 4 -0.0011 -0.0026 0.0020 34.7032 -0.0016 0.8336
# 5 4.7661 7.1027 11.6450 -0.0016 28.2551 -0.0014
# 6 -0.0022 -0.0023 -0.0036 0.8336 -0.0014 34.9093
#
#
#
# Elastic Compliance Matrix: (Units=1/GPa)
#
#
# Indices 1 2 3 4 5 6 
#
# 1 0.009803 -0.002739 -0.002301 0.000000 -0.000017 0.000000
# 2 -0.002739 0.011453 -0.002538 0.000001 -0.001371 0.000000
# 3 -0.002301 -0.002538 0.010040 -0.000001 -0.003112 0.000001
# 4 0.000000 0.000001 -0.000001 0.028832 0.000002 -0.000689
# 5 -0.000017 -0.001371 -0.003112 0.000002 0.037022 0.000001
# 6 0.000000 0.000000 0.000001 -0.000689 0.000001 0.028662
#
#
# Mechanical properties :
#
#
# Convention : Reuss Voigt Hill
#
# Bulk Modulus (GPa) = 61.95651 64.42799 63.19225
# Shear Modulus (GPa) = 34.16484 35.17968 34.67226
#
# Velocity S-wave (km/s) = 4.11138 4.17199 4.14179
# Velocity P-wave (km/s) = 7.29325 7.42184 7.35783
#
# Compressibility (1/GPa) = 0.01614035
#
# Stress axis : x y z
#
# Youngs Moduli (GPa) = 102.00450 87.31460 99.59886
#
# Poissons Ratio (x) = 0.23911 0.22922
# Poissons Ratio (y) = 0.27934 0.25279
# Poissons Ratio (z) = 0.23476 0.22162
#
# Static dielectric constant tensor:
#      x y z
#    x 4.087030 -0.000090 0.679290 
#    y -0.000090 3.819430 -0.000160 
#    z 0.679290 -0.000160 4.862890 
# 
# 
# High freq. dielectric constant tensor:
#      x y z
#    x 1.780220 0.000000 0.011260 
#    y 0.000000 1.802680 0.000000 
#    z 0.011260 0.000000 1.782480 
# 
# From -- ./inp_files/190237.got.cif
#   From: 2010.06.25/outbox.cif.g09.slc.cpg/sg15_96_cif.got.tgz:190237.got - 2010.06.28 07:06:18.
