data_PCOD8135767
_publ_section_title
;
Structure prediction by ZEFSAII (Michael W. Deem and Ramdas Pophale) SiO2 
 PCOD8135767
Probable space group: C 2/C
;
_chemical_formula_sum "Si O2"
_cell_formula_units_Z 64
_cell_length_a 8.749064
_cell_length_b 19.920295
_cell_length_c 21.338844
_cell_angle_alpha 90.000000
_cell_angle_beta 123.786639
_cell_angle_gamma 90.000000
_cell_volume 3090.928329
_symmetry_space_group_name_H-M "C 2/C"
_symmetry_group_IT_number 15
_symmetry_cell_setting 'monoclinic'
loop_
_space_group_symop_operation_xyz
x,y,z
-x,y,1/2-z
-x,-y,-z
x,-y,1/2+z
1/2+x,1/2+y,z
1/2-x,1/2+y,1/2-z
1/2-x,1/2-y,-z
1/2+x,1/2-y,1/2+z
loop_
_atom_site_type_symbol
_atom_site_label
_atom_site_fract_x
_atom_site_fract_y
_atom_site_fract_z
Si Si1 0.749004 0.343460 0.544647
Si Si2 0.917744 0.426410 0.478392
Si Si3 0.716136 0.418984 0.306520
Si Si4 0.953786 0.230997 0.910412
Si Si5 0.826601 0.705582 0.756649
Si Si6 0.342419 0.658346 0.336312
Si Si7 0.761139 0.651271 0.417335
Si Si8 0.214994 0.930998 0.787210
O O1 0.823406 0.407515 0.523249
O O2 0.541477 0.327911 0.472669
O O3 0.749719 0.356814 0.618575
O O4 0.880285 0.280282 0.566819
O O5 0.762463 0.416805 0.390593
O O6 0.000000 0.500000 0.500000
O O7 0.087459 0.376444 0.499218
O O8 0.500000 0.405405 0.250000
O O9 0.835623 0.363990 0.296585
O O10 0.778023 0.491988 0.295187
O O11 0.862008 0.203208 0.826164
O O12 0.794431 0.269709 0.912954
O O13 0.820778 0.766143 0.805413
O O14 0.000000 0.714066 0.750000
O O15 0.556326 0.639529 0.393698
O O16 0.238523 0.607846 0.265974
O O17 0.811315 0.608699 0.365788
O O18 0.000000 0.926950 0.750000
#
# Coordination Sequence:
#
# PCOD8135767 Si02
#       8
#     8   8   8   8   8   8   8   8
#     4  10  25  39  63  99 129 166 225 274 327 383
#     4  11  23  45  66  92 128 179 220 264 333 399
#     4  11  25  42  69  92 129 174 217 269 331 394
#     4  10  21  42  60  89 135 170 210 275 323 398
#     4  12  24  41  63  99 134 169 215 271 340 388
#     4  11  22  40  68 100 126 172 223 273 323 388
#     4  10  19  39  68  90 126 174 215 264 322 403
#     4   9  18  40  64  90 122 172 218 255 321 396
#
# _framework density 20.705753999999999
#
# number of rings (size 3 to 8) (size 9 to 14) (size 15 to 20)
#    0.000    1.500    3.750    1.125    7.000    1.500 
#    2.250    0.625    0.000    0.000    0.000    0.000 
#    0.000    0.000    0.000    0.000    0.000    0.000 
#
# Total GULP energy -396728.852918 kJ/mol
# GULP energy per Si atom -12397.776654 kJ/mol
# Density = 2.065863 g / cm^3
# Si number density = 20.705754 Si / 1000 Ang^3
#
#
#
# Elastic Constant Matrix: (Units=GPa)
#
#
# Indices 1 2 3 4 5 6 
#
# 1 58.1110 24.9536 36.0087 0.0000 -13.2149 0.0000
# 2 24.9536 119.0227 38.3236 0.0000 -15.9169 0.0000
# 3 36.0087 38.3236 122.8873 0.0000 -2.6725 0.0000
# 4 0.0000 0.0000 0.0000 34.0708 0.0000 0.8264
# 5 -13.2149 -15.9169 -2.6725 0.0000 36.5676 0.0000
# 6 0.0000 0.0000 0.0000 0.8264 0.0000 25.3885
#
#
#
# Elastic Compliance Matrix: (Units=1/GPa)
#
#
# Indices 1 2 3 4 5 6 
#
# 1 0.023477 -0.001999 -0.006100 0.000000 0.007168 0.000000
# 2 -0.001999 0.010087 -0.002484 0.000000 0.003487 0.000000
# 3 -0.006100 -0.002484 0.010645 0.000000 -0.002508 0.000000
# 4 0.000000 0.000000 0.000000 0.029374 0.000000 -0.000956
# 5 0.007168 0.003487 -0.002508 0.000000 0.031271 0.000000
# 6 0.000000 0.000000 0.000000 -0.000956 0.000000 0.039419
#
#
# Mechanical properties :
#
#
# Convention : Reuss Voigt Hill
#
# Bulk Modulus (GPa) = 43.39825 55.39921 49.39873
# Shear Modulus (GPa) = 28.88163 32.58773 30.73468
#
# Velocity S-wave (km/s) = 3.73883 3.97148 3.85691
# Velocity P-wave (km/s) = 6.29631 6.91692 6.61390
#
# Compressibility (1/GPa) = 0.02304241
#
# Stress axis : x y z
#
# Youngs Moduli (GPa) = 42.59520 99.13727 93.94025
#
# Poissons Ratio (x) = 0.19821 0.57302
# Poissons Ratio (y) = 0.08516 0.23335
# Poissons Ratio (z) = 0.25982 0.24626
#
# Static dielectric constant tensor:
#      x y z
#    x 3.475690 0.000000 0.217290 
#    y 0.000000 3.831060 0.000000 
#    z 0.217290 0.000000 4.173210 
# 
# 
# High freq. dielectric constant tensor:
#      x y z
#    x 1.788110 0.000000 0.019730 
#    y 0.000000 1.803330 0.000000 
#    z 0.019730 0.000000 1.828510 
# 
# From -- ./inp_files/233890.got.cif
#   From: 2010.06.25/outbox.cif.g09.slc.cpg/sg15_117_cif.got.tgz:233890.got - 2010.06.28 07:06:18.
