data_PCOD8136416
_publ_section_title
;
Structure prediction by ZEFSAII (Michael W. Deem and Ramdas Pophale) SiO2 
 PCOD8136416
Probable space group: C 2/C
;
_chemical_formula_sum "Si O2"
_cell_formula_units_Z 64
_cell_length_a 29.748263
_cell_length_b 15.539885
_cell_length_c 8.950877
_cell_angle_alpha 90.000000
_cell_angle_beta 47.413346
_cell_angle_gamma 90.000000
_cell_volume 3046.513464
_symmetry_space_group_name_H-M "C 2/C"
_symmetry_group_IT_number 15
_symmetry_cell_setting 'monoclinic'
loop_
_space_group_symop_operation_xyz
x,y,z
-x,y,1/2-z
-x,-y,-z
x,-y,1/2+z
1/2+x,1/2+y,z
1/2-x,1/2+y,1/2-z
1/2-x,1/2-y,-z
1/2+x,1/2-y,1/2+z
loop_
_atom_site_type_symbol
_atom_site_label
_atom_site_fract_x
_atom_site_fract_y
_atom_site_fract_z
Si Si1 0.138590 0.388401 0.209517
Si Si2 0.208476 0.379061 0.547493
Si Si3 0.840154 0.499787 0.091592
Si Si4 0.784132 0.090096 0.394157
Si Si5 0.344584 0.554403 0.949470
Si Si6 0.877895 0.796999 0.841771
Si Si7 0.340254 0.705146 0.763625
Si Si8 0.040104 0.944639 0.799857
O O1 0.115308 0.438503 0.409663
O O2 0.109924 0.294399 0.263765
O O3 0.117927 0.441706 0.109595
O O4 0.212421 0.390438 0.054796
O O5 0.203237 0.438119 0.411673
O O6 0.200521 0.438539 0.711769
O O7 0.273083 0.333473 0.397257
O O8 0.159479 0.300602 0.664009
O O9 0.815364 0.167330 0.413950
O O10 0.801384 0.999411 0.432982
O O11 0.805453 0.089021 0.175253
O O12 0.374008 0.636868 0.796536
O O13 0.400275 0.497564 0.887382
O O14 0.935383 0.858315 0.673498
O O15 0.873168 0.788628 0.030548
O O16 0.000000 0.917437 0.750000
O O17 0.000000 0.000000 0.000000
#
# Coordination Sequence:
#
# PCOD8136416 Si02
#       8
#     8   8   8   8   8   8   8   8
#     4  11  20  34  54  82 122 161 201 233 293 365
#     4  10  21  34  52  75 120 166 202 236 284 344
#     4  10  20  34  50  73 110 166 196 232 282 346
#     4  11  21  33  52  84 120 162 191 245 286 372
#     4  11  22  36  59  84 117 159 204 241 310 359
#     4  11  23  36  56  86 116 153 208 248 305 360
#     4  11  21  34  51  83 116 154 204 251 282 355
#     4  11  23  43  63  84 115 154 203 264 304 346
#
# _framework density 21.007621
#
# number of rings (size 3 to 8) (size 9 to 14) (size 15 to 20)
#    0.000    1.250    1.250    7.875    3.500    1.000 
#    0.000    0.000    0.000    0.000    0.000    0.875 
#    0.000    0.000    0.000    0.000    0.000    0.000 
#
# Total GULP energy -396669.521041 kJ/mol
# GULP energy per Si atom -12395.922533 kJ/mol
# Density = 2.095981 g / cm^3
# Si number density = 21.007621 Si / 1000 Ang^3
#
#
#
# Elastic Constant Matrix: (Units=GPa)
#
#
# Indices 1 2 3 4 5 6 
#
# 1 70.4306 45.6950 21.4481 0.0000 13.6744 0.0000
# 2 45.6950 164.2010 27.2056 0.0000 5.6740 0.0000
# 3 21.4481 27.2056 47.7916 0.0000 15.5589 0.0000
# 4 0.0000 0.0000 0.0000 30.1990 0.0000 9.6626
# 5 13.6744 5.6740 15.5589 0.0000 28.8512 0.0000
# 6 0.0000 0.0000 0.0000 9.6626 0.0000 30.1146
#
#
#
# Elastic Compliance Matrix: (Units=1/GPa)
#
#
# Indices 1 2 3 4 5 6 
#
# 1 0.019627 -0.004551 -0.004222 0.000000 -0.006131 0.000000
# 2 -0.004551 0.007799 -0.003154 0.000000 0.002324 0.000000
# 3 -0.004222 -0.003154 0.028821 0.000000 -0.012921 0.000000
# 4 0.000000 0.000000 0.000000 0.036902 0.000000 -0.011840
# 5 -0.006131 0.002324 -0.012921 0.000000 0.044077 0.000000
# 6 0.000000 0.000000 0.000000 -0.011840 0.000000 0.037006
#
#
# Mechanical properties :
#
#
# Convention : Reuss Voigt Hill
#
# Bulk Modulus (GPa) = 30.87011 52.34673 41.60842
# Shear Modulus (GPa) = 23.93702 30.37128 27.15415
#
# Velocity S-wave (km/s) = 3.37923 3.80640 3.59916
# Velocity P-wave (km/s) = 5.47286 6.65509 6.09272
#
# Compressibility (1/GPa) = 0.03239380
#
# Stress axis : x y z
#
# Youngs Moduli (GPa) = 50.95109 128.22694 34.69718
#
# Poissons Ratio (x) = 0.58350 0.14649
# Poissons Ratio (y) = 0.23185 0.10943
# Poissons Ratio (z) = 0.21511 0.40440
#
# Static dielectric constant tensor:
#      x y z
#    x -27.553880 0.000000 -27.307800 
#    y 0.000000 4.457180 0.000000 
#    z -27.307800 0.000000 -20.832950 
# 
# 
# High freq. dielectric constant tensor:
#      x y z
#    x 1.793310 0.000000 0.044160 
#    y 0.000000 1.844140 0.000000 
#    z 0.044160 0.000000 1.795800 
# 
# From -- ./inp_files/70133.got.cif
#   From: 2010.06.25/outbox.cif.g09.slc.cpg/sg15_36_cif.got.tgz:70133.got - 2010.06.28 07:06:18.
