data_PCOD8136366
_publ_section_title
;
Structure prediction by ZEFSAII (Michael W. Deem and Ramdas Pophale) SiO2 
 PCOD8136366
Probable space group: C 2/C
;
_chemical_formula_sum "Si O2"
_cell_formula_units_Z 56
_cell_length_a 14.747275
_cell_length_b 29.172701
_cell_length_c 9.819064
_cell_angle_alpha 90.000000
_cell_angle_beta 137.014711
_cell_angle_gamma 90.000000
_cell_volume 2880.197260
_symmetry_space_group_name_H-M "C 2/C"
_symmetry_group_IT_number 15
_symmetry_cell_setting 'monoclinic'
loop_
_space_group_symop_operation_xyz
x,y,z
-x,y,1/2-z
-x,-y,-z
x,-y,1/2+z
1/2+x,1/2+y,z
1/2-x,1/2+y,1/2-z
1/2-x,1/2-y,-z
1/2+x,1/2-y,1/2+z
loop_
_atom_site_type_symbol
_atom_site_label
_atom_site_fract_x
_atom_site_fract_y
_atom_site_fract_z
Si Si1 0.012996 0.309831 0.923869
Si Si2 0.157081 0.912528 0.410493
Si Si3 0.096023 0.992409 0.736765
Si Si4 0.742486 0.145978 0.247153
Si Si5 0.154051 0.101171 0.391872
Si Si6 0.783006 0.854280 0.270481
Si Si7 0.482934 0.296144 0.073894
O O1 0.987654 0.256591 0.924498
O O2 0.000000 0.320972 0.750000
O O3 0.909747 0.340784 0.894716
O O4 0.157900 0.320764 0.142429
O O5 0.219447 0.900510 0.625738
O O6 0.230550 0.879869 0.386877
O O7 0.000000 0.904487 0.250000
O O8 0.182126 0.963827 0.379028
O O9 0.185281 0.946319 0.841157
O O10 0.000000 0.978088 0.750000
O O11 0.000000 0.000000 0.500000
O O12 0.772965 0.138347 0.122133
O O13 0.830619 0.190029 0.382951
O O14 0.220420 0.107444 0.613614
O O15 0.000000 0.112099 0.250000
O O16 0.919529 0.825142 0.417386
O O17 0.500000 0.308519 0.250000
#
# Coordination Sequence:
#
# PCOD8136366 Si02
#       7
#     8   8   8   8   8   8   8
#     4  11  24  39  60  91 118 158 209 256 297 353
#     4  11  18  34  61  88 117 150 203 249 300 347
#     4  10  20  33  57  93 124 148 195 256 298 344
#     4  12  21  38  61  87 121 159 198 248 301 363
#     4  11  22  38  60  89 127 156 192 245 309 361
#     4  12  21  38  61  88 124 160 197 250 305 359
#     4  11  20  38  64  89 114 153 214 266 297 339
#
# _framework density 19.443114000000001
#
# number of rings (size 3 to 8) (size 9 to 14) (size 15 to 20)
#    0.000    0.857    5.714    4.286    0.000    2.857 
#    0.000    4.286    0.000    5.143    0.000    0.000 
#    0.000    0.000    0.000    0.000    0.000    0.000 
#
# Total GULP energy -346896.003009 kJ/mol
# GULP energy per Si atom -12389.142965 kJ/mol
# Density = 1.939886 g / cm^3
# Si number density = 19.443114 Si / 1000 Ang^3
#
#
#
# Elastic Constant Matrix: (Units=GPa)
#
#
# Indices 1 2 3 4 5 6 
#
# 1 95.4652 36.5927 24.7730 0.0000 -5.3494 0.0000
# 2 36.5927 92.7399 23.3968 0.0000 -3.2359 0.0000
# 3 24.7730 23.3968 64.8299 0.0000 -10.7361 0.0000
# 4 0.0000 0.0000 0.0000 1.4168 0.0000 2.5240
# 5 -5.3494 -3.2359 -10.7361 0.0000 30.1025 0.0000
# 6 0.0000 0.0000 0.0000 2.5240 0.0000 13.7567
#
#
#
# Elastic Compliance Matrix: (Units=1/GPa)
#
#
# Indices 1 2 3 4 5 6 
#
# 1 0.013012 -0.004273 -0.003319 0.000000 0.000669 0.000000
# 2 -0.004273 0.013268 -0.003236 0.000000 -0.000487 0.000000
# 3 -0.003319 -0.003236 0.018817 0.000000 0.005774 0.000000
# 4 0.000000 0.000000 0.000000 1.048547 0.000000 -0.192382
# 5 0.000669 -0.000487 0.005774 0.000000 0.035345 0.000000
# 6 0.000000 0.000000 0.000000 -0.192382 0.000000 0.107989
#
#
# Mechanical properties :
#
#
# Convention : Reuss Voigt Hill
#
# Bulk Modulus (GPa) = 42.66180 46.95112 44.80646
# Shear Modulus (GPa) = 3.94804 20.27336 12.11070
#
# Velocity S-wave (km/s) = 1.42652 3.23259 2.49846
# Velocity P-wave (km/s) = 4.97019 6.17521 5.60518
#
# Compressibility (1/GPa) = 0.02344017
#
# Stress axis : x y z
#
# Youngs Moduli (GPa) = 76.85302 75.36649 53.14245
#
# Poissons Ratio (x) = 0.32207 0.17638
# Poissons Ratio (y) = 0.32843 0.17198
# Poissons Ratio (z) = 0.25508 0.24391
#
# Static dielectric constant tensor:
#      x y z
#    x 3.519350 0.000000 -0.254970 
#    y 0.000000 3.771960 0.000000 
#    z -0.254970 0.000000 3.397460 
# 
# 
# High freq. dielectric constant tensor:
#      x y z
#    x 1.748970 0.000000 -0.021830 
#    y 0.000000 1.763820 0.000000 
#    z -0.021830 0.000000 1.732630 
# 
# From -- ./inp_files/44603.got.cif
#   From: 2010.06.25/outbox.cif.g09.slc.cpg/sg15_23_cif.got.tgz:44603.got - 2010.06.28 07:06:18.
