data_PCOD8136832
_publ_section_title
;
Structure prediction by ZEFSAII (Michael W. Deem and Ramdas Pophale) SiO2 
 PCOD8136832
Probable space group: C 2/C
;
_chemical_formula_sum "Si O2"
_cell_formula_units_Z 64
_cell_length_a 18.224852
_cell_length_b 24.013625
_cell_length_c 14.819046
_cell_angle_alpha 90.000000
_cell_angle_beta 29.090296
_cell_angle_gamma 90.000000
_cell_volume 3153.157521
_symmetry_space_group_name_H-M "C 2/C"
_symmetry_group_IT_number 15
_symmetry_cell_setting 'monoclinic'
loop_
_space_group_symop_operation_xyz
x,y,z
-x,y,1/2-z
-x,-y,-z
x,-y,1/2+z
1/2+x,1/2+y,z
1/2-x,1/2+y,1/2-z
1/2-x,1/2-y,-z
1/2+x,1/2-y,1/2+z
loop_
_atom_site_type_symbol
_atom_site_label
_atom_site_fract_x
_atom_site_fract_y
_atom_site_fract_z
Si Si1 0.712588 0.695724 0.096835
Si Si2 0.366088 0.427433 0.646753
Si Si3 0.422564 0.135324 0.000466
Si Si4 0.867743 0.772942 0.444409
Si Si5 0.548888 0.321253 0.493675
Si Si6 0.420916 0.214070 0.155012
Si Si7 0.753494 0.385364 0.398392
Si Si8 0.446979 0.509680 0.407634
O O1 0.554763 0.705625 0.316574
O O2 0.750000 0.750000 0.000000
O O3 0.845637 0.684558 0.025052
O O4 0.695832 0.640445 0.054320
O O5 0.459714 0.370423 0.539049
O O6 0.381963 0.457353 0.533000
O O7 0.419533 0.464150 0.675060
O O8 0.190803 0.414782 0.854486
O O9 0.565584 0.109912 0.795062
O O10 0.483674 0.165396 0.024844
O O11 0.750000 0.750000 0.500000
O O12 0.754159 0.805047 0.634237
O O13 0.000000 0.808915 0.250000
O O14 0.960462 0.721570 0.390838
O O15 0.593922 0.274919 0.373877
O O16 0.701344 0.345157 0.373387
O O17 0.687655 0.446597 0.459227
O O18 0.500000 0.491453 0.250000
#
# Coordination Sequence:
#
# PCOD8136832 Si02
#       8
#     8   8   8   8   8   8   8   8
#     4  11  21  34  51  82 124 162 195 226 272 350
#     4   9  21  39  59  84 114 147 197 249 289 350
#     4  11  22  34  53  86 120 152 186 232 288 347
#     4   9  19  33  50  71  95 137 191 235 272 319
#     4  10  20  35  54  79 113 154 191 227 277 343
#     4  11  19  34  54  77 112 149 184 217 277 350
#     4  11  21  33  54  82 114 150 187 231 286 345
#     4  10  20  40  64  82 106 149 199 248 301 351
#
# _framework density 20.297114000000001
#
# number of rings (size 3 to 8) (size 9 to 14) (size 15 to 20)
#    0.000    1.750    0.000    6.750    0.000    1.500 
#    0.000    6.250    0.000    1.500    0.000    0.000 
#    0.000    0.000    0.000    0.000    0.000    0.000 
#
# Total GULP energy -396635.853359 kJ/mol
# GULP energy per Si atom -12394.870417 kJ/mol
# Density = 2.025092 g / cm^3
# Si number density = 20.297114 Si / 1000 Ang^3
#
#
#
# Elastic Constant Matrix: (Units=GPa)
#
#
# Indices 1 2 3 4 5 6 
#
# 1 96.6417 26.9914 43.9459 0.0554 7.4598 0.0228
# 2 26.9914 70.2494 33.2781 0.0975 12.3437 -0.0689
# 3 43.9459 33.2781 127.4039 0.2530 -1.7137 -0.1291
# 4 0.0554 0.0975 0.2530 27.6366 -0.0823 7.4944
# 5 7.4598 12.3437 -1.7137 -0.0823 37.1120 0.0316
# 6 0.0228 -0.0689 -0.1291 7.4944 0.0316 27.9343
#
#
#
# Elastic Compliance Matrix: (Units=1/GPa)
#
#
# Indices 1 2 3 4 5 6 
#
# 1 0.013004 -0.002898 -0.003753 0.000024 -0.001823 -0.000039
# 2 -0.002898 0.018145 -0.003815 -0.000054 -0.005629 0.000050
# 3 -0.003753 -0.003815 0.010174 -0.000081 0.002493 0.000060
# 4 0.000024 -0.000054 -0.000081 0.039024 0.000105 -0.010470
# 5 -0.001823 -0.005629 0.002493 0.000105 0.029300 -0.000062
# 6 -0.000039 0.000050 0.000060 -0.010470 -0.000062 0.038608
#
#
# Mechanical properties :
#
#
# Convention : Reuss Voigt Hill
#
# Bulk Modulus (GPa) = 49.04427 55.85840 52.45134
# Shear Modulus (GPa) = 28.41137 31.20855 29.80996
#
# Velocity S-wave (km/s) = 3.74541 3.92546 3.83649
# Velocity P-wave (km/s) = 6.55132 6.93727 6.74706
#
# Compressibility (1/GPa) = 0.02038974
#
# Stress axis : x y z
#
# Youngs Moduli (GPa) = 76.89696 55.11099 98.28977
#
# Poissons Ratio (x) = 0.15973 0.36890
# Poissons Ratio (y) = 0.22287 0.37501
# Poissons Ratio (z) = 0.28861 0.21027
#
# Static dielectric constant tensor:
#      x y z
#    x 4.021510 -0.000370 0.155470 
#    y -0.000370 3.359890 0.000380 
#    z 0.155470 0.000380 4.306080 
# 
# 
# High freq. dielectric constant tensor:
#      x y z
#    x 1.809100 -0.000020 0.001280 
#    y -0.000020 1.751130 0.000020 
#    z 0.001280 0.000020 1.805300 
# 
# From -- ./inp_files/164206.got.cif
#   From: 2010.06.25/outbox.cif.g09.slc.cpg/sg15_83_cif.got.tgz:164206.got - 2010.06.28 07:06:18.
