data_PCOD8136630
_publ_section_title
;
Structure prediction by ZEFSAII (Michael W. Deem and Ramdas Pophale) SiO2 
 PCOD8136630
Probable space group: C 2/C
;
_chemical_formula_sum "Si O2"
_cell_formula_units_Z 44
_cell_length_a 20.507521
_cell_length_b 12.806865
_cell_length_c 12.515762
_cell_angle_alpha 90.000000
_cell_angle_beta 142.543984
_cell_angle_gamma 90.000000
_cell_volume 1999.058892
_symmetry_space_group_name_H-M "C 2/C"
_symmetry_group_IT_number 15
_symmetry_cell_setting 'monoclinic'
loop_
_space_group_symop_operation_xyz
x,y,z
-x,y,1/2-z
-x,-y,-z
x,-y,1/2+z
1/2+x,1/2+y,z
1/2-x,1/2+y,1/2-z
1/2-x,1/2-y,-z
1/2+x,1/2-y,1/2+z
loop_
_atom_site_type_symbol
_atom_site_label
_atom_site_fract_x
_atom_site_fract_y
_atom_site_fract_z
Si Si1 0.190741 0.997922 0.434595
Si Si2 0.390053 0.028974 0.566773
Si Si3 0.127178 0.209588 0.734054
Si Si4 0.740784 0.382298 0.702215
Si Si5 0.000000 0.329101 0.750000
Si Si6 0.451693 0.606293 0.394710
O O1 0.304917 0.046804 0.551072
O O2 0.176762 0.898407 0.338670
O O3 0.190903 0.970849 0.559470
O O4 0.096158 0.082791 0.286242
O O5 0.500000 0.085661 0.750000
O O6 0.413910 0.905254 0.579404
O O7 0.346528 0.075039 0.398999
O O8 0.224356 0.283946 0.824585
O O9 0.058828 0.256791 0.741574
O O10 0.047121 0.191185 0.527968
O O11 0.647284 0.352265 0.661671
O O12 0.500000 0.500000 0.500000
#
# Coordination Sequence:
#
# PCOD8136630 Si02
#       6
#     8   8   8   8   4   8
#     4  10  20  37  58  90 119 154 200 245 302 365
#     4   9  21  36  54  84 118 148 195 249 292 356
#     4  11  21  34  61  90 118 152 204 254 298 354
#     4  11  20  36  67  82 116 164 198 244 307 351
#     4  10  20  34  58  86 114 142 202 256 282 350
#     4   9  22  39  57  92 126 152 197 256 301 359
#
# _framework density 22.010356999999999
#
# number of rings (size 3 to 8) (size 9 to 14) (size 15 to 20)
#    0.545    1.455    1.818    1.636    2.545    5.091 
#    0.000    0.000   12.000    3.273    0.000    0.000 
#    0.000    0.000    0.000    0.000    0.000    0.000 
#
# Total GULP energy -272591.834056 kJ/mol
# GULP energy per Si atom -12390.537912 kJ/mol
# Density = 2.196026 g / cm^3
# Si number density = 22.010357 Si / 1000 Ang^3
#
#
#
# Elastic Constant Matrix: (Units=GPa)
#
#
# Indices 1 2 3 4 5 6 
#
# 1 32.5794 5.5315 5.3462 0.0000 2.9888 0.0000
# 2 5.5315 30.5718 7.0605 0.0000 -0.0772 0.0000
# 3 5.3462 7.0605 132.9658 0.0000 -1.8829 0.0000
# 4 0.0000 0.0000 0.0000 42.3614 0.0000 0.1796
# 5 2.9888 -0.0772 -1.8829 0.0000 33.4479 0.0000
# 6 0.0000 0.0000 0.0000 0.1796 0.0000 12.0992
#
#
#
# Elastic Compliance Matrix: (Units=1/GPa)
#
#
# Indices 1 2 3 4 5 6 
#
# 1 0.032080 -0.005573 -0.001036 0.000000 -0.002938 0.000000
# 2 -0.005573 0.034084 -0.001579 0.000000 0.000488 0.000000
# 3 -0.001036 -0.001579 0.007654 0.000000 0.000520 0.000000
# 4 0.000000 0.000000 0.000000 0.023608 0.000000 -0.000350
# 5 -0.002938 0.000488 0.000520 0.000000 0.030190 0.000000
# 6 0.000000 0.000000 0.000000 -0.000350 0.000000 0.082655
#
#
# Mechanical properties :
#
#
# Convention : Reuss Voigt Hill
#
# Bulk Modulus (GPa) = 17.40846 25.77703 21.59275
# Shear Modulus (GPa) = 20.34238 29.46030 24.90134
#
# Velocity S-wave (km/s) = 3.04339 3.66249 3.36720
# Velocity P-wave (km/s) = 4.50289 5.44259 4.99489
#
# Compressibility (1/GPa) = 0.05744334
#
# Stress axis : x y z
#
# Youngs Moduli (GPa) = 31.17226 29.33929 130.65800
#
# Poissons Ratio (x) = 0.16350 0.13530
# Poissons Ratio (y) = 0.17371 0.20630
# Poissons Ratio (z) = 0.03228 0.04632
#
# Static dielectric constant tensor:
#      x y z
#    x 3.682240 0.000000 0.245140 
#    y 0.000000 3.803770 0.000000 
#    z 0.245140 0.000000 4.551270 
# 
# 
# High freq. dielectric constant tensor:
#      x y z
#    x 1.849440 0.000000 0.023110 
#    y 0.000000 1.832570 0.000000 
#    z 0.023110 0.000000 1.885100 
# 
# From -- ./inp_files/112837.got.cif
#   From: 2010.06.25/outbox.cif.g09.slc.cpg/sg15_57_cif.got.tgz:112837.got - 2010.06.28 07:06:18.
