data_PCOD8136950
_publ_section_title
;
Structure prediction by ZEFSAII (Michael W. Deem and Ramdas Pophale) SiO2 
 PCOD8136950
Probable space group: C 2/C
;
_chemical_formula_sum "Si O2"
_cell_formula_units_Z 40
_cell_length_a 6.221807
_cell_length_b 23.824125
_cell_length_c 13.940941
_cell_angle_alpha 90.000000
_cell_angle_beta 110.039601
_cell_angle_gamma 90.000000
_cell_volume 1941.341906
_symmetry_space_group_name_H-M "C 2/C"
_symmetry_group_IT_number 15
_symmetry_cell_setting 'monoclinic'
loop_
_space_group_symop_operation_xyz
x,y,z
-x,y,1/2-z
-x,-y,-z
x,-y,1/2+z
1/2+x,1/2+y,z
1/2-x,1/2+y,1/2-z
1/2-x,1/2-y,-z
1/2+x,1/2-y,1/2+z
loop_
_atom_site_type_symbol
_atom_site_label
_atom_site_fract_x
_atom_site_fract_y
_atom_site_fract_z
Si Si1 0.104147 0.692218 0.369882
Si Si2 0.528153 0.610769 0.644309
Si Si3 0.446736 0.083037 0.029894
Si Si4 0.743138 0.477501 0.067701
Si Si5 0.940023 0.787442 0.478078
O O1 0.985048 0.638675 0.401850
O O2 0.381988 0.688313 0.414573
O O3 0.000000 0.697285 0.250000
O O4 0.059361 0.749030 0.418297
O O5 0.500000 0.628771 0.750000
O O6 0.276833 0.595296 0.567742
O O7 0.701003 0.557191 0.660164
O O8 0.646579 0.659862 0.598611
O O9 0.407437 0.031851 0.100347
O O10 0.658940 0.066164 0.995817
O O11 0.500000 0.500000 0.000000
O O12 0.750000 0.750000 0.500000
#
# Coordination Sequence:
#
# PCOD8136950 Si02
#       5
#     8   8   8   8   8
#     4  10  21  38  57  87 116 150 199 243 298 362
#     4  10  20  35  57  86 112 149 201 245 295 358
#     4   9  19  37  56  79 117 153 189 247 297 349
#     4   9  18  36  56  77 114 154 193 237 297 351
#     4  10  21  38  60  82 119 156 191 247 303 357
#
# _framework density 20.604303999999999
#
# number of rings (size 3 to 8) (size 9 to 14) (size 15 to 20)
#    0.000    2.400    0.000    1.800    0.000    1.600 
#   10.800    2.000    0.000    0.000    0.000    0.000 
#    0.000    0.000    0.000    0.000    0.000    0.000 
#
# Total GULP energy -247762.947839 kJ/mol
# GULP energy per Si atom -12388.147392 kJ/mol
# Density = 2.055741 g / cm^3
# Si number density = 20.604304 Si / 1000 Ang^3
#
#
#
# Elastic Constant Matrix: (Units=GPa)
#
#
# Indices 1 2 3 4 5 6 
#
# 1 79.5903 21.9670 22.6864 0.0000 -7.4293 0.0000
# 2 21.9670 105.6880 36.2058 0.0000 -2.7529 0.0000
# 3 22.6864 36.2058 114.7644 0.0000 -6.4030 0.0000
# 4 0.0000 0.0000 0.0000 15.4521 0.0000 -7.7571
# 5 -7.4293 -2.7529 -6.4030 0.0000 14.9075 0.0000
# 6 0.0000 0.0000 0.0000 -7.7571 0.0000 51.7661
#
#
#
# Elastic Compliance Matrix: (Units=1/GPa)
#
#
# Indices 1 2 3 4 5 6 
#
# 1 0.014232 -0.002190 -0.001792 0.000000 0.005918 0.000000
# 2 -0.002190 0.010949 -0.003042 0.000000 -0.000376 0.000000
# 3 -0.001792 -0.003042 0.010191 0.000000 0.002922 0.000000
# 4 0.000000 0.000000 0.000000 0.069981 0.000000 0.010487
# 5 0.005918 -0.000376 0.002922 0.000000 0.071215 0.000000
# 6 0.000000 0.000000 0.000000 0.010487 0.000000 0.020889
#
#
# Mechanical properties :
#
#
# Convention : Reuss Voigt Hill
#
# Bulk Modulus (GPa) = 46.89795 51.30678 49.10236
# Shear Modulus (GPa) = 22.87136 31.03737 26.95437
#
# Velocity S-wave (km/s) = 3.33532 3.88539 3.62082
# Velocity P-wave (km/s) = 6.13540 6.71442 6.43143
#
# Compressibility (1/GPa) = 0.02132290
#
# Stress axis : x y z
#
# Youngs Moduli (GPa) = 70.26362 91.32883 98.12923
#
# Poissons Ratio (x) = 0.20001 0.17587
# Poissons Ratio (y) = 0.15388 0.29855
# Poissons Ratio (z) = 0.12593 0.27786
#
# Static dielectric constant tensor:
#      x y z
#    x 3.852410 0.000000 -0.042200 
#    y 0.000000 4.378460 0.000000 
#    z -0.042200 0.000000 3.430130 
# 
# 
# High freq. dielectric constant tensor:
#      x y z
#    x 1.805820 0.000000 -0.007840 
#    y 0.000000 1.835320 0.000000 
#    z -0.007840 0.000000 1.765330 
# 
# From -- ./inp_files/73063.got.cif
#   From: 2010.06.25/outbox.cif.g09.slc.cpg/sg15_37_cif.got.tgz:73063.got - 2010.06.28 07:06:18.
