data_PCOD8136127
_publ_section_title
;
Structure prediction by ZEFSAII (Michael W. Deem and Ramdas Pophale) SiO2 
 PCOD8136127
Probable space group: C 2/C
;
_chemical_formula_sum "Si O2"
_cell_formula_units_Z 60
_cell_length_a 19.610232
_cell_length_b 16.943862
_cell_length_c 9.218148
_cell_angle_alpha 90.000000
_cell_angle_beta 72.527710
_cell_angle_gamma 90.000000
_cell_volume 2921.625083
_symmetry_space_group_name_H-M "C 2/C"
_symmetry_group_IT_number 15
_symmetry_cell_setting 'monoclinic'
loop_
_space_group_symop_operation_xyz
x,y,z
-x,y,1/2-z
-x,-y,-z
x,-y,1/2+z
1/2+x,1/2+y,z
1/2-x,1/2+y,1/2-z
1/2-x,1/2-y,-z
1/2+x,1/2-y,1/2+z
loop_
_atom_site_type_symbol
_atom_site_label
_atom_site_fract_x
_atom_site_fract_y
_atom_site_fract_z
Si Si1 0.117313 0.880684 0.650509
Si Si2 0.149577 0.710256 0.621596
Si Si3 0.922124 0.674956 0.128140
Si Si4 0.544050 0.891944 0.357365
Si Si5 0.759780 0.567698 0.956381
Si Si6 0.000000 0.802396 0.250000
Si Si7 0.013289 0.908567 0.966197
Si Si8 0.343462 0.974980 0.683429
O O1 0.162629 0.801313 0.651053
O O2 0.177097 0.942623 0.555288
O O3 0.084327 0.907398 0.823504
O O4 0.054661 0.870133 0.571946
O O5 0.124595 0.709430 0.471606
O O6 0.087113 0.682844 0.769324
O O7 0.221002 0.658061 0.603227
O O8 0.936573 0.745255 0.233631
O O9 0.877871 0.603868 0.233296
O O10 0.996181 0.638342 0.020734
O O11 0.500000 0.927892 0.250000
O O12 0.596079 0.959749 0.380537
O O13 0.775753 0.506557 0.817035
O O14 0.816739 0.546498 0.041896
O O15 0.972139 0.859617 0.396245
O O16 0.000000 0.000000 0.000000
#
# Coordination Sequence:
#
# PCOD8136127 Si02
#       8
#     8   8   8   8   8   4   8   8
#     4  11  22  43  68  82 117 156 207 256 305 365
#     4   9  18  38  60  90 117 164 207 238 290 363
#     4  10  20  31  59  92 133 155 193 249 302 347
#     4   9  18  32  59  89 129 173 207 233 285 360
#     4  10  23  39  62  85 127 165 209 241 290 368
#     4  12  22  38  64  98 122 146 188 266 324 354
#     4  11  26  44  66  92 112 147 202 266 323 367
#     4  10  22  38  54  91 129 173 206 235 289 361
#
# _framework density 20.536515999999999
#
# number of rings (size 3 to 8) (size 9 to 14) (size 15 to 20)
#    0.000    1.867    1.333    3.200    8.400    0.000 
#    0.000    0.000    0.000    1.600    0.000    0.000 
#    0.000    0.000    0.000    0.000    0.000    0.000 
#
# Total GULP energy -371915.635691 kJ/mol
# GULP energy per Si atom -12397.187856 kJ/mol
# Density = 2.048977 g / cm^3
# Si number density = 20.536516 Si / 1000 Ang^3
#
#
#
# Elastic Constant Matrix: (Units=GPa)
#
#
# Indices 1 2 3 4 5 6 
#
# 1 55.0455 9.4081 28.2633 0.0000 -22.9995 0.0000
# 2 9.4081 112.0703 45.7163 0.0000 -7.8661 0.0000
# 3 28.2633 45.7163 100.5230 0.0000 -19.6230 0.0000
# 4 0.0000 0.0000 0.0000 30.6849 0.0000 3.5334
# 5 -22.9995 -7.8661 -19.6230 0.0000 35.1515 0.0000
# 6 0.0000 0.0000 0.0000 3.5334 0.0000 19.9877
#
#
#
# Elastic Compliance Matrix: (Units=1/GPa)
#
#
# Indices 1 2 3 4 5 6 
#
# 1 0.026844 0.000840 -0.005010 0.000000 0.014955 0.000000
# 2 0.000840 0.010986 -0.005213 0.000000 0.000098 0.000000
# 3 -0.005010 -0.005213 0.014433 0.000000 0.003612 0.000000
# 4 0.000000 0.000000 0.000000 0.033266 0.000000 -0.005881
# 5 0.014955 0.000098 0.003612 0.000000 0.040272 0.000000
# 6 0.000000 0.000000 0.000000 -0.005881 0.000000 0.051070
#
#
# Mechanical properties :
#
#
# Convention : Reuss Voigt Hill
#
# Bulk Modulus (GPa) = 29.85443 48.26825 39.06134
# Shear Modulus (GPa) = 24.17746 29.44825 26.81285
#
# Velocity S-wave (km/s) = 3.43489 3.79086 3.61725
# Velocity P-wave (km/s) = 5.50455 6.53570 6.04217
#
# Compressibility (1/GPa) = 0.03349586
#
# Stress axis : x y z
#
# Youngs Moduli (GPa) = 37.25161 91.02518 69.28688
#
# Poissons Ratio (x) = -0.07646 0.34715
# Poissons Ratio (y) = -0.03129 0.36122
# Poissons Ratio (z) = 0.18664 0.47455
#
# Static dielectric constant tensor:
#      x y z
#    x 3.563080 0.000000 -0.099320 
#    y 0.000000 3.831610 0.000000 
#    z -0.099320 0.000000 3.690660 
# 
# 
# High freq. dielectric constant tensor:
#      x y z
#    x 1.785340 0.000000 -0.008140 
#    y 0.000000 1.811200 0.000000 
#    z -0.008140 0.000000 1.795300 
# 
# From -- ./inp_files/56553.got.cif
#   From: 2010.06.25/outbox.cif.g09.slc.cpg/sg15_29_cif.got.tgz:56553.got - 2010.06.28 07:06:18.
