data_PCOD8136940
_publ_section_title
;
Structure prediction by ZEFSAII (Michael W. Deem and Ramdas Pophale) SiO2 
 PCOD8136940
Probable space group: C 2/C
;
_chemical_formula_sum "Si O2"
_cell_formula_units_Z 56
_cell_length_a 15.325964
_cell_length_b 17.139344
_cell_length_c 12.765551
_cell_angle_alpha 90.000000
_cell_angle_beta 59.907397
_cell_angle_gamma 90.000000
_cell_volume 2901.256882
_symmetry_space_group_name_H-M "C 2/C"
_symmetry_group_IT_number 15
_symmetry_cell_setting 'monoclinic'
loop_
_space_group_symop_operation_xyz
x,y,z
-x,y,1/2-z
-x,-y,-z
x,-y,1/2+z
1/2+x,1/2+y,z
1/2-x,1/2+y,1/2-z
1/2-x,1/2-y,-z
1/2+x,1/2-y,1/2+z
loop_
_atom_site_type_symbol
_atom_site_label
_atom_site_fract_x
_atom_site_fract_y
_atom_site_fract_z
Si Si1 0.379969 0.970409 0.669106
Si Si2 0.455345 0.257644 0.613751
Si Si3 0.762023 0.556943 0.440851
Si Si4 0.802749 0.936639 0.851129
Si Si5 0.074658 0.068424 0.418066
Si Si6 0.648980 0.271713 0.618760
Si Si7 0.581071 0.112820 0.000490
O O1 0.335933 0.983477 0.811738
O O2 0.304438 0.919509 0.641448
O O3 0.482908 0.922069 0.616546
O O4 0.393482 0.056674 0.612744
O O5 0.476157 0.347098 0.566537
O O6 0.557871 0.232766 0.610131
O O7 0.361414 0.247457 0.751814
O O8 0.437017 0.200924 0.526953
O O9 0.712925 0.496096 0.547619
O O10 0.665467 0.593082 0.441706
O O11 0.827731 0.617762 0.470198
O O12 0.880442 0.967275 0.716387
O O13 0.854332 0.864683 0.878088
O O14 0.000000 0.000000 0.500000
O O15 0.750000 0.250000 0.500000
#
# Coordination Sequence:
#
# PCOD8136940 Si02
#       7
#     8   8   8   8   8   8   8
#     4   9  19  35  57  83 112 157 182 235 279 343
#     4  10  22  37  55  87 118 147 190 242 283 342
#     4  10  20  35  60  81 111 156 187 231 291 337
#     4   9  19  35  58  85 110 139 200 236 279 342
#     4  10  21  39  60  80 113 151 194 244 283 334
#     4  10  20  35  57  84 113 151 182 238 297 330
#     4  10  20  36  54  86 122 143 195 228 283 350
#
# _framework density 19.301978999999999
#
# number of rings (size 3 to 8) (size 9 to 14) (size 15 to 20)
#    0.000    2.286    0.000    2.143    2.000    2.286 
#    7.714    0.000    6.286    0.000    0.000    0.000 
#    0.000    0.000    0.000    0.000    0.000    0.000 
#
# Total GULP energy -346933.510224 kJ/mol
# GULP energy per Si atom -12390.482508 kJ/mol
# Density = 1.925805 g / cm^3
# Si number density = 19.301979 Si / 1000 Ang^3
#
#
#
# Elastic Constant Matrix: (Units=GPa)
#
#
# Indices 1 2 3 4 5 6 
#
# 1 75.8920 27.2342 28.3075 0.0000 -2.2006 0.0000
# 2 27.2342 76.5142 49.1871 0.0000 0.4288 0.0000
# 3 28.3075 49.1871 122.8942 0.0000 -8.8171 0.0000
# 4 0.0000 0.0000 0.0000 23.3458 0.0000 0.8512
# 5 -2.2006 0.4288 -8.8171 0.0000 30.4521 0.0000
# 6 0.0000 0.0000 0.0000 0.8512 0.0000 30.1197
#
#
#
# Elastic Compliance Matrix: (Units=1/GPa)
#
#
# Indices 1 2 3 4 5 6 
#
# 1 0.015417 -0.004361 -0.001758 0.000000 0.000667 0.000000
# 2 -0.004361 0.018995 -0.006781 0.000000 -0.002546 0.000000
# 3 -0.001758 -0.006781 0.011492 0.000000 0.003296 0.000000
# 4 0.000000 0.000000 0.000000 0.042878 0.000000 -0.001212
# 5 0.000667 -0.002546 0.003296 0.000000 0.033877 0.000000
# 6 0.000000 0.000000 0.000000 -0.001212 0.000000 0.033235
#
#
# Mechanical properties :
#
#
# Convention : Reuss Voigt Hill
#
# Bulk Modulus (GPa) = 49.73922 53.86199 51.80061
# Shear Modulus (GPa) = 26.54002 28.15497 27.34750
#
# Velocity S-wave (km/s) = 3.71211 3.82338 3.76816
# Velocity P-wave (km/s) = 6.64815 6.88887 6.76958
#
# Compressibility (1/GPa) = 0.02010486
#
# Stress axis : x y z
#
# Youngs Moduli (GPa) = 64.86526 52.64556 87.01468
#
# Poissons Ratio (x) = 0.22959 0.15295
# Poissons Ratio (y) = 0.28288 0.59002
# Poissons Ratio (z) = 0.11402 0.35697
#
# Static dielectric constant tensor:
#      x y z
#    x 3.844870 0.000000 0.024540 
#    y 0.000000 3.096650 0.000000 
#    z 0.024540 0.000000 3.615450 
# 
# 
# High freq. dielectric constant tensor:
#      x y z
#    x 1.761450 0.000000 -0.002340 
#    y 0.000000 1.718960 0.000000 
#    z -0.002340 0.000000 1.763120 
# 
# From -- ./inp_files/98689.got.cif
#   From: 2010.06.25/outbox.cif.g09.slc.cpg/sg15_50_cif.got.tgz:98689.got - 2010.06.28 07:06:18.
