data_PCOD8136475
_publ_section_title
;
Structure prediction by ZEFSAII (Michael W. Deem and Ramdas Pophale) SiO2 
 PCOD8136475
Probable space group: C 2/C
;
_chemical_formula_sum "Si O2"
_cell_formula_units_Z 64
_cell_length_a 12.937364
_cell_length_b 29.663051
_cell_length_c 8.726109
_cell_angle_alpha 90.000000
_cell_angle_beta 80.486881
_cell_angle_gamma 90.000000
_cell_volume 3302.693641
_symmetry_space_group_name_H-M "C 2/C"
_symmetry_group_IT_number 15
_symmetry_cell_setting 'monoclinic'
loop_
_space_group_symop_operation_xyz
x,y,z
-x,y,1/2-z
-x,-y,-z
x,-y,1/2+z
1/2+x,1/2+y,z
1/2-x,1/2+y,1/2-z
1/2-x,1/2-y,-z
1/2+x,1/2-y,1/2+z
loop_
_atom_site_type_symbol
_atom_site_label
_atom_site_fract_x
_atom_site_fract_y
_atom_site_fract_z
Si Si1 0.594334 0.769963 0.475845
Si Si2 0.604035 0.141046 0.798505
Si Si3 0.269292 0.345925 0.988807
Si Si4 0.049720 0.560749 0.986898
Si Si5 0.072425 0.203388 0.871902
Si Si6 0.222678 0.725123 0.232866
Si Si7 0.308074 0.938224 0.550851
Si Si8 0.641095 0.000000 0.220343
O O1 0.569167 0.811446 0.375126
O O2 0.486334 0.744275 0.531375
O O3 0.665802 0.732456 0.375087
O O4 0.642133 0.791165 0.620786
O O5 0.500000 0.119671 0.750000
O O6 0.695111 0.149184 0.654778
O O7 0.627074 0.102891 0.922057
O O8 0.230090 0.308977 0.874292
O O9 0.268098 0.395121 0.911163
O O10 0.388164 0.335023 0.019031
O O11 0.051775 0.521949 0.854012
O O12 0.094016 0.539966 0.130722
O O13 0.929975 0.576547 0.041700
O O14 0.182421 0.225133 0.790568
O O15 0.000000 0.183953 0.750000
O O16 0.296417 0.961229 0.386206
O O17 0.276113 0.974791 0.687324
#
# Coordination Sequence:
#
# PCOD8136475 Si02
#       8
#     8   8   8   8   8   8   8   8
#     4  10  23  39  60  78 117 158 196 240 296 344
#     4  12  22  34  52  84 115 156 199 235 280 343
#     4  12  23  36  58  88 119 146 203 246 282 349
#     4  11  19  33  51  79 116 161 195 229 288 356
#     4  10  22  41  60  83 117 158 196 245 298 345
#     4  10  22  40  57  85 113 151 200 244 293 348
#     4  11  20  34  52  82 115 154 196 236 290 360
#     4  10  20  34  54  76 119 163 192 234 297 363
#
# _framework density 19.378122000000001
#
# number of rings (size 3 to 8) (size 9 to 14) (size 15 to 20)
#    0.000    1.250    3.750    4.125    3.500    0.000 
#    0.000    0.000    0.000    0.000    0.000    0.875 
#    0.000    0.000    0.000    0.000    0.000    0.000 
#
# Total GULP energy -396548.244113 kJ/mol
# GULP energy per Si atom -12392.132629 kJ/mol
# Density = 1.933402 g / cm^3
# Si number density = 19.378122 Si / 1000 Ang^3
#
#
#
# Elastic Constant Matrix: (Units=GPa)
#
#
# Indices 1 2 3 4 5 6 
#
# 1 52.5463 24.9334 21.1172 0.0000 11.3389 0.0000
# 2 24.9334 87.4753 33.3805 0.0000 13.8495 0.0000
# 3 21.1172 33.3805 84.9657 0.0000 5.8575 0.0000
# 4 0.0000 0.0000 0.0000 40.7159 0.0000 2.3190
# 5 11.3389 13.8495 5.8575 0.0000 20.5641 0.0000
# 6 0.0000 0.0000 0.0000 2.3190 0.0000 22.0191
#
#
#
# Elastic Compliance Matrix: (Units=1/GPa)
#
#
# Indices 1 2 3 4 5 6 
#
# 1 0.024585 -0.003983 -0.003872 0.000000 -0.009771 0.000000
# 2 -0.003983 0.015406 -0.004589 0.000000 -0.006872 0.000000
# 3 -0.003872 -0.004589 0.014458 0.000000 0.001107 0.000000
# 4 0.000000 0.000000 0.000000 0.024709 0.000000 -0.002602
# 5 -0.009771 -0.006872 0.001107 0.000000 0.058329 0.000000
# 6 0.000000 0.000000 0.000000 -0.002602 0.000000 0.045689
#
#
# Mechanical properties :
#
#
# Convention : Reuss Voigt Hill
#
# Bulk Modulus (GPa) = 33.82732 42.64994 38.23863
# Shear Modulus (GPa) = 22.94431 26.36356 24.65393
#
# Velocity S-wave (km/s) = 3.44471 3.69247 3.57074
# Velocity P-wave (km/s) = 5.77198 6.34320 6.06432
#
# Compressibility (1/GPa) = 0.02956191
#
# Stress axis : x y z
#
# Youngs Moduli (GPa) = 40.67466 64.90827 69.16436
#
# Poissons Ratio (x) = 0.25854 0.26780
# Poissons Ratio (y) = 0.16201 0.31739
# Poissons Ratio (z) = 0.15749 0.29786
#
# Static dielectric constant tensor:
#      x y z
#    x 3.131980 0.000000 0.115450 
#    y 0.000000 3.629470 0.000000 
#    z 0.115450 0.000000 3.954490 
# 
# 
# High freq. dielectric constant tensor:
#      x y z
#    x 1.696790 0.000000 0.007440 
#    y 0.000000 1.751730 0.000000 
#    z 0.007440 0.000000 1.777640 
# 
# From -- ./inp_files/35704.got.cif
#   From: 2010.06.25/outbox.cif.g09.slc.cpg/sg15_18_cif.got.tgz:35704.got - 2010.06.28 07:06:18.
