data_PCOD8136474
_publ_section_title
;
Structure prediction by ZEFSAII (Michael W. Deem and Ramdas Pophale) SiO2 
 PCOD8136474
Probable space group: C 2/C
;
_chemical_formula_sum "Si O2"
_cell_formula_units_Z 40
_cell_length_a 16.895158
_cell_length_b 9.105717
_cell_length_c 21.953818
_cell_angle_alpha 90.000000
_cell_angle_beta 37.528550
_cell_angle_gamma 90.000000
_cell_volume 2057.384544
_symmetry_space_group_name_H-M "C 2/C"
_symmetry_group_IT_number 15
_symmetry_cell_setting 'monoclinic'
loop_
_space_group_symop_operation_xyz
x,y,z
-x,y,1/2-z
-x,-y,-z
x,-y,1/2+z
1/2+x,1/2+y,z
1/2-x,1/2+y,1/2-z
1/2-x,1/2-y,-z
1/2+x,1/2-y,1/2+z
loop_
_atom_site_type_symbol
_atom_site_label
_atom_site_fract_x
_atom_site_fract_y
_atom_site_fract_z
Si Si1 0.539850 0.993548 0.630837
Si Si2 0.148220 0.059774 0.340542
Si Si3 0.608073 0.221440 0.355562
Si Si4 0.409929 0.235708 0.997501
Si Si5 0.298393 0.961112 0.356980
O O1 0.592111 0.098184 0.545956
O O2 0.652203 0.958910 0.611765
O O3 0.418157 0.072244 0.738319
O O4 0.496816 0.838172 0.628836
O O5 0.256247 0.136054 0.233380
O O6 0.014105 0.143585 0.413028
O O7 0.130072 0.892803 0.329363
O O8 0.192460 0.060034 0.385139
O O9 0.555199 0.186218 0.455308
O O10 0.266252 0.306795 0.084562
#
# Coordination Sequence:
#
# PCOD8136474 Si02
#       5
#     8   8   8   8   8
#     4  10  20  34  54  76 105 138 172 211 256 304
#     4  10  20  36  56  76 103 137 173 211 255 307
#     4  10  20  34  54  79 103 135 174 214 255 303
#     4  11  19  34  56  80 102 134 176 215 251 304
#     4   9  19  34  52  75 105 140 168 205 261 308
#
# _framework density 19.442162
#
# number of rings (size 3 to 8) (size 9 to 14) (size 15 to 20)
#    0.000    2.000    0.000    7.200    0.000    0.000 
#    0.000    4.000    0.000   38.400    0.000    0.000 
#    0.000    0.000    0.000    0.000    0.000    0.000 
#
# Total GULP energy -247959.696756 kJ/mol
# GULP energy per Si atom -12397.984838 kJ/mol
# Density = 1.939791 g / cm^3
# Si number density = 19.442162 Si / 1000 Ang^3
#
#
#
# Elastic Constant Matrix: (Units=GPa)
#
#
# Indices 1 2 3 4 5 6 
#
# 1 108.4230 47.7262 11.4406 0.0000 5.0299 0.0000
# 2 47.7262 107.3930 34.4556 0.0000 8.6137 -0.0001
# 3 11.4406 34.4556 56.4257 0.0000 13.4815 0.0000
# 4 0.0000 0.0000 0.0000 31.3509 0.0000 -0.9200
# 5 5.0299 8.6137 13.4815 0.0000 22.7535 0.0000
# 6 0.0000 -0.0001 0.0000 -0.9200 0.0000 26.0670
#
#
#
# Elastic Compliance Matrix: (Units=1/GPa)
#
#
# Indices 1 2 3 4 5 6 
#
# 1 0.011540 -0.005439 0.001280 0.000000 -0.001251 0.000000
# 2 -0.005439 0.014145 -0.007621 0.000000 0.000363 0.000000
# 3 0.001280 -0.007621 0.025040 0.000000 -0.012234 0.000000
# 4 0.000000 0.000000 0.000000 0.031930 0.000000 0.001127
# 5 -0.001251 0.000363 -0.012234 0.000000 0.051337 0.000000
# 6 0.000000 0.000000 0.000000 0.001127 0.000000 0.038402
#
#
# Mechanical properties :
#
#
# Convention : Reuss Voigt Hill
#
# Bulk Modulus (GPa) = 36.81283 51.05407 43.93345
# Shear Modulus (GPa) = 24.38918 27.94225 26.16571
#
# Velocity S-wave (km/s) = 3.54566 3.79515 3.67253
# Velocity P-wave (km/s) = 5.97812 6.74690 6.37411
#
# Compressibility (1/GPa) = 0.02716444
#
# Stress axis : x y z
#
# Youngs Moduli (GPa) = 86.65343 70.69748 39.93660
#
# Poissons Ratio (x) = 0.38452 -0.05113
# Poissons Ratio (y) = 0.47131 0.30437
# Poissons Ratio (z) = -0.11093 0.53881
#
# Static dielectric constant tensor:
#      x y z
#    x 3.712500 0.000000 -0.001060 
#    y 0.000000 3.312530 0.000000 
#    z -0.001060 0.000000 3.716820 
# 
# 
# High freq. dielectric constant tensor:
#      x y z
#    x 1.754890 0.000000 0.000200 
#    y 0.000000 1.735880 0.000000 
#    z 0.000200 0.000000 1.766520 
# 
# From -- ./inp_files/102674.got.cif
#   From: 2010.06.25/outbox.cif.g09.slc.cpg/sg15_52_cif.got.tgz:102674.got - 2010.06.28 07:06:18.
