data_PCOD8136064
_publ_section_title
;
Structure prediction by ZEFSAII (Michael W. Deem and Ramdas Pophale) SiO2 
 PCOD8136064
Probable space group: C 2/C
;
_chemical_formula_sum "Si O2"
_cell_formula_units_Z 52
_cell_length_a 11.714405
_cell_length_b 26.736259
_cell_length_c 9.000192
_cell_angle_alpha 90.000000
_cell_angle_beta 92.567288
_cell_angle_gamma 90.000000
_cell_volume 2816.025162
_symmetry_space_group_name_H-M "C 2/C"
_symmetry_group_IT_number 15
_symmetry_cell_setting 'monoclinic'
loop_
_space_group_symop_operation_xyz
x,y,z
-x,y,1/2-z
-x,-y,-z
x,-y,1/2+z
1/2+x,1/2+y,z
1/2-x,1/2+y,1/2-z
1/2-x,1/2-y,-z
1/2+x,1/2-y,1/2+z
loop_
_atom_site_type_symbol
_atom_site_label
_atom_site_fract_x
_atom_site_fract_y
_atom_site_fract_z
Si Si1 0.643335 0.961424 0.121032
Si Si2 0.000000 0.660872 0.250000
Si Si3 0.374280 0.796050 0.279243
Si Si4 0.127374 0.182020 0.227642
Si Si5 0.180855 0.670659 0.034137
Si Si6 0.380840 0.941542 0.051534
Si Si7 0.800324 0.368947 0.534013
O O1 0.516051 0.942428 0.080010
O O2 0.676616 0.956141 0.295203
O O3 0.723699 0.923936 0.032327
O O4 0.660902 0.018545 0.073473
O O5 0.923373 0.692282 0.365870
O O6 0.907482 0.628000 0.154247
O O7 0.500000 0.816938 0.250000
O O8 0.375274 0.738870 0.333298
O O9 0.306558 0.800267 0.120010
O O10 0.321414 0.829651 0.403843
O O11 0.197240 0.178879 0.384076
O O12 0.184498 0.147191 0.107660
O O13 0.000000 0.162310 0.250000
O O14 0.158352 0.612084 0.007368
#
# Coordination Sequence:
#
# PCOD8136064 Si02
#       7
#     8   4   8   8   8   8   8
#     4  10  20  31  53  88 123 144 172 222 290 356
#     4  10  20  28  54  90 108 154 178 220 286 346
#     4  11  19  37  60  86 116 142 193 239 297 340
#     4  10  25  39  56  78 114 158 199 239 272 327
#     4  11  20  36  58  83 118 151 187 230 291 343
#     4  10  20  31  53  88 123 144 172 222 290 356
#     4  11  20  36  58  83 118 151 187 230 291 343
#
# _framework density 18.465744000000001
#
# number of rings (size 3 to 8) (size 9 to 14) (size 15 to 20)
#    0.000    1.538    4.615    0.923    4.308    0.000 
#    0.000    0.769    0.000    0.923    0.000    0.000 
#    0.000    0.000    0.000    0.000    0.000    0.000 
#
# Total GULP energy -322342.651215 kJ/mol
# GULP energy per Si atom -12397.794277 kJ/mol
# Density = 1.842372 g / cm^3
# Si number density = 18.465744 Si / 1000 Ang^3
#
#
#
# Elastic Constant Matrix: (Units=GPa)
#
#
# Indices 1 2 3 4 5 6 
#
# 1 92.9565 16.2015 34.7604 0.0000 -9.1299 0.0000
# 2 16.2015 64.4562 16.2498 0.0000 -11.5862 0.0000
# 3 34.7604 16.2498 107.6940 0.0000 -9.7925 0.0000
# 4 0.0000 0.0000 0.0000 22.9713 0.0000 -3.2876
# 5 -9.1299 -11.5862 -9.7925 0.0000 22.1691 0.0000
# 6 0.0000 0.0000 0.0000 -3.2876 0.0000 17.6841
#
#
#
# Elastic Compliance Matrix: (Units=1/GPa)
#
#
# Indices 1 2 3 4 5 6 
#
# 1 0.012673 -0.001799 -0.003573 0.000000 0.002700 0.000000
# 2 -0.001799 0.017737 -0.001375 0.000000 0.007922 0.000000
# 3 -0.003573 -0.001375 0.010884 0.000000 0.002617 0.000000
# 4 0.000000 0.000000 0.000000 0.044722 0.000000 0.008314
# 5 0.002700 0.007922 0.002617 0.000000 0.051516 0.000000
# 6 0.000000 0.000000 0.000000 0.008314 0.000000 0.058094
#
#
# Mechanical properties :
#
#
# Convention : Reuss Voigt Hill
#
# Bulk Modulus (GPa) = 35.97275 44.39222 40.18248
# Shear Modulus (GPa) = 22.89493 25.75788 24.32641
#
# Velocity S-wave (km/s) = 3.52498 3.73889 3.63351
# Velocity P-wave (km/s) = 6.00753 6.53694 6.27782
#
# Compressibility (1/GPa) = 0.02779882
#
# Stress axis : x y z
#
# Youngs Moduli (GPa) = 78.90948 56.37840 91.87392
#
# Poissons Ratio (x) = 0.10143 0.32830
# Poissons Ratio (y) = 0.14197 0.12636
# Poissons Ratio (z) = 0.28197 0.07754
#
# Static dielectric constant tensor:
#      x y z
#    x 3.102760 0.000000 -0.046510 
#    y 0.000000 3.294090 0.000000 
#    z -0.046510 0.000000 3.783370 
# 
# 
# High freq. dielectric constant tensor:
#      x y z
#    x 1.669310 0.000000 -0.000120 
#    y 0.000000 1.707430 0.000000 
#    z -0.000120 0.000000 1.740540 
# 
# From -- ./inp_files/33510.got.cif
#   From: 2010.06.25/outbox.cif.g09.slc.cpg/sg15_17_cif.got.tgz:33510.got - 2010.06.28 07:06:18.
