data_PCOD8136118
_publ_section_title
;
Structure prediction by ZEFSAII (Michael W. Deem and Ramdas Pophale) SiO2 
 PCOD8136118
Probable space group: C 2/C
;
_chemical_formula_sum "Si O2"
_cell_formula_units_Z 28
_cell_length_a 12.044109
_cell_length_b 27.751629
_cell_length_c 13.732253
_cell_angle_alpha 90.000000
_cell_angle_beta 158.750121
_cell_angle_gamma 90.000000
_cell_volume 1663.551947
_symmetry_space_group_name_H-M "C 2/C"
_symmetry_group_IT_number 15
_symmetry_cell_setting 'monoclinic'
loop_
_space_group_symop_operation_xyz
x,y,z
-x,y,1/2-z
-x,-y,-z
x,-y,1/2+z
1/2+x,1/2+y,z
1/2-x,1/2+y,1/2-z
1/2-x,1/2-y,-z
1/2+x,1/2-y,1/2+z
loop_
_atom_site_type_symbol
_atom_site_label
_atom_site_fract_x
_atom_site_fract_y
_atom_site_fract_z
Si Si1 0.360211 0.425972 0.403797
Si Si2 0.000000 0.783874 0.750000
Si Si3 0.771953 0.123709 0.143980
Si Si4 0.837466 0.980593 0.014924
O O1 0.644019 0.396482 0.681057
O O2 0.447741 0.443185 0.367305
O O3 0.285132 0.471224 0.410163
O O4 0.073106 0.390154 0.164501
O O5 0.176977 0.818271 0.816593
O O6 0.750000 0.750000 0.500000
O O7 0.000000 0.099823 0.250000
O O8 0.000000 0.991824 0.250000
O O9 0.500000 0.957431 0.750000
#
# Coordination Sequence:
#
# PCOD8136118 Si02
#       4
#     8   4   8   8
#     4  11  20  34  49  73  99 141 184 199 258 293
#     4  10  20  34  52  80 108 130 156 210 266 318
#     4  10  20  31  54  72 103 137 159 208 245 333
#     4  11  22  33  49  70 105 138 180 228 233 283
#
# _framework density 16.831454999999998
#
# number of rings (size 3 to 8) (size 9 to 14) (size 15 to 20)
#    0.857    0.571    0.000    8.571    0.000    4.571 
#    0.000    0.000    0.000    0.000    0.000    0.000 
#    0.000   80.000    0.000    0.000    0.000    0.000 
#
# Total GULP energy -173544.033311 kJ/mol
# GULP energy per Si atom -12396.002379 kJ/mol
# Density = 1.679315 g / cm^3
# Si number density = 16.831455 Si / 1000 Ang^3
#
#
#
# Elastic Constant Matrix: (Units=GPa)
#
#
# Indices 1 2 3 4 5 6 
#
# 1 81.8781 31.3121 32.4553 0.0016 -3.3579 -0.0001
# 2 31.3121 96.3534 35.9798 0.0030 0.5901 -0.0019
# 3 32.4553 35.9798 111.8513 -0.0575 -7.0130 0.0701
# 4 0.0016 0.0030 -0.0575 38.0682 -0.0090 2.1072
# 5 -3.3579 0.5901 -7.0130 -0.0090 26.7362 0.0143
# 6 -0.0001 -0.0019 0.0701 2.1072 0.0143 16.4680
#
#
#
# Elastic Compliance Matrix: (Units=1/GPa)
#
#
# Indices 1 2 3 4 5 6 
#
# 1 0.014889 -0.003704 -0.003057 -0.000005 0.001150 0.000012
# 2 -0.003704 0.012760 -0.003128 -0.000007 -0.001567 0.000017
# 3 -0.003057 -0.003128 0.010995 0.000020 0.002569 -0.000052
# 4 -0.000005 -0.000007 0.000020 0.026456 0.000016 -0.003385
# 5 0.001150 -0.001567 0.002569 0.000016 0.038255 -0.000046
# 6 0.000012 0.000017 -0.000052 -0.003385 -0.000046 0.061157
#
#
# Mechanical properties :
#
#
# Convention : Reuss Voigt Hill
#
# Bulk Modulus (GPa) = 53.00588 54.39745 53.70166
# Shear Modulus (GPa) = 26.23602 28.94351 27.58976
#
# Velocity S-wave (km/s) = 3.95238 4.15131 4.05307
# Velocity P-wave (km/s) = 7.23802 7.44090 7.34016
#
# Compressibility (1/GPa) = 0.01886583
#
# Stress axis : x y z
#
# Youngs Moduli (GPa) = 67.16587 78.37100 90.95311
#
# Poissons Ratio (x) = 0.29029 0.27800
# Poissons Ratio (y) = 0.24878 0.28450
# Poissons Ratio (z) = 0.20529 0.24515
#
# Static dielectric constant tensor:
#      x y z
#    x 3.085470 -0.000010 -0.025690 
#    y -0.000010 3.046020 -0.000020 
#    z -0.025690 -0.000020 3.111780 
# 
# 
# High freq. dielectric constant tensor:
#      x y z
#    x 1.628180 0.000000 -0.012630 
#    y 0.000000 1.625760 0.000000 
#    z -0.012630 0.000000 1.668700 
# 
# From -- ./inp_files/148465.got.cif
#   From: 2010.06.25/outbox.cif.g09.slc.cpg/sg15_75_cif.got.tgz:148465.got - 2010.06.28 07:06:18.
