data_PCOD8136492
_publ_section_title
;
Structure prediction by ZEFSAII (Michael W. Deem and Ramdas Pophale) SiO2 
 PCOD8136492
Probable space group: C 2/C
;
_chemical_formula_sum "Si O2"
_cell_formula_units_Z 48
_cell_length_a 14.931761
_cell_length_b 27.988633
_cell_length_c 12.308301
_cell_angle_alpha 90.000000
_cell_angle_beta 150.369473
_cell_angle_gamma 90.000000
_cell_volume 2543.160287
_symmetry_space_group_name_H-M "C 2/C"
_symmetry_group_IT_number 15
_symmetry_cell_setting 'monoclinic'
loop_
_space_group_symop_operation_xyz
x,y,z
-x,y,1/2-z
-x,-y,-z
x,-y,1/2+z
1/2+x,1/2+y,z
1/2-x,1/2+y,1/2-z
1/2-x,1/2-y,-z
1/2+x,1/2-y,1/2+z
loop_
_atom_site_type_symbol
_atom_site_label
_atom_site_fract_x
_atom_site_fract_y
_atom_site_fract_z
Si Si1 0.741699 0.470910 0.231187
Si Si2 0.936089 0.940907 0.059531
Si Si3 0.229665 0.132009 0.259493
Si Si4 0.439897 0.308854 0.566480
Si Si5 0.564377 0.950592 0.435856
Si Si6 0.973576 0.699279 0.849235
O O1 0.596832 0.437505 0.139359
O O2 0.839236 0.501202 0.426627
O O3 0.890166 0.437955 0.327738
O O4 0.654837 0.506964 0.050066
O O5 0.000000 0.933842 0.250000
O O6 0.798281 0.897206 0.883591
O O7 0.295035 0.093165 0.417110
O O8 0.385335 0.172570 0.422177
O O9 0.038835 0.155438 0.088933
O O10 0.500000 0.323238 0.750000
O O11 0.502101 0.255282 0.606879
O O12 0.226641 0.315552 0.325983
O O13 0.500000 0.962006 0.250000
O O14 0.000000 0.685958 0.750000
#
# Coordination Sequence:
#
# PCOD8136492 Si02
#       6
#     8   8   8   8   8   8
#     4   9  20  37  58  80 107 154 191 227 294 339
#     4  10  21  39  58  80 113 147 198 244 283 342
#     4  11  23  33  53  87 110 149 188 233 288 337
#     4  11  20  34  57  82 119 156 183 230 290 348
#     4  10  20  34  54  84 118 142 184 235 281 347
#     4  11  19  36  55  83 118 153 190 227 288 353
#
# _framework density 18.874154999999998
#
# number of rings (size 3 to 8) (size 9 to 14) (size 15 to 20)
#    0.000    1.667    3.333    2.500    2.333    0.000 
#    0.000    1.667    0.000    1.000    0.000    0.000 
#    0.000    0.000    0.000    0.000    0.000    0.000 
#
# Total GULP energy -297515.994662 kJ/mol
# GULP energy per Si atom -12396.499778 kJ/mol
# Density = 1.883120 g / cm^3
# Si number density = 18.874155 Si / 1000 Ang^3
#
#
#
# Elastic Constant Matrix: (Units=GPa)
#
#
# Indices 1 2 3 4 5 6 
#
# 1 57.4800 36.9086 50.6390 0.0000 12.8725 0.0000
# 2 36.9086 68.2793 34.5191 0.0000 -2.2984 0.0000
# 3 50.6390 34.5191 113.7778 0.0001 4.0321 0.0000
# 4 0.0000 0.0000 0.0001 -8.5571 0.0000 2.8544
# 5 12.8725 -2.2984 4.0321 0.0000 46.0882 0.0000
# 6 0.0000 0.0000 0.0000 2.8544 0.0000 22.9494
#
#
#
# Elastic Compliance Matrix: (Units=1/GPa)
#
#
# Indices 1 2 3 4 5 6 
#
# 1 0.042454 -0.016524 -0.013474 0.000000 -0.011503 0.000000
# 2 -0.016524 0.023812 -0.000076 0.000000 0.005809 0.000000
# 3 -0.013474 -0.000076 0.014721 0.000000 0.002472 0.000000
# 4 0.000000 0.000000 0.000000 -0.112207 0.000000 0.013956
# 5 -0.011503 0.005809 0.002472 0.000000 0.024984 0.000000
# 6 0.000000 0.000000 0.000000 0.013956 0.000000 0.041838
#
#
# Mechanical properties :
#
#
# Convention : Reuss Voigt Hill
#
# Bulk Modulus (GPa) = 47.98615 53.74118 50.86366
# Shear Modulus (GPa) = 48.68701 19.92748 34.30724
#
# Velocity S-wave (km/s) = 5.08445 3.25284 4.26806
# Velocity P-wave (km/s) = 7.74263 6.53018 7.16210
#
# Compressibility (1/GPa) = 0.02083935
#
# Stress axis : x y z
#
# Youngs Moduli (GPa) = 23.55472 41.99609 67.92817
#
# Poissons Ratio (x) = 0.69395 0.91528
# Poissons Ratio (y) = 0.38922 0.00515
# Poissons Ratio (z) = 0.31738 0.00318
#
# Static dielectric constant tensor:
#      x y z
#    x 3.297710 0.000000 0.293960 
#    y 0.000000 3.453160 0.000000 
#    z 0.293960 0.000000 3.722030 
# 
# 
# High freq. dielectric constant tensor:
#      x y z
#    x 1.698160 0.000000 0.027050 
#    y 0.000000 1.730640 0.000000 
#    z 0.027050 0.000000 1.746790 
# 
# From -- ./inp_files/101215.got.cif
#   From: 2010.06.25/outbox.cif.g09.slc.cpg/sg15_51_cif.got.tgz:101215.got - 2010.06.28 07:06:18.
