data_PCOD8136787
_publ_section_title
;
Structure prediction by ZEFSAII (Michael W. Deem and Ramdas Pophale) SiO2 
 PCOD8136787
Probable space group: C 2/C
;
_chemical_formula_sum "Si O2"
_cell_formula_units_Z 60
_cell_length_a 21.701672
_cell_length_b 23.500754
_cell_length_c 15.178692
_cell_angle_alpha 90.000000
_cell_angle_beta 22.532612
_cell_angle_gamma 90.000000
_cell_volume 2966.506482
_symmetry_space_group_name_H-M "C 2/C"
_symmetry_group_IT_number 15
_symmetry_cell_setting 'monoclinic'
loop_
_space_group_symop_operation_xyz
x,y,z
-x,y,1/2-z
-x,-y,-z
x,-y,1/2+z
1/2+x,1/2+y,z
1/2-x,1/2+y,1/2-z
1/2-x,1/2-y,-z
1/2+x,1/2-y,1/2+z
loop_
_atom_site_type_symbol
_atom_site_label
_atom_site_fract_x
_atom_site_fract_y
_atom_site_fract_z
Si Si1 0.154312 0.367664 0.644510
Si Si2 0.400021 0.761120 0.160575
Si Si3 0.362648 0.990545 0.110447
Si Si4 0.586508 0.325759 0.314431
Si Si5 0.608315 0.184662 0.527652
Si Si6 0.688857 0.138791 0.834876
Si Si7 0.216594 0.104440 0.333658
Si Si8 0.000000 0.462096 0.750000
O O1 0.268709 0.320436 0.447593
O O2 0.221893 0.380876 0.651029
O O3 0.150150 0.424021 0.588391
O O4 0.968360 0.348520 0.897157
O O5 0.512008 0.768968 0.097265
O O6 0.262044 0.716033 0.366926
O O7 0.323174 0.821550 0.235187
O O8 0.502380 0.735389 0.942128
O O9 0.297639 0.926886 0.211285
O O10 0.220818 0.036374 0.313080
O O11 0.431709 0.999577 0.920396
O O12 0.500000 0.000000 0.000000
O O13 0.651189 0.345865 0.323510
O O14 0.463037 0.372837 0.440867
O O15 0.500000 0.160773 0.750000
O O16 0.660828 0.132356 0.397622
#
# Coordination Sequence:
#
# PCOD8136787 Si02
#       8
#     8   8   8   8   8   8   8   4
#     4  11  19  41  62  90 129 169 200 255 318 387
#     4  11  22  41  64  91 127 160 212 265 317 378
#     4  11  20  39  66  90 124 166 210 261 311 379
#     4  11  23  39  64  94 129 161 208 263 326 377
#     4  11  23  41  63  90 119 168 212 263 317 377
#     4  11  21  40  65  88 127 168 209 254 320 378
#     4  11  24  39  62  95 127 160 211 261 312 377
#     4  10  20  34  66  90 118 170 216 246 306 386
#
# _framework density 20.225811
#
# number of rings (size 3 to 8) (size 9 to 14) (size 15 to 20)
#    0.000    1.067    8.000    0.800    0.933    1.067 
#    0.000    1.333    0.000    1.600    0.000    0.000 
#    0.000    0.000    0.000    0.000    0.000    0.000 
#
# Total GULP energy -371947.729383 kJ/mol
# GULP energy per Si atom -12398.257646 kJ/mol
# Density = 2.017978 g / cm^3
# Si number density = 20.225811 Si / 1000 Ang^3
#
#
#
# Elastic Constant Matrix: (Units=GPa)
#
#
# Indices 1 2 3 4 5 6 
#
# 1 83.0404 20.9875 29.1826 -0.0354 -6.6334 0.0186
# 2 20.9875 92.3322 15.6982 -0.0229 -4.9015 0.0361
# 3 29.1826 15.6982 69.3422 -0.0186 -2.3285 0.0327
# 4 -0.0354 -0.0229 -0.0186 23.3117 0.0264 1.1897
# 5 -6.6334 -4.9015 -2.3285 0.0264 39.1270 -0.0160
# 6 0.0186 0.0361 0.0327 1.1897 -0.0160 29.0819
#
#
#
# Elastic Compliance Matrix: (Units=1/GPa)
#
#
# Indices 1 2 3 4 5 6 
#
# 1 0.014749 -0.002297 -0.005624 0.000014 0.001878 0.000000
# 2 -0.002297 0.011684 -0.001646 0.000006 0.000976 -0.000011
# 3 -0.005624 -0.001646 0.017156 0.000004 -0.000139 -0.000014
# 4 0.000014 0.000006 0.000004 0.042987 -0.000026 -0.001759
# 5 0.001878 0.000976 -0.000139 -0.000026 0.025990 0.000013
# 6 0.000000 -0.000011 -0.000014 -0.001759 0.000013 0.034458
#
#
# Mechanical properties :
#
#
# Convention : Reuss Voigt Hill
#
# Bulk Modulus (GPa) = 40.88941 41.82794 41.35867
# Shear Modulus (GPa) = 28.68458 30.22722 29.45590
#
# Velocity S-wave (km/s) = 3.77001 3.87005 3.82036
# Velocity P-wave (km/s) = 6.26186 6.37927 6.32084
#
# Compressibility (1/GPa) = 0.02445621
#
# Stress axis : x y z
#
# Youngs Moduli (GPa) = 67.79974 85.58597 58.28826
#
# Poissons Ratio (x) = 0.19656 0.32783
# Poissons Ratio (y) = 0.15571 0.09593
# Poissons Ratio (z) = 0.38132 0.14086
#
# Static dielectric constant tensor:
#      x y z
#    x 3.816550 -0.000080 -0.089550 
#    y -0.000080 3.750020 0.000110 
#    z -0.089550 0.000110 3.603740 
# 
# 
# High freq. dielectric constant tensor:
#      x y z
#    x 1.804750 -0.000010 -0.010120 
#    y -0.000010 1.777370 0.000010 
#    z -0.010120 0.000010 1.772790 
# 
# From -- ./inp_files/169916.got.cif
#   From: 2010.06.25/outbox.cif.g09.slc.cpg/sg15_85_cif.got.tgz:169916.got - 2010.06.28 07:06:18.
