data_PCOD8136095
_publ_section_title
;
Structure prediction by ZEFSAII (Michael W. Deem and Ramdas Pophale) SiO2 
 PCOD8136095
Probable space group: C 2/C
;
_chemical_formula_sum "Si O2"
_cell_formula_units_Z 60
_cell_length_a 25.976662
_cell_length_b 14.745766
_cell_length_c 16.784592
_cell_angle_alpha 90.000000
_cell_angle_beta 29.919978
_cell_angle_gamma 90.000000
_cell_volume 3206.854024
_symmetry_space_group_name_H-M "C 2/C"
_symmetry_group_IT_number 15
_symmetry_cell_setting 'monoclinic'
loop_
_space_group_symop_operation_xyz
x,y,z
-x,y,1/2-z
-x,-y,-z
x,-y,1/2+z
1/2+x,1/2+y,z
1/2-x,1/2+y,1/2-z
1/2-x,1/2-y,-z
1/2+x,1/2-y,1/2+z
loop_
_atom_site_type_symbol
_atom_site_label
_atom_site_fract_x
_atom_site_fract_y
_atom_site_fract_z
Si Si1 0.230035 0.039352 0.272524
Si Si2 0.610520 0.559938 0.282065
Si Si3 0.125081 0.711188 0.436737
Si Si4 0.019232 0.225443 0.498782
Si Si5 0.794775 0.355307 0.246245
Si Si6 0.209221 0.843418 0.522882
Si Si7 0.026752 0.085369 0.621278
Si Si8 0.000000 0.233108 0.250000
O O1 0.158363 0.009985 0.293987
O O2 0.305130 0.122059 0.151774
O O3 0.150534 0.069287 0.449202
O O4 0.299787 0.952670 0.197669
O O5 0.559824 0.654488 0.378552
O O6 0.707630 0.582017 0.094570
O O7 0.528083 0.500011 0.346155
O O8 0.194056 0.800016 0.355810
O O9 0.039928 0.705103 0.622128
O O10 0.074641 0.720157 0.416498
O O11 0.103819 0.299367 0.410254
O O12 0.990252 0.174229 0.620131
O O13 0.786446 0.376852 0.351242
O O14 0.250000 0.750000 0.500000
O O15 0.090851 0.833838 0.654334
O O16 0.000000 0.097525 0.750000
#
# Coordination Sequence:
#
# PCOD8136095 Si02
#       8
#     8   8   8   8   8   8   8   4
#     4  11  23  37  60  87 118 157 197 250 305 368
#     4  11  19  36  59  90 115 147 195 253 310 354
#     4  11  20  38  61  89 124 157 199 242 306 365
#     4  11  21  38  60  83 121 164 195 247 306 358
#     4  11  21  37  59  86 125 153 193 246 305 359
#     4  11  19  33  56  90 119 143 181 243 308 355
#     4  11  23  39  60  88 116 154 216 259 293 342
#     4  10  20  30  58  90 114 152 178 238 308 358
#
# _framework density 18.709925999999999
#
# number of rings (size 3 to 8) (size 9 to 14) (size 15 to 20)
#    0.000    1.067    5.333    4.800    2.800    0.533 
#    0.000    0.667    4.400    0.000    0.000    0.000 
#    0.000    0.000    0.000    0.000    0.000    0.000 
#
# Total GULP energy -371912.489288 kJ/mol
# GULP energy per Si atom -12397.082976 kJ/mol
# Density = 1.866734 g / cm^3
# Si number density = 18.709926 Si / 1000 Ang^3
#
#
#
# Elastic Constant Matrix: (Units=GPa)
#
#
# Indices 1 2 3 4 5 6 
#
# 1 87.7109 24.6516 32.2293 0.0000 11.8864 0.0000
# 2 24.6516 78.1247 33.9907 0.0000 14.0547 0.0000
# 3 32.2293 33.9907 67.8434 0.0000 17.6463 0.0000
# 4 0.0000 0.0000 0.0000 26.2564 0.0000 -3.2292
# 5 11.8864 14.0547 17.6463 0.0000 27.7929 0.0000
# 6 0.0000 0.0000 0.0000 -3.2292 0.0000 30.4416
#
#
#
# Elastic Compliance Matrix: (Units=1/GPa)
#
#
# Indices 1 2 3 4 5 6 
#
# 1 0.014109 -0.001817 -0.005344 0.000000 -0.001722 0.000000
# 2 -0.001817 0.016922 -0.006697 0.000000 -0.003528 0.000000
# 3 -0.005344 -0.006697 0.022949 0.000000 -0.008898 0.000000
# 4 0.000000 0.000000 0.000000 0.038589 0.000000 0.004094
# 5 -0.001722 -0.003528 -0.008898 0.000000 0.044150 0.000000
# 6 0.000000 0.000000 0.000000 0.004094 0.000000 0.033284
#
#
# Mechanical properties :
#
#
# Convention : Reuss Voigt Hill
#
# Bulk Modulus (GPa) = 38.07759 46.15802 42.11780
# Shear Modulus (GPa) = 24.21604 26.41866 25.31735
#
# Velocity S-wave (km/s) = 3.60153 3.76175 3.68251
# Velocity P-wave (km/s) = 6.13925 6.60239 6.37503
#
# Compressibility (1/GPa) = 0.02626217
#
# Stress axis : x y z
#
# Youngs Moduli (GPa) = 70.87743 59.09465 43.57573
#
# Poissons Ratio (x) = 0.10737 0.23288
# Poissons Ratio (y) = 0.12878 0.29185
# Poissons Ratio (z) = 0.37879 0.39578
#
# Static dielectric constant tensor:
#      x y z
#    x 3.090350 0.000000 0.122530 
#    y 0.000000 3.266740 0.000000 
#    z 0.122530 0.000000 3.519010 
# 
# 
# High freq. dielectric constant tensor:
#      x y z
#    x 1.734950 0.000000 0.003760 
#    y 0.000000 1.708360 0.000000 
#    z 0.003760 0.000000 1.713310 
# 
# From -- ./inp_files/224999.got.cif
#   From: 2010.06.25/outbox.cif.g09.slc.cpg/sg15_113_cif.got.tgz:224999.got - 2010.06.28 07:06:18.
