data_PCOD8136743
_publ_section_title
;
Structure prediction by ZEFSAII (Michael W. Deem and Ramdas Pophale) SiO2 
 PCOD8136743
Probable space group: C 2/C
;
_chemical_formula_sum "Si O2"
_cell_formula_units_Z 44
_cell_length_a 17.016994
_cell_length_b 9.368196
_cell_length_c 13.983194
_cell_angle_alpha 90.000000
_cell_angle_beta 101.833393
_cell_angle_gamma 90.000000
_cell_volume 2181.805850
_symmetry_space_group_name_H-M "C 2/C"
_symmetry_group_IT_number 15
_symmetry_cell_setting 'monoclinic'
loop_
_space_group_symop_operation_xyz
x,y,z
-x,y,1/2-z
-x,-y,-z
x,-y,1/2+z
1/2+x,1/2+y,z
1/2-x,1/2+y,1/2-z
1/2-x,1/2-y,-z
1/2+x,1/2-y,1/2+z
loop_
_atom_site_type_symbol
_atom_site_label
_atom_site_fract_x
_atom_site_fract_y
_atom_site_fract_z
Si Si1 0.236173 0.614408 0.364278
Si Si2 0.625225 0.597520 0.565121
Si Si3 0.000000 0.730907 0.250000
Si Si4 0.849597 0.657196 0.967694
Si Si5 0.553705 0.397586 0.419427
Si Si6 0.127564 0.611182 0.152512
O O1 0.302385 0.490897 0.371472
O O2 0.174910 0.584635 0.436951
O O3 0.273598 0.769360 0.396738
O O4 0.193902 0.613690 0.251335
O O5 0.608650 0.538992 0.452040
O O6 0.540805 0.564944 0.597558
O O7 0.646334 0.764551 0.579038
O O8 0.932203 0.832943 0.183205
O O9 0.959428 0.635479 0.321332
O O10 0.880682 0.536260 0.904412
O O11 0.919445 0.775351 0.997832
#
# Coordination Sequence:
#
# PCOD8136743 Si02
#       6
#     8   8   4   8   8   8
#     4  10  20  39  58  90 115 161 193 242 300 364
#     4   9  20  34  61  82 118 151 199 241 295 344
#     4  10  20  34  62  84 114 162 200 238 296 362
#     4  10  21  36  65  83 121 154 199 245 302 351
#     4   9  18  39  57  85 112 160 197 238 291 362
#     4  11  21  37  61  89 117 156 198 247 293 359
#
# _framework density 20.166779999999999
#
# number of rings (size 3 to 8) (size 9 to 14) (size 15 to 20)
#    0.000    2.182    1.818    1.091    0.000    3.636 
#    0.000    0.000   12.000    2.182    0.000    0.000 
#    0.000    0.000    0.000    0.000    0.000    0.000 
#
# Total GULP energy -272574.145983 kJ/mol
# GULP energy per Si atom -12389.733908 kJ/mol
# Density = 2.012088 g / cm^3
# Si number density = 20.166780 Si / 1000 Ang^3
#
#
#
# Elastic Constant Matrix: (Units=GPa)
#
#
# Indices 1 2 3 4 5 6 
#
# 1 75.0039 31.4242 27.0820 0.0000 2.8656 0.0000
# 2 31.4242 105.6083 55.9112 0.0000 -9.1723 0.0000
# 3 27.0820 55.9112 105.4501 0.0000 5.2272 0.0000
# 4 0.0000 0.0000 0.0000 30.2515 0.0000 6.1202
# 5 2.8656 -9.1723 5.2272 0.0000 28.9395 0.0000
# 6 0.0000 0.0000 0.0000 6.1202 0.0000 25.1144
#
#
#
# Elastic Compliance Matrix: (Units=1/GPa)
#
#
# Indices 1 2 3 4 5 6 
#
# 1 0.015734 -0.003923 -0.001839 0.000000 -0.002469 0.000000
# 2 -0.003923 0.015065 -0.007301 0.000000 0.006482 0.000000
# 3 -0.001839 -0.007301 0.014058 0.000000 -0.004671 0.000000
# 4 0.000000 0.000000 0.000000 0.034770 0.000000 -0.008473
# 5 -0.002469 0.006482 -0.004671 0.000000 0.037698 0.000000
# 6 0.000000 0.000000 0.000000 -0.008473 0.000000 0.041883
#
#
# Mechanical properties :
#
#
# Convention : Reuss Voigt Hill
#
# Bulk Modulus (GPa) = 53.38562 57.21078 55.29820
# Shear Modulus (GPa) = 26.09909 28.30405 27.20157
#
# Velocity S-wave (km/s) = 3.60135 3.75039 3.67663
# Velocity P-wave (km/s) = 6.61986 6.86909 6.74562
#
# Compressibility (1/GPa) = 0.01873164
#
# Stress axis : x y z
#
# Youngs Moduli (GPa) = 63.55487 66.38038 71.13298
#
# Poissons Ratio (x) = 0.26041 0.13078
# Poissons Ratio (y) = 0.24932 0.51937
# Poissons Ratio (z) = 0.11685 0.48467
#
# Static dielectric constant tensor:
#      x y z
#    x 3.590010 0.000000 0.241770 
#    y 0.000000 3.678990 0.000000 
#    z 0.241770 0.000000 3.871830 
# 
# 
# High freq. dielectric constant tensor:
#      x y z
#    x 1.781150 0.000000 0.028310 
#    y 0.000000 1.777430 0.000000 
#    z 0.028310 0.000000 1.783940 
# 
# From -- ./inp_files/122117.got.cif
#   From: 2010.06.25/outbox.cif.g09.slc.cpg/sg15_62_cif.got.tgz:122117.got - 2010.06.28 07:06:18.
