data_PCOD8136928
_publ_section_title
;
Structure prediction by ZEFSAII (Michael W. Deem and Ramdas Pophale) SiO2 
 PCOD8136928
Probable space group: C 2/C
;
_chemical_formula_sum "Si O2"
_cell_formula_units_Z 64
_cell_length_a 23.223279
_cell_length_b 11.305795
_cell_length_c 26.207205
_cell_angle_alpha 90.000000
_cell_angle_beta 149.672767
_cell_angle_gamma 90.000000
_cell_volume 3474.428341
_symmetry_space_group_name_H-M "C 2/C"
_symmetry_group_IT_number 15
_symmetry_cell_setting 'monoclinic'
loop_
_space_group_symop_operation_xyz
x,y,z
-x,y,1/2-z
-x,-y,-z
x,-y,1/2+z
1/2+x,1/2+y,z
1/2-x,1/2+y,1/2-z
1/2-x,1/2-y,-z
1/2+x,1/2-y,1/2+z
loop_
_atom_site_type_symbol
_atom_site_label
_atom_site_fract_x
_atom_site_fract_y
_atom_site_fract_z
Si Si1 0.017418 0.923245 0.128711
Si Si2 0.190848 0.228654 0.816138
Si Si3 0.841401 0.727007 0.025278
Si Si4 0.445106 0.334564 0.871862
Si Si5 0.295640 0.124602 0.273802
Si Si6 0.903554 0.174062 0.914686
Si Si7 0.470400 0.075411 0.282274
Si Si8 0.150631 0.596709 0.738388
O O1 0.129738 0.887333 0.246636
O O2 0.039079 0.909283 0.084248
O O3 0.992903 0.064908 0.115886
O O4 0.911023 0.848233 0.068387
O O5 0.287933 0.188834 0.929946
O O6 0.234482 0.310090 0.802809
O O7 0.103992 0.306951 0.782941
O O8 0.750000 0.750000 0.000000
O O9 0.920976 0.615384 0.100722
O O10 0.321771 0.391892 0.786866
O O11 0.429524 0.209722 0.831812
O O12 0.510508 0.308664 0.973684
O O13 0.386386 0.199478 0.374995
O O14 0.355688 0.997538 0.312793
O O15 0.784101 0.127359 0.846315
O O16 0.500000 0.025225 0.250000
O O17 0.398487 0.967556 0.249884
#
# Coordination Sequence:
#
# PCOD8136928 Si02
#       8
#     8   8   8   8   8   8   8   8
#     4  10  21  34  56  86 116 147 184 231 286 336
#     4   9  19  35  56  83 115 140 184 239 285 333
#     4  11  21  35  62  89 109 146 186 240 301 326
#     4  11  21  35  55  83 117 151 192 225 281 351
#     4   9  19  35  53  81 114 150 186 235 278 332
#     4  10  20  35  57  82 112 153 192 232 283 336
#     4  10  20  37  59  82 111 145 194 240 279 343
#     4  10  22  37  55  82 113 154 192 231 292 332
#
# _framework density 18.420297000000001
#
# number of rings (size 3 to 8) (size 9 to 14) (size 15 to 20)
#    0.000    2.000    2.500    1.875    3.500    0.500 
#    4.500    0.000    2.750    1.500    0.000    0.000 
#    0.000    0.000    0.000    0.000    0.000    0.000 
#
# Total GULP energy -396597.337996 kJ/mol
# GULP energy per Si atom -12393.666812 kJ/mol
# Density = 1.837837 g / cm^3
# Si number density = 18.420297 Si / 1000 Ang^3
#
#
#
# Elastic Constant Matrix: (Units=GPa)
#
#
# Indices 1 2 3 4 5 6 
#
# 1 74.9995 32.3200 13.9505 0.0000 -1.5788 0.0000
# 2 32.3200 105.3867 32.6631 0.0000 -8.4335 0.0001
# 3 13.9505 32.6631 80.9339 -0.0002 -10.8615 0.0000
# 4 0.0000 0.0000 -0.0002 13.0331 0.0000 3.0084
# 5 -1.5788 -8.4335 -10.8615 0.0000 22.2908 0.0000
# 6 0.0000 0.0001 0.0000 3.0084 0.0000 20.2544
#
#
#
# Elastic Compliance Matrix: (Units=1/GPa)
#
#
# Indices 1 2 3 4 5 6 
#
# 1 0.015440 -0.004518 -0.000985 0.000000 -0.001096 0.000000
# 2 -0.004518 0.012261 -0.003841 0.000000 0.002447 0.000000
# 3 -0.000985 -0.003841 0.014842 0.000000 0.005709 0.000000
# 4 0.000000 0.000000 0.000000 0.079452 0.000000 -0.011801
# 5 -0.001096 0.002447 0.005709 0.000000 0.048492 0.000000
# 6 0.000000 0.000000 0.000000 -0.011801 0.000000 0.051125
#
#
# Mechanical properties :
#
#
# Convention : Reuss Voigt Hill
#
# Bulk Modulus (GPa) = 41.91967 46.57638 44.24802
# Shear Modulus (GPa) = 20.14094 23.27475 21.70785
#
# Velocity S-wave (km/s) = 3.31026 3.55848 3.43662
# Velocity P-wave (km/s) = 6.11696 6.49800 6.31036
#
# Compressibility (1/GPa) = 0.02385515
#
# Stress axis : x y z
#
# Youngs Moduli (GPa) = 64.76505 81.56202 67.37683
#
# Poissons Ratio (x) = 0.36846 0.06639
# Poissons Ratio (y) = 0.29258 0.25879
# Poissons Ratio (z) = 0.06381 0.31328
#
# Static dielectric constant tensor:
#      x y z
#    x 3.332580 0.000000 0.107070 
#    y 0.000000 3.449420 0.000000 
#    z 0.107070 0.000000 3.338980 
# 
# 
# High freq. dielectric constant tensor:
#      x y z
#    x 1.700120 0.000000 0.007610 
#    y 0.000000 1.706860 0.000000 
#    z 0.007610 0.000000 1.711410 
# 
# From -- ./inp_files/279914.got.cif
#   From: 2010.06.25/outbox.cif.g09.slc.cpg/sg15_140_cif.got.tgz:279914.got - 2010.06.28 07:06:18.
