data_PCOD8136022
_publ_section_title
;
Structure prediction by ZEFSAII (Michael W. Deem and Ramdas Pophale) SiO2 
 PCOD8136022
Probable space group: C 2/C
;
_chemical_formula_sum "Si O2"
_cell_formula_units_Z 32
_cell_length_a 7.531560
_cell_length_b 18.021551
_cell_length_c 9.326409
_cell_angle_alpha 90.000000
_cell_angle_beta 83.710249
_cell_angle_gamma 90.000000
_cell_volume 1258.257295
_symmetry_space_group_name_H-M "C 2/C"
_symmetry_group_IT_number 15
_symmetry_cell_setting 'monoclinic'
loop_
_space_group_symop_operation_xyz
x,y,z
-x,y,1/2-z
-x,-y,-z
x,-y,1/2+z
1/2+x,1/2+y,z
1/2-x,1/2+y,1/2-z
1/2-x,1/2-y,-z
1/2+x,1/2-y,1/2+z
loop_
_atom_site_type_symbol
_atom_site_label
_atom_site_fract_x
_atom_site_fract_y
_atom_site_fract_z
Si Si1 0.099619 0.718986 0.906399
Si Si2 0.197582 0.069225 0.254183
Si Si3 0.337677 0.947559 0.050283
Si Si4 0.838906 0.719351 0.161100
O O1 0.098547 0.630616 0.894403
O O2 0.150390 0.746635 0.739616
O O3 0.250000 0.750000 0.000000
O O4 0.904012 0.743480 0.992881
O O5 0.218646 0.065046 0.421926
O O6 0.330335 0.129504 0.170623
O O7 0.000000 0.099634 0.250000
O O8 0.222382 0.988257 0.183041
O O9 0.500000 0.000000 0.000000
O O10 0.000000 0.746168 0.250000
#
# Coordination Sequence:
#
# PCOD8136022 Si02
#       4
#     8   8   8   8
#     4  10  20  39  77 100 139 190 250 303 365 436
#     4  12  25  43  67 106 150 187 246 315 370 440
#     4  12  23  46  75 102 142 199 252 299 375 443
#     4  10  19  42  69 101 137 193 242 303 365 433
#
# _framework density 25.431998
#
# number of rings (size 3 to 8) (size 9 to 14) (size 15 to 20)
#    0.000    1.000    7.500    1.500    0.000    3.000 
#    4.500    3.750    0.000    0.000    0.000    0.000 
#    0.000    0.000    0.000    0.000    0.000    0.000 
#
# Total GULP energy -198379.286957 kJ/mol
# GULP energy per Si atom -12398.705435 kJ/mol
# Density = 2.537411 g / cm^3
# Si number density = 25.431998 Si / 1000 Ang^3
#
#
#
# Elastic Constant Matrix: (Units=GPa)
#
#
# Indices 1 2 3 4 5 6 
#
# 1 105.4896 13.2556 59.4297 0.0000 -33.1956 0.0000
# 2 13.2556 148.8268 60.4265 0.0000 -29.0352 0.0000
# 3 59.4297 60.4265 223.4106 0.0000 -25.8277 0.0000
# 4 0.0000 0.0000 0.0000 46.9433 0.0000 -17.0537
# 5 -33.1956 -29.0352 -25.8277 0.0000 45.0610 0.0000
# 6 0.0000 0.0000 0.0000 -17.0537 0.0000 3.2195
#
#
#
# Elastic Compliance Matrix: (Units=1/GPa)
#
#
# Indices 1 2 3 4 5 6 
#
# 1 0.014099 0.001937 -0.003137 0.000000 0.009836 0.000000
# 2 0.001937 0.008536 -0.002167 0.000000 0.005685 0.000000
# 3 -0.003137 -0.002167 0.005856 0.000000 -0.000351 0.000000
# 4 0.000000 0.000000 0.000000 -0.023046 0.000000 -0.122076
# 5 0.009836 0.005685 -0.000351 0.000000 0.032901 0.000000
# 6 0.000000 0.000000 0.000000 -0.122076 0.000000 -0.336036
#
#
# Mechanical properties :
#
#
# Convention : Reuss Voigt Hill
#
# Bulk Modulus (GPa) = 45.96265 82.66119 64.31192
# Shear Modulus (GPa) = -17.62391 42.01912 12.19760
#
# Velocity S-wave (km/s) = -2.63531 4.06915 2.19239
# Velocity P-wave (km/s) = 2.97526 7.39261 5.63484
#
# Compressibility (1/GPa) = 0.02175680
#
# Stress axis : x y z
#
# Youngs Moduli (GPa) = 70.92719 117.15758 170.76232
#
# Poissons Ratio (x) = -0.22694 0.53573
# Poissons Ratio (y) = -0.13739 0.36999
# Poissons Ratio (z) = 0.22252 0.25384
#
# Static dielectric constant tensor:
#      x y z
#    x 4.656510 0.000000 -0.337330 
#    y 0.000000 4.875070 0.000000 
#    z -0.337330 0.000000 5.286020 
# 
# 
# High freq. dielectric constant tensor:
#      x y z
#    x 2.042890 0.000000 -0.001800 
#    y 0.000000 2.002620 0.000000 
#    z -0.001800 0.000000 2.045730 
# 
# From -- ./inp_files/22348.got.cif
#   From: 2010.06.25/outbox.cif.g09.slc.cpg/sg15_12_cif.got.tgz:22348.got - 2010.06.28 07:06:18.
