data_PCOD8136423
_publ_section_title
;
Structure prediction by ZEFSAII (Michael W. Deem and Ramdas Pophale) SiO2 
 PCOD8136423
Probable space group: C 2/C
;
_chemical_formula_sum "Si O2"
_cell_formula_units_Z 60
_cell_length_a 11.338080
_cell_length_b 22.342622
_cell_length_c 12.375498
_cell_angle_alpha 90.000000
_cell_angle_beta 80.381163
_cell_angle_gamma 90.000000
_cell_volume 3090.916941
_symmetry_space_group_name_H-M "C 2/C"
_symmetry_group_IT_number 15
_symmetry_cell_setting 'monoclinic'
loop_
_space_group_symop_operation_xyz
x,y,z
-x,y,1/2-z
-x,-y,-z
x,-y,1/2+z
1/2+x,1/2+y,z
1/2-x,1/2+y,1/2-z
1/2-x,1/2-y,-z
1/2+x,1/2-y,1/2+z
loop_
_atom_site_type_symbol
_atom_site_label
_atom_site_fract_x
_atom_site_fract_y
_atom_site_fract_z
Si Si1 0.500000 0.203511 0.750000
Si Si2 0.725589 0.882196 0.184061
Si Si3 0.518401 0.660608 0.864385
Si Si4 0.819131 0.530342 0.005717
Si Si5 0.512930 0.064165 0.129027
Si Si6 0.188272 0.340556 0.560128
Si Si7 0.393925 0.263336 0.569327
Si Si8 0.181118 0.928939 0.107068
O O1 0.386745 0.161870 0.791669
O O2 0.479369 0.250119 0.656166
O O3 0.841764 0.844471 0.132592
O O4 0.708358 0.930268 0.093263
O O5 0.745672 0.915753 0.294244
O O6 0.500000 0.692182 0.750000
O O7 0.456205 0.594109 0.864804
O O8 0.462096 0.701843 0.964363
O O9 0.905654 0.476576 0.958895
O O10 0.698539 0.499703 0.075706
O O11 0.884275 0.569721 0.089075
O O12 0.500000 0.035311 0.250000
O O13 0.573110 0.130133 0.136279
O O14 0.275080 0.300776 0.624345
O O15 0.147174 0.301043 0.465592
O O16 0.266202 0.393959 0.502009
#
# Coordination Sequence:
#
# PCOD8136423 Si02
#       8
#     4   8   8   8   8   8   8   8
#     4  12  24  36  60  88 118 154 190 248 312 340
#     4  11  22  37  58  88 113 150 192 243 284 348
#     4   9  21  39  61  84 113 153 204 234 275 349
#     4  10  21  32  58  83 114 148 183 235 291 337
#     4  10  20  34  50  84 113 144 185 235 282 340
#     4   9  18  35  57  79 107 154 194 225 283 349
#     4  10  20  38  58  80 112 157 192 237 293 346
#     4   9  18  38  59  81 114 152 189 229 285 356
#
# _framework density 19.411716999999999
#
# number of rings (size 3 to 8) (size 9 to 14) (size 15 to 20)
#    0.000    2.133    1.333    1.600    6.533    1.600 
#    2.400    0.000    0.000    0.000    0.000    0.000 
#    0.000    0.000    0.000    0.000    0.000    0.000 
#
# Total GULP energy -371744.752644 kJ/mol
# GULP energy per Si atom -12391.491755 kJ/mol
# Density = 1.936753 g / cm^3
# Si number density = 19.411717 Si / 1000 Ang^3
#
#
#
# Elastic Constant Matrix: (Units=GPa)
#
#
# Indices 1 2 3 4 5 6 
#
# 1 119.0804 48.6716 34.3643 0.0000 7.6782 0.0000
# 2 48.6716 77.6420 35.6916 0.0000 3.5995 0.0000
# 3 34.3643 35.6916 84.9674 0.0000 15.3745 0.0000
# 4 0.0000 0.0000 0.0000 26.3396 0.0000 -3.9527
# 5 7.6782 3.5995 15.3745 0.0000 30.0895 0.0000
# 6 0.0000 0.0000 0.0000 -3.9527 0.0000 17.1893
#
#
#
# Elastic Compliance Matrix: (Units=1/GPa)
#
#
# Indices 1 2 3 4 5 6 
#
# 1 0.011609 -0.006403 -0.001772 0.000000 -0.001291 0.000000
# 2 -0.006403 0.019570 -0.006064 0.000000 0.002391 0.000000
# 3 -0.001772 -0.006064 0.016330 0.000000 -0.007166 0.000000
# 4 0.000000 0.000000 0.000000 0.039323 0.000000 0.009042
# 5 -0.001291 0.002391 -0.007166 0.000000 0.036939 0.000000
# 6 0.000000 0.000000 0.000000 0.009042 0.000000 0.060255
#
#
# Mechanical properties :
#
#
# Convention : Reuss Voigt Hill
#
# Bulk Modulus (GPa) = 52.54399 57.68275 55.11337
# Shear Modulus (GPa) = 22.84693 25.58783 24.21738
#
# Velocity S-wave (km/s) = 3.43442 3.63459 3.53592
# Velocity P-wave (km/s) = 6.54629 6.88430 6.71742
#
# Compressibility (1/GPa) = 0.01903167
#
# Stress axis : x y z
#
# Youngs Moduli (GPa) = 86.13643 51.09803 61.23817
#
# Poissons Ratio (x) = 0.32719 0.10851
# Poissons Ratio (y) = 0.55155 0.37133
# Poissons Ratio (z) = 0.15263 0.30984
#
# Static dielectric constant tensor:
#      x y z
#    x 3.838080 0.000000 -0.035450 
#    y 0.000000 3.587610 0.000000 
#    z -0.035450 0.000000 3.465330 
# 
# 
# High freq. dielectric constant tensor:
#      x y z
#    x 1.755750 0.000000 0.001110 
#    y 0.000000 1.741040 0.000000 
#    z 0.001110 0.000000 1.750350 
# 
# From -- ./inp_files/89621.got.cif
#   From: 2010.06.25/outbox.cif.g09.slc.cpg/sg15_45_cif.got.tgz:89621.got - 2010.06.28 07:06:18.
