data_PCOD8136683
_publ_section_title
;
Structure prediction by ZEFSAII (Michael W. Deem and Ramdas Pophale) SiO2 
 PCOD8136683
Probable space group: C 2/C
;
_chemical_formula_sum "Si O2"
_cell_formula_units_Z 56
_cell_length_a 17.021912
_cell_length_b 8.596083
_cell_length_c 20.749127
_cell_angle_alpha 90.000000
_cell_angle_beta 114.186652
_cell_angle_gamma 90.000000
_cell_volume 2769.531188
_symmetry_space_group_name_H-M "C 2/C"
_symmetry_group_IT_number 15
_symmetry_cell_setting 'monoclinic'
loop_
_space_group_symop_operation_xyz
x,y,z
-x,y,1/2-z
-x,-y,-z
x,-y,1/2+z
1/2+x,1/2+y,z
1/2-x,1/2+y,1/2-z
1/2-x,1/2-y,-z
1/2+x,1/2-y,1/2+z
loop_
_atom_site_type_symbol
_atom_site_label
_atom_site_fract_x
_atom_site_fract_y
_atom_site_fract_z
Si Si1 0.814417 0.525175 0.167520
Si Si2 0.937567 0.946244 0.564146
Si Si3 0.819243 0.792212 0.075882
Si Si4 0.328907 0.786835 0.793064
Si Si5 0.791674 0.979095 0.187244
Si Si6 0.881704 0.060729 0.906959
Si Si7 0.914794 0.783056 0.686698
O O1 0.848760 0.632137 0.120322
O O2 0.860019 0.596187 0.247505
O O3 0.709706 0.525428 0.137961
O O4 0.843204 0.349754 0.167290
O O5 0.885142 0.889563 0.483202
O O6 0.926404 0.817010 0.615090
O O7 0.900613 0.115719 0.573246
O O8 0.038886 0.946804 0.581302
O O9 0.770136 0.897677 0.112345
O O10 0.750000 0.750000 0.000000
O O11 0.269726 0.875833 0.823460
O O12 0.281240 0.642191 0.741870
O O13 0.398199 0.708111 0.864315
O O14 0.886737 0.057633 0.214086
O O15 0.000000 0.721242 0.750000
#
# Coordination Sequence:
#
# PCOD8136683 Si02
#       7
#     8   8   8   8   8   8   8
#     4  11  23  38  67  90 121 163 205 253 310 358
#     4  10  24  40  63  89 123 166 204 252 312 362
#     4  10  21  39  60  87 119 159 200 253 299 369
#     4  11  20  37  60  92 119 156 207 250 301 366
#     4  10  20  34  59  89 115 160 198 244 307 351
#     4  11  21  39  64  90 122 158 207 253 300 374
#     4  11  23  40  61  93 125 162 207 257 305 370
#
# _framework density 20.220030000000001
#
# number of rings (size 3 to 8) (size 9 to 14) (size 15 to 20)
#    0.000    1.429    4.286    0.857    0.000    2.857 
#    0.000    1.429    0.000    3.429    0.000    0.000 
#    0.000    0.000    0.000    0.000    0.000    0.000 
#
# Total GULP energy -346962.475631 kJ/mol
# GULP energy per Si atom -12391.516987 kJ/mol
# Density = 2.017401 g / cm^3
# Si number density = 20.220030 Si / 1000 Ang^3
#
#
#
# Elastic Constant Matrix: (Units=GPa)
#
#
# Indices 1 2 3 4 5 6 
#
# 1 53.9052 36.3598 29.3424 0.0000 -0.2136 0.0000
# 2 36.3598 104.2587 59.2343 0.0000 -10.1227 0.0000
# 3 29.3424 59.2343 122.6391 0.0000 -16.7905 0.0000
# 4 0.0000 0.0000 0.0000 31.2152 0.0000 -10.5448
# 5 -0.2136 -10.1227 -16.7905 0.0000 26.4767 0.0000
# 6 0.0000 0.0000 0.0000 -10.5448 0.0000 27.0140
#
#
#
# Elastic Compliance Matrix: (Units=1/GPa)
#
#
# Indices 1 2 3 4 5 6 
#
# 1 0.025267 -0.007533 -0.003037 0.000000 -0.004602 0.000000
# 2 -0.007533 0.015494 -0.005342 0.000000 0.002475 0.000000
# 3 -0.003037 -0.005342 0.012241 0.000000 0.005696 0.000000
# 4 0.000000 0.000000 0.000000 0.036902 0.000000 0.014404
# 5 -0.004602 0.002475 0.005696 0.000000 0.042290 0.000000
# 6 0.000000 0.000000 0.000000 0.014404 0.000000 0.042640
#
#
# Mechanical properties :
#
#
# Convention : Reuss Voigt Hill
#
# Bulk Modulus (GPa) = 47.22089 58.96397 53.09243
# Shear Modulus (GPa) = 23.39521 27.33230 25.36375
#
# Velocity S-wave (km/s) = 3.40521 3.68060 3.54558
# Velocity P-wave (km/s) = 6.23416 6.87654 6.56322
#
# Compressibility (1/GPa) = 0.02117707
#
# Stress axis : x y z
#
# Youngs Moduli (GPa) = 39.57691 64.53971 81.69403
#
# Poissons Ratio (x) = 0.48619 0.24810
# Poissons Ratio (y) = 0.29814 0.43645
# Poissons Ratio (z) = 0.12019 0.34480
#
# Static dielectric constant tensor:
#      x y z
#    x 3.564340 0.000000 -0.336080 
#    y 0.000000 3.738510 0.000000 
#    z -0.336080 0.000000 3.864900 
# 
# 
# High freq. dielectric constant tensor:
#      x y z
#    x 1.774400 0.000000 -0.026670 
#    y 0.000000 1.787060 0.000000 
#    z -0.026670 0.000000 1.797720 
# 
# From -- ./inp_files/247595.got.cif
#   From: 2010.06.25/outbox.cif.g09.slc.cpg/sg15_124_cif.got.tgz:247595.got - 2010.06.28 07:06:18.
