data_PCOD8136422
_publ_section_title
;
Structure prediction by ZEFSAII (Michael W. Deem and Ramdas Pophale) SiO2 
 PCOD8136422
Probable space group: C 2/C
;
_chemical_formula_sum "Si O2"
_cell_formula_units_Z 64
_cell_length_a 28.016815
_cell_length_b 13.954901
_cell_length_c 9.132636
_cell_angle_alpha 90.000000
_cell_angle_beta 87.387117
_cell_angle_gamma 90.000000
_cell_volume 3566.891666
_symmetry_space_group_name_H-M "C 2/C"
_symmetry_group_IT_number 15
_symmetry_cell_setting 'monoclinic'
loop_
_space_group_symop_operation_xyz
x,y,z
-x,y,1/2-z
-x,-y,-z
x,-y,1/2+z
1/2+x,1/2+y,z
1/2-x,1/2+y,1/2-z
1/2-x,1/2-y,-z
1/2+x,1/2-y,1/2+z
loop_
_atom_site_type_symbol
_atom_site_label
_atom_site_fract_x
_atom_site_fract_y
_atom_site_fract_z
Si Si1 0.356297 0.217196 0.548080
Si Si2 0.676462 0.051926 0.748147
Si Si3 0.299585 0.386816 0.645995
Si Si4 0.051922 0.390760 0.424845
Si Si5 0.794456 0.730980 0.274593
Si Si6 0.054067 0.591223 0.583925
Si Si7 0.648328 0.889673 0.940686
Si Si8 0.219902 0.051565 0.666302
O O1 0.334359 0.153754 0.679741
O O2 0.347548 0.327206 0.598783
O O3 0.412815 0.193295 0.521533
O O4 0.328025 0.195667 0.402557
O O5 0.672891 0.057680 0.574580
O O6 0.728825 0.015912 0.784446
O O7 0.641035 0.970379 0.816379
O O8 0.258540 0.311048 0.697920
O O9 0.313587 0.465149 0.767665
O O10 0.282120 0.446367 0.507537
O O11 0.057183 0.482836 0.526238
O O12 0.064874 0.413782 0.254934
O O13 0.996473 0.357610 0.443030
O O14 0.792855 0.845431 0.264434
O O15 0.818441 0.696686 0.119788
O O16 0.096225 0.650543 0.497229
#
# Coordination Sequence:
#
# PCOD8136422 Si02
#       8
#     8   8   8   8   8   8   8   8
#     4  11  20  37  53  73 104 145 177 209 264 316
#     4  12  20  31  52  75 108 142 178 209 259 308
#     4  11  22  37  54  74 108 142 178 219 259 311
#     4  10  21  34  52  75 107 142 173 212 261 313
#     4  11  23  35  53  77 107 141 178 218 258 310
#     4  10  20  34  50  77 109 136 175 212 258 315
#     4  12  22  31  50  79 106 143 175 216 258 311
#     4  11  22  38  51  77 108 142 182 219 254 304
#
# _framework density 17.942792000000001
#
# number of rings (size 3 to 8) (size 9 to 14) (size 15 to 20)
#    0.000    1.000    6.250    2.250    1.750    1.500 
#    0.000    0.000    0.000    0.000    0.000    0.875 
#    0.000    0.000    0.000    0.000    0.000    0.000 
#
# Total GULP energy -396716.834670 kJ/mol
# GULP energy per Si atom -12397.401083 kJ/mol
# Density = 1.790195 g / cm^3
# Si number density = 17.942792 Si / 1000 Ang^3
#
#
#
# Elastic Constant Matrix: (Units=GPa)
#
#
# Indices 1 2 3 4 5 6 
#
# 1 96.8683 28.0744 25.2671 0.0000 -8.5965 0.0000
# 2 28.0744 74.3298 23.5301 0.0000 -7.1957 0.0000
# 3 25.2671 23.5301 67.9403 0.0000 -16.8027 0.0000
# 4 0.0000 0.0000 0.0000 29.4853 0.0000 -5.9514
# 5 -8.5965 -7.1957 -16.8027 0.0000 22.8830 0.0000
# 6 0.0000 0.0000 0.0000 -5.9514 0.0000 24.8909
#
#
#
# Elastic Compliance Matrix: (Units=1/GPa)
#
#
# Indices 1 2 3 4 5 6 
#
# 1 0.012251 -0.003551 -0.003011 0.000000 0.001275 0.000000
# 2 -0.003551 0.016162 -0.004093 0.000000 0.000743 0.000000
# 3 -0.003011 -0.004093 0.020355 0.000000 0.012528 0.000000
# 4 0.000000 0.000000 0.000000 0.035635 0.000000 0.008520
# 5 0.001275 0.000743 0.012528 0.000000 0.053612 0.000000
# 6 0.000000 0.000000 0.000000 0.008520 0.000000 0.042213
#
#
# Mechanical properties :
#
#
# Convention : Reuss Voigt Hill
#
# Bulk Modulus (GPa) = 36.41980 43.65353 40.03666
# Shear Modulus (GPa) = 23.73153 26.26962 25.00058
#
# Velocity S-wave (km/s) = 3.64073 3.83048 3.73681
# Velocity P-wave (km/s) = 6.16563 6.62914 6.40158
#
# Compressibility (1/GPa) = 0.02745759
#
# Stress axis : x y z
#
# Youngs Moduli (GPa) = 81.62684 61.87226 49.12871
#
# Poissons Ratio (x) = 0.21968 0.14794
# Poissons Ratio (y) = 0.28982 0.20111
# Poissons Ratio (z) = 0.24579 0.25327
#
# Static dielectric constant tensor:
#      x y z
#    x 3.527780 0.000000 -0.115470 
#    y 0.000000 3.108260 0.000000 
#    z -0.115470 0.000000 3.491440 
# 
# 
# High freq. dielectric constant tensor:
#      x y z
#    x 1.678430 0.000000 -0.001920 
#    y 0.000000 1.663110 0.000000 
#    z -0.001920 0.000000 1.709420 
# 
# From -- ./inp_files/66217.got.cif
#   From: 2010.06.25/outbox.cif.g09.slc.cpg/sg15_34_cif.got.tgz:66217.got - 2010.06.28 07:06:18.
