data_PCOD8136133
_publ_section_title
;
Structure prediction by ZEFSAII (Michael W. Deem and Ramdas Pophale) SiO2 
 PCOD8136133
Probable space group: C 2/C
;
_chemical_formula_sum "Si O2"
_cell_formula_units_Z 40
_cell_length_a 15.264520
_cell_length_b 28.350679
_cell_length_c 8.704004
_cell_angle_alpha 90.000000
_cell_angle_beta 147.405728
_cell_angle_gamma 90.000000
_cell_volume 2029.092471
_symmetry_space_group_name_H-M "C 2/C"
_symmetry_group_IT_number 15
_symmetry_cell_setting 'monoclinic'
loop_
_space_group_symop_operation_xyz
x,y,z
-x,y,1/2-z
-x,-y,-z
x,-y,1/2+z
1/2+x,1/2+y,z
1/2-x,1/2+y,1/2-z
1/2-x,1/2-y,-z
1/2+x,1/2-y,1/2+z
loop_
_atom_site_type_symbol
_atom_site_label
_atom_site_fract_x
_atom_site_fract_y
_atom_site_fract_z
Si Si1 0.000000 0.023543 0.750000
Si Si2 0.000000 0.800366 0.750000
Si Si3 0.914619 0.940298 0.427619
Si Si4 0.210211 0.113475 0.498392
Si Si5 0.000000 0.356818 0.250000
Si Si6 0.000000 0.255421 0.750000
Si Si7 0.846556 0.719922 0.323756
O O1 0.107434 0.055926 0.790536
O O2 0.889856 0.991509 0.473011
O O3 0.141252 0.833080 0.885930
O O4 0.917615 0.768249 0.498685
O O5 0.788382 0.903581 0.319857
O O6 0.097070 0.921954 0.734351
O O7 0.392155 0.110639 0.702011
O O8 0.124384 0.325052 0.528736
O O9 0.057982 0.288457 0.695261
O O10 0.847255 0.222420 0.481377
#
# Coordination Sequence:
#
# PCOD8136133 Si02
#       7
#     4   4   8   8   4   4   8
#     4   8  13  30  58  78  96 126 166 194 235 296
#     4   9  17  34  52  68  90 133 182 211 250 306
#     4   8  16  30  53  78 100 128 162 200 237 295
#     4   9  18  30  47  74 101 126 167 211 245 289
#     4  11  20  34  51  68 100 145 174 201 251 308
#     4  10  20  32  45  72  94 112 174 238 262 284
#     4  10  20  33  51  67  93 135 177 215 256 300
#
# _framework density 19.713245000000001
#
# number of rings (size 3 to 8) (size 9 to 14) (size 15 to 20)
#    0.000    3.200    0.000    2.400    0.000    3.200 
#    0.000   15.000    0.000   19.200    0.000    0.000 
#    0.000    0.000    0.000    0.000    0.000    0.000 
#
# Total GULP energy -247821.380220 kJ/mol
# GULP energy per Si atom -12391.069011 kJ/mol
# Density = 1.966838 g / cm^3
# Si number density = 19.713245 Si / 1000 Ang^3
#
#
#
# Elastic Constant Matrix: (Units=GPa)
#
#
# Indices 1 2 3 4 5 6 
#
# 1 186.1968 48.4378 61.0017 0.0000 10.8453 0.0000
# 2 48.4378 70.3739 22.5193 0.0000 1.1324 0.0000
# 3 61.0017 22.5193 65.9600 0.0000 6.2694 0.0000
# 4 0.0000 0.0000 0.0000 0.8559 0.0000 -1.3946
# 5 10.8453 1.1324 6.2694 0.0000 40.7589 0.0000
# 6 0.0000 0.0000 0.0000 -1.3946 0.0000 21.7696
#
#
#
# Elastic Compliance Matrix: (Units=1/GPa)
#
#
# Indices 1 2 3 4 5 6 
#
# 1 0.008557 -0.003788 -0.006509 0.000000 -0.001170 0.000000
# 2 -0.003788 0.017636 -0.002605 0.000000 0.000919 0.000000
# 3 -0.006509 -0.002605 0.022223 0.000000 -0.001614 0.000000
# 4 0.000000 0.000000 0.000000 1.304556 0.000000 0.083571
# 5 -0.001170 0.000919 -0.001614 0.000000 0.025069 0.000000
# 6 0.000000 0.000000 0.000000 0.083571 0.000000 0.051289
#
#
# Mechanical properties :
#
#
# Convention : Reuss Voigt Hill
#
# Bulk Modulus (GPa) = 44.22503 65.16091 54.69297
# Shear Modulus (GPa) = 3.41840 25.38166 14.40003
#
# Velocity S-wave (km/s) = 1.31827 3.59213 2.70566
# Velocity P-wave (km/s) = 4.97996 7.09441 6.12905
#
# Compressibility (1/GPa) = 0.02261163
#
# Stress axis : x y z
#
# Youngs Moduli (GPa) = 116.86754 56.70280 44.99775
#
# Poissons Ratio (x) = 0.21478 0.29289
# Poissons Ratio (y) = 0.44267 0.11723
# Poissons Ratio (z) = 0.76070 0.14772
#
# Static dielectric constant tensor:
#      x y z
#    x 3.924830 0.000000 -0.134880 
#    y 0.000000 3.446220 0.000000 
#    z -0.134880 0.000000 3.255120 
# 
# 
# High freq. dielectric constant tensor:
#      x y z
#    x 1.789720 0.000000 -0.007330 
#    y 0.000000 1.748640 0.000000 
#    z -0.007330 0.000000 1.723420 
# 
# From -- ./inp_files/34912.got.cif
#   From: 2010.06.25/outbox.cif.g09.slc.cpg/sg15_18_cif.got.tgz:34912.got - 2010.06.28 07:06:18.
