data_PCOD8136106
_publ_section_title
;
Structure prediction by ZEFSAII (Michael W. Deem and Ramdas Pophale) SiO2 
 PCOD8136106
Probable space group: C 2/C
;
_chemical_formula_sum "Si O2"
_cell_formula_units_Z 60
_cell_length_a 23.741816
_cell_length_b 17.456941
_cell_length_c 8.979946
_cell_angle_alpha 90.000000
_cell_angle_beta 115.881838
_cell_angle_gamma 90.000000
_cell_volume 3348.510672
_symmetry_space_group_name_H-M "C 2/C"
_symmetry_group_IT_number 15
_symmetry_cell_setting 'monoclinic'
loop_
_space_group_symop_operation_xyz
x,y,z
-x,y,1/2-z
-x,-y,-z
x,-y,1/2+z
1/2+x,1/2+y,z
1/2-x,1/2+y,1/2-z
1/2-x,1/2-y,-z
1/2+x,1/2-y,1/2+z
loop_
_atom_site_type_symbol
_atom_site_label
_atom_site_fract_x
_atom_site_fract_y
_atom_site_fract_z
Si Si1 0.300959 0.681647 0.724764
Si Si2 0.608152 0.826871 0.165103
Si Si3 0.315966 0.294228 0.912374
Si Si4 0.626179 0.794065 0.515564
Si Si5 0.740100 0.909480 0.654821
Si Si6 0.000000 0.503570 0.250000
Si Si7 0.774051 0.562251 0.694864
Si Si8 0.972363 0.606166 0.469357
O O1 0.330641 0.674084 0.594534
O O2 0.244601 0.741225 0.655735
O O3 0.353221 0.710871 0.902097
O O4 0.277012 0.600248 0.755123
O O5 0.625462 0.756174 0.076920
O O6 0.599325 0.789742 0.318059
O O7 0.660352 0.893001 0.222316
O O8 0.543920 0.866082 0.040138
O O9 0.302285 0.366795 0.788687
O O10 0.684510 0.849739 0.585793
O O11 0.573368 0.822268 0.570496
O O12 0.753130 0.939910 0.503856
O O13 0.717399 0.976035 0.739468
O O14 0.044016 0.557307 0.197782
O O15 0.041178 0.448793 0.403801
#
# Coordination Sequence:
#
# PCOD8136106 Si02
#       8
#     8   8   8   8   8   4   8   8
#     4   9  18  33  49  69  94 126 165 207 246 291
#     4  10  20  33  50  70 100 135 168 203 243 288
#     4   9  18  33  49  69  94 126 165 207 246 291
#     4  10  20  33  50  70 100 135 168 203 243 288
#     4  10  20  31  49  73  99 129 164 203 250 295
#     4  10  24  34  48  66 108 134 174 206 236 276
#     4  10  20  31  49  73  99 129 164 203 250 295
#     4  11  22  36  48  72 101 138 170 204 241 286
#
# _framework density 17.918415
#
# number of rings (size 3 to 8) (size 9 to 14) (size 15 to 20)
#    0.000    2.133    1.333    1.600    5.600    4.267 
#    0.000    0.000    0.000    0.000    0.000    0.933 
#    0.000    0.000    0.000    0.000    0.000    0.000 
#
# Total GULP energy -371937.806387 kJ/mol
# GULP energy per Si atom -12397.926880 kJ/mol
# Density = 1.787763 g / cm^3
# Si number density = 17.918415 Si / 1000 Ang^3
#
#
#
# Elastic Constant Matrix: (Units=GPa)
#
#
# Indices 1 2 3 4 5 6 
#
# 1 57.8156 7.2326 19.1091 0.0000 -8.5794 0.0000
# 2 7.2326 17.6196 10.1511 0.0000 -2.1072 0.0000
# 3 19.1091 10.1511 69.6046 0.0000 -22.2334 0.0000
# 4 0.0000 0.0000 0.0000 15.9460 0.0000 -15.5882
# 5 -8.5794 -2.1072 -22.2334 0.0000 26.3092 0.0000
# 6 0.0000 0.0000 0.0000 -15.5882 0.0000 21.8222
#
#
#
# Elastic Compliance Matrix: (Units=1/GPa)
#
#
# Indices 1 2 3 4 5 6 
#
# 1 0.019632 -0.005609 -0.003657 0.000000 0.002862 0.000000
# 2 -0.005609 0.063823 -0.009204 0.000000 -0.004495 0.000000
# 3 -0.003657 -0.009204 0.022049 0.000000 0.016703 0.000000
# 4 0.000000 0.000000 0.000000 0.207856 0.000000 0.148477
# 5 0.002862 -0.004495 0.016703 0.000000 0.052698 0.000000
# 6 0.000000 0.000000 0.000000 0.148477 0.000000 0.151886
#
#
# Mechanical properties :
#
#
# Convention : Reuss Voigt Hill
#
# Bulk Modulus (GPa) = 14.58539 24.22505 19.40522
# Shear Modulus (GPa) = 8.65445 20.05196 14.35320
#
# Velocity S-wave (km/s) = 2.20009 3.34888 2.83332
# Velocity P-wave (km/s) = 3.82249 5.33876 4.64294
#
# Compressibility (1/GPa) = 0.06856178
#
# Stress axis : x y z
#
# Youngs Moduli (GPa) = 50.93832 15.66844 45.35438
#
# Poissons Ratio (x) = 0.08789 0.16588
# Poissons Ratio (y) = 0.28572 0.41744
# Poissons Ratio (z) = 0.18631 0.14421
#
# Static dielectric constant tensor:
#      x y z
#    x 3.136590 0.000000 -0.308050 
#    y 0.000000 3.256410 0.000000 
#    z -0.308050 0.000000 3.523920 
# 
# 
# High freq. dielectric constant tensor:
#      x y z
#    x 1.665030 0.000000 -0.030270 
#    y 0.000000 1.675230 0.000000 
#    z -0.030270 0.000000 1.697590 
# 
# From -- ./inp_files/56550.got.cif
#   From: 2010.06.25/outbox.cif.g09.slc.cpg/sg15_29_cif.got.tgz:56550.got - 2010.06.28 07:06:18.
