data_PCOD8136996
_publ_section_title
;
Structure prediction by ZEFSAII (Michael W. Deem and Ramdas Pophale) SiO2 
 PCOD8136996
Probable space group: C 2/C
;
_chemical_formula_sum "Si O2"
_cell_formula_units_Z 40
_cell_length_a 17.167975
_cell_length_b 17.564765
_cell_length_c 9.005824
_cell_angle_alpha 90.000000
_cell_angle_beta 44.137912
_cell_angle_gamma 90.000000
_cell_volume 1891.193812
_symmetry_space_group_name_H-M "C 2/C"
_symmetry_group_IT_number 15
_symmetry_cell_setting 'monoclinic'
loop_
_space_group_symop_operation_xyz
x,y,z
-x,y,1/2-z
-x,-y,-z
x,-y,1/2+z
1/2+x,1/2+y,z
1/2-x,1/2+y,1/2-z
1/2-x,1/2-y,-z
1/2+x,1/2-y,1/2+z
loop_
_atom_site_type_symbol
_atom_site_label
_atom_site_fract_x
_atom_site_fract_y
_atom_site_fract_z
Si Si1 0.082780 0.104318 0.434500
Si Si2 0.679770 0.347275 0.527166
Si Si3 0.340526 0.556949 0.724784
Si Si4 0.749096 0.333624 0.927795
Si Si5 0.126114 0.683399 0.526758
O O1 0.079793 0.153294 0.286367
O O2 0.132697 0.156300 0.496837
O O3 0.958669 0.077245 0.642953
O O4 0.167359 0.034089 0.276436
O O5 0.667896 0.417602 0.433413
O O6 0.798043 0.355383 0.450726
O O7 0.666760 0.270253 0.453029
O O8 0.245765 0.599535 0.953457
O O9 0.851365 0.347844 0.671735
O O10 0.750000 0.250000 0.000000
O O11 0.000000 0.670742 0.750000
#
# Coordination Sequence:
#
# PCOD8136996 Si02
#       5
#     8   8   8   8   8
#     4  10  22  36  62  90 130 167 196 256 327 382
#     4  10  20  35  58  83 116 161 201 246 308 373
#     4  11  20  38  60  95 127 158 206 260 323 374
#     4  11  22  37  57  94 128 161 207 261 305 372
#     4  10  21  39  58  82 120 162 202 249 311 364
#
# _framework density 21.150660999999999
#
# number of rings (size 3 to 8) (size 9 to 14) (size 15 to 20)
#    0.000    1.600    2.000    3.600    0.000    3.200 
#    3.600    1.000    0.000   19.200    0.000    2.800 
#    0.000    0.000    0.000    0.000    0.000    0.000 
#
# Total GULP energy -247872.884431 kJ/mol
# GULP energy per Si atom -12393.644222 kJ/mol
# Density = 2.110252 g / cm^3
# Si number density = 21.150661 Si / 1000 Ang^3
#
#
#
# Elastic Constant Matrix: (Units=GPa)
#
#
# Indices 1 2 3 4 5 6 
#
# 1 69.9015 33.3711 30.0567 0.0000 6.5373 0.0000
# 2 33.3711 84.6774 21.2200 0.0000 1.8866 0.0000
# 3 30.0567 21.2200 108.5692 0.0000 -5.6306 0.0000
# 4 0.0000 0.0000 0.0000 27.9388 0.0000 1.9421
# 5 6.5373 1.8866 -5.6306 0.0000 36.0554 0.0000
# 6 0.0000 0.0000 0.0000 1.9421 0.0000 31.3893
#
#
#
# Elastic Compliance Matrix: (Units=1/GPa)
#
#
# Indices 1 2 3 4 5 6 
#
# 1 0.019690 -0.006578 -0.004368 0.000000 -0.003908 0.000000
# 2 -0.006578 0.014654 -0.001029 0.000000 0.000265 0.000000
# 3 -0.004368 -0.001029 0.010752 0.000000 0.002525 0.000000
# 4 0.000000 0.000000 0.000000 0.035947 0.000000 -0.002224
# 5 -0.003908 0.000265 0.002525 0.000000 0.028824 0.000000
# 6 0.000000 0.000000 0.000000 -0.002224 0.000000 0.031996
#
#
# Mechanical properties :
#
#
# Convention : Reuss Voigt Hill
#
# Bulk Modulus (GPa) = 47.29196 48.04929 47.67063
# Shear Modulus (GPa) = 28.92484 30.97672 29.95078
#
# Velocity S-wave (km/s) = 3.70207 3.83113 3.76715
# Velocity P-wave (km/s) = 6.37823 6.50669 6.44278
#
# Compressibility (1/GPa) = 0.02114524
#
# Stress axis : x y z
#
# Youngs Moduli (GPa) = 50.78747 68.24102 93.00513
#
# Poissons Ratio (x) = 0.44889 0.40625
# Poissons Ratio (y) = 0.33408 0.09573
# Poissons Ratio (z) = 0.22184 0.07024
#
# Static dielectric constant tensor:
#      x y z
#    x 3.673970 0.000000 0.188790 
#    y 0.000000 3.788550 0.000000 
#    z 0.188790 0.000000 3.892240 
# 
# 
# High freq. dielectric constant tensor:
#      x y z
#    x 1.812250 0.000000 0.032520 
#    y 0.000000 1.820860 0.000000 
#    z 0.032520 0.000000 1.832500 
# 
# From -- ./inp_files/48293.got.cif
#   From: 2010.06.25/outbox.cif.g09.slc.cpg/sg15_25_cif.got.tgz:48293.got - 2010.06.28 07:06:18.
