data_PCOD8136854
_publ_section_title
;
Structure prediction by ZEFSAII (Michael W. Deem and Ramdas Pophale) SiO2 
 PCOD8136854
Probable space group: C 2/C
;
_chemical_formula_sum "Si O2"
_cell_formula_units_Z 60
_cell_length_a 30.316484
_cell_length_b 17.692885
_cell_length_c 11.389015
_cell_angle_alpha 90.000000
_cell_angle_beta 147.889646
_cell_angle_gamma 90.000000
_cell_volume 3247.200660
_symmetry_space_group_name_H-M "C 2/C"
_symmetry_group_IT_number 15
_symmetry_cell_setting 'monoclinic'
loop_
_space_group_symop_operation_xyz
x,y,z
-x,y,1/2-z
-x,-y,-z
x,-y,1/2+z
1/2+x,1/2+y,z
1/2-x,1/2+y,1/2-z
1/2-x,1/2-y,-z
1/2+x,1/2-y,1/2+z
loop_
_atom_site_type_symbol
_atom_site_label
_atom_site_fract_x
_atom_site_fract_y
_atom_site_fract_z
Si Si1 0.185922 0.877707 0.804189
Si Si2 0.196973 0.837183 0.478900
Si Si3 0.795018 0.015441 0.365444
Si Si4 0.715174 0.131652 0.752074
Si Si5 0.055988 0.939564 0.691119
Si Si6 0.825170 0.781683 0.323857
Si Si7 0.402169 0.258657 0.054329
Si Si8 0.000000 0.827343 0.750000
O O1 0.213988 0.944389 0.779778
O O2 0.109281 0.902029 0.709739
O O3 0.156134 0.803886 0.667735
O O4 0.266142 0.861613 0.066412
O O5 0.204004 0.924478 0.526694
O O6 0.188748 0.833786 0.321254
O O7 0.283607 0.799601 0.714333
O O8 0.119093 0.793414 0.365338
O O9 0.719813 0.955797 0.218626
O O10 0.884513 0.974874 0.574521
O O11 0.788230 0.176213 0.852133
O O12 0.626416 0.170532 0.520835
O O13 0.999970 0.878350 0.632035
O O14 0.000000 0.000000 0.500000
O O15 0.922125 0.771140 0.567510
O O16 0.500000 0.266334 0.250000
#
# Coordination Sequence:
#
# PCOD8136854 Si02
#       8
#     8   8   8   8   8   8   8   4
#     4  10  21  35  53  82 112 147 178 219 273 336
#     4   9  21  37  56  77 108 142 186 220 273 325
#     4  10  20  35  55  78 108 145 179 219 275 326
#     4  10  21  38  56  82 111 146 183 224 276 330
#     4  11  22  30  50  82 120 144 170 220 272 327
#     4  10  20  36  54  80 108 147 179 223 266 325
#     4  10  22  37  59  82 108 145 185 231 273 322
#     4  12  20  32  52  80 114 140 180 214 262 328
#
# _framework density 18.477454000000002
#
# number of rings (size 3 to 8) (size 9 to 14) (size 15 to 20)
#    0.000    1.867    2.667    2.000    9.333    0.000 
#    0.000    0.000    1.467    0.800    0.000    0.000 
#    0.000    0.000    0.000    0.000    0.000    0.000 
#
# Total GULP energy -371924.461073 kJ/mol
# GULP energy per Si atom -12397.482036 kJ/mol
# Density = 1.843540 g / cm^3
# Si number density = 18.477454 Si / 1000 Ang^3
#
#
#
# Elastic Constant Matrix: (Units=GPa)
#
#
# Indices 1 2 3 4 5 6 
#
# 1 66.8967 11.6705 20.3242 0.0000 -7.8300 0.0000
# 2 11.6705 66.5022 23.6581 0.0000 6.5687 0.0000
# 3 20.3242 23.6581 65.9067 0.0000 6.4988 0.0000
# 4 0.0000 0.0000 0.0000 24.2468 0.0000 -0.2779
# 5 -7.8300 6.5687 6.4988 0.0000 31.1134 0.0000
# 6 0.0000 0.0000 0.0000 -0.2779 0.0000 25.2274
#
#
#
# Elastic Compliance Matrix: (Units=1/GPa)
#
#
# Indices 1 2 3 4 5 6 
#
# 1 0.017580 -0.001758 -0.005374 0.000000 0.005918 0.000000
# 2 -0.001758 0.017591 -0.005475 0.000000 -0.003013 0.000000
# 3 -0.005374 -0.005475 0.019211 0.000000 -0.004209 0.000000
# 4 0.000000 0.000000 0.000000 0.041248 0.000000 0.000454
# 5 0.005918 -0.003013 -0.004209 0.000000 0.035145 0.000000
# 6 0.000000 0.000000 0.000000 0.000454 0.000000 0.039644
#
#
# Mechanical properties :
#
#
# Convention : Reuss Voigt Hill
#
# Bulk Modulus (GPa) = 34.28460 34.51237 34.39848
# Shear Modulus (GPa) = 24.34791 25.69437 25.02114
#
# Velocity S-wave (km/s) = 3.63396 3.73309 3.68386
# Velocity P-wave (km/s) = 6.01687 6.10737 6.06229
#
# Compressibility (1/GPa) = 0.02916762
#
# Stress axis : x y z
#
# Youngs Moduli (GPa) = 56.88132 56.84714 52.05438
#
# Poissons Ratio (x) = 0.09994 0.27974
# Poissons Ratio (y) = 0.10000 0.28502
# Poissons Ratio (z) = 0.30568 0.31126
#
# Static dielectric constant tensor:
#      x y z
#    x 3.597740 0.000000 -0.123600 
#    y 0.000000 3.576020 0.000000 
#    z -0.123600 0.000000 3.387750 
# 
# 
# High freq. dielectric constant tensor:
#      x y z
#    x 1.727790 0.000000 -0.017300 
#    y 0.000000 1.709840 0.000000 
#    z -0.017300 0.000000 1.695680 
# 
# From -- ./inp_files/98360.got.cif
#   From: 2010.06.25/outbox.cif.g09.slc.cpg/sg15_50_cif.got.tgz:98360.got - 2010.06.28 07:06:18.
