data_PCOD8136988
_publ_section_title
;
Structure prediction by ZEFSAII (Michael W. Deem and Ramdas Pophale) SiO2 
 PCOD8136988
Probable space group: C 2/C
;
_chemical_formula_sum "Si O2"
_cell_formula_units_Z 64
_cell_length_a 11.536389
_cell_length_b 8.754677
_cell_length_c 27.431515
_cell_angle_alpha 90.000000
_cell_angle_beta 90.382706
_cell_angle_gamma 90.000000
_cell_volume 2770.448777
_symmetry_space_group_name_H-M "C 2/C"
_symmetry_group_IT_number 15
_symmetry_cell_setting 'monoclinic'
loop_
_space_group_symop_operation_xyz
x,y,z
-x,y,1/2-z
-x,-y,-z
x,-y,1/2+z
1/2+x,1/2+y,z
1/2-x,1/2+y,1/2-z
1/2-x,1/2-y,-z
1/2+x,1/2-y,1/2+z
loop_
_atom_site_type_symbol
_atom_site_label
_atom_site_fract_x
_atom_site_fract_y
_atom_site_fract_z
Si Si1 0.320564 0.731447 0.404770
Si Si2 0.885097 0.215879 0.994513
Si Si3 0.682289 0.430975 0.342709
Si Si4 0.924362 0.502221 0.444767
Si Si5 0.530288 0.197285 0.303672
Si Si6 0.306676 0.788498 0.864118
Si Si7 0.643542 0.002887 0.883794
Si Si8 0.006717 0.993336 0.923245
O O1 0.298262 0.835168 0.356838
O O2 0.206931 0.630200 0.415171
O O3 0.426312 0.619599 0.391605
O O4 0.349250 0.845509 0.450929
O O5 0.946685 0.388414 0.992954
O O6 0.750000 0.250000 0.000000
O O7 0.926372 0.113138 0.038673
O O8 0.922382 0.122017 0.946180
O O9 0.614244 0.346548 0.298819
O O10 0.722145 0.602442 0.330996
O O11 0.598916 0.422220 0.389978
O O12 0.845249 0.622261 0.413081
O O13 0.037010 0.444339 0.416348
O O14 0.500000 0.136510 0.250000
O O15 0.416885 0.254923 0.332044
O O16 0.597224 0.061986 0.332080
O O17 0.231598 0.640862 0.876359
#
# Coordination Sequence:
#
# PCOD8136988 Si02
#       8
#     8   8   8   8   8   8   8   8
#     4  10  20  35  58  82 107 146 192 234 285 341
#     4  11  23  39  57  82 121 157 193 249 299 335
#     4  10  21  40  61  84 115 152 195 238 285 344
#     4  10  21  37  56  83 112 147 195 239 285 345
#     4  10  22  38  58  89 122 148 184 234 286 348
#     4  10  20  37  62  85 113 154 192 232 287 346
#     4  10  20  37  61  83 112 151 190 234 287 344
#     4  11  23  39  59  84 114 154 202 243 286 343
#
# _framework density 23.100950000000001
#
# number of rings (size 3 to 8) (size 9 to 14) (size 15 to 20)
#    0.000    1.750    0.000    6.000    0.000    3.500 
#    0.000   10.625    0.000    0.000    0.000    0.000 
#    0.000    0.000    0.000    0.000    0.000    0.000 
#
# Total GULP energy -396563.696685 kJ/mol
# GULP energy per Si atom -12392.615521 kJ/mol
# Density = 2.304837 g / cm^3
# Si number density = 23.100950 Si / 1000 Ang^3
#
#
#
# Elastic Constant Matrix: (Units=GPa)
#
#
# Indices 1 2 3 4 5 6 
#
# 1 105.9406 53.7681 -1.9251 0.0000 0.0630 0.0000
# 2 53.7681 129.8427 6.1300 0.0000 2.5419 0.0000
# 3 -1.9251 6.1300 23.3164 0.0000 5.8862 0.0000
# 4 0.0000 0.0000 0.0000 20.1377 0.0000 0.6552
# 5 0.0630 2.5419 5.8862 0.0000 17.7636 0.0000
# 6 0.0000 0.0000 0.0000 0.6552 0.0000 52.2752
#
#
#
# Elastic Compliance Matrix: (Units=1/GPa)
#
#
# Indices 1 2 3 4 5 6 
#
# 1 0.012076 -0.005110 0.002365 0.000000 -0.000095 0.000000
# 2 -0.005110 0.009965 -0.002932 0.000000 -0.000436 0.000000
# 3 0.002365 -0.002932 0.047744 0.000000 -0.015410 0.000000
# 4 0.000000 0.000000 0.000000 0.049678 0.000000 -0.000623
# 5 -0.000095 -0.000436 -0.015410 0.000000 0.061464 0.000000
# 6 0.000000 0.000000 0.000000 -0.000623 0.000000 0.019137
#
#
# Mechanical properties :
#
#
# Convention : Reuss Voigt Hill
#
# Bulk Modulus (GPa) = 17.11439 41.67176 29.39307
# Shear Modulus (GPa) = 21.65471 31.44374 26.54923
#
# Velocity S-wave (km/s) = 3.06501 3.69337 3.39377
# Velocity P-wave (km/s) = 4.46658 6.02214 5.30172
#
# Compressibility (1/GPa) = 0.05843037
#
# Stress axis : x y z
#
# Youngs Moduli (GPa) = 82.80885 100.35299 20.94486
#
# Poissons Ratio (x) = 0.51285 -0.04953
# Poissons Ratio (y) = 0.42319 0.06140
# Poissons Ratio (z) = -0.19581 0.29419
#
# Static dielectric constant tensor:
#      x y z
#    x 4.555960 0.000000 0.331410 
#    y 0.000000 4.724080 0.000000 
#    z 0.331410 0.000000 3.710260 
# 
# 
# High freq. dielectric constant tensor:
#      x y z
#    x 1.938250 0.000000 0.024390 
#    y 0.000000 1.945750 0.000000 
#    z 0.024390 0.000000 1.849400 
# 
# From -- ./inp_files/310332.got.cif
#   From: 2010.06.25/outbox.cif.g09.slc.cpg/sg15_156_cif.got.tgz:310332.got - 2010.06.28 07:06:18.
