data_PCOD8136641
_publ_section_title
;
Structure prediction by ZEFSAII (Michael W. Deem and Ramdas Pophale) SiO2 
 PCOD8136641
Probable space group: C 2/C
;
_chemical_formula_sum "Si O2"
_cell_formula_units_Z 48
_cell_length_a 9.160148
_cell_length_b 28.616635
_cell_length_c 17.949164
_cell_angle_alpha 90.000000
_cell_angle_beta 149.224536
_cell_angle_gamma 90.000000
_cell_volume 2407.462126
_symmetry_space_group_name_H-M "C 2/C"
_symmetry_group_IT_number 15
_symmetry_cell_setting 'monoclinic'
loop_
_space_group_symop_operation_xyz
x,y,z
-x,y,1/2-z
-x,-y,-z
x,-y,1/2+z
1/2+x,1/2+y,z
1/2-x,1/2+y,1/2-z
1/2-x,1/2-y,-z
1/2+x,1/2-y,1/2+z
loop_
_atom_site_type_symbol
_atom_site_label
_atom_site_fract_x
_atom_site_fract_y
_atom_site_fract_z
Si Si1 0.746110 0.952776 0.995389
Si Si2 0.869501 0.469688 0.268601
Si Si3 0.777709 0.241884 0.424445
Si Si4 0.652863 0.143562 0.389579
Si Si5 0.661817 0.824715 0.603739
Si Si6 0.327568 0.092523 0.890184
O O1 0.641716 0.948296 0.034688
O O2 0.036370 0.981820 0.115182
O O3 0.815928 0.900276 0.996509
O O4 0.506872 0.980068 0.845494
O O5 0.918137 0.430378 0.352167
O O6 0.000000 0.449098 0.250000
O O7 0.500000 0.252495 0.250000
O O8 0.750000 0.250000 0.500000
O O9 0.856834 0.186546 0.451966
O O10 0.034082 0.276458 0.513257
O O11 0.500000 0.123081 0.250000
O O12 0.430173 0.165283 0.351504
O O13 0.546976 0.865758 0.500292
O O14 0.000000 0.821980 0.750000
O O15 0.000000 0.111266 0.750000
#
# Coordination Sequence:
#
# PCOD8136641 Si02
#       6
#     8   8   8   8   8   8
#     4  10  21  37  56  78 110 152 192 234 288 347
#     4  11  22  35  54  81 111 147 193 243 289 336
#     4   9  18  36  60  82 111 153 193 233 289 356
#     4   9  19  37  57  79 110 152 193 230 283 350
#     4  10  20  34  58  89 116 147 189 242 293 342
#     4   9  20  37  55  79 114 157 194 228 285 357
#
# _framework density 19.938008
#
# number of rings (size 3 to 8) (size 9 to 14) (size 15 to 20)
#    0.000    2.333    0.000    2.000    0.000    5.333 
#    0.000    9.167    0.000    0.000    0.000    0.000 
#    0.000    0.000    0.000    0.000    0.000    0.000 
#
# Total GULP energy -297389.314092 kJ/mol
# GULP energy per Si atom -12391.221421 kJ/mol
# Density = 1.989263 g / cm^3
# Si number density = 19.938008 Si / 1000 Ang^3
#
#
#
# Elastic Constant Matrix: (Units=GPa)
#
#
# Indices 1 2 3 4 5 6 
#
# 1 97.4410 50.7288 46.8000 0.0001 -12.5675 -0.0001
# 2 50.7288 120.1128 80.2012 -0.0001 17.5842 0.0000
# 3 46.8000 80.2012 133.0365 -0.0002 3.6476 -0.0003
# 4 0.0001 -0.0001 -0.0002 17.2673 0.0001 -0.5305
# 5 -12.5675 17.5842 3.6476 0.0001 37.0632 -0.0001
# 6 -0.0001 0.0000 -0.0003 -0.5305 -0.0001 14.0989
#
#
#
# Elastic Compliance Matrix: (Units=1/GPa)
#
#
# Indices 1 2 3 4 5 6 
#
# 1 0.015735 -0.006809 -0.001670 0.000000 0.008730 0.000000
# 2 -0.006809 0.018246 -0.008326 0.000000 -0.010146 0.000000
# 3 -0.001670 -0.008326 0.013066 0.000000 0.002098 0.000000
# 4 0.000000 0.000000 0.000000 0.057980 0.000000 0.002182
# 5 0.008730 -0.010146 0.002098 0.000000 0.034548 0.000000
# 6 0.000000 0.000000 0.000000 0.002182 0.000000 0.071009
#
#
# Mechanical properties :
#
#
# Convention : Reuss Voigt Hill
#
# Bulk Modulus (GPa) = 74.41891 78.45004 76.43448
# Shear Modulus (GPa) = 20.10658 25.20990 22.65824
#
# Velocity S-wave (km/s) = 3.17906 3.55972 3.37476
# Velocity P-wave (km/s) = 7.13312 7.50519 7.32152
#
# Compressibility (1/GPa) = 0.01343744
#
# Stress axis : x y z
#
# Youngs Moduli (GPa) = 63.55084 54.80655 76.53270
#
# Poissons Ratio (x) = 0.37315 0.12783
# Poissons Ratio (y) = 0.43269 0.63723
# Poissons Ratio (z) = 0.10615 0.45634
#
# Static dielectric constant tensor:
#      x y z
#    x 3.619240 0.000000 -0.335220 
#    y 0.000000 3.765260 0.000000 
#    z -0.335220 0.000000 3.713910 
# 
# 
# High freq. dielectric constant tensor:
#      x y z
#    x 1.763610 0.000000 -0.030210 
#    y 0.000000 1.782430 0.000000 
#    z -0.030210 0.000000 1.776710 
# 
# From -- ./inp_files/52889.got.cif
#   From: 2010.06.25/outbox.cif.g09.slc.cpg/sg15_27_cif.got.tgz:52889.got - 2010.06.28 07:06:18.
