data_PCOD8136693
_publ_section_title
;
Structure prediction by ZEFSAII (Michael W. Deem and Ramdas Pophale) SiO2 
 PCOD8136693
Probable space group: C 2/C
;
_chemical_formula_sum "Si O2"
_cell_formula_units_Z 44
_cell_length_a 24.021315
_cell_length_b 15.429821
_cell_length_c 10.980008
_cell_angle_alpha 90.000000
_cell_angle_beta 147.831807
_cell_angle_gamma 90.000000
_cell_volume 2166.724148
_symmetry_space_group_name_H-M "C 2/C"
_symmetry_group_IT_number 15
_symmetry_cell_setting 'monoclinic'
loop_
_space_group_symop_operation_xyz
x,y,z
-x,y,1/2-z
-x,-y,-z
x,-y,1/2+z
1/2+x,1/2+y,z
1/2-x,1/2+y,1/2-z
1/2-x,1/2-y,-z
1/2+x,1/2-y,1/2+z
loop_
_atom_site_type_symbol
_atom_site_label
_atom_site_fract_x
_atom_site_fract_y
_atom_site_fract_z
Si Si1 0.019632 0.229157 0.916934
Si Si2 0.286801 0.850140 0.240446
Si Si3 0.892805 0.526765 0.365756
Si Si4 0.937069 0.808299 0.748117
Si Si5 0.312358 0.828732 0.556018
Si Si6 0.000000 0.358527 0.250000
O O1 0.000000 0.179053 0.750000
O O2 0.933251 0.304454 0.759057
O O3 0.133828 0.271657 0.136841
O O4 0.011058 0.168729 0.022846
O O5 0.255717 0.850677 0.324916
O O6 0.332508 0.941497 0.289140
O O7 0.182259 0.837238 0.969471
O O8 0.813919 0.584286 0.138763
O O9 0.914532 0.581313 0.527892
O O10 0.000000 0.500000 0.500000
O O11 0.942535 0.703015 0.743305
O O12 0.000000 0.851588 0.750000
O O13 0.250000 0.750000 0.500000
#
# Coordination Sequence:
#
# PCOD8136693 Si02
#       6
#     8   8   8   8   8   4
#     4  10  20  35  57  88 121 159 205 260 310 377
#     4  11  22  34  62  90 127 160 208 267 320 369
#     4  12  21  35  57  93 125 157 206 271 320 363
#     4  10  20  39  61  88 119 168 209 250 309 387
#     4  11  21  39  59  89 129 172 206 255 327 389
#     4  10  20  34  60  84 116 158 208 242 312 374
#
# _framework density 20.307154000000001
#
# number of rings (size 3 to 8) (size 9 to 14) (size 15 to 20)
#    0.545    0.727    3.636    3.818    1.273    0.000 
#    0.000    3.636    0.000    9.818    0.000    0.000 
#    0.000    0.000    0.000    0.000    0.000    0.000 
#
# Total GULP energy -272675.957290 kJ/mol
# GULP energy per Si atom -12394.361695 kJ/mol
# Density = 2.026093 g / cm^3
# Si number density = 20.307154 Si / 1000 Ang^3
#
#
#
# Elastic Constant Matrix: (Units=GPa)
#
#
# Indices 1 2 3 4 5 6 
#
# 1 113.8273 37.5135 47.1516 0.0000 -24.4072 0.0000
# 2 37.5135 71.2049 27.6062 0.0000 -0.9562 0.0000
# 3 47.1516 27.6062 96.8923 0.0000 -18.1348 0.0000
# 4 0.0000 0.0000 0.0000 32.6302 0.0000 4.0991
# 5 -24.4072 -0.9562 -18.1348 0.0000 48.7473 0.0000
# 6 0.0000 0.0000 0.0000 4.0991 0.0000 21.6172
#
#
#
# Elastic Compliance Matrix: (Units=1/GPa)
#
#
# Indices 1 2 3 4 5 6 
#
# 1 0.013302 -0.005394 -0.003987 0.000000 0.005071 0.000000
# 2 -0.005394 0.018073 -0.003185 0.000000 -0.003531 0.000000
# 3 -0.003987 -0.003185 0.013740 0.000000 0.003053 0.000000
# 4 0.000000 0.000000 0.000000 0.031394 0.000000 -0.005953
# 5 0.005071 -0.003531 0.003053 0.000000 0.024119 0.000000
# 6 0.000000 0.000000 0.000000 -0.005953 0.000000 0.047388
#
#
# Mechanical properties :
#
#
# Convention : Reuss Voigt Hill
#
# Bulk Modulus (GPa) = 50.04518 56.27411 53.15965
# Shear Modulus (GPa) = 27.80696 31.90915 29.85805
#
# Velocity S-wave (km/s) = 3.70444 3.96830 3.83864
# Velocity P-wave (km/s) = 6.55704 6.98342 6.77359
#
# Compressibility (1/GPa) = 0.01998194
#
# Stress axis : x y z
#
# Youngs Moduli (GPa) = 75.17695 55.33025 72.78012
#
# Poissons Ratio (x) = 0.29845 0.29020
# Poissons Ratio (y) = 0.40551 0.23183
# Poissons Ratio (z) = 0.29975 0.17625
#
# Static dielectric constant tensor:
#      x y z
#    x 3.912870 0.000000 -0.351290 
#    y 0.000000 3.272860 0.000000 
#    z -0.351290 0.000000 3.828190 
# 
# 
# High freq. dielectric constant tensor:
#      x y z
#    x 1.804580 0.000000 -0.019030 
#    y 0.000000 1.745950 0.000000 
#    z -0.019030 0.000000 1.800710 
# 
# From -- ./inp_files/86785.got.cif
#   From: 2010.06.25/outbox.cif.g09.slc.cpg/sg15_44_cif.got.tgz:86785.got - 2010.06.28 07:06:18.
