data_PCOD8136552
_publ_section_title
;
Structure prediction by ZEFSAII (Michael W. Deem and Ramdas Pophale) SiO2 
 PCOD8136552
Probable space group: C 2/C
;
_chemical_formula_sum "Si O2"
_cell_formula_units_Z 60
_cell_length_a 5.036838
_cell_length_b 28.355068
_cell_length_c 22.085875
_cell_angle_alpha 90.000000
_cell_angle_beta 63.236598
_cell_angle_gamma 90.000000
_cell_volume 2816.393193
_symmetry_space_group_name_H-M "C 2/C"
_symmetry_group_IT_number 15
_symmetry_cell_setting 'monoclinic'
loop_
_space_group_symop_operation_xyz
x,y,z
-x,y,1/2-z
-x,-y,-z
x,-y,1/2+z
1/2+x,1/2+y,z
1/2-x,1/2+y,1/2-z
1/2-x,1/2-y,-z
1/2+x,1/2-y,1/2+z
loop_
_atom_site_type_symbol
_atom_site_label
_atom_site_fract_x
_atom_site_fract_y
_atom_site_fract_z
Si Si1 0.500000 0.540758 0.750000
Si Si2 0.710203 0.832715 0.169908
Si Si3 0.430237 0.519025 0.147426
Si Si4 0.784053 0.456289 0.029135
Si Si5 0.161521 0.226796 0.170064
Si Si6 0.303960 0.111100 0.633009
Si Si7 0.850646 0.669790 0.330042
Si Si8 0.972321 0.425229 0.887102
O O1 0.656628 0.506824 0.782171
O O2 0.739146 0.572397 0.691054
O O3 0.500000 0.837994 0.250000
O O4 0.694112 0.780148 0.143372
O O5 0.600163 0.863733 0.125226
O O6 0.038980 0.850619 0.153481
O O7 0.493380 0.479157 0.089526
O O8 0.124846 0.542372 0.158645
O O9 0.689752 0.559515 0.129742
O O10 0.896560 0.414448 0.061359
O O11 0.745615 0.433240 0.966856
O O12 0.000000 0.500000 0.000000
O O13 0.495901 0.211870 0.149431
O O14 0.000000 0.227862 0.250000
O O15 0.987499 0.189183 0.144314
O O16 0.910828 0.627062 0.369793
O O17 0.000000 0.657703 0.250000
#
# Coordination Sequence:
#
# PCOD8136552 Si02
#       8
#     4   8   8   8   8   8   8   8
#     4  10  22  36  52  86 116 142 178 240 302 320
#     4  11  20  36  60  89 118 145 184 233 303 350
#     4  10  23  35  57  79 115 150 188 239 283 334
#     4   9  22  42  58  81 115 161 203 229 277 335
#     4   9  19  35  56  83 116 147 176 233 295 355
#     4  11  22  36  59  87 118 147 190 238 278 353
#     4  10  20  34  56  84 111 144 191 235 286 339
#     4  11  22  38  58  80 110 155 198 233 269 338
#
# _framework density 21.303843000000001
#
# number of rings (size 3 to 8) (size 9 to 14) (size 15 to 20)
#    0.000    1.867    1.333    2.000    1.867   11.733 
#    0.000    0.000    0.000    4.800    0.000    0.000 
#    0.000    0.000    0.000    0.000    0.000    0.000 
#
# Total GULP energy -371652.961627 kJ/mol
# GULP energy per Si atom -12388.432054 kJ/mol
# Density = 2.125535 g / cm^3
# Si number density = 21.303843 Si / 1000 Ang^3
#
#
#
# Elastic Constant Matrix: (Units=GPa)
#
#
# Indices 1 2 3 4 5 6 
#
# 1 71.2447 12.5232 18.7867 0.0000 18.1955 0.0000
# 2 12.5232 117.9430 47.7868 0.0000 21.2808 0.0000
# 3 18.7867 47.7868 74.1400 0.0000 16.2655 0.0000
# 4 0.0000 0.0000 0.0000 11.9474 0.0000 16.9284
# 5 18.1955 21.2808 16.2655 0.0000 19.3290 0.0000
# 6 0.0000 0.0000 0.0000 16.9284 0.0000 -0.3831
#
#
#
# Elastic Compliance Matrix: (Units=1/GPa)
#
#
# Indices 1 2 3 4 5 6 
#
# 1 0.018922 0.002189 -0.002170 0.000000 -0.018397 0.000000
# 2 0.002189 0.012793 -0.006449 0.000000 -0.010719 0.000000
# 3 -0.002170 -0.006449 0.019854 0.000000 -0.007565 0.000000
# 4 0.000000 0.000000 0.000000 0.001316 0.000000 0.058144
# 5 -0.018397 -0.010719 -0.007565 0.000000 0.087221 0.000000
# 6 0.000000 0.000000 0.000000 0.058144 0.000000 -0.041035
#
#
# Mechanical properties :
#
#
# Convention : Reuss Voigt Hill
#
# Bulk Modulus (GPa) = 25.83277 46.83569 36.33423
# Shear Modulus (GPa) = 40.05357 18.46073 29.25715
#
# Velocity S-wave (km/s) = 4.34073 2.94691 3.70986
# Velocity P-wave (km/s) = 6.10530 5.79753 5.95341
#
# Compressibility (1/GPa) = 0.03871053
#
# Stress axis : x y z
#
# Youngs Moduli (GPa) = 52.84871 78.16649 50.36752
#
# Poissons Ratio (x) = -0.17114 0.10929
# Poissons Ratio (y) = -0.11571 0.32482
# Poissons Ratio (z) = 0.11467 0.50409
#
# Static dielectric constant tensor:
#      x y z
#    x 4.333660 0.000000 -0.012500 
#    y 0.000000 4.176940 0.000000 
#    z -0.012500 0.000000 4.099050 
# 
# 
# High freq. dielectric constant tensor:
#      x y z
#    x 1.830760 0.000000 0.021950 
#    y 0.000000 1.846540 0.000000 
#    z 0.021950 0.000000 1.809700 
# 
# From -- ./inp_files/228440.got.cif
#   From: 2010.06.25/outbox.cif.g09.slc.cpg/sg15_115_cif.got.tgz:228440.got - 2010.06.28 07:06:18.
