data_PCOD8136516
_publ_section_title
;
Structure prediction by ZEFSAII (Michael W. Deem and Ramdas Pophale) SiO2 
 PCOD8136516
Probable space group: C 2/C
;
_chemical_formula_sum "Si O2"
_cell_formula_units_Z 44
_cell_length_a 11.255146
_cell_length_b 14.682426
_cell_length_c 13.875805
_cell_angle_alpha 90.000000
_cell_angle_beta 105.421004
_cell_angle_gamma 90.000000
_cell_volume 2210.463101
_symmetry_space_group_name_H-M "C 2/C"
_symmetry_group_IT_number 15
_symmetry_cell_setting 'monoclinic'
loop_
_space_group_symop_operation_xyz
x,y,z
-x,y,1/2-z
-x,-y,-z
x,-y,1/2+z
1/2+x,1/2+y,z
1/2-x,1/2+y,1/2-z
1/2-x,1/2-y,-z
1/2+x,1/2-y,1/2+z
loop_
_atom_site_type_symbol
_atom_site_label
_atom_site_fract_x
_atom_site_fract_y
_atom_site_fract_z
Si Si1 0.642463 0.139518 0.439136
Si Si2 0.500000 0.944920 0.750000
Si Si3 0.805616 0.031559 0.956347
Si Si4 0.138316 0.615541 0.778869
Si Si5 0.983478 0.076109 0.358280
Si Si6 0.339913 0.754163 0.376530
O O1 0.523736 0.114537 0.349896
O O2 0.593005 0.185291 0.526504
O O3 0.716918 0.212356 0.393027
O O4 0.725549 0.051575 0.481654
O O5 0.619402 0.007706 0.748998
O O6 0.716898 0.112364 0.895287
O O7 0.892855 0.997112 0.887872
O O8 0.884245 0.073009 0.060552
O O9 0.208944 0.676680 0.716354
O O10 0.000000 0.659482 0.750000
O O11 0.932083 0.178197 0.356661
O O12 0.000000 0.050484 0.250000
#
# Coordination Sequence:
#
# PCOD8136516 Si02
#       6
#     8   4   8   8   8   8
#     4   9  19  36  55  79 109 149 185 228 274 336
#     4   8  18  36  54  76 108 140 192 218 268 338
#     4   9  20  39  57  85 111 147 195 226 273 341
#     4   9  19  36  56  81 113 141 183 235 272 332
#     4  10  21  37  59  83 114 149 186 234 279 331
#     4  10  20  34  55  80 116 144 181 234 282 322
#
# _framework density 19.905329999999999
#
# number of rings (size 3 to 8) (size 9 to 14) (size 15 to 20)
#    0.545    2.182    0.000    0.545    2.545    2.182 
#    0.000    3.636    0.000    0.000    0.000    0.000 
#    0.000    0.000    0.000    0.000    0.000    0.000 
#
# Total GULP energy -272603.575684 kJ/mol
# GULP energy per Si atom -12391.071622 kJ/mol
# Density = 1.986002 g / cm^3
# Si number density = 19.905330 Si / 1000 Ang^3
#
#
#
# Elastic Constant Matrix: (Units=GPa)
#
#
# Indices 1 2 3 4 5 6 
#
# 1 47.0462 6.0566 35.1265 0.0000 17.1082 0.0000
# 2 6.0566 67.4362 45.2634 0.0000 1.7748 0.0000
# 3 35.1265 45.2634 132.4040 0.0000 16.8004 0.0000
# 4 0.0000 0.0000 0.0000 33.7169 0.0000 -2.7055
# 5 17.1082 1.7748 16.8004 0.0000 34.9290 0.0000
# 6 0.0000 0.0000 0.0000 -2.7055 0.0000 10.0573
#
#
#
# Elastic Compliance Matrix: (Units=1/GPa)
#
#
# Indices 1 2 3 4 5 6 
#
# 1 0.030800 0.002645 -0.007608 0.000000 -0.011561 0.000000
# 2 0.002645 0.019651 -0.007592 0.000000 0.001358 0.000000
# 3 -0.007608 -0.007592 0.012402 0.000000 -0.001853 0.000000
# 4 0.000000 0.000000 0.000000 0.030313 0.000000 0.008155
# 5 -0.011561 0.001358 -0.001853 0.000000 0.035114 0.000000
# 6 0.000000 0.000000 0.000000 0.008155 0.000000 0.101624
#
#
# Mechanical properties :
#
#
# Convention : Reuss Voigt Hill
#
# Bulk Modulus (GPa) = 26.49585 46.64216 36.56900
# Shear Modulus (GPa) = 18.68496 26.43664 22.56080
#
# Velocity S-wave (km/s) = 3.06713 3.64829 3.37026
# Velocity P-wave (km/s) = 5.08752 6.42102 5.79277
#
# Compressibility (1/GPa) = 0.03774176
#
# Stress axis : x y z
#
# Youngs Moduli (GPa) = 32.46767 50.88730 80.63505
#
# Poissons Ratio (x) = -0.13459 0.61350
# Poissons Ratio (y) = -0.08587 0.61217
# Poissons Ratio (z) = 0.24703 0.38633
#
# Static dielectric constant tensor:
#      x y z
#    x 3.396990 0.000000 0.146120 
#    y 0.000000 3.591660 0.000000 
#    z 0.146120 0.000000 3.608900 
# 
# 
# High freq. dielectric constant tensor:
#      x y z
#    x 1.752540 0.000000 0.012440 
#    y 0.000000 1.772870 0.000000 
#    z 0.012440 0.000000 1.774850 
# 
# From -- ./inp_files/86174.got.cif
#   From: 2010.06.25/outbox.cif.g09.slc.cpg/sg15_44_cif.got.tgz:86174.got - 2010.06.28 07:06:18.
