data_PCOD8136286
_publ_section_title
;
Structure prediction by ZEFSAII (Michael W. Deem and Ramdas Pophale) SiO2 
 PCOD8136286
Probable space group: C 2/C
;
_chemical_formula_sum "Si O2"
_cell_formula_units_Z 64
_cell_length_a 9.339228
_cell_length_b 14.006606
_cell_length_c 29.222404
_cell_angle_alpha 90.000000
_cell_angle_beta 108.638185
_cell_angle_gamma 90.000000
_cell_volume 3622.134278
_symmetry_space_group_name_H-M "C 2/C"
_symmetry_group_IT_number 15
_symmetry_cell_setting 'monoclinic'
loop_
_space_group_symop_operation_xyz
x,y,z
-x,y,1/2-z
-x,-y,-z
x,-y,1/2+z
1/2+x,1/2+y,z
1/2-x,1/2+y,1/2-z
1/2-x,1/2-y,-z
1/2+x,1/2-y,1/2+z
loop_
_atom_site_type_symbol
_atom_site_label
_atom_site_fract_x
_atom_site_fract_y
_atom_site_fract_z
Si Si1 0.255224 0.986841 0.671267
Si Si2 0.593752 0.642259 0.509159
Si Si3 0.162456 0.330344 0.750000
Si Si4 0.087309 0.486841 0.671267
Si Si5 0.990711 0.993624 0.074256
Si Si6 0.575433 0.857741 0.490840
Si Si7 0.842199 0.493625 0.425744
Si Si8 0.168121 0.637069 0.750000
O O1 0.406033 0.994589 0.656033
O O2 0.238504 0.078959 0.702231
O O3 0.109711 0.979160 0.624944
O O4 0.259480 0.892171 0.702443
O O5 0.517574 0.583380 0.460496
O O6 0.543772 0.600595 0.552796
O O7 0.534104 0.750000 0.500000
O O8 0.775008 0.637866 0.525009
O O9 0.145406 0.392172 0.702443
O O10 0.263049 0.239880 0.750000
O O11 0.000000 0.294072 0.750000
O O12 0.140176 0.479158 0.624944
O O13 0.165957 0.578959 0.702230
O O14 0.831158 0.971119 0.081158
O O15 0.438182 0.899405 0.447204
O O16 0.596581 0.916621 0.539504
O O17 0.000000 0.650510 0.750000
#
# Coordination Sequence:
#
# PCOD8136286 Si02
#       8
#     8   8   8   8   8   8   8   8
#     4   9  19  36  53  71 102 139 167 198 250 306
#     4   9  19  36  54  72 100 136 168 202 250 305
#     4   9  19  35  54  76 102 133 169 209 250 292
#     4   9  19  36  53  71 102 139 167 198 250 306
#     4  10  20  33  52  78 102 128 168 212 249 290
#     4   9  19  36  54  72 100 136 168 202 250 305
#     4  10  20  33  52  78 102 128 168 212 249 290
#     4   9  19  35  54  74  98 133 171 203 244 300
#
# _framework density 17.669141
#
# number of rings (size 3 to 8) (size 9 to 14) (size 15 to 20)
#    0.000    2.750    0.000    2.250    0.000    5.500 
#    0.000   10.000    0.000    0.000    0.000    0.000 
#    0.000    0.000    0.000    0.000    0.000    0.000 
#
# Total GULP energy -396860.941449 kJ/mol
# GULP energy per Si atom -12401.904420 kJ/mol
# Density = 1.762893 g / cm^3
# Si number density = 17.669141 Si / 1000 Ang^3
#
#
#
# Elastic Constant Matrix: (Units=GPa)
#
#
# Indices 1 2 3 4 5 6 
#
# 1 58.3165 22.9418 47.1548 0.0000 -0.2877 0.0000
# 2 22.9418 95.3474 22.6862 0.0000 0.0020 0.0000
# 3 47.1548 22.6862 96.9836 0.0000 0.1149 0.0000
# 4 0.0000 0.0000 0.0000 12.1422 0.0000 0.0995
# 5 -0.2877 0.0020 0.1149 0.0000 37.5622 0.0000
# 6 0.0000 0.0000 0.0000 0.0995 0.0000 34.2140
#
#
#
# Elastic Compliance Matrix: (Units=1/GPa)
#
#
# Indices 1 2 3 4 5 6 
#
# 1 0.029577 -0.003913 -0.013466 0.000000 0.000268 0.000000
# 2 -0.003913 0.011624 -0.000817 0.000000 -0.000028 0.000000
# 3 -0.013466 -0.000817 0.017049 0.000000 -0.000155 0.000000
# 4 0.000000 0.000000 0.000000 0.082359 0.000000 -0.000239
# 5 0.000268 -0.000028 -0.000155 0.000000 0.026625 0.000000
# 6 0.000000 0.000000 0.000000 -0.000239 0.000000 0.029228
#
#
# Mechanical properties :
#
#
# Convention : Reuss Voigt Hill
#
# Bulk Modulus (GPa) = 45.74559 48.46813 47.10686
# Shear Modulus (GPa) = 20.82126 27.30800 24.06463
#
# Velocity S-wave (km/s) = 3.43650 3.93557 3.69448
# Velocity P-wave (km/s) = 6.45696 6.93846 6.70203
#
# Compressibility (1/GPa) = 0.02186003
#
# Stress axis : x y z
#
# Youngs Moduli (GPa) = 33.81029 86.03123 58.65284
#
# Poissons Ratio (x) = 0.33661 0.78980
# Poissons Ratio (y) = 0.13229 0.04790
# Poissons Ratio (z) = 0.45528 0.07025
#
# Static dielectric constant tensor:
#      x y z
#    x 3.243800 0.000000 0.000050 
#    y 0.000000 3.293270 0.000000 
#    z 0.000050 0.000000 3.233240 
# 
# 
# High freq. dielectric constant tensor:
#      x y z
#    x 1.684080 0.000000 0.000000 
#    y 0.000000 1.685020 0.000000 
#    z 0.000000 0.000000 1.684980 
# 
# From -- ./inp_files/288833.got.cif
#   From: 2010.06.25/outbox.cif.g09.slc.cpg/sg15_145_cif.got.tgz:288833.got - 2010.06.28 07:06:18.
