data_PCOD8136034
_publ_section_title
;
Structure prediction by ZEFSAII (Michael W. Deem and Ramdas Pophale) SiO2 
 PCOD8136034
Probable space group: C 2/C
;
_chemical_formula_sum "Si O2"
_cell_formula_units_Z 56
_cell_length_a 17.535935
_cell_length_b 11.869101
_cell_length_c 21.850106
_cell_angle_alpha 90.000000
_cell_angle_beta 141.998652
_cell_angle_gamma 90.000000
_cell_volume 2799.982758
_symmetry_space_group_name_H-M "C 2/C"
_symmetry_group_IT_number 15
_symmetry_cell_setting 'monoclinic'
loop_
_space_group_symop_operation_xyz
x,y,z
-x,y,1/2-z
-x,-y,-z
x,-y,1/2+z
1/2+x,1/2+y,z
1/2-x,1/2+y,1/2-z
1/2-x,1/2-y,-z
1/2+x,1/2-y,1/2+z
loop_
_atom_site_type_symbol
_atom_site_label
_atom_site_fract_x
_atom_site_fract_y
_atom_site_fract_z
Si Si1 0.273694 0.418487 0.545759
Si Si2 0.313021 0.309965 0.956146
Si Si3 0.372516 0.997841 0.704699
Si Si4 0.508704 0.807585 0.010982
Si Si5 0.497111 0.000854 0.093922
Si Si6 0.891344 0.857257 0.135460
Si Si7 0.224236 0.200774 0.579938
O O1 0.137147 0.476965 0.459882
O O2 0.375051 0.508965 0.630654
O O3 0.285116 0.320186 0.602518
O O4 0.311076 0.368341 0.503617
O O5 0.229648 0.420058 0.892741
O O6 0.232098 0.201537 0.919540
O O7 0.385552 0.282318 0.939534
O O8 0.408239 0.328156 0.073735
O O9 0.500000 0.991251 0.750000
O O10 0.401800 0.962054 0.792275
O O11 0.323831 0.125863 0.678689
O O12 0.391449 0.727547 0.949546
O O13 0.496493 0.893984 0.947191
O O14 0.540460 0.883651 0.089968
O O15 0.000000 0.816807 0.250000
#
# Coordination Sequence:
#
# PCOD8136034 Si02
#       7
#     8   8   8   8   8   8   8
#     4  10  19  43  64  92 124 166 213 265 313 380
#     4  11  24  41  64  93 134 164 216 271 318 391
#     4  12  23  40  66  98 125 172 220 262 318 388
#     4  10  23  42  62  91 130 173 209 271 327 388
#     4  10  21  42  69  88 128 175 217 256 331 395
#     4  11  23  40  65  95 123 170 217 269 320 378
#     4  10  22  39  66  90 129 164 210 267 319 375
#
# _framework density 20.000122000000001
#
# number of rings (size 3 to 8) (size 9 to 14) (size 15 to 20)
#    0.000    1.429    4.286    0.429    4.000    2.286 
#    0.000    0.000    0.000    0.000    0.000    0.000 
#    0.000    0.000    0.000    0.000    0.000    0.000 
#
# Total GULP energy -347031.553958 kJ/mol
# GULP energy per Si atom -12393.984070 kJ/mol
# Density = 1.995460 g / cm^3
# Si number density = 20.000122 Si / 1000 Ang^3
#
#
#
# Elastic Constant Matrix: (Units=GPa)
#
#
# Indices 1 2 3 4 5 6 
#
# 1 114.0508 39.4968 34.0549 0.0000 7.9730 0.0000
# 2 39.4968 102.8361 30.3222 0.0000 8.3537 0.0000
# 3 34.0549 30.3222 97.6467 0.0000 -10.0745 0.0000
# 4 0.0000 0.0000 0.0000 25.2666 0.0000 1.3978
# 5 7.9730 8.3537 -10.0745 0.0000 18.9467 0.0000
# 6 0.0000 0.0000 0.0000 1.3978 0.0000 36.2568
#
#
#
# Elastic Compliance Matrix: (Units=1/GPa)
#
#
# Indices 1 2 3 4 5 6 
#
# 1 0.011185 -0.002802 -0.003586 0.000000 -0.005378 0.000000
# 2 -0.002802 0.012322 -0.003479 0.000000 -0.006104 0.000000
# 3 -0.003586 -0.003479 0.013634 0.000000 0.010292 0.000000
# 4 0.000000 0.000000 0.000000 0.039663 0.000000 -0.001529
# 5 -0.005378 -0.006104 0.010292 0.000000 0.063206 0.000000
# 6 0.000000 0.000000 0.000000 -0.001529 0.000000 0.027640
#
#
# Mechanical properties :
#
#
# Convention : Reuss Voigt Hill
#
# Bulk Modulus (GPa) = 57.44514 58.03126 57.73820
# Shear Modulus (GPa) = 25.88197 30.13802 28.01000
#
# Velocity S-wave (km/s) = 3.60125 3.88608 3.74637
# Velocity P-wave (km/s) = 6.78799 7.01527 6.90256
#
# Compressibility (1/GPa) = 0.01740791
#
# Stress axis : x y z
#
# Youngs Moduli (GPa) = 89.40621 81.15644 73.34764
#
# Poissons Ratio (x) = 0.22738 0.26300
# Poissons Ratio (y) = 0.25049 0.25517
# Poissons Ratio (z) = 0.32058 0.28234
#
# Static dielectric constant tensor:
#      x y z
#    x 3.741290 0.000000 -0.163150 
#    y 0.000000 3.862660 0.000000 
#    z -0.163150 0.000000 3.439460 
# 
# 
# High freq. dielectric constant tensor:
#      x y z
#    x 1.780650 0.000000 -0.013210 
#    y 0.000000 1.800760 0.000000 
#    z -0.013210 0.000000 1.753420 
# 
# From -- ./inp_files/277125.got.cif
#   From: 2010.06.25/outbox.cif.g09.slc.cpg/sg15_139_cif.got.tgz:277125.got - 2010.06.28 07:06:18.
