data_PCOD8136247
_publ_section_title
;
Structure prediction by ZEFSAII (Michael W. Deem and Ramdas Pophale) SiO2 
 PCOD8136247
Probable space group: C 2/C
;
_chemical_formula_sum "Si O2"
_cell_formula_units_Z 64
_cell_length_a 29.016492
_cell_length_b 14.689986
_cell_length_c 8.790510
_cell_angle_alpha 90.000000
_cell_angle_beta 72.365203
_cell_angle_gamma 90.000000
_cell_volume 3570.889290
_symmetry_space_group_name_H-M "C 2/C"
_symmetry_group_IT_number 15
_symmetry_cell_setting 'monoclinic'
loop_
_space_group_symop_operation_xyz
x,y,z
-x,y,1/2-z
-x,-y,-z
x,-y,1/2+z
1/2+x,1/2+y,z
1/2-x,1/2+y,1/2-z
1/2-x,1/2-y,-z
1/2+x,1/2-y,1/2+z
loop_
_atom_site_type_symbol
_atom_site_label
_atom_site_fract_x
_atom_site_fract_y
_atom_site_fract_z
Si Si1 0.641414 0.216198 0.784540
Si Si2 0.677210 0.591387 0.249429
Si Si3 0.054081 0.594152 0.874818
Si Si4 0.554081 0.905848 0.017019
Si Si5 0.780439 0.593859 0.289971
Si Si6 0.322790 0.408613 0.103848
Si Si7 0.641414 0.783802 0.932631
Si Si8 0.719561 0.093859 0.850849
O O1 0.640229 0.325043 0.811636
O O2 0.589756 0.175714 0.888293
O O3 0.652121 0.192860 0.597879
O O4 0.683794 0.174930 0.843800
O O5 0.727799 0.616251 0.277057
O O6 0.654496 0.500000 0.345504
O O7 0.687142 0.573202 0.062858
O O8 0.053965 0.580974 0.696035
O O9 1.000000 0.617515 0.988446
O O10 0.072998 0.500000 0.927002
O O11 0.589756 0.824286 0.932195
O O12 0.816206 0.674930 0.211388
O O13 0.777085 0.584431 0.472915
O O14 0.800668 0.500000 0.199332
O O15 0.359771 0.325043 0.092093
O O16 0.272201 0.383748 0.232654
#
# Coordination Sequence:
#
# PCOD8136247 Si02
#       8
#     8   8   8   8   8   8   8   8
#     4  10  20  33  50  72  97 127 162 199 240 285
#     4  10  20  34  50  68  95 129 164 202 240 280
#     4   9  18  33  52  74  99 125 154 190 235 286
#     4   9  18  33  52  74  99 125 154 190 235 286
#     4  11  21  32  48  71 100 131 162 197 237 284
#     4  10  20  34  50  68  95 129 164 202 240 280
#     4  10  20  33  50  72  97 127 162 199 240 285
#     4  11  21  32  48  71 100 131 162 197 237 284
#
# _framework density 17.922706000000002
#
# number of rings (size 3 to 8) (size 9 to 14) (size 15 to 20)
#    0.000    2.000    0.000    6.000    0.000    8.000 
#    0.000    0.000    0.000    0.750    0.000    0.000 
#    0.000    0.000    0.000    0.000    0.000    1.000 
#
# Total GULP energy -396822.880763 kJ/mol
# GULP energy per Si atom -12400.715024 kJ/mol
# Density = 1.788191 g / cm^3
# Si number density = 17.922706 Si / 1000 Ang^3
#
#
#
# Elastic Constant Matrix: (Units=GPa)
#
#
# Indices 1 2 3 4 5 6 
#
# 1 80.0898 71.1324 40.4998 0.0000 -3.9453 0.0000
# 2 71.1324 142.4606 53.3825 0.0000 -7.3158 0.0000
# 3 40.4998 53.3825 89.8048 0.0000 7.9494 0.0000
# 4 0.0000 0.0000 0.0000 29.4567 0.0000 -0.5792
# 5 -3.9453 -7.3158 7.9494 0.0000 19.9114 0.0000
# 6 0.0000 0.0000 0.0000 -0.5792 0.0000 30.8620
#
#
#
# Elastic Compliance Matrix: (Units=1/GPa)
#
#
# Indices 1 2 3 4 5 6 
#
# 1 0.024096 -0.009887 -0.005277 0.000000 0.003249 0.000000
# 2 -0.009887 0.013749 -0.004134 0.000000 0.004743 0.000000
# 3 -0.005277 -0.004134 0.016793 0.000000 -0.009269 0.000000
# 4 0.000000 0.000000 0.000000 0.033961 0.000000 0.000637
# 5 0.003249 0.004743 -0.009269 0.000000 0.056309 0.000000
# 6 0.000000 0.000000 0.000000 0.000637 0.000000 0.032414
#
#
# Mechanical properties :
#
#
# Convention : Reuss Voigt Hill
#
# Bulk Modulus (GPa) = 62.33742 71.37605 66.85674
# Shear Modulus (GPa) = 22.59742 25.86870 24.23306
#
# Velocity S-wave (km/s) = 3.55466 3.80326 3.68106
# Velocity P-wave (km/s) = 7.19057 7.69397 7.44653
#
# Compressibility (1/GPa) = 0.01604173
#
# Stress axis : x y z
#
# Youngs Moduli (GPa) = 41.50099 72.73392 59.54993
#
# Poissons Ratio (x) = 0.71913 0.31424
# Poissons Ratio (y) = 0.41033 0.24616
# Poissons Ratio (z) = 0.21900 0.30065
#
# Static dielectric constant tensor:
#      x y z
#    x 3.308310 0.000000 0.012760 
#    y 0.000000 3.453410 0.000000 
#    z 0.012760 0.000000 3.339270 
# 
# 
# High freq. dielectric constant tensor:
#      x y z
#    x 1.670520 0.000000 0.010410 
#    y 0.000000 1.695510 0.000000 
#    z 0.010410 0.000000 1.695780 
# 
# From -- ./inp_files/66211.got.cif
#   From: 2010.06.25/outbox.cif.g09.slc.cpg/sg15_34_cif.got.tgz:66211.got - 2010.06.28 07:06:18.
