data_PCOD8136039
_publ_section_title
;
Structure prediction by ZEFSAII (Michael W. Deem and Ramdas Pophale) SiO2 
 PCOD8136039
Probable space group: C 2/C
;
_chemical_formula_sum "Si O2"
_cell_formula_units_Z 52
_cell_length_a 13.030587
_cell_length_b 19.511465
_cell_length_c 26.113081
_cell_angle_alpha 90.000000
_cell_angle_beta 157.797484
_cell_angle_gamma 90.000000
_cell_volume 2508.808666
_symmetry_space_group_name_H-M "C 2/C"
_symmetry_group_IT_number 15
_symmetry_cell_setting 'monoclinic'
loop_
_space_group_symop_operation_xyz
x,y,z
-x,y,1/2-z
-x,-y,-z
x,-y,1/2+z
1/2+x,1/2+y,z
1/2-x,1/2+y,1/2-z
1/2-x,1/2-y,-z
1/2+x,1/2-y,1/2+z
loop_
_atom_site_type_symbol
_atom_site_label
_atom_site_fract_x
_atom_site_fract_y
_atom_site_fract_z
Si Si1 0.466430 0.057976 0.566904
Si Si2 0.843239 0.780289 0.488708
Si Si3 0.164296 0.941730 0.164746
Si Si4 0.595571 0.405107 0.652388
Si Si5 0.805698 0.334523 0.400792
Si Si6 0.000000 0.646467 0.750000
Si Si7 0.105949 0.404913 0.955660
O O1 0.607620 0.070127 0.686799
O O2 0.642819 0.094882 0.605389
O O3 0.161875 0.088090 0.428253
O O4 0.460733 0.978160 0.549483
O O5 0.750000 0.750000 0.500000
O O6 0.586179 0.805396 0.337093
O O7 0.044304 0.844602 0.588573
O O8 0.993804 0.723583 0.525440
O O9 0.255979 0.903078 0.155685
O O10 0.136839 0.023141 0.141477
O O11 0.878051 0.909496 0.048170
O O12 0.857590 0.382439 0.805368
O O13 0.500000 0.310113 0.250000
O O14 0.857528 0.347103 0.484591
#
# Coordination Sequence:
#
# PCOD8136039 Si02
#       7
#     8   8   8   8   8   4   8
#     4  10  19  43  66  98 139 177 219 286 341 397
#     4  12  27  46  67  97 143 184 226 272 334 421
#     4  10  21  44  71 100 130 174 229 289 344 390
#     4  10  22  43  68  97 140 172 222 285 332 393
#     4  12  24  41  66 100 138 182 229 272 345 410
#     4  12  26  46  76  96 130 196 226 270 356 412
#     4  10  23  39  71 102 133 173 230 295 335 390
#
# _framework density 20.726970000000001
#
# number of rings (size 3 to 8) (size 9 to 14) (size 15 to 20)
#    0.000    1.231    4.615    0.462    2.154    2.462 
#    1.385    1.538    0.000    0.000    0.000    0.000 
#    0.000    0.000    0.000    0.000    0.000    0.000 
#
# Total GULP energy -322509.512580 kJ/mol
# GULP energy per Si atom -12404.212022 kJ/mol
# Density = 2.067979 g / cm^3
# Si number density = 20.726970 Si / 1000 Ang^3
#
#
#
# Elastic Constant Matrix: (Units=GPa)
#
#
# Indices 1 2 3 4 5 6 
#
# 1 83.0207 54.8276 41.6499 -0.0514 0.3916 0.2076
# 2 54.8276 102.7552 50.2851 -0.0137 -4.9368 0.0550
# 3 41.6499 50.2851 132.1529 0.0573 -1.1589 0.1234
# 4 -0.0514 -0.0137 0.0573 28.1947 -0.0022 7.6109
# 5 0.3916 -4.9368 -1.1589 -0.0022 32.7334 -0.0601
# 6 0.2076 0.0550 0.1234 7.6109 -0.0601 29.4570
#
#
#
# Elastic Compliance Matrix: (Units=1/GPa)
#
#
# Indices 1 2 3 4 5 6 
#
# 1 0.019428 -0.009148 -0.002657 0.000071 -0.001706 -0.000131
# 2 -0.009148 0.016355 -0.003319 -0.000017 0.002459 0.000057
# 3 -0.002657 -0.003319 0.009666 -0.000023 -0.000127 -0.000010
# 4 0.000071 -0.000017 -0.000023 0.038127 -0.000020 -0.009851
# 5 -0.001706 0.002459 -0.000127 -0.000020 0.030937 0.000076
# 6 -0.000131 0.000057 -0.000010 -0.009851 0.000076 0.036494
#
#
# Mechanical properties :
#
#
# Convention : Reuss Voigt Hill
#
# Bulk Modulus (GPa) = 65.78088 67.93934 66.86011
# Shear Modulus (GPa) = 26.83531 29.48809 28.16170
#
# Velocity S-wave (km/s) = 3.60210 3.77595 3.69005
# Velocity P-wave (km/s) = 7.00756 7.20137 7.10513
#
# Compressibility (1/GPa) = 0.01520199
#
# Stress axis : x y z
#
# Youngs Moduli (GPa) = 51.47224 61.14306 103.45484
#
# Poissons Ratio (x) = 0.55933 0.27488
# Poissons Ratio (y) = 0.47086 0.34333
# Poissons Ratio (z) = 0.13676 0.20291
#
# Static dielectric constant tensor:
#      x y z
#    x 3.524910 -0.000020 0.049250 
#    y -0.000020 3.886630 -0.000160 
#    z 0.049250 -0.000160 3.821190 
# 
# 
# High freq. dielectric constant tensor:
#      x y z
#    x 1.796460 0.000000 0.004900 
#    y 0.000000 1.814970 -0.000020 
#    z 0.004900 -0.000020 1.821300 
# 
# From -- ./inp_files/314340.got.cif
#   From: 2010.06.25/outbox.cif.g09.slc.cpg/sg15_158_cif.got.tgz:314340.got - 2010.06.28 07:06:18.
