data_PCOD8136094
_publ_section_title
;
Structure prediction by ZEFSAII (Michael W. Deem and Ramdas Pophale) SiO2 
 PCOD8136094
Probable space group: C 2/C
;
_chemical_formula_sum "Si O2"
_cell_formula_units_Z 60
_cell_length_a 24.967004
_cell_length_b 14.713123
_cell_length_c 17.570029
_cell_angle_alpha 90.000000
_cell_angle_beta 28.674310
_cell_angle_gamma 90.000000
_cell_volume 3096.929478
_symmetry_space_group_name_H-M "C 2/C"
_symmetry_group_IT_number 15
_symmetry_cell_setting 'monoclinic'
loop_
_space_group_symop_operation_xyz
x,y,z
-x,y,1/2-z
-x,-y,-z
x,-y,1/2+z
1/2+x,1/2+y,z
1/2-x,1/2+y,1/2-z
1/2-x,1/2-y,-z
1/2+x,1/2-y,1/2+z
loop_
_atom_site_type_symbol
_atom_site_label
_atom_site_fract_x
_atom_site_fract_y
_atom_site_fract_z
Si Si1 0.161003 0.126143 0.742611
Si Si2 0.931864 0.763977 0.759956
Si Si3 0.608927 0.612206 0.976857
Si Si4 0.302313 0.928522 0.937185
Si Si5 0.698993 0.289147 0.957774
Si Si6 0.036806 0.920740 0.117042
Si Si7 0.242049 0.376346 0.072033
Si Si8 0.000000 0.659142 0.250000
O O1 0.143700 0.086735 0.848354
O O2 0.253579 0.063593 0.584194
O O3 0.199239 0.231567 0.704138
O O4 0.047062 0.123563 0.837973
O O5 0.874909 0.675416 0.794044
O O6 0.000000 0.734403 0.750000
O O7 0.018867 0.806009 0.590876
O O8 0.836774 0.838067 0.897579
O O9 0.718512 0.636542 0.889960
O O10 0.547309 0.527376 0.092090
O O11 0.239046 0.838090 0.985455
O O12 0.435285 0.908349 0.771724
O O13 0.275167 0.017168 0.922541
O O14 0.655971 0.369723 0.955546
O O15 0.594244 0.221480 0.095741
O O16 0.000000 0.902202 0.250000
#
# Coordination Sequence:
#
# PCOD8136094 Si02
#       8
#     8   8   8   8   8   8   8   4
#     4  11  23  35  56  88 119 148 184 235 292 339
#     4   9  20  37  63  84 109 151 198 238 276 337
#     4  11  22  38  57  87 119 147 186 237 293 336
#     4  11  20  37  60  84 112 150 197 233 273 342
#     4  11  20  37  59  84 113 148 192 232 279 334
#     4  12  20  36  63  85 109 150 198 237 272 335
#     4  10  20  38  61  85 111 152 195 237 281 331
#     4  10  20  30  56  88 110 140 190 240 272 322
#
# _framework density 19.374027999999999
#
# number of rings (size 3 to 8) (size 9 to 14) (size 15 to 20)
#    0.000    1.333    3.333    4.800    0.933    1.067 
#    0.000    2.667    0.000    4.000    0.000    0.000 
#    0.000    0.000    0.000    0.000    0.000    0.000 
#
# Total GULP energy -371857.652016 kJ/mol
# GULP energy per Si atom -12395.255067 kJ/mol
# Density = 1.932993 g / cm^3
# Si number density = 19.374028 Si / 1000 Ang^3
#
#
#
# Elastic Constant Matrix: (Units=GPa)
#
#
# Indices 1 2 3 4 5 6 
#
# 1 125.1947 43.0509 52.7201 0.0000 -14.7010 0.0000
# 2 43.0509 91.8835 26.6765 0.0000 -12.6119 0.0000
# 3 52.7201 26.6765 53.9995 0.0000 -10.4080 0.0000
# 4 0.0000 0.0000 0.0000 23.6261 0.0000 -14.6759
# 5 -14.7010 -12.6119 -10.4080 0.0000 36.0684 0.0000
# 6 0.0000 0.0000 0.0000 -14.6759 0.0000 30.8205
#
#
#
# Elastic Compliance Matrix: (Units=1/GPa)
#
#
# Indices 1 2 3 4 5 6 
#
# 1 0.014328 -0.002977 -0.012276 0.000000 0.001257 0.000000
# 2 -0.002977 0.013594 -0.003311 0.000000 0.002585 0.000000
# 3 -0.012276 -0.003311 0.032775 0.000000 0.003296 0.000000
# 4 0.000000 0.000000 0.000000 0.060104 0.000000 0.028620
# 5 0.001257 0.002585 0.003296 0.000000 0.030092 0.000000
# 6 0.000000 0.000000 0.000000 0.028620 0.000000 0.046074
#
#
# Mechanical properties :
#
#
# Convention : Reuss Voigt Hill
#
# Bulk Modulus (GPa) = 42.42809 57.33032 49.87921
# Shear Modulus (GPa) = 20.66524 28.01167 24.33846
#
# Velocity S-wave (km/s) = 3.26950 3.80654 3.54819
# Velocity P-wave (km/s) = 6.01663 6.99823 6.52591
#
# Compressibility (1/GPa) = 0.02356929
#
# Stress axis : x y z
#
# Youngs Moduli (GPa) = 69.79236 73.56076 30.51108
#
# Poissons Ratio (x) = 0.21897 0.37455
# Poissons Ratio (y) = 0.20775 0.10103
# Poissons Ratio (z) = 0.85677 0.24359
#
# Static dielectric constant tensor:
#      x y z
#    x 3.781220 0.000000 -0.455730 
#    y 0.000000 3.616820 0.000000 
#    z -0.455730 0.000000 3.396800 
# 
# 
# High freq. dielectric constant tensor:
#      x y z
#    x 1.761030 0.000000 -0.031700 
#    y 0.000000 1.757210 0.000000 
#    z -0.031700 0.000000 1.720670 
# 
# From -- ./inp_files/222703.got.cif
#   From: 2010.06.25/outbox.cif.g09.slc.cpg/sg15_112_cif.got.tgz:222703.got - 2010.06.28 07:06:18.
