data_PCOD8136142
_publ_section_title
;
Structure prediction by ZEFSAII (Michael W. Deem and Ramdas Pophale) SiO2 
 PCOD8136142
Probable space group: C 2/C
;
_chemical_formula_sum "Si O2"
_cell_formula_units_Z 48
_cell_length_a 26.144649
_cell_length_b 12.761111
_cell_length_c 22.035747
_cell_angle_alpha 90.000000
_cell_angle_beta 157.967884
_cell_angle_gamma 90.000000
_cell_volume 2757.887419
_symmetry_space_group_name_H-M "C 2/C"
_symmetry_group_IT_number 15
_symmetry_cell_setting 'monoclinic'
loop_
_space_group_symop_operation_xyz
x,y,z
-x,y,1/2-z
-x,-y,-z
x,-y,1/2+z
1/2+x,1/2+y,z
1/2-x,1/2+y,1/2-z
1/2-x,1/2-y,-z
1/2+x,1/2-y,1/2+z
loop_
_atom_site_type_symbol
_atom_site_label
_atom_site_fract_x
_atom_site_fract_y
_atom_site_fract_z
Si Si1 0.384206 0.067332 0.445270
Si Si2 0.643107 0.769546 0.934995
Si Si3 0.394488 0.606329 0.503038
Si Si4 0.170491 0.443500 0.235302
Si Si5 0.301649 0.413151 0.198109
Si Si6 0.748283 0.258374 0.250716
O O1 0.541809 0.052018 0.640905
O O2 0.365142 0.188396 0.407005
O O3 0.370550 0.000986 0.370314
O O4 0.269907 0.024692 0.366125
O O5 0.500000 0.806836 0.750000
O O6 0.620608 0.665324 0.949861
O O7 0.750000 0.750000 0.000000
O O8 0.700215 0.861730 0.038877
O O9 0.302433 0.501739 0.407762
O O10 0.549110 0.567177 0.664934
O O11 0.355078 0.682499 0.403426
O O12 0.189458 0.322445 0.237155
O O13 0.319891 0.338574 0.276750
#
# Coordination Sequence:
#
# PCOD8136142 Si02
#       6
#     8   8   8   8   8   8
#     4   9  18  30  46  70 101 134 165 199 241 290
#     4  11  22  36  54  74  98 128 164 207 255 295
#     4  10  20  32  49  74 101 130 166 204 243 294
#     4   9  18  30  46  70 101 134 165 199 240 291
#     4  10  20  32  49  74 101 130 166 204 243 294
#     4   9  18  30  50  72 104 136 166 196 240 291
#
# _framework density 17.404626
#
# number of rings (size 3 to 8) (size 9 to 14) (size 15 to 20)
#    0.000    2.333    1.667    1.000    2.333   11.333 
#    0.000    0.000    0.000    0.000    0.000    2.333 
#    0.000    0.000    0.000    0.000    0.000    0.000 
#
# Total GULP energy -297368.483442 kJ/mol
# GULP energy per Si atom -12390.353477 kJ/mol
# Density = 1.736501 g / cm^3
# Si number density = 17.404626 Si / 1000 Ang^3
#
#
#
# Elastic Constant Matrix: (Units=GPa)
#
#
# Indices 1 2 3 4 5 6 
#
# 1 75.7175 31.2332 48.9654 0.0001 19.8017 0.0001
# 2 31.2332 89.3360 44.9030 0.0002 8.1834 0.0002
# 3 48.9654 44.9030 143.3301 0.0007 26.1190 0.0006
# 4 0.0001 0.0002 0.0007 11.6199 0.0002 -2.4931
# 5 19.8017 8.1834 26.1190 0.0002 32.1227 0.0002
# 6 0.0001 0.0002 0.0006 -2.4931 0.0002 17.2630
#
#
#
# Elastic Compliance Matrix: (Units=1/GPa)
#
#
# Indices 1 2 3 4 5 6 
#
# 1 0.019490 -0.004115 -0.003957 0.000000 -0.007749 0.000000
# 2 -0.004115 0.014155 -0.003327 0.000000 0.001636 0.000000
# 3 -0.003957 -0.003327 0.010298 -0.000001 -0.005086 0.000000
# 4 0.000000 0.000000 -0.000001 0.088812 -0.000001 0.012826
# 5 -0.007749 0.001636 -0.005086 -0.000001 0.039626 0.000000
# 6 0.000000 0.000000 0.000000 0.012826 0.000000 0.059780
#
#
# Mechanical properties :
#
#
# Convention : Reuss Voigt Hill
#
# Bulk Modulus (GPa) = 47.29352 62.06521 54.67936
# Shear Modulus (GPa) = 19.08355 24.41990 21.75173
#
# Velocity S-wave (km/s) = 3.31488 3.74982 3.53904
# Velocity P-wave (km/s) = 6.47172 7.38145 6.94151
#
# Compressibility (1/GPa) = 0.02114455
#
# Stress axis : x y z
#
# Youngs Moduli (GPa) = 51.30879 70.64800 97.10815
#
# Poissons Ratio (x) = 0.29073 0.38426
# Poissons Ratio (y) = 0.21115 0.32304
# Poissons Ratio (z) = 0.20303 0.23502
#
# Static dielectric constant tensor:
#      x y z
#    x 3.255520 0.000020 0.317450 
#    y 0.000020 5.750390 0.000030 
#    z 0.317450 0.000030 3.485140 
# 
# 
# High freq. dielectric constant tensor:
#      x y z
#    x 1.641260 0.000000 0.027250 
#    y 0.000000 1.660870 0.000000 
#    z 0.027250 0.000000 1.675850 
# 
# From -- ./inp_files/60671.got.cif
#   From: 2010.06.25/outbox.cif.g09.slc.cpg/sg15_31_cif.got.tgz:60671.got - 2010.06.28 07:06:18.
