data_PCOD8136979
_publ_section_title
;
Structure prediction by ZEFSAII (Michael W. Deem and Ramdas Pophale) SiO2 
 PCOD8136979
Probable space group: C 2/C
;
_chemical_formula_sum "Si O2"
_cell_formula_units_Z 40
_cell_length_a 15.844836
_cell_length_b 30.681580
_cell_length_c 9.777819
_cell_angle_alpha 90.000000
_cell_angle_beta 25.122245
_cell_angle_gamma 90.000000
_cell_volume 2018.075021
_symmetry_space_group_name_H-M "C 2/C"
_symmetry_group_IT_number 15
_symmetry_cell_setting 'monoclinic'
loop_
_space_group_symop_operation_xyz
x,y,z
-x,y,1/2-z
-x,-y,-z
x,-y,1/2+z
1/2+x,1/2+y,z
1/2-x,1/2+y,1/2-z
1/2-x,1/2-y,-z
1/2+x,1/2-y,1/2+z
loop_
_atom_site_type_symbol
_atom_site_label
_atom_site_fract_x
_atom_site_fract_y
_atom_site_fract_z
Si Si1 0.000000 0.628418 0.750000
Si Si2 0.265684 0.577829 0.957334
Si Si3 0.702852 0.434462 0.781552
Si Si4 0.576301 0.803143 0.357123
Si Si5 0.500000 0.266133 0.750000
Si Si6 0.500000 0.846201 0.750000
Si Si7 0.000000 0.505421 0.250000
O O1 0.198532 0.599508 0.467061
O O2 0.006471 0.654756 0.879277
O O3 0.469797 0.560675 0.585874
O O4 0.292165 0.588030 0.077380
O O5 0.189438 0.621383 0.990269
O O6 0.113063 0.537591 0.186872
O O7 0.832481 0.478601 0.579449
O O8 0.472612 0.762438 0.429924
O O9 0.512676 0.812151 0.605886
O O10 0.812361 0.797103 0.006162
#
# Coordination Sequence:
#
# PCOD8136979 Si02
#       7
#     4   8   8   8   4   4   4
#     4  10  20  37  60  84 116 154 194 232 296 341
#     4  10  21  36  54  87 116 153 196 244 287 337
#     4  10  20  36  56  82 115 160 192 239 293 338
#     4  10  21  40  60  88 117 151 187 240 280 354
#     4   9  22  41  64  85 118 152 192 225 290 353
#     4  11  22  37  60  89 122 146 194 245 284 333
#     4  10  20  35  58  78 118 152 204 242 282 339
#
# _framework density 19.820867
#
# number of rings (size 3 to 8) (size 9 to 14) (size 15 to 20)
#    0.000    2.000    2.000    1.200    2.800    0.800 
#    0.000    0.000    0.000    0.000    0.000    0.000 
#    0.000    0.000    0.000    0.000    0.000    0.000 
#
# Total GULP energy -247775.065579 kJ/mol
# GULP energy per Si atom -12388.753279 kJ/mol
# Density = 1.977575 g / cm^3
# Si number density = 19.820867 Si / 1000 Ang^3
#
#
#
# Elastic Constant Matrix: (Units=GPa)
#
#
# Indices 1 2 3 4 5 6 
#
# 1 80.4680 22.3627 24.1484 0.0003 6.3155 0.0007
# 2 22.3627 77.0703 35.2138 0.0000 -1.0035 0.0004
# 3 24.1484 35.2138 94.6914 0.0014 -8.9005 0.0018
# 4 0.0003 0.0000 0.0014 21.2806 -0.0006 -8.9629
# 5 6.3155 -1.0035 -8.9005 -0.0006 41.8090 -0.0005
# 6 0.0007 0.0004 0.0018 -8.9629 -0.0005 -4.3884
#
#
#
# Elastic Compliance Matrix: (Units=1/GPa)
#
#
# Indices 1 2 3 4 5 6 
#
# 1 0.014305 -0.002890 -0.002840 0.000000 -0.002835 0.000001
# 2 -0.002890 0.016247 -0.005334 0.000000 -0.000309 -0.000001
# 3 -0.002840 -0.005334 0.013568 0.000001 0.003189 0.000003
# 4 0.000000 0.000000 0.000001 0.025261 0.000000 -0.051594
# 5 -0.002835 -0.000309 0.003189 0.000000 0.025018 -0.000002
# 6 0.000001 -0.000001 0.000003 -0.051594 -0.000002 -0.122498
#
#
# Mechanical properties :
#
#
# Convention : Reuss Voigt Hill
#
# Bulk Modulus (GPa) = 45.46996 46.18661 45.82828
# Shear Modulus (GPa) = 3677.21747 23.10722 1850.16235
#
# Velocity S-wave (km/s) = 43.11905 3.41809 30.58542
# Velocity P-wave (km/s) = 50.01994 6.23942 35.64354
#
# Compressibility (1/GPa) = 0.02199254
#
# Stress axis : x y z
#
# Youngs Moduli (GPa) = 69.90451 61.55054 73.70188
#
# Poissons Ratio (x) = 0.17789 0.20930
# Poissons Ratio (y) = 0.20204 0.39311
# Poissons Ratio (z) = 0.19852 0.32830
#
# Static dielectric constant tensor:
#      x y z
#    x 3.727380 0.000000 -0.164860 
#    y 0.000000 3.540540 0.000000 
#    z -0.164860 0.000000 3.580100 
# 
# 
# High freq. dielectric constant tensor:
#      x y z
#    x 1.774590 0.000000 -0.010030 
#    y 0.000000 1.769910 0.000000 
#    z -0.010030 0.000000 1.764650 
# 
# From -- ./inp_files/25152.got.cif
#   From: 2010.06.25/outbox.cif.g09.slc.cpg/sg15_13_cif.got.tgz:25152.got - 2010.06.28 07:06:18.
