data_PCOD8136696
_publ_section_title
;
Structure prediction by ZEFSAII (Michael W. Deem and Ramdas Pophale) SiO2 
 PCOD8136696
Probable space group: C 2/C
;
_chemical_formula_sum "Si O2"
_cell_formula_units_Z 60
_cell_length_a 19.116371
_cell_length_b 26.405389
_cell_length_c 13.560608
_cell_angle_alpha 90.000000
_cell_angle_beta 154.536373
_cell_angle_gamma 90.000000
_cell_volume 2942.951042
_symmetry_space_group_name_H-M "C 2/C"
_symmetry_group_IT_number 15
_symmetry_cell_setting 'monoclinic'
loop_
_space_group_symop_operation_xyz
x,y,z
-x,y,1/2-z
-x,-y,-z
x,-y,1/2+z
1/2+x,1/2+y,z
1/2-x,1/2+y,1/2-z
1/2-x,1/2-y,-z
1/2+x,1/2-y,1/2+z
loop_
_atom_site_type_symbol
_atom_site_label
_atom_site_fract_x
_atom_site_fract_y
_atom_site_fract_z
Si Si1 0.887593 0.599395 0.014449
Si Si2 0.245553 0.694387 0.308419
Si Si3 0.056070 0.711392 0.428392
Si Si4 0.500000 0.369365 0.250000
Si Si5 0.960578 0.446699 0.407432
Si Si6 0.762048 0.100159 0.203143
Si Si7 0.148734 0.055330 0.377229
Si Si8 0.416749 0.444940 0.292737
O O1 0.966732 0.591761 0.007786
O O2 0.721405 0.566607 0.801903
O O3 0.850037 0.659058 0.974382
O O4 0.000000 0.581667 0.250000
O O5 0.313991 0.749031 0.360791
O O6 0.389079 0.666611 0.546293
O O7 0.218664 0.658039 0.179434
O O8 0.089932 0.702658 0.180186
O O9 0.000000 0.732575 0.250000
O O10 0.377320 0.406460 0.153286
O O11 0.000000 0.500000 0.500000
O O12 0.097858 0.431533 0.504793
O O13 0.793357 0.452025 0.137094
O O14 0.807947 0.098713 0.146601
O O15 0.903149 0.070569 0.442588
O O16 0.000000 0.077234 0.250000
O O17 0.093755 0.003185 0.253299
#
# Coordination Sequence:
#
# PCOD8136696 Si02
#       8
#     8   8   8   4   8   8   8   8
#     4  11  23  38  61  96 134 167 211 265 323 397
#     4  11  23  38  60  95 132 171 212 271 328 390
#     4  11  22  37  62  94 133 164 219 261 334 393
#     4  10  20  34  60  86 136 170 204 268 312 384
#     4  12  24  41  65  93 130 173 214 269 325 382
#     4  11  25  43  62  95 132 174 218 270 325 384
#     4  12  24  43  66  94 127 174 227 268 309 392
#     4  11  22  38  63  93 132 171 215 261 323 381
#
# _framework density 20.387699999999999
#
# number of rings (size 3 to 8) (size 9 to 14) (size 15 to 20)
#    0.000    0.800    2.667    6.000    7.467    0.000 
#    0.000    0.000    0.000    0.800    0.000    0.000 
#    0.000    0.000    0.000    0.000    0.000    0.000 
#
# Total GULP energy -371903.420297 kJ/mol
# GULP energy per Si atom -12396.780677 kJ/mol
# Density = 2.034130 g / cm^3
# Si number density = 20.387700 Si / 1000 Ang^3
#
#
#
# Elastic Constant Matrix: (Units=GPa)
#
#
# Indices 1 2 3 4 5 6 
#
# 1 148.9529 46.7437 37.7409 0.0000 10.7104 0.0000
# 2 46.7437 88.5123 24.9465 0.0000 -1.8453 0.0000
# 3 37.7409 24.9465 83.0880 0.0000 6.6877 0.0000
# 4 0.0000 0.0000 0.0000 12.6917 0.0000 3.4432
# 5 10.7104 -1.8453 6.6877 0.0000 35.2919 0.0000
# 6 0.0000 0.0000 0.0000 3.4432 0.0000 26.8264
#
#
#
# Elastic Compliance Matrix: (Units=1/GPa)
#
#
# Indices 1 2 3 4 5 6 
#
# 1 0.008787 -0.003954 -0.002613 0.000000 -0.002378 0.000000
# 2 -0.003954 0.014187 -0.002660 0.000000 0.002446 0.000000
# 3 -0.002613 -0.002660 0.014185 0.000000 -0.002034 0.000000
# 4 0.000000 0.000000 0.000000 0.081634 0.000000 -0.010478
# 5 -0.002378 0.002446 -0.002034 0.000000 0.029570 0.000000
# 6 0.000000 0.000000 0.000000 -0.010478 0.000000 0.038622
#
#
# Mechanical properties :
#
#
# Convention : Reuss Voigt Hill
#
# Bulk Modulus (GPa) = 53.46277 59.93507 56.69892
# Shear Modulus (GPa) = 23.62123 29.03679 26.32901
#
# Velocity S-wave (km/s) = 3.40752 3.77799 3.59753
# Velocity P-wave (km/s) = 6.46232 6.96365 6.71766
#
# Compressibility (1/GPa) = 0.01870460
#
# Stress axis : x y z
#
# Youngs Moduli (GPa) = 113.79979 70.48872 70.49803
#
# Poissons Ratio (x) = 0.27870 0.18421
# Poissons Ratio (y) = 0.44994 0.18755
# Poissons Ratio (z) = 0.29735 0.18753
#
# Static dielectric constant tensor:
#      x y z
#    x 3.955220 0.000000 0.026300 
#    y 0.000000 3.347000 0.000000 
#    z 0.026300 0.000000 3.588490 
# 
# 
# High freq. dielectric constant tensor:
#      x y z
#    x 1.808880 0.000000 0.017100 
#    y 0.000000 1.794080 0.000000 
#    z 0.017100 0.000000 1.779830 
# 
# From -- ./inp_files/108459.got.cif
#   From: 2010.06.25/outbox.cif.g09.slc.cpg/sg15_55_cif.got.tgz:108459.got - 2010.06.28 07:06:18.
