data_PCOD8136853
_publ_section_title
;
Structure prediction by ZEFSAII (Michael W. Deem and Ramdas Pophale) SiO2 
 PCOD8136853
Probable space group: C 2/C
;
_chemical_formula_sum "Si O2"
_cell_formula_units_Z 56
_cell_length_a 23.547332
_cell_length_b 23.786274
_cell_length_c 5.205566
_cell_angle_alpha 90.000000
_cell_angle_beta 113.565389
_cell_angle_gamma 90.000000
_cell_volume 2672.501889
_symmetry_space_group_name_H-M "C 2/C"
_symmetry_group_IT_number 15
_symmetry_cell_setting 'monoclinic'
loop_
_space_group_symop_operation_xyz
x,y,z
-x,y,1/2-z
-x,-y,-z
x,-y,1/2+z
1/2+x,1/2+y,z
1/2-x,1/2+y,1/2-z
1/2-x,1/2-y,-z
1/2+x,1/2-y,1/2+z
loop_
_atom_site_type_symbol
_atom_site_label
_atom_site_fract_x
_atom_site_fract_y
_atom_site_fract_z
Si Si1 0.244967 0.643290 0.242190
Si Si2 0.635970 0.302600 0.559113
Si Si3 0.575142 0.026559 0.226861
Si Si4 0.213758 0.520988 0.043157
Si Si5 0.431561 0.731874 0.046109
Si Si6 0.810973 0.310960 0.349712
Si Si7 0.935511 0.655544 0.268661
O O1 0.320648 0.641494 0.359068
O O2 0.211148 0.586044 0.102985
O O3 0.227477 0.656598 0.502655
O O4 0.219659 0.686983 0.985902
O O5 0.611315 0.287551 0.796654
O O6 0.684621 0.254134 0.561498
O O7 0.583803 0.303771 0.241773
O O8 0.566328 0.091661 0.131591
O O9 0.544085 0.012298 0.447145
O O10 0.647106 0.008371 0.371096
O O11 0.249619 0.488522 0.338563
O O12 0.500000 0.714913 0.250000
O O13 0.425415 0.799274 0.981674
O O14 0.880660 0.336812 0.462702
O O15 0.000000 0.670474 0.250000
#
# Coordination Sequence:
#
# PCOD8136853 Si02
#       7
#     8   8   8   8   8   8   8
#     4  12  22  38  60  85 118 152 196 248 304 359
#     4  11  23  37  60  91 117 150 195 238 294 373
#     4  10  21  37  53  76 105 147 204 257 299 329
#     4  10  20  35  55  77 109 152 191 235 294 344
#     4  11  23  42  62  87 123 156 191 241 298 356
#     4  11  21  36  55  81 117 154 194 250 309 349
#     4  11  24  39  59  82 114 164 217 253 293 347
#
# _framework density 20.954149999999998
#
# number of rings (size 3 to 8) (size 9 to 14) (size 15 to 20)
#    0.000    1.143    0.000    9.857    0.000    4.000 
#    0.000    0.000    0.000    0.000    0.000    0.000 
#    0.000   11.429    0.000    0.000    0.000    0.000 
#
# Total GULP energy -347009.823455 kJ/mol
# GULP energy per Si atom -12393.207981 kJ/mol
# Density = 2.090646 g / cm^3
# Si number density = 20.954150 Si / 1000 Ang^3
#
#
#
# Elastic Constant Matrix: (Units=GPa)
#
#
# Indices 1 2 3 4 5 6 
#
# 1 100.8256 31.2402 43.0643 0.0000 -5.8037 0.0000
# 2 31.2402 34.6106 12.7618 0.0000 -1.7613 0.0000
# 3 43.0643 12.7618 131.6452 0.0000 -12.9095 0.0000
# 4 0.0000 0.0000 0.0000 21.1271 0.0000 1.6691
# 5 -5.8037 -1.7613 -12.9095 0.0000 35.2767 0.0000
# 6 0.0000 0.0000 0.0000 1.6691 0.0000 23.6307
#
#
#
# Elastic Compliance Matrix: (Units=1/GPa)
#
#
# Indices 1 2 3 4 5 6 
#
# 1 0.015444 -0.012517 -0.003787 0.000000 0.000530 0.000000
# 2 -0.012517 0.040115 0.000208 0.000000 0.000020 0.000000
# 3 -0.003787 0.000208 0.009081 0.000000 0.002710 0.000000
# 4 0.000000 0.000000 0.000000 0.047598 0.000000 -0.003362
# 5 0.000530 0.000020 0.002710 0.000000 0.029427 0.000000
# 6 0.000000 0.000000 0.000000 -0.003362 0.000000 0.042555
#
#
# Mechanical properties :
#
#
# Convention : Reuss Voigt Hill
#
# Bulk Modulus (GPa) = 30.81852 49.02379 39.92116
# Shear Modulus (GPa) = 22.00417 28.00793 25.00605
#
# Velocity S-wave (km/s) = 3.24406 3.65996 3.45827
# Velocity P-wave (km/s) = 5.36390 6.42705 5.91939
#
# Compressibility (1/GPa) = 0.03244802
#
# Stress axis : x y z
#
# Youngs Moduli (GPa) = 64.74830 24.92803 110.12504
#
# Poissons Ratio (x) = 0.31203 0.41702
# Poissons Ratio (y) = 0.81046 -0.02288
# Poissons Ratio (z) = 0.24519 -0.00518
#
# Static dielectric constant tensor:
#      x y z
#    x 4.058620 0.000000 -0.423970 
#    y 0.000000 3.634610 0.000000 
#    z -0.423970 0.000000 4.686170 
# 
# 
# High freq. dielectric constant tensor:
#      x y z
#    x 1.807770 0.000000 -0.016530 
#    y 0.000000 1.779820 0.000000 
#    z -0.016530 0.000000 1.846580 
# 
# From -- ./inp_files/16182.got.cif
#   From: 2010.06.25/outbox.cif.g09.slc.cpg/sg15_9_cif.got.tgz:16182.got - 2010.06.28 07:06:18.
