data_PCOD8136995
_publ_section_title
;
Structure prediction by ZEFSAII (Michael W. Deem and Ramdas Pophale) SiO2 
 PCOD8136995
Probable space group: C 2/C
;
_chemical_formula_sum "Si O2"
_cell_formula_units_Z 36
_cell_length_a 9.326883
_cell_length_b 15.286697
_cell_length_c 16.853320
_cell_angle_alpha 90.000000
_cell_angle_beta 44.105729
_cell_angle_gamma 90.000000
_cell_volume 1672.381222
_symmetry_space_group_name_H-M "C 2/C"
_symmetry_group_IT_number 15
_symmetry_cell_setting 'monoclinic'
loop_
_space_group_symop_operation_xyz
x,y,z
-x,y,1/2-z
-x,-y,-z
x,-y,1/2+z
1/2+x,1/2+y,z
1/2-x,1/2+y,1/2-z
1/2-x,1/2-y,-z
1/2+x,1/2-y,1/2+z
loop_
_atom_site_type_symbol
_atom_site_label
_atom_site_fract_x
_atom_site_fract_y
_atom_site_fract_z
Si Si1 0.000000 0.729543 0.750000
Si Si2 0.501142 0.641913 0.114972
Si Si3 0.442724 0.307613 0.086477
Si Si4 0.843082 0.971971 0.491963
Si Si5 0.037854 0.638485 0.321674
O O1 0.084533 0.786484 0.642856
O O2 0.801595 0.672935 0.804590
O O3 0.657633 0.558996 0.061878
O O4 0.275338 0.609266 0.232840
O O5 0.489279 0.685085 0.032514
O O6 0.559555 0.385272 0.087504
O O7 0.509428 0.213785 0.094738
O O8 0.609287 0.946820 0.609331
O O9 0.000000 0.000000 0.500000
O O10 0.000000 0.679703 0.250000
#
# Coordination Sequence:
#
# PCOD8136995 Si02
#       5
#     4   8   8   8   8
#     4  10  22  40  58  84 118 150 194 234 290 344
#     4  10  22  40  58  85 117 152 188 244 285 338
#     4  10  21  36  60  82 113 156 188 238 280 343
#     4  10  20  35  58  83 115 150 189 234 285 336
#     4  11  20  36  60  85 117 150 196 229 284 343
#
# _framework density 21.526192000000002
#
# number of rings (size 3 to 8) (size 9 to 14) (size 15 to 20)
#    0.000    1.778    4.444    1.333    0.000    3.556 
#    2.000    4.444    0.000    0.000    0.000    0.000 
#    0.000    0.000    0.000    0.000    0.000    0.000 
#
# Total GULP energy -223002.173236 kJ/mol
# GULP energy per Si atom -12389.009624 kJ/mol
# Density = 2.147720 g / cm^3
# Si number density = 21.526192 Si / 1000 Ang^3
#
#
#
# Elastic Constant Matrix: (Units=GPa)
#
#
# Indices 1 2 3 4 5 6 
#
# 1 37.9816 16.5485 25.3562 -0.0021 -5.8320 -0.0022
# 2 16.5485 88.4525 61.5238 -0.0054 6.9679 -0.0030
# 3 25.3562 61.5238 114.7722 -0.0081 -9.7751 -0.0042
# 4 -0.0021 -0.0054 -0.0081 38.3889 0.0038 -11.1172
# 5 -5.8320 6.9679 -9.7751 0.0038 41.9618 0.0026
# 6 -0.0022 -0.0030 -0.0042 -11.1172 0.0026 9.1620
#
#
#
# Elastic Compliance Matrix: (Units=1/GPa)
#
#
# Indices 1 2 3 4 5 6 
#
# 1 0.031510 -0.002459 -0.005341 0.000001 0.003543 0.000005
# 2 -0.002459 0.019479 -0.010409 0.000003 -0.006001 0.000006
# 3 -0.005341 -0.010409 0.015872 0.000002 0.004684 0.000004
# 4 0.000001 0.000003 0.000002 0.040162 -0.000006 0.048732
# 5 0.003543 -0.006001 0.004684 -0.000006 0.026411 -0.000014
# 6 0.000005 0.000006 0.000004 0.048732 -0.000014 0.168278
#
#
# Mechanical properties :
#
#
# Convention : Reuss Voigt Hill
#
# Bulk Modulus (GPa) = 32.85078 49.78482 41.31780
# Shear Modulus (GPa) = 14.35635 27.08774 20.72205
#
# Velocity S-wave (km/s) = 2.58529 3.55119 3.10602
# Velocity P-wave (km/s) = 4.91992 6.32395 5.66560
#
# Compressibility (1/GPa) = 0.03044068
#
# Stress axis : x y z
#
# Youngs Moduli (GPa) = 31.73607 51.33823 63.00470
#
# Poissons Ratio (x) = 0.12624 0.33653
# Poissons Ratio (y) = 0.07804 0.65584
# Poissons Ratio (z) = 0.16951 0.53440
#
# Static dielectric constant tensor:
#      x y z
#    x 3.783380 0.000000 -0.131430 
#    y 0.000000 4.404690 0.000010 
#    z -0.131430 0.000010 4.001760 
# 
# 
# High freq. dielectric constant tensor:
#      x y z
#    x 1.826160 0.000000 -0.023310 
#    y 0.000000 1.835370 0.000000 
#    z -0.023310 0.000000 1.846510 
# 
# From -- ./inp_files/237928.got.cif
#   From: 2010.06.25/outbox.cif.g09.slc.cpg/sg15_119_cif.got.tgz:237928.got - 2010.06.28 07:06:18.
