data_PCOD8136789
_publ_section_title
;
Structure prediction by ZEFSAII (Michael W. Deem and Ramdas Pophale) SiO2 
 PCOD8136789
Probable space group: C 2/C
;
_chemical_formula_sum "Si O2"
_cell_formula_units_Z 56
_cell_length_a 16.407100
_cell_length_b 25.439978
_cell_length_c 9.437793
_cell_angle_alpha 90.000000
_cell_angle_beta 133.212388
_cell_angle_gamma 90.000000
_cell_volume 2871.042661
_symmetry_space_group_name_H-M "C 2/C"
_symmetry_group_IT_number 15
_symmetry_cell_setting 'monoclinic'
loop_
_space_group_symop_operation_xyz
x,y,z
-x,y,1/2-z
-x,-y,-z
x,-y,1/2+z
1/2+x,1/2+y,z
1/2-x,1/2+y,1/2-z
1/2-x,1/2-y,-z
1/2+x,1/2-y,1/2+z
loop_
_atom_site_type_symbol
_atom_site_label
_atom_site_fract_x
_atom_site_fract_y
_atom_site_fract_z
Si Si1 0.996031 0.650298 0.583819
Si Si2 0.849627 0.291141 0.708267
Si Si3 0.354530 0.350358 0.936929
Si Si4 0.096196 0.172201 0.703784
Si Si5 0.132906 0.473795 0.897332
Si Si6 0.311083 0.063053 0.336899
Si Si7 0.684165 0.135366 0.600785
O O1 0.119158 0.637849 0.671516
O O2 0.000000 0.669706 0.750000
O O3 0.953291 0.696855 0.433549
O O4 0.919915 0.599242 0.477954
O O5 0.738982 0.304494 0.669606
O O6 0.861133 0.229504 0.690551
O O7 0.858024 0.324503 0.572813
O O8 0.302431 0.402223 0.801862
O O9 0.390437 0.364044 0.140443
O O10 0.468883 0.330760 0.992917
O O11 0.187146 0.149221 0.701978
O O12 0.173883 0.471917 0.785056
O O13 0.000000 0.479965 0.750000
O O14 0.194039 0.524610 0.035526
O O15 0.173371 0.422424 0.026398
#
# Coordination Sequence:
#
# PCOD8136789 Si02
#       7
#     8   8   8   8   8   8   8
#     4  11  23  37  55  88 129 156 192 249 303 355
#     4  10  20  36  63  93 116 157 198 250 296 357
#     4   9  19  36  55  93 125 143 200 251 291 352
#     4  10  20  34  67  88 119 159 198 250 300 345
#     4  12  21  37  58  91 118 153 198 255 301 359
#     4  11  23  38  59  86 122 156 199 249 305 349
#     4  11  20  37  59  92 121 147 208 248 291 361
#
# _framework density 19.505109999999998
#
# number of rings (size 3 to 8) (size 9 to 14) (size 15 to 20)
#    0.000    1.429    5.714    3.000    8.000    0.000 
#    0.000    1.429    0.000    0.000    0.000    0.000 
#    0.000    0.000    0.000    0.000    0.000    0.000 
#
# Total GULP energy -346987.266393 kJ/mol
# GULP energy per Si atom -12392.402371 kJ/mol
# Density = 1.946072 g / cm^3
# Si number density = 19.505110 Si / 1000 Ang^3
#
#
#
# Elastic Constant Matrix: (Units=GPa)
#
#
# Indices 1 2 3 4 5 6 
#
# 1 101.8961 26.4217 46.0181 0.0000 21.6706 0.0000
# 2 26.4217 99.7939 35.0176 0.0000 14.1485 0.0000
# 3 46.0181 35.0176 53.5764 0.0000 5.4995 0.0000
# 4 0.0000 0.0000 0.0000 21.1857 0.0000 3.6741
# 5 21.6706 14.1485 5.4995 0.0000 35.1520 0.0000
# 6 0.0000 0.0000 0.0000 3.6741 0.0000 8.1315
#
#
#
# Elastic Compliance Matrix: (Units=1/GPa)
#
#
# Indices 1 2 3 4 5 6 
#
# 1 0.018865 0.002260 -0.016661 0.000000 -0.009933 0.000000
# 2 0.002260 0.013842 -0.010441 0.000000 -0.005331 0.000000
# 3 -0.016661 -0.010441 0.038939 0.000000 0.008382 0.000000
# 4 0.000000 0.000000 0.000000 0.051215 0.000000 -0.023140
# 5 -0.009933 -0.005331 0.008382 0.000000 0.035406 0.000000
# 6 0.000000 0.000000 0.000000 -0.023140 0.000000 0.133434
#
#
# Mechanical properties :
#
#
# Convention : Reuss Voigt Hill
#
# Bulk Modulus (GPa) = 45.53320 52.24236 48.88778
# Shear Modulus (GPa) = 14.33879 22.74777 18.54328
#
# Velocity S-wave (km/s) = 2.71427 3.41874 3.08667
# Velocity P-wave (km/s) = 5.76350 6.51351 6.14995
#
# Compressibility (1/GPa) = 0.02196200
#
# Stress axis : x y z
#
# Youngs Moduli (GPa) = 53.00902 72.24480 25.68109
#
# Poissons Ratio (x) = -0.16326 0.42787
# Poissons Ratio (y) = -0.11979 0.26813
# Poissons Ratio (z) = 0.88317 0.75430
#
# Static dielectric constant tensor:
#      x y z
#    x 3.830820 0.000000 0.280110 
#    y 0.000000 3.553510 0.000000 
#    z 0.280110 0.000000 3.613930 
# 
# 
# High freq. dielectric constant tensor:
#      x y z
#    x 1.751530 0.000000 0.018850 
#    y 0.000000 1.751650 0.000000 
#    z 0.018850 0.000000 1.737190 
# 
# From -- ./inp_files/51584.got.cif
#   From: 2010.06.25/outbox.cif.g09.slc.cpg/sg15_26_cif.got.tgz:51584.got - 2010.06.28 07:06:18.
