data_PCOD8136850
_publ_section_title
;
Structure prediction by ZEFSAII (Michael W. Deem and Ramdas Pophale) SiO2 
 PCOD8136850
Probable space group: C 2/C
;
_chemical_formula_sum "Si O2"
_cell_formula_units_Z 36
_cell_length_a 9.822451
_cell_length_b 9.818111
_cell_length_c 23.245464
_cell_angle_alpha 90.000000
_cell_angle_beta 66.265895
_cell_angle_gamma 90.000000
_cell_volume 2052.144465
_symmetry_space_group_name_H-M "C 2/C"
_symmetry_group_IT_number 15
_symmetry_cell_setting 'monoclinic'
loop_
_space_group_symop_operation_xyz
x,y,z
-x,y,1/2-z
-x,-y,-z
x,-y,1/2+z
1/2+x,1/2+y,z
1/2-x,1/2+y,1/2-z
1/2-x,1/2-y,-z
1/2+x,1/2-y,1/2+z
loop_
_atom_site_type_symbol
_atom_site_label
_atom_site_fract_x
_atom_site_fract_y
_atom_site_fract_z
Si Si1 0.511352 0.891900 0.362294
Si Si2 0.760015 0.379738 0.637899
Si Si3 0.000000 0.761422 0.750000
Si Si4 0.675925 0.598428 0.919216
Si Si5 0.057859 0.878445 0.566530
O O1 0.556865 0.833784 0.292291
O O2 0.345589 0.954253 0.387136
O O3 0.510686 0.769452 0.408497
O O4 0.625852 0.006068 0.362030
O O5 0.635414 0.358723 0.708012
O O6 0.845735 0.237503 0.613028
O O7 0.681328 0.423180 0.591828
O O8 0.574790 0.485700 0.907126
O O9 0.633796 0.625897 0.991989
#
# Coordination Sequence:
#
# PCOD8136850 Si02
#       5
#     8   8   4   8   8
#     4  10  20  35  55  75  99 135 174 209 249 298
#     4  10  20  35  55  75  99 135 174 209 249 298
#     4   8  20  36  50  72 104 132 168 218 256 288
#     4   9  19  35  53  77 108 134 161 204 254 303
#     4   9  19  35  53  77 108 134 161 204 254 303
#
# _framework density 17.542625000000001
#
# number of rings (size 3 to 8) (size 9 to 14) (size 15 to 20)
#    0.000    3.111    0.000    2.667    0.000   12.444 
#    0.000    4.444    0.000    0.000    0.000    0.000 
#    0.000    0.000    0.000    0.000    0.000    0.000 
#
# Total GULP energy -223155.834751 kJ/mol
# GULP energy per Si atom -12397.546375 kJ/mol
# Density = 1.750270 g / cm^3
# Si number density = 17.542625 Si / 1000 Ang^3
#
#
#
# Elastic Constant Matrix: (Units=GPa)
#
#
# Indices 1 2 3 4 5 6 
#
# 1 90.9785 74.3838 17.6444 0.0000 -10.8328 0.0000
# 2 74.3838 88.9375 16.6595 0.0000 -9.9210 0.0000
# 3 17.6444 16.6595 64.0567 0.0000 -10.9387 0.0000
# 4 0.0000 0.0000 0.0000 14.1236 0.0000 -5.6447
# 5 -10.8328 -9.9210 -10.9387 0.0000 16.0004 0.0000
# 6 0.0000 0.0000 0.0000 -5.6447 0.0000 47.3456
#
#
#
# Elastic Compliance Matrix: (Units=1/GPa)
#
#
# Indices 1 2 3 4 5 6 
#
# 1 0.035397 -0.028768 -0.001384 0.000000 0.005182 0.000000
# 2 -0.028768 0.035716 -0.001029 0.000000 0.001965 0.000000
# 3 -0.001384 -0.001029 0.018105 0.000000 0.010803 0.000000
# 4 0.000000 0.000000 0.000000 0.074346 0.000000 0.008864
# 5 0.005182 0.001965 0.010803 0.000000 0.074611 0.000000
# 6 0.000000 0.000000 0.000000 0.008864 0.000000 0.022178
#
#
# Mechanical properties :
#
#
# Convention : Reuss Voigt Hill
#
# Bulk Modulus (GPa) = 37.23392 51.26088 44.24740
# Shear Modulus (GPa) = 15.07542 24.51292 19.79417
#
# Velocity S-wave (km/s) = 2.93466 3.74215 3.36273
# Velocity P-wave (km/s) = 5.72310 6.92501 6.35255
#
# Compressibility (1/GPa) = 0.02685723
#
# Stress axis : x y z
#
# Youngs Moduli (GPa) = 28.25074 27.99864 55.23450
#
# Poissons Ratio (x) = 0.80546 0.07642
# Poissons Ratio (y) = 0.81271 0.05684
# Poissons Ratio (z) = 0.03909 0.02881
#
# Static dielectric constant tensor:
#      x y z
#    x 3.174870 0.000000 -0.052470 
#    y 0.000000 3.170730 0.000000 
#    z -0.052470 0.000000 3.405040 
# 
# 
# High freq. dielectric constant tensor:
#      x y z
#    x 1.671490 0.000000 -0.004050 
#    y 0.000000 1.671300 0.000000 
#    z -0.004050 0.000000 1.695800 
# 
# From -- ./inp_files/229538.got.cif
#   From: 2010.06.25/outbox.cif.g09.slc.cpg/sg15_115_cif.got.tgz:229538.got - 2010.06.28 07:06:18.
