data_PCOD8136688
_publ_section_title
;
Structure prediction by ZEFSAII (Michael W. Deem and Ramdas Pophale) SiO2 
 PCOD8136688
Probable space group: C 2/C
;
_chemical_formula_sum "Si O2"
_cell_formula_units_Z 48
_cell_length_a 31.268129
_cell_length_b 14.033834
_cell_length_c 9.429166
_cell_angle_alpha 90.000000
_cell_angle_beta 34.995814
_cell_angle_gamma 90.000000
_cell_volume 2372.998673
_symmetry_space_group_name_H-M "C 2/C"
_symmetry_group_IT_number 15
_symmetry_cell_setting 'monoclinic'
loop_
_space_group_symop_operation_xyz
x,y,z
-x,y,1/2-z
-x,-y,-z
x,-y,1/2+z
1/2+x,1/2+y,z
1/2-x,1/2+y,1/2-z
1/2-x,1/2-y,-z
1/2+x,1/2-y,1/2+z
loop_
_atom_site_type_symbol
_atom_site_label
_atom_site_fract_x
_atom_site_fract_y
_atom_site_fract_z
Si Si1 0.675238 0.718484 0.779051
Si Si2 0.827137 0.409561 0.252772
Si Si3 0.333770 0.607723 0.419089
Si Si4 0.851445 0.896192 0.405972
Si Si5 0.586005 0.724530 0.517516
Si Si6 0.825452 0.406558 0.582043
O O1 0.750000 0.750000 0.500000
O O2 0.625259 0.665690 0.796072
O O3 0.636432 0.812551 0.951617
O O4 0.693079 0.642031 0.853419
O O5 0.738132 0.397400 0.487412
O O6 0.852210 0.419541 0.347920
O O7 0.852490 0.502740 0.097956
O O8 0.866863 0.318782 0.074071
O O9 0.374545 0.505849 0.319230
O O10 0.391299 0.683488 0.197805
O O11 0.897763 0.856541 0.411412
O O12 0.763326 0.892579 0.674654
O O13 0.500000 0.752467 0.750000
#
# Coordination Sequence:
#
# PCOD8136688 Si02
#       6
#     8   8   8   8   8   8
#     4  10  20  34  59  93 123 150 198 258 315 359
#     4  11  22  38  64  94 121 158 207 260 312 356
#     4  11  21  40  65  91 124 157 206 261 311 362
#     4  10  22  36  61  94 120 158 202 259 309 364
#     4  12  25  42  61  88 129 172 205 244 306 374
#     4  10  21  35  64  93 118 155 203 265 309 352
#
# _framework density 20.227571000000001
#
# number of rings (size 3 to 8) (size 9 to 14) (size 15 to 20)
#    0.000    1.333    3.333    3.500   14.000    0.667 
#    0.000    1.667    0.000    0.000    0.000    0.000 
#    0.000    0.000    0.000    0.000    0.000    0.000 
#
# Total GULP energy -297637.467598 kJ/mol
# GULP energy per Si atom -12401.561150 kJ/mol
# Density = 2.018153 g / cm^3
# Si number density = 20.227571 Si / 1000 Ang^3
#
#
#
# Elastic Constant Matrix: (Units=GPa)
#
#
# Indices 1 2 3 4 5 6 
#
# 1 80.2447 47.5645 34.2860 0.0000 28.2995 0.0000
# 2 47.5645 150.2774 31.5443 0.0000 7.8286 0.0000
# 3 34.2860 31.5443 50.6741 0.0000 12.8271 0.0000
# 4 0.0000 0.0000 0.0000 13.4406 0.0000 14.2412
# 5 28.2995 7.8286 12.8271 0.0000 31.1106 0.0000
# 6 0.0000 0.0000 0.0000 14.2412 0.0000 40.4661
#
#
#
# Elastic Compliance Matrix: (Units=1/GPa)
#
#
# Indices 1 2 3 4 5 6 
#
# 1 0.026369 -0.005315 -0.009825 0.000000 -0.018598 0.000000
# 2 -0.005315 0.008726 -0.002795 0.000000 0.003791 0.000000
# 3 -0.009825 -0.002795 0.028674 0.000000 -0.002182 0.000000
# 4 0.000000 0.000000 0.000000 0.118642 0.000000 -0.041754
# 5 -0.018598 0.003791 -0.002182 0.000000 0.049006 0.000000
# 6 0.000000 0.000000 0.000000 -0.041754 0.000000 0.039406
#
#
# Mechanical properties :
#
#
# Convention : Reuss Voigt Hill
#
# Bulk Modulus (GPa) = 35.84487 56.44289 46.14388
# Shear Modulus (GPa) = 15.82308 28.19021 22.00665
#
# Velocity S-wave (km/s) = 2.79991 3.73722 3.30199
# Velocity P-wave (km/s) = 5.31149 6.82546 6.11551
#
# Compressibility (1/GPa) = 0.02789800
#
# Stress axis : x y z
#
# Youngs Moduli (GPa) = 37.92326 114.60182 34.87484
#
# Poissons Ratio (x) = 0.60910 0.34265
# Poissons Ratio (y) = 0.20156 0.09749
# Poissons Ratio (z) = 0.37260 0.32037
#
# Static dielectric constant tensor:
#      x y z
#    x 3.603400 0.000000 0.438860 
#    y 0.000000 4.147590 0.000000 
#    z 0.438860 0.000000 3.307860 
# 
# 
# High freq. dielectric constant tensor:
#      x y z
#    x 1.776680 0.000000 0.045290 
#    y 0.000000 1.814620 0.000000 
#    z 0.045290 0.000000 1.746220 
# 
# From -- ./inp_files/55436.got.cif
#   From: 2010.06.25/outbox.cif.g09.slc.cpg/sg15_28_cif.got.tgz:55436.got - 2010.06.28 07:06:18.
