data_PCOD8136481
_publ_section_title
;
Structure prediction by ZEFSAII (Michael W. Deem and Ramdas Pophale) SiO2 
 PCOD8136481
Probable space group: C 2/C
;
_chemical_formula_sum "Si O2"
_cell_formula_units_Z 64
_cell_length_a 10.468238
_cell_length_b 10.902916
_cell_length_c 28.111932
_cell_angle_alpha 90.000000
_cell_angle_beta 104.581940
_cell_angle_gamma 90.000000
_cell_volume 3105.184711
_symmetry_space_group_name_H-M "C 2/C"
_symmetry_group_IT_number 15
_symmetry_cell_setting 'monoclinic'
loop_
_space_group_symop_operation_xyz
x,y,z
-x,y,1/2-z
-x,-y,-z
x,-y,1/2+z
1/2+x,1/2+y,z
1/2-x,1/2+y,1/2-z
1/2-x,1/2-y,-z
1/2+x,1/2-y,1/2+z
loop_
_atom_site_type_symbol
_atom_site_label
_atom_site_fract_x
_atom_site_fract_y
_atom_site_fract_z
Si Si1 0.208383 0.610067 0.656343
Si Si2 0.617064 0.934067 0.570175
Si Si3 0.733984 0.254795 0.140986
Si Si4 0.984362 0.782720 0.603510
Si Si5 0.356940 0.074404 0.532980
Si Si6 0.831387 0.609294 0.280499
Si Si7 0.809479 0.984686 0.899137
Si Si8 0.134632 0.668159 0.319225
O O1 0.202318 0.535397 0.606527
O O2 0.090996 0.709102 0.644526
O O3 0.196934 0.525624 0.701850
O O4 0.345252 0.684942 0.673706
O O5 0.613668 0.811131 0.601619
O O6 0.688821 0.912719 0.526024
O O7 0.465077 0.967740 0.548031
O O8 0.746135 0.212923 0.196831
O O9 0.701915 0.398539 0.136914
O O10 0.864609 0.198759 0.128486
O O11 0.050136 0.911134 0.590286
O O12 0.925415 0.702598 0.554490
O O13 0.228165 0.035037 0.551680
O O14 0.790957 0.618870 0.221590
O O15 0.983835 0.637456 0.301887
O O16 0.694134 0.894568 0.871500
#
# Coordination Sequence:
#
# PCOD8136481 Si02
#       8
#     8   8   8   8   8   8   8   8
#     4   9  19  38  56  77 112 143 180 231 274 326
#     4   9  18  35  58  80 107 146 181 232 280 321
#     4  10  20  34  54  79 112 141 181 225 281 332
#     4   9  19  35  53  79 111 145 179 227 273 330
#     4   9  18  37  58  77 107 144 192 225 268 338
#     4  10  21  36  58  81 105 146 185 227 285 327
#     4  10  20  35  55  78 113 145 181 228 278 331
#     4  10  21  37  57  82 107 141 189 231 270 339
#
# _framework density 20.610689000000001
#
# number of rings (size 3 to 8) (size 9 to 14) (size 15 to 20)
#    0.000    2.500    0.000    3.000    1.750    4.000 
#    0.000   18.125    0.000    0.000    0.000    0.000 
#    0.000    0.000    0.000    0.000    0.000    0.000 
#
# Total GULP energy -396569.443550 kJ/mol
# GULP energy per Si atom -12392.795111 kJ/mol
# Density = 2.056378 g / cm^3
# Si number density = 20.610689 Si / 1000 Ang^3
#
#
#
# Elastic Constant Matrix: (Units=GPa)
#
#
# Indices 1 2 3 4 5 6 
#
# 1 39.8247 29.3005 -4.4939 0.0000 -11.1052 0.0000
# 2 29.3005 109.3964 2.8186 0.0000 -3.5955 0.0000
# 3 -4.4939 2.8186 65.7016 0.0000 -13.5156 0.0000
# 4 0.0000 0.0000 0.0000 20.5371 0.0000 -3.1776
# 5 -11.1052 -3.5955 -13.5156 0.0000 25.6582 0.0000
# 6 0.0000 0.0000 0.0000 -3.1776 0.0000 34.4026
#
#
#
# Elastic Compliance Matrix: (Units=1/GPa)
#
#
# Indices 1 2 3 4 5 6 
#
# 1 0.038404 -0.009844 0.006936 0.000000 0.018896 0.000000
# 2 -0.009844 0.011708 -0.001923 0.000000 -0.003633 0.000000
# 3 0.006936 -0.001923 0.018325 0.000000 0.012385 0.000000
# 4 0.000000 0.000000 0.000000 0.049398 0.000000 0.004563
# 5 0.018896 -0.003633 0.012385 0.000000 0.053167 0.000000
# 6 0.000000 0.000000 0.000000 0.004563 0.000000 0.029489
#
#
# Mechanical properties :
#
#
# Convention : Reuss Voigt Hill
#
# Bulk Modulus (GPa) = 17.01362 30.01924 23.51643
# Shear Modulus (GPa) = 21.76326 28.60608 25.18467
#
# Velocity S-wave (km/s) = 3.25302 3.72953 3.49939
# Velocity P-wave (km/s) = 4.73098 5.75694 5.26899
#
# Compressibility (1/GPa) = 0.05877643
#
# Stress axis : x y z
#
# Youngs Moduli (GPa) = 26.03866 85.41336 54.57000
#
# Poissons Ratio (x) = 0.84079 -0.37851
# Poissons Ratio (y) = 0.25632 0.10493
# Poissons Ratio (z) = -0.18061 0.16424
#
# Static dielectric constant tensor:
#      x y z
#    x 3.657740 0.000000 -0.176720 
#    y 0.000000 3.876350 0.000000 
#    z -0.176720 0.000000 3.977310 
# 
# 
# High freq. dielectric constant tensor:
#      x y z
#    x 1.787380 0.000000 -0.010470 
#    y 0.000000 1.809910 0.000000 
#    z -0.010470 0.000000 1.803680 
# 
# From -- ./inp_files/292044.got.cif
#   From: 2010.06.25/outbox.cif.g09.slc.cpg/sg15_147_cif.got.tgz:292044.got - 2010.06.28 07:06:18.
