data_PCOD8136221
_publ_section_title
;
Structure prediction by ZEFSAII (Michael W. Deem and Ramdas Pophale) SiO2 
 PCOD8136221
Probable space group: C 2/C
;
_chemical_formula_sum "Si O2"
_cell_formula_units_Z 64
_cell_length_a 11.792717
_cell_length_b 14.731142
_cell_length_c 17.369673
_cell_angle_alpha 90.000000
_cell_angle_beta 85.803100
_cell_angle_gamma 90.000000
_cell_volume 3009.371358
_symmetry_space_group_name_H-M "C 2/C"
_symmetry_group_IT_number 15
_symmetry_cell_setting 'monoclinic'
loop_
_space_group_symop_operation_xyz
x,y,z
-x,y,1/2-z
-x,-y,-z
x,-y,1/2+z
1/2+x,1/2+y,z
1/2-x,1/2+y,1/2-z
1/2-x,1/2-y,-z
1/2+x,1/2-y,1/2+z
loop_
_atom_site_type_symbol
_atom_site_label
_atom_site_fract_x
_atom_site_fract_y
_atom_site_fract_z
Si Si1 0.253345 0.875976 0.424627
Si Si2 0.049331 0.755933 0.390432
Si Si3 0.361285 0.412088 0.921084
Si Si4 0.891546 0.725844 0.711487
Si Si5 0.573546 0.425578 0.174774
Si Si6 0.480984 0.770249 0.443665
Si Si7 0.285710 0.948454 0.263958
Si Si8 0.707030 0.855389 0.787899
O O1 0.168398 0.791419 0.419625
O O2 0.221432 0.932883 0.502409
O O3 0.380024 0.836873 0.422629
O O4 0.234179 0.940826 0.352229
O O5 0.986008 0.710643 0.467871
O O6 0.086136 0.685305 0.322179
O O7 0.969519 0.829867 0.354787
O O8 0.430915 0.502477 0.894826
O O9 0.451361 0.335803 0.938830
O O10 0.285744 0.379046 0.854996
O O11 0.884574 0.625770 0.749991
O O12 0.777061 0.785024 0.730660
O O13 0.000000 0.772326 0.750000
O O14 0.912577 0.714800 0.618724
O O15 0.500000 0.462307 0.250000
O O16 0.700116 0.416728 0.200956
O O17 0.325716 0.052278 0.254774
#
# Coordination Sequence:
#
# PCOD8136221 Si02
#       8
#     8   8   8   8   8   8   8   8
#     4  11  18  38  61  91 128 155 201 269 307 352
#     4  11  20  40  60  90 121 172 199 249 309 379
#     4  10  20  32  60  94 120 157 200 259 307 361
#     4  12  21  39  63  93 123 155 211 266 295 357
#     4  11  23  37  57  87 134 162 200 248 316 370
#     4  11  21  34  67  91 120 156 213 259 304 353
#     4  11  24  38  61  92 127 160 200 260 315 364
#     4  11  21  38  63  91 123 165 204 251 315 366
#
# _framework density 21.266898999999999
#
# number of rings (size 3 to 8) (size 9 to 14) (size 15 to 20)
#    0.000    1.000    7.500    0.750    3.500    3.000 
#    0.000    3.125    0.000    0.000    0.000    0.000 
#    0.000    0.000    0.000    0.000    0.000    0.000 
#
# Total GULP energy -396711.071971 kJ/mol
# GULP energy per Si atom -12397.220999 kJ/mol
# Density = 2.121849 g / cm^3
# Si number density = 21.266899 Si / 1000 Ang^3
#
#
#
# Elastic Constant Matrix: (Units=GPa)
#
#
# Indices 1 2 3 4 5 6 
#
# 1 34.0951 24.4515 33.1534 0.0000 -13.1023 0.0000
# 2 24.4515 117.9446 49.4291 0.0000 -19.1845 0.0000
# 3 33.1534 49.4291 143.1477 0.0000 -45.9490 0.0000
# 4 0.0000 0.0000 0.0000 34.6505 0.0000 -4.7218
# 5 -13.1023 -19.1845 -45.9490 0.0000 35.8665 0.0000
# 6 0.0000 0.0000 0.0000 -4.7218 0.0000 29.8484
#
#
#
# Elastic Compliance Matrix: (Units=1/GPa)
#
#
# Indices 1 2 3 4 5 6 
#
# 1 0.040744 -0.005122 -0.006402 0.000000 0.003942 0.000000
# 2 -0.005122 0.010609 -0.002133 0.000000 0.001070 0.000000
# 3 -0.006402 -0.002133 0.013737 0.000000 0.014119 0.000000
# 4 0.000000 0.000000 0.000000 0.029495 0.000000 0.004666
# 5 0.003942 0.001070 0.014119 0.000000 0.047982 0.000000
# 6 0.000000 0.000000 0.000000 0.004666 0.000000 0.034241
#
#
# Mechanical properties :
#
#
# Convention : Reuss Voigt Hill
#
# Bulk Modulus (GPa) = 26.47342 56.58393 41.52868
# Shear Modulus (GPa) = 23.07182 32.61665 27.84423
#
# Velocity S-wave (km/s) = 3.29731 3.92047 3.62232
# Velocity P-wave (km/s) = 5.19341 6.86715 6.08808
#
# Compressibility (1/GPa) = 0.03777374
#
# Stress axis : x y z
#
# Youngs Moduli (GPa) = 24.54372 94.26313 72.79446
#
# Poissons Ratio (x) = 0.48286 0.46604
# Poissons Ratio (y) = 0.12572 0.15529
# Poissons Ratio (z) = 0.15713 0.20109
#
# Static dielectric constant tensor:
#      x y z
#    x 3.545100 0.000000 -0.349330 
#    y 0.000000 3.822530 0.000000 
#    z -0.349330 0.000000 4.419560 
# 
# 
# High freq. dielectric constant tensor:
#      x y z
#    x 1.803410 0.000000 -0.018180 
#    y 0.000000 1.814740 0.000000 
#    z -0.018180 0.000000 1.852390 
# 
# From -- ./inp_files/198369.got.cif
#   From: 2010.06.25/outbox.cif.g09.slc.cpg/sg15_100_cif.got.tgz:198369.got - 2010.06.28 07:06:18.
