data_PCOD8136757
_publ_section_title
;
Structure prediction by ZEFSAII (Michael W. Deem and Ramdas Pophale) SiO2 
 PCOD8136757
Probable space group: C 2/C
;
_chemical_formula_sum "Si O2"
_cell_formula_units_Z 52
_cell_length_a 8.969129
_cell_length_b 18.763138
_cell_length_c 17.352684
_cell_angle_alpha 90.000000
_cell_angle_beta 59.702239
_cell_angle_gamma 90.000000
_cell_volume 2521.402182
_symmetry_space_group_name_H-M "C 2/C"
_symmetry_group_IT_number 15
_symmetry_cell_setting 'monoclinic'
loop_
_space_group_symop_operation_xyz
x,y,z
-x,y,1/2-z
-x,-y,-z
x,-y,1/2+z
1/2+x,1/2+y,z
1/2-x,1/2+y,1/2-z
1/2-x,1/2-y,-z
1/2+x,1/2-y,1/2+z
loop_
_atom_site_type_symbol
_atom_site_label
_atom_site_fract_x
_atom_site_fract_y
_atom_site_fract_z
Si Si1 0.682073 0.605362 0.892284
Si Si2 0.198772 0.411039 0.972352
Si Si3 0.618600 0.688752 0.456129
Si Si4 0.000000 0.321602 0.250000
Si Si5 0.529471 0.314834 0.658259
Si Si6 0.159699 0.648040 0.969451
Si Si7 0.421662 0.460739 0.353359
O O1 0.573819 0.542892 0.878188
O O2 0.825632 0.631961 0.793349
O O3 0.783110 0.575683 0.940750
O O4 0.553413 0.668798 0.951075
O O5 0.283272 0.336508 0.922526
O O6 0.292805 0.475315 0.905252
O O7 0.000540 0.405748 0.998033
O O8 0.608660 0.659028 0.370638
O O9 0.786380 0.655235 0.454006
O O10 0.624955 0.773750 0.446640
O O11 0.985085 0.271139 0.329854
O O12 0.500000 0.351445 0.750000
O O13 0.317643 0.613739 0.880648
O O14 0.500000 0.474327 0.250000
#
# Coordination Sequence:
#
# PCOD8136757 Si02
#       7
#     8   8   8   4   8   8   8
#     4  10  22  38  63  86 119 159 203 257 300 362
#     4  11  21  41  62  84 119 168 208 235 301 379
#     4   9  19  39  58  90 121 154 197 249 317 361
#     4  10  20  34  62  96 114 150 216 254 312 352
#     4   9  20  34  61  87 121 154 198 252 304 358
#     4  10  21  37  62  86 119 161 200 248 302 372
#     4  11  25  39  58  87 125 161 201 257 304 348
#
# _framework density 20.623443999999999
#
# number of rings (size 3 to 8) (size 9 to 14) (size 15 to 20)
#    0.462    1.538    0.000    3.231    4.308    2.462 
#    0.000    0.769    0.000    0.000    0.000    0.000 
#    0.000    0.000    0.000    0.000    0.000    0.000 
#
# Total GULP energy -322201.777895 kJ/mol
# GULP energy per Si atom -12392.376073 kJ/mol
# Density = 2.057650 g / cm^3
# Si number density = 20.623444 Si / 1000 Ang^3
#
#
#
# Elastic Constant Matrix: (Units=GPa)
#
#
# Indices 1 2 3 4 5 6 
#
# 1 155.9456 34.4751 63.4198 0.0000 12.7193 0.0000
# 2 34.4751 76.6627 34.2190 0.0000 -5.3880 0.0000
# 3 63.4198 34.2190 100.7814 0.0000 11.3128 0.0000
# 4 0.0000 0.0000 0.0000 28.3125 0.0000 -7.3212
# 5 12.7193 -5.3880 11.3128 0.0000 31.3624 0.0000
# 6 0.0000 0.0000 0.0000 -7.3212 0.0000 28.9078
#
#
#
# Elastic Compliance Matrix: (Units=1/GPa)
#
#
# Indices 1 2 3 4 5 6 
#
# 1 0.008965 -0.002113 -0.004664 0.000000 -0.002316 0.000000
# 2 -0.002113 0.016571 -0.004912 0.000000 0.005475 0.000000
# 3 -0.004664 -0.004912 0.015016 0.000000 -0.004369 0.000000
# 4 0.000000 0.000000 0.000000 0.037795 0.000000 0.009572
# 5 -0.002316 0.005475 -0.004369 0.000000 0.035341 0.000000
# 6 0.000000 0.000000 0.000000 0.009572 0.000000 0.037017
#
#
# Mechanical properties :
#
#
# Convention : Reuss Voigt Hill
#
# Bulk Modulus (GPa) = 58.22418 66.40194 62.31306
# Shear Modulus (GPa) = 27.80731 31.13491 29.47111
#
# Velocity S-wave (km/s) = 3.67595 3.88968 3.78433
# Velocity P-wave (km/s) = 6.80516 7.24155 7.02674
#
# Compressibility (1/GPa) = 0.01717499
#
# Stress axis : x y z
#
# Youngs Moduli (GPa) = 111.54023 60.34490 66.59628
#
# Poissons Ratio (x) = 0.12748 0.31064
# Poissons Ratio (y) = 0.23563 0.32711
# Poissons Ratio (z) = 0.52027 0.29641
#
# Static dielectric constant tensor:
#      x y z
#    x 3.926310 0.000000 0.110750 
#    y 0.000000 3.569860 0.000000 
#    z 0.110750 0.000000 3.580220 
# 
# 
# High freq. dielectric constant tensor:
#      x y z
#    x 1.815690 0.000000 0.010710 
#    y 0.000000 1.793260 0.000000 
#    z 0.010710 0.000000 1.792820 
# 
# From -- ./inp_files/190842.got.cif
#   From: 2010.06.25/outbox.cif.g09.slc.cpg/sg15_96_cif.got.tgz:190842.got - 2010.06.28 07:06:18.
