data_PCOD8136023
_publ_section_title
;
Structure prediction by ZEFSAII (Michael W. Deem and Ramdas Pophale) SiO2 
 PCOD8136023
Probable space group: C 2/C
;
_chemical_formula_sum "Si O2"
_cell_formula_units_Z 36
_cell_length_a 18.870733
_cell_length_b 7.358027
_cell_length_c 27.300729
_cell_angle_alpha 90.000000
_cell_angle_beta 149.643572
_cell_angle_gamma 90.000000
_cell_volume 1915.757188
_symmetry_space_group_name_H-M "C 2/C"
_symmetry_group_IT_number 15
_symmetry_cell_setting 'monoclinic'
loop_
_space_group_symop_operation_xyz
x,y,z
-x,y,1/2-z
-x,-y,-z
x,-y,1/2+z
1/2+x,1/2+y,z
1/2-x,1/2+y,1/2-z
1/2-x,1/2-y,-z
1/2+x,1/2-y,1/2+z
loop_
_atom_site_type_symbol
_atom_site_label
_atom_site_fract_x
_atom_site_fract_y
_atom_site_fract_z
Si Si1 0.500000 0.033678 0.750000
Si Si2 0.626441 0.029096 0.539039
Si Si3 0.237485 0.189956 0.547818
Si Si4 0.616658 0.318457 0.451280
Si Si5 0.087817 0.815092 0.257335
O O1 0.413715 0.904344 0.736444
O O2 0.395979 0.165225 0.659785
O O3 0.577943 0.167817 0.468040
O O4 0.755879 0.106845 0.647949
O O5 0.500000 0.000000 0.500000
O O6 0.661290 0.837089 0.535606
O O7 0.250000 0.250000 0.500000
O O8 0.152755 0.002131 0.501566
O O9 0.750000 0.250000 0.500000
O O10 0.484819 0.359978 0.337652
O O11 0.000000 0.905104 0.250000
#
# Coordination Sequence:
#
# PCOD8136023 Si02
#       5
#     4   8   8   8   8
#     4  10  20  36  68 100 116 170 228 266 322 376
#     4  12  27  45  63 102 143 173 214 283 345 392
#     4  12  23  38  72  97 122 172 229 264 326 398
#     4  12  20  44  68  96 131 172 225 281 317 397
#     4  10  19  42  70  89 132 176 220 281 323 382
#
# _framework density 18.791523999999999
#
# number of rings (size 3 to 8) (size 9 to 14) (size 15 to 20)
#    0.667    0.000    8.889    0.000    4.667    0.889 
#    4.000    0.000    0.000    0.000    0.000    0.000 
#    0.000    0.000    0.000    0.000    0.000    0.000 
#
# Total GULP energy -223205.461429 kJ/mol
# GULP energy per Si atom -12400.303413 kJ/mol
# Density = 1.874875 g / cm^3
# Si number density = 18.791524 Si / 1000 Ang^3
#
#
#
# Elastic Constant Matrix: (Units=GPa)
#
#
# Indices 1 2 3 4 5 6 
#
# 1 130.2146 65.8579 71.4506 -0.0002 10.0517 0.0001
# 2 65.8579 139.1181 58.3524 -0.0007 -0.7276 0.0002
# 3 71.4506 58.3524 183.4606 0.0000 -11.7295 0.0001
# 4 -0.0002 -0.0007 0.0000 38.5737 0.0001 -2.4323
# 5 10.0517 -0.7276 -11.7295 0.0001 30.1392 -0.0002
# 6 0.0001 0.0002 0.0001 -2.4323 -0.0002 24.8324
#
#
#
# Elastic Compliance Matrix: (Units=1/GPa)
#
#
# Indices 1 2 3 4 5 6 
#
# 1 0.012392 -0.004291 -0.003828 0.000000 -0.005726 0.000000
# 2 -0.004291 0.009802 -0.001374 0.000000 0.001133 0.000000
# 3 -0.003828 -0.001374 0.007648 0.000000 0.004220 0.000000
# 4 0.000000 0.000000 0.000000 0.026086 0.000000 0.002555
# 5 -0.005726 0.001133 0.004220 0.000000 0.036759 0.000000
# 6 0.000000 0.000000 0.000000 0.002555 0.000000 0.040520
#
#
# Mechanical properties :
#
#
# Convention : Reuss Voigt Hill
#
# Bulk Modulus (GPa) = 92.10513 93.79057 92.94785
# Shear Modulus (GPa) = 32.09035 35.85123 33.97079
#
# Velocity S-wave (km/s) = 4.13692 4.37262 4.25640
# Velocity P-wave (km/s) = 8.48171 8.68980 8.58638
#
# Compressibility (1/GPa) = 0.01085716
#
# Stress axis : x y z
#
# Youngs Moduli (GPa) = 80.69724 102.02357 130.74898
#
# Poissons Ratio (x) = 0.43777 0.50044
# Poissons Ratio (y) = 0.34626 0.17965
# Poissons Ratio (z) = 0.30887 0.14018
#
# Static dielectric constant tensor:
#      x y z
#    x 3.108620 0.000000 -0.211910 
#    y 0.000000 3.779950 0.000000 
#    z -0.211910 0.000000 3.612720 
# 
# 
# High freq. dielectric constant tensor:
#      x y z
#    x 1.689750 0.000000 -0.018940 
#    y 0.000000 1.743770 0.000000 
#    z -0.018940 0.000000 1.746230 
# 
# From -- ./inp_files/317043.got.cif
#   From: 2010.06.25/outbox.cif.g09.slc.cpg/sg15_159_cif.got.tgz:317043.got - 2010.06.28 07:06:18.
