data_PCOD8136687
_publ_section_title
;
Structure prediction by ZEFSAII (Michael W. Deem and Ramdas Pophale) SiO2 
 PCOD8136687
Probable space group: C 2/C
;
_chemical_formula_sum "Si O2"
_cell_formula_units_Z 56
_cell_length_a 10.392228
_cell_length_b 26.805812
_cell_length_c 14.694657
_cell_angle_alpha 90.000000
_cell_angle_beta 138.742003
_cell_angle_gamma 90.000000
_cell_volume 2699.475877
_symmetry_space_group_name_H-M "C 2/C"
_symmetry_group_IT_number 15
_symmetry_cell_setting 'monoclinic'
loop_
_space_group_symop_operation_xyz
x,y,z
-x,y,1/2-z
-x,-y,-z
x,-y,1/2+z
1/2+x,1/2+y,z
1/2-x,1/2+y,1/2-z
1/2-x,1/2-y,-z
1/2+x,1/2-y,1/2+z
loop_
_atom_site_type_symbol
_atom_site_label
_atom_site_fract_x
_atom_site_fract_y
_atom_site_fract_z
Si Si1 0.610195 0.306095 0.226650
Si Si2 0.928417 0.173192 0.067656
Si Si3 0.290651 0.155473 0.369249
Si Si4 0.762798 0.957168 0.635896
Si Si5 0.946799 0.255082 0.488348
Si Si6 0.188263 0.376931 0.300460
Si Si7 0.045111 0.485475 0.173332
O O1 0.500000 0.334773 0.250000
O O2 0.731669 0.259765 0.332763
O O3 0.445858 0.281080 0.075542
O O4 0.758332 0.344370 0.258792
O O5 0.804302 0.178913 0.091879
O O6 0.150634 0.159492 0.208079
O O7 0.859186 0.127183 0.966398
O O8 0.913256 0.226369 0.008907
O O9 0.333414 0.097575 0.410426
O O10 0.480199 0.188838 0.450146
O O11 0.657477 0.982429 0.492206
O O12 0.000000 0.956102 0.750000
O O13 0.704610 0.983989 0.699619
O O14 0.146813 0.432608 0.246670
O O15 0.000000 0.352916 0.250000
O O16 0.000000 0.509417 0.250000
#
# Coordination Sequence:
#
# PCOD8136687 Si02
#       7
#     8   8   8   8   8   8   8
#     4  11  23  37  58  84 121 160 200 245 304 364
#     4  10  20  34  59  93 118 158 201 254 302 357
#     4  11  20  36  61  90 129 154 206 257 304 355
#     4  11  23  40  66  95 125 167 206 257 321 367
#     4  11  21  38  56  85 121 163 204 246 300 362
#     4  10  21  39  64  87 116 154 205 253 302 355
#     4  10  23  43  65  94 127 160 211 259 312 379
#
# _framework density 20.744768000000001
#
# number of rings (size 3 to 8) (size 9 to 14) (size 15 to 20)
#    0.000    1.429    2.857    4.286    0.000    2.286 
#    0.000    0.714    3.143    0.000    0.000    0.000 
#    0.000    0.000    0.000    0.000    0.000    0.000 
#
# Total GULP energy -346993.017082 kJ/mol
# GULP energy per Si atom -12392.607753 kJ/mol
# Density = 2.069755 g / cm^3
# Si number density = 20.744768 Si / 1000 Ang^3
#
#
#
# Elastic Constant Matrix: (Units=GPa)
#
#
# Indices 1 2 3 4 5 6 
#
# 1 118.3408 43.5890 26.5546 0.0000 -27.0606 0.0000
# 2 43.5890 66.9120 18.3509 0.0000 -8.3765 0.0000
# 3 26.5546 18.3509 99.9534 0.0000 -17.9216 0.0000
# 4 0.0000 0.0000 0.0000 3.3755 0.0000 -5.6232
# 5 -27.0606 -8.3765 -17.9216 0.0000 28.0244 0.0000
# 6 0.0000 0.0000 0.0000 -5.6232 0.0000 19.2303
#
#
#
# Elastic Compliance Matrix: (Units=1/GPa)
#
#
# Indices 1 2 3 4 5 6 
#
# 1 0.013775 -0.007525 -0.000335 0.000000 0.010838 0.000000
# 2 -0.007525 0.020111 -0.002166 0.000000 -0.002641 0.000000
# 3 -0.000335 -0.002166 0.011654 0.000000 0.006482 0.000000
# 4 0.000000 0.000000 0.000000 0.577633 0.000000 0.168909
# 5 0.010838 -0.002641 0.006482 0.000000 0.049504 0.000000
# 6 0.000000 0.000000 0.000000 0.168909 0.000000 0.101393
#
#
# Mechanical properties :
#
#
# Convention : Reuss Voigt Hill
#
# Bulk Modulus (GPa) = 39.23616 51.35500 45.29558
# Shear Modulus (GPa) = 6.22961 23.24015 14.73488
#
# Velocity S-wave (km/s) = 1.73479 3.35070 2.66803
# Velocity P-wave (km/s) = 4.79244 6.30706 5.60118
#
# Compressibility (1/GPa) = 0.02548669
#
# Stress axis : x y z
#
# Youngs Moduli (GPa) = 72.59298 49.72460 85.81106
#
# Poissons Ratio (x) = 0.37419 0.02873
# Poissons Ratio (y) = 0.54628 0.18591
# Poissons Ratio (z) = 0.02431 0.10773
#
# Static dielectric constant tensor:
#      x y z
#    x 3.729560 0.000000 -0.219440 
#    y 0.000000 3.539780 0.000000 
#    z -0.219440 0.000000 4.093520 
# 
# 
# High freq. dielectric constant tensor:
#      x y z
#    x 1.797320 0.000000 -0.014590 
#    y 0.000000 1.790210 0.000000 
#    z -0.014590 0.000000 1.834320 
# 
# From -- ./inp_files/148593.got.cif
#   From: 2010.06.25/outbox.cif.g09.slc.cpg/sg15_75_cif.got.tgz:148593.got - 2010.06.28 07:06:18.
