data_PCOD8136150
_publ_section_title
;
Structure prediction by ZEFSAII (Michael W. Deem and Ramdas Pophale) SiO2 
 PCOD8136150
Probable space group: C 2/C
;
_chemical_formula_sum "Si O2"
_cell_formula_units_Z 56
_cell_length_a 26.679525
_cell_length_b 12.057842
_cell_length_c 8.775341
_cell_angle_alpha 90.000000
_cell_angle_beta 113.753847
_cell_angle_gamma 90.000000
_cell_volume 2583.852754
_symmetry_space_group_name_H-M "C 2/C"
_symmetry_group_IT_number 15
_symmetry_cell_setting 'monoclinic'
loop_
_space_group_symop_operation_xyz
x,y,z
-x,y,1/2-z
-x,-y,-z
x,-y,1/2+z
1/2+x,1/2+y,z
1/2-x,1/2+y,1/2-z
1/2-x,1/2-y,-z
1/2+x,1/2-y,1/2+z
loop_
_atom_site_type_symbol
_atom_site_label
_atom_site_fract_x
_atom_site_fract_y
_atom_site_fract_z
Si Si1 0.444161 0.742987 0.376575
Si Si2 0.055878 0.051113 0.898729
Si Si3 0.157911 0.298636 0.121564
Si Si4 0.562902 0.705059 0.471745
Si Si5 0.216927 0.855171 0.901287
Si Si6 0.761485 0.053182 0.761492
Si Si7 0.646298 0.335752 0.318647
O O1 0.434549 0.621313 0.436770
O O2 0.406057 0.831345 0.425032
O O3 0.508855 0.769628 0.467111
O O4 0.422993 0.749173 0.177643
O O5 0.107140 0.071926 0.847784
O O6 0.000000 0.091496 0.750000
O O7 0.050180 0.925338 0.944094
O O8 0.164607 0.196569 0.251832
O O9 0.200633 0.396811 0.202005
O O10 0.165973 0.257923 0.959667
O O11 0.613680 0.727982 0.644504
O O12 0.246799 0.926188 0.803251
O O13 0.250000 0.750000 0.000000
O O14 0.206977 0.934610 0.036751
O O15 0.799016 0.110073 0.680373
#
# Coordination Sequence:
#
# PCOD8136150 Si02
#       7
#     8   8   8   8   8   8   8
#     4  10  20  32  50  73 122 161 205 257 301 380
#     4  11  19  31  45  75 117 164 208 251 311 381
#     4  10  23  40  56  85 123 165 209 251 301 374
#     4  11  20  30  48  82 114 166 209 252 319 367
#     4  10  23  42  64  88 121 162 213 255 308 372
#     4  11  23  40  61  87 121 163 204 259 311 364
#     4  11  23  31  55  79 123 166 209 249 310 382
#
# _framework density 21.673061000000001
#
# number of rings (size 3 to 8) (size 9 to 14) (size 15 to 20)
#    0.000    1.429    2.857    3.429    8.000    1.143 
#    0.000    0.000    0.000    0.000    0.000    0.000 
#    0.000   96.000    0.286    0.000    0.000    0.000 
#
# Total GULP energy -346934.290128 kJ/mol
# GULP energy per Si atom -12390.510362 kJ/mol
# Density = 2.162373 g / cm^3
# Si number density = 21.673061 Si / 1000 Ang^3
#
#
#
# Elastic Constant Matrix: (Units=GPa)
#
#
# Indices 1 2 3 4 5 6 
#
# 1 116.8897 19.1115 -1.1493 0.0000 -4.6724 0.0000
# 2 19.1115 44.9707 16.7061 0.0000 -0.7846 0.0000
# 3 -1.1493 16.7061 100.7131 0.0000 -0.3637 0.0000
# 4 0.0000 0.0000 0.0000 26.4026 0.0000 -0.5296
# 5 -4.6724 -0.7846 -0.3637 0.0000 32.1368 0.0000
# 6 0.0000 0.0000 0.0000 -0.5296 0.0000 17.4970
#
#
#
# Elastic Compliance Matrix: (Units=1/GPa)
#
#
# Indices 1 2 3 4 5 6 
#
# 1 0.009306 -0.004235 0.000813 0.000000 0.001259 0.000000
# 2 -0.004235 0.025633 -0.004300 0.000000 -0.000039 0.000000
# 3 0.000813 -0.004300 0.010652 0.000000 0.000134 0.000000
# 4 0.000000 0.000000 0.000000 0.037898 0.000000 0.001147
# 5 0.001259 -0.000039 0.000134 0.000000 0.031301 0.000000
# 6 0.000000 0.000000 0.000000 0.001147 0.000000 0.057187
#
#
# Mechanical properties :
#
#
# Convention : Reuss Voigt Hill
#
# Bulk Modulus (GPa) = 33.17061 36.87889 35.02475
# Shear Modulus (GPa) = 25.32019 30.40096 27.86058
#
# Velocity S-wave (km/s) = 3.42172 3.74934 3.58927
# Velocity P-wave (km/s) = 5.56319 5.98300 5.77691
#
# Compressibility (1/GPa) = 0.03014717
#
# Stress axis : x y z
#
# Youngs Moduli (GPa) = 107.45995 39.01167 93.87633
#
# Poissons Ratio (x) = 0.16521 -0.07634
# Poissons Ratio (y) = 0.45508 0.40371
# Poissons Ratio (z) = -0.08739 0.16777
#
# Static dielectric constant tensor:
#      x y z
#    x 4.093750 0.000000 -0.040760 
#    y 0.000000 3.318310 0.000000 
#    z -0.040760 0.000000 4.536990 
# 
# 
# High freq. dielectric constant tensor:
#      x y z
#    x 1.861970 0.000000 -0.004510 
#    y 0.000000 1.773930 0.000000 
#    z -0.004510 0.000000 1.879270 
# 
# From -- ./inp_files/65528.got.cif
#   From: 2010.06.25/outbox.cif.g09.slc.cpg/sg15_33_cif.got.tgz:65528.got - 2010.06.28 07:06:18.
