data_PCOD8136145
_publ_section_title
;
Structure prediction by ZEFSAII (Michael W. Deem and Ramdas Pophale) SiO2 
 PCOD8136145
Probable space group: C 2/C
;
_chemical_formula_sum "Si O2"
_cell_formula_units_Z 48
_cell_length_a 9.834867
_cell_length_b 17.485446
_cell_length_c 21.232615
_cell_angle_alpha 90.000000
_cell_angle_beta 43.923554
_cell_angle_gamma 90.000000
_cell_volume 2532.906294
_symmetry_space_group_name_H-M "C 2/C"
_symmetry_group_IT_number 15
_symmetry_cell_setting 'monoclinic'
loop_
_space_group_symop_operation_xyz
x,y,z
-x,y,1/2-z
-x,-y,-z
x,-y,1/2+z
1/2+x,1/2+y,z
1/2-x,1/2+y,1/2-z
1/2-x,1/2-y,-z
1/2+x,1/2-y,1/2+z
loop_
_atom_site_type_symbol
_atom_site_label
_atom_site_fract_x
_atom_site_fract_y
_atom_site_fract_z
Si Si1 0.925572 0.137838 0.656919
Si Si2 0.608579 0.127401 0.857484
Si Si3 0.336388 0.246566 0.355568
Si Si4 0.652271 0.491808 0.153368
Si Si5 0.884661 0.097956 0.029393
Si Si6 0.720587 0.551067 0.998500
O O1 0.702139 0.143172 0.756915
O O2 0.049750 0.215406 0.623934
O O3 0.940692 0.114236 0.579290
O O4 0.025051 0.077893 0.670095
O O5 0.666952 0.198326 0.883340
O O6 0.374717 0.117061 0.926951
O O7 0.668957 0.045226 0.867316
O O8 0.500000 0.225396 0.250000
O O9 0.248193 0.169969 0.412935
O O10 0.500000 0.538116 0.250000
O O11 0.732710 0.544306 0.070305
O O12 0.744757 0.030171 0.049109
O O13 0.998678 0.075853 0.055055
#
# Coordination Sequence:
#
# PCOD8136145 Si02
#       6
#     8   8   8   8   8   8
#     4   8  16  32  55  73  97 134 178 207 247 309
#     4   9  17  32  56  76  94 140 182 212 245 306
#     4   9  18  35  55  74  97 134 181 217 250 302
#     4   8  15  31  51  72 100 134 174 214 246 300
#     4  10  20  34  48  77 111 137 163 214 264 314
#     4  10  20  32  49  78 110 135 169 210 267 313
#
# _framework density 18.950562999999999
#
# number of rings (size 3 to 8) (size 9 to 14) (size 15 to 20)
#    0.000    3.000    0.000    3.000    0.000    1.333 
#   12.000    0.000    3.667    0.000    0.000    0.000 
#    0.000    0.000    0.000    0.000    0.000    0.000 
#
# Total GULP energy -297391.358209 kJ/mol
# GULP energy per Si atom -12391.306592 kJ/mol
# Density = 1.890743 g / cm^3
# Si number density = 18.950563 Si / 1000 Ang^3
#
#
#
# Elastic Constant Matrix: (Units=GPa)
#
#
# Indices 1 2 3 4 5 6 
#
# 1 48.1736 19.8588 27.7748 -0.0009 -1.0265 0.0005
# 2 19.8588 81.2140 48.3542 -0.0011 -7.8396 0.0006
# 3 27.7748 48.3542 80.1354 -0.0070 -7.3687 0.0030
# 4 -0.0009 -0.0011 -0.0070 31.4140 0.0004 -7.1416
# 5 -1.0265 -7.8396 -7.3687 0.0004 23.1949 -0.0012
# 6 0.0005 0.0006 0.0030 -7.1416 -0.0012 17.6558
#
#
#
# Elastic Compliance Matrix: (Units=1/GPa)
#
#
# Indices 1 2 3 4 5 6 
#
# 1 0.026159 -0.001690 -0.008233 -0.000001 -0.002029 0.000000
# 2 -0.001690 0.019517 -0.010910 -0.000002 0.003056 0.000001
# 3 -0.008233 -0.010910 0.022191 0.000004 0.002998 -0.000001
# 4 -0.000001 -0.000002 0.000004 0.035057 0.000001 0.014180
# 5 -0.002029 0.003056 0.002998 0.000001 0.045008 0.000003
# 6 0.000000 0.000001 -0.000001 0.014180 0.000003 0.062374
#
#
# Mechanical properties :
#
#
# Convention : Reuss Voigt Hill
#
# Bulk Modulus (GPa) = 38.16756 44.61096 41.38926
# Shear Modulus (GPa) = 19.17865 22.02196 20.60031
#
# Velocity S-wave (km/s) = 3.18470 3.41262 3.30063
# Velocity P-wave (km/s) = 5.80581 6.25458 6.03437
#
# Compressibility (1/GPa) = 0.02620026
#
# Stress axis : x y z
#
# Youngs Moduli (GPa) = 38.22811 51.23712 45.06277
#
# Poissons Ratio (x) = 0.08661 0.37101
# Poissons Ratio (y) = 0.06462 0.49163
# Poissons Ratio (z) = 0.31474 0.55899
#
# Static dielectric constant tensor:
#      x y z
#    x 3.286930 0.000000 0.196820 
#    y 0.000000 3.217110 0.000000 
#    z 0.196820 0.000000 3.578290 
# 
# 
# High freq. dielectric constant tensor:
#      x y z
#    x 1.717480 0.000000 0.007710 
#    y 0.000000 1.708360 0.000000 
#    z 0.007710 0.000000 1.738890 
# 
# From -- ./inp_files/178919.got.cif
#   From: 2010.06.25/outbox.cif.g09.slc.cpg/sg15_90_cif.got.tgz:178919.got - 2010.06.28 07:06:18.
