data_PCOD8136751
_publ_section_title
;
Structure prediction by ZEFSAII (Michael W. Deem and Ramdas Pophale) SiO2 
 PCOD8136751
Probable space group: C 2/C
;
_chemical_formula_sum "Si O2"
_cell_formula_units_Z 36
_cell_length_a 12.214198
_cell_length_b 18.301376
_cell_length_c 7.406925
_cell_angle_alpha 90.000000
_cell_angle_beta 72.860708
_cell_angle_gamma 90.000000
_cell_volume 1582.190466
_symmetry_space_group_name_H-M "C 2/C"
_symmetry_group_IT_number 15
_symmetry_cell_setting 'monoclinic'
loop_
_space_group_symop_operation_xyz
x,y,z
-x,y,1/2-z
-x,-y,-z
x,-y,1/2+z
1/2+x,1/2+y,z
1/2-x,1/2+y,1/2-z
1/2-x,1/2-y,-z
1/2+x,1/2-y,1/2+z
loop_
_atom_site_type_symbol
_atom_site_label
_atom_site_fract_x
_atom_site_fract_y
_atom_site_fract_z
Si Si1 0.817305 0.283945 0.636513
Si Si2 0.242826 0.523275 0.793473
Si Si3 0.338370 0.608393 0.072572
Si Si4 0.500000 0.314593 0.250000
Si Si5 0.602090 0.077449 0.566679
O O1 0.750000 0.250000 0.500000
O O2 0.724129 0.322585 0.808664
O O3 0.908283 0.342337 0.513741
O O4 0.891545 0.230096 0.726194
O O5 0.341567 0.461011 0.709124
O O6 0.221345 0.569706 0.622466
O O7 0.269421 0.582036 0.931312
O O8 0.120740 0.482765 0.900040
O O9 0.461665 0.635050 0.939369
O O10 0.500000 0.061467 0.750000
#
# Coordination Sequence:
#
# PCOD8136751 Si02
#       5
#     8   8   8   4   8
#     4  11  26  42  63  96 136 174 215 270 317 393
#     4   9  20  41  62  92 133 161 214 289 321 368
#     4  10  23  43  66  95 131 168 220 274 327 380
#     4  12  26  42  70  94 132 184 216 258 328 406
#     4  10  20  34  62  91 124 171 217 267 328 383
#
# _framework density 22.753266
#
# number of rings (size 3 to 8) (size 9 to 14) (size 15 to 20)
#    0.000    1.778    0.000    2.667    6.222    0.889 
#    4.000    0.000    0.000    0.000    0.000    0.000 
#    0.000    0.000    0.000    0.000    0.000    0.000 
#
# Total GULP energy -222992.260487 kJ/mol
# GULP energy per Si atom -12388.458916 kJ/mol
# Density = 2.270148 g / cm^3
# Si number density = 22.753266 Si / 1000 Ang^3
#
#
#
# Elastic Constant Matrix: (Units=GPa)
#
#
# Indices 1 2 3 4 5 6 
#
# 1 55.3215 30.3072 32.7892 0.0000 -2.7828 0.0000
# 2 30.3072 90.6915 52.1938 0.0000 -8.3662 0.0000
# 3 32.7892 52.1938 136.5137 0.0000 -17.7595 0.0000
# 4 0.0000 0.0000 0.0000 49.2871 0.0000 16.4520
# 5 -2.7828 -8.3662 -17.7595 0.0000 43.7939 0.0000
# 6 0.0000 0.0000 0.0000 16.4520 0.0000 1.9580
#
#
#
# Elastic Compliance Matrix: (Units=1/GPa)
#
#
# Indices 1 2 3 4 5 6 
#
# 1 0.023312 -0.005880 -0.003489 0.000000 -0.001057 0.000000
# 2 -0.005880 0.015632 -0.004460 0.000000 0.000804 0.000000
# 3 -0.003489 -0.004460 0.010270 0.000000 0.003091 0.000000
# 4 0.000000 0.000000 0.000000 -0.011242 0.000000 0.094461
# 5 -0.001057 0.000804 0.003091 0.000000 0.024174 0.000000
# 6 0.000000 0.000000 0.000000 0.094461 0.000000 -0.282986
#
#
# Mechanical properties :
#
#
# Convention : Reuss Voigt Hill
#
# Bulk Modulus (GPa) = 46.38710 57.01188 51.69949
# Shear Modulus (GPa) = -26.88229 30.15689 1.63730
#
# Velocity S-wave (km/s) = -3.44098 3.64454 0.84921
# Velocity P-wave (km/s) = 2.15503 6.54379 4.87162
#
# Compressibility (1/GPa) = 0.02155772
#
# Stress axis : x y z
#
# Youngs Moduli (GPa) = 42.89617 63.97042 97.36649
#
# Poissons Ratio (x) = 0.37616 0.33967
# Poissons Ratio (y) = 0.25224 0.43423
# Poissons Ratio (z) = 0.14965 0.28529
#
# Static dielectric constant tensor:
#      x y z
#    x 3.631640 0.000000 -0.075260 
#    y 0.000000 4.288120 0.000000 
#    z -0.075260 0.000000 4.636930 
# 
# 
# High freq. dielectric constant tensor:
#      x y z
#    x 1.854080 0.000000 -0.003910 
#    y 0.000000 1.907160 0.000000 
#    z -0.003910 0.000000 1.931190 
# 
# From -- ./inp_files/28710.got.cif
#   From: 2010.06.25/outbox.cif.g09.slc.cpg/sg15_15_cif.got.tgz:28710.got - 2010.06.28 07:06:18.
