data_PCOD8136652
_publ_section_title
;
Structure prediction by ZEFSAII (Michael W. Deem and Ramdas Pophale) SiO2 
 PCOD8136652
Probable space group: C 2/C
;
_chemical_formula_sum "Si O2"
_cell_formula_units_Z 48
_cell_length_a 27.164151
_cell_length_b 8.443669
_cell_length_c 20.054901
_cell_angle_alpha 90.000000
_cell_angle_beta 150.455849
_cell_angle_gamma 90.000000
_cell_volume 2268.180740
_symmetry_space_group_name_H-M "C 2/C"
_symmetry_group_IT_number 15
_symmetry_cell_setting 'monoclinic'
loop_
_space_group_symop_operation_xyz
x,y,z
-x,y,1/2-z
-x,-y,-z
x,-y,1/2+z
1/2+x,1/2+y,z
1/2-x,1/2+y,1/2-z
1/2-x,1/2-y,-z
1/2+x,1/2-y,1/2+z
loop_
_atom_site_type_symbol
_atom_site_label
_atom_site_fract_x
_atom_site_fract_y
_atom_site_fract_z
Si Si1 0.419675 0.494875 0.348021
Si Si2 0.088363 0.863298 0.800408
Si Si3 0.373339 0.970686 0.406094
Si Si4 0.751515 0.236118 0.187863
Si Si5 0.282841 0.077776 0.593245
Si Si6 0.919760 0.636232 0.326272
O O1 0.500000 0.500000 0.500000
O O2 0.458072 0.566663 0.322732
O O3 0.330567 0.599336 0.269001
O O4 0.387102 0.314046 0.301710
O O5 0.137663 0.690145 0.850659
O O6 0.000000 0.860467 0.750000
O O7 0.184765 0.970450 0.935003
O O8 0.282605 0.844704 0.288384
O O9 0.461993 0.882116 0.551474
O O10 0.348046 0.136064 0.413022
O O11 0.405508 0.012934 0.369312
O O12 0.736191 0.339974 0.104160
O O13 0.345967 0.919538 0.680808
#
# Coordination Sequence:
#
# PCOD8136652 Si02
#       6
#     8   8   8   8   8   8
#     4  11  22  40  63  92 130 160 207 262 317 371
#     4  10  23  42  65  89 126 169 207 259 316 377
#     4  10  20  34  58  92 125 164 204 257 321 363
#     4  10  20  36  58  91 125 163 210 257 312 378
#     4   9  22  42  61  91 118 167 219 250 315 380
#     4  10  21  37  59  90 127 163 205 264 309 376
#
# _framework density 21.162334000000001
#
# number of rings (size 3 to 8) (size 9 to 14) (size 15 to 20)
#    0.000    2.000    1.667    1.000    4.667    3.333 
#    3.000    0.833    0.000    0.000    0.000    0.000 
#    0.000    0.000    0.000    0.000    0.000    0.000 
#
# Total GULP energy -297412.908331 kJ/mol
# GULP energy per Si atom -12392.204514 kJ/mol
# Density = 2.111417 g / cm^3
# Si number density = 21.162334 Si / 1000 Ang^3
#
#
#
# Elastic Constant Matrix: (Units=GPa)
#
#
# Indices 1 2 3 4 5 6 
#
# 1 69.7131 10.9600 40.3740 0.0000 -7.9153 0.0000
# 2 10.9600 90.1798 29.7939 0.0000 -6.3672 0.0000
# 3 40.3740 29.7939 105.1428 0.0000 -18.1706 0.0000
# 4 0.0000 0.0000 0.0000 35.6996 0.0000 -3.1522
# 5 -7.9153 -6.3672 -18.1706 0.0000 22.1878 0.0000
# 6 0.0000 0.0000 0.0000 -3.1522 0.0000 23.4945
#
#
#
# Elastic Compliance Matrix: (Units=1/GPa)
#
#
# Indices 1 2 3 4 5 6 
#
# 1 0.018464 0.000122 -0.006966 0.000000 0.000917 0.000000
# 2 0.000122 0.012247 -0.003381 0.000000 0.000789 0.000000
# 3 -0.006966 -0.003381 0.014615 0.000000 0.008514 0.000000
# 4 0.000000 0.000000 0.000000 0.028347 0.000000 0.003803
# 5 0.000917 0.000789 0.008514 0.000000 0.052596 0.000000
# 6 0.000000 0.000000 0.000000 0.003803 0.000000 0.043073
#
#
# Mechanical properties :
#
#
# Convention : Reuss Voigt Hill
#
# Bulk Modulus (GPa) = 40.19890 47.47684 43.83787
# Shear Modulus (GPa) = 25.24185 28.53692 26.88939
#
# Velocity S-wave (km/s) = 3.45740 3.67615 3.56845
# Velocity P-wave (km/s) = 5.91396 6.36412 6.14316
#
# Compressibility (1/GPa) = 0.02487630
#
# Stress axis : x y z
#
# Youngs Moduli (GPa) = 54.16010 81.65387 68.42217
#
# Poissons Ratio (x) = -0.00998 0.47664
# Poissons Ratio (y) = -0.00662 0.23133
# Poissons Ratio (z) = 0.37728 0.27606
#
# Static dielectric constant tensor:
#      x y z
#    x 3.690010 0.000000 -0.189590 
#    y 0.000000 3.805990 0.000000 
#    z -0.189590 0.000000 4.035030 
# 
# 
# High freq. dielectric constant tensor:
#      x y z
#    x 1.807010 0.000000 0.001820 
#    y 0.000000 1.825720 0.000000 
#    z 0.001820 0.000000 1.836060 
# 
# From -- ./inp_files/180927.got.cif
#   From: 2010.06.25/outbox.cif.g09.slc.cpg/sg15_91_cif.got.tgz:180927.got - 2010.06.28 07:06:18.
