data_PCOD8136146
_publ_section_title
;
Structure prediction by ZEFSAII (Michael W. Deem and Ramdas Pophale) SiO2 
 PCOD8136146
Probable space group: C 2/C
;
_chemical_formula_sum "Si O2"
_cell_formula_units_Z 64
_cell_length_a 25.466445
_cell_length_b 9.187180
_cell_length_c 14.930850
_cell_angle_alpha 90.000000
_cell_angle_beta 105.605769
_cell_angle_gamma 90.000000
_cell_volume 3364.514973
_symmetry_space_group_name_H-M "C 2/C"
_symmetry_group_IT_number 15
_symmetry_cell_setting 'monoclinic'
loop_
_space_group_symop_operation_xyz
x,y,z
-x,y,1/2-z
-x,-y,-z
x,-y,1/2+z
1/2+x,1/2+y,z
1/2-x,1/2+y,1/2-z
1/2-x,1/2-y,-z
1/2+x,1/2-y,1/2+z
loop_
_atom_site_type_symbol
_atom_site_label
_atom_site_fract_x
_atom_site_fract_y
_atom_site_fract_z
Si Si1 0.842686 0.551192 0.361342
Si Si2 0.670615 0.885152 0.452941
Si Si3 0.136230 0.926348 0.977704
Si Si4 0.564115 0.449327 0.773020
Si Si5 0.370811 0.634451 0.827753
Si Si6 0.866186 0.304895 0.244967
Si Si7 0.276165 0.584396 0.256770
Si Si8 0.236388 0.104796 0.045904
O O1 0.859404 0.546713 0.473770
O O2 0.864950 0.692281 0.319774
O O3 0.870768 0.410195 0.331645
O O4 0.776841 0.546997 0.326026
O O5 0.675329 0.712213 0.474756
O O6 0.634772 0.902016 0.346086
O O7 0.727452 0.966346 0.464890
O O8 0.088673 0.947514 0.883932
O O9 0.109283 0.911855 0.063659
O O10 0.174162 0.068266 0.992644
O O11 0.500000 0.457235 0.750000
O O12 0.584981 0.587223 0.725710
O O13 0.581987 0.302062 0.729488
O O14 0.312181 0.561815 0.780530
O O15 0.810327 0.210904 0.223274
O O16 0.257199 0.636537 0.345928
O O17 0.250000 0.250000 0.000000
#
# Coordination Sequence:
#
# PCOD8136146 Si02
#       8
#     8   8   8   8   8   8   8   8
#     4  11  20  32  55  78 113 147 177 219 270 329
#     4  10  21  33  52  76 111 153 184 204 268 330
#     4   9  21  36  55  78 109 143 182 221 269 332
#     4  10  22  40  62  78 101 144 191 235 280 317
#     4   9  21  36  53  82 110 139 186 223 270 328
#     4  10  21  37  53  79 113 144 184 226 268 329
#     4  10  20  32  49  79 116 149 175 213 266 327
#     4  11  21  31  49  82 116 147 179 215 263 320
#
# _framework density 19.022058000000001
#
# number of rings (size 3 to 8) (size 9 to 14) (size 15 to 20)
#    0.000    2.000    1.250    1.875   10.500    0.500 
#    0.000    0.625    0.000    6.750    0.000    0.000 
#    0.000    0.000    0.000    0.000    0.000    0.000 
#
# Total GULP energy -396742.371629 kJ/mol
# GULP energy per Si atom -12398.199113 kJ/mol
# Density = 1.897876 g / cm^3
# Si number density = 19.022058 Si / 1000 Ang^3
#
#
#
# Elastic Constant Matrix: (Units=GPa)
#
#
# Indices 1 2 3 4 5 6 
#
# 1 88.3258 23.9416 25.4892 0.0000 -2.6148 0.0000
# 2 23.9416 50.0005 19.3116 0.0000 -1.9982 0.0000
# 3 25.4892 19.3116 90.1800 0.0000 -9.0491 0.0000
# 4 0.0000 0.0000 0.0000 28.9209 0.0000 -6.9759
# 5 -2.6148 -1.9982 -9.0491 0.0000 21.6481 0.0000
# 6 0.0000 0.0000 0.0000 -6.9759 0.0000 15.7227
#
#
#
# Elastic Compliance Matrix: (Units=1/GPa)
#
#
# Indices 1 2 3 4 5 6 
#
# 1 0.013574 -0.005470 -0.002663 0.000000 0.000021 0.000000
# 2 -0.005470 0.024008 -0.003590 0.000000 0.000055 0.000000
# 3 -0.002663 -0.003590 0.013094 0.000000 0.004820 0.000000
# 4 0.000000 0.000000 0.000000 0.038721 0.000000 0.017180
# 5 0.000021 0.000055 0.004820 0.000000 0.048216 0.000000
# 6 0.000000 0.000000 0.000000 0.017180 0.000000 0.071225
#
#
# Mechanical properties :
#
#
# Convention : Reuss Voigt Hill
#
# Bulk Modulus (GPa) = 36.72411 40.66568 38.69490
# Shear Modulus (GPa) = 20.71604 23.90926 22.31265
#
# Velocity S-wave (km/s) = 3.30366 3.54916 3.42861
# Velocity P-wave (km/s) = 5.82239 6.18223 6.00500
#
# Compressibility (1/GPa) = 0.02723007
#
# Stress axis : x y z
#
# Youngs Moduli (GPa) = 73.67273 41.65358 76.37080
#
# Poissons Ratio (x) = 0.22784 0.20338
# Poissons Ratio (y) = 0.40299 0.27413
# Poissons Ratio (z) = 0.19619 0.14952
#
# Static dielectric constant tensor:
#      x y z
#    x 3.021360 0.000000 -0.285400 
#    y 0.000000 3.505700 0.000000 
#    z -0.285400 0.000000 3.806090 
# 
# 
# High freq. dielectric constant tensor:
#      x y z
#    x 1.685670 0.000000 -0.024960 
#    y 0.000000 1.740550 0.000000 
#    z -0.024960 0.000000 1.756470 
# 
# From -- ./inp_files/176613.got.cif
#   From: 2010.06.25/outbox.cif.g09.slc.cpg/sg15_89_cif.got.tgz:176613.got - 2010.06.28 07:06:18.
