data_PCOD8136018
_publ_section_title
;
Structure prediction by ZEFSAII (Michael W. Deem and Ramdas Pophale) SiO2 
 PCOD8136018
Probable space group: C 2/C
;
_chemical_formula_sum "Si O2"
_cell_formula_units_Z 52
_cell_length_a 9.105324
_cell_length_b 18.412685
_cell_length_c 22.249791
_cell_angle_alpha 90.000000
_cell_angle_beta 43.936518
_cell_angle_gamma 90.000000
_cell_volume 2588.277887
_symmetry_space_group_name_H-M "C 2/C"
_symmetry_group_IT_number 15
_symmetry_cell_setting 'monoclinic'
loop_
_space_group_symop_operation_xyz
x,y,z
-x,y,1/2-z
-x,-y,-z
x,-y,1/2+z
1/2+x,1/2+y,z
1/2-x,1/2+y,1/2-z
1/2-x,1/2-y,-z
1/2+x,1/2-y,1/2+z
loop_
_atom_site_type_symbol
_atom_site_label
_atom_site_fract_x
_atom_site_fract_y
_atom_site_fract_z
Si Si1 0.744469 0.997986 0.125089
Si Si2 0.144989 0.826699 0.612916
Si Si3 0.284348 0.043417 0.740562
Si Si4 0.500000 0.555662 0.250000
Si Si5 0.844264 0.700741 0.743007
Si Si6 0.047308 0.885650 0.516050
Si Si7 0.000026 0.237894 0.934824
O O1 0.819174 0.082232 0.102118
O O2 0.837206 0.960229 0.159035
O O3 0.494968 0.999989 0.193970
O O4 0.817039 0.954842 0.044315
O O5 0.077373 0.895616 0.672079
O O6 0.161812 0.846668 0.538131
O O7 0.378626 0.802766 0.565979
O O8 0.965076 0.764087 0.671470
O O9 0.309743 0.128214 0.713047
O O10 0.181836 0.999009 0.717052
O O11 0.618973 0.728712 0.835463
O O12 0.000000 0.674389 0.750000
O O13 0.027971 0.833175 0.465800
O O14 0.750000 0.250000 0.000000
#
# Coordination Sequence:
#
# PCOD8136018 Si02
#       7
#     8   8   8   4   8   8   8
#     4  10  21  38  69  88 123 169 220 258 328 397
#     4  11  23  43  68  91 129 176 220 269 329 397
#     4  11  21  42  65  92 127 174 215 266 322 403
#     4  12  24  40  66  98 130 164 222 280 322 384
#     4  10  19  42  68  84 121 181 217 252 322 404
#     4  11  22  41  63  98 122 168 217 271 328 391
#     4  11  23  39  62  94 133 159 216 273 328 379
#
# _framework density 20.090579000000002
#
# number of rings (size 3 to 8) (size 9 to 14) (size 15 to 20)
#    0.000    1.231    6.923    1.385    2.154    0.000 
#    5.538    0.769    0.000    0.000    0.000    0.000 
#    0.000    0.000    0.000    0.000    0.000    0.000 
#
# Total GULP energy -322255.812897 kJ/mol
# GULP energy per Si atom -12394.454342 kJ/mol
# Density = 2.004485 g / cm^3
# Si number density = 20.090579 Si / 1000 Ang^3
#
#
#
# Elastic Constant Matrix: (Units=GPa)
#
#
# Indices 1 2 3 4 5 6 
#
# 1 84.7511 42.4334 30.7870 0.0048 -12.2372 -0.0075
# 2 42.4334 108.8949 19.9423 -0.0034 1.2458 0.0032
# 3 30.7870 19.9423 69.6971 -0.0132 -7.1181 -0.0006
# 4 0.0048 -0.0034 -0.0132 29.4779 0.0082 1.7599
# 5 -12.2372 1.2458 -7.1181 0.0082 32.5107 -0.0030
# 6 -0.0075 0.0032 -0.0006 1.7599 -0.0030 37.7023
#
#
#
# Elastic Compliance Matrix: (Units=1/GPa)
#
#
# Indices 1 2 3 4 5 6 
#
# 1 0.017564 -0.005902 -0.005494 -0.000008 0.005634 0.000005
# 2 -0.005902 0.011706 -0.001038 0.000003 -0.002898 -0.000003
# 3 -0.005494 -0.001038 0.017250 0.000008 0.001749 -0.000001
# 4 -0.000008 0.000003 0.000008 0.034019 -0.000010 -0.001588
# 5 0.005634 -0.002898 0.001749 -0.000010 0.033374 0.000005
# 6 0.000005 -0.000003 -0.000001 -0.001588 0.000005 0.026598
#
#
# Mechanical properties :
#
#
# Convention : Reuss Voigt Hill
#
# Bulk Modulus (GPa) = 46.18700 49.96317 48.07509
# Shear Modulus (GPa) = 28.96912 31.28352 30.12632
#
# Velocity S-wave (km/s) = 3.80139 3.95032 3.87657
# Velocity P-wave (km/s) = 6.50436 6.76237 6.63462
#
# Compressibility (1/GPa) = 0.02165111
#
# Stress axis : x y z
#
# Youngs Moduli (GPa) = 56.93492 85.42268 57.96981
#
# Poissons Ratio (x) = 0.50421 0.31849
# Poissons Ratio (y) = 0.33606 0.06018
# Poissons Ratio (z) = 0.31281 0.08869
#
# Static dielectric constant tensor:
#      x y z
#    x 3.527480 0.000030 -0.031230 
#    y 0.000030 3.758030 0.000010 
#    z -0.031230 0.000010 4.157710 
# 
# 
# High freq. dielectric constant tensor:
#      x y z
#    x 1.757190 0.000000 -0.000620 
#    y 0.000000 1.794210 0.000000 
#    z -0.000620 0.000000 1.787820 
# 
# From -- ./inp_files/190459.got.cif
#   From: 2010.06.25/outbox.cif.g09.slc.cpg/sg15_96_cif.got.tgz:190459.got - 2010.06.28 07:06:18.
