data_PCOD8136005
_publ_section_title
;
Structure prediction by ZEFSAII (Michael W. Deem and Ramdas Pophale) SiO2 
 PCOD8136005
Probable space group: C 2/C
;
_chemical_formula_sum "Si O2"
_cell_formula_units_Z 56
_cell_length_a 16.097011
_cell_length_b 10.779085
_cell_length_c 21.271063
_cell_angle_alpha 90.000000
_cell_angle_beta 43.349524
_cell_angle_gamma 90.000000
_cell_volume 2533.514760
_symmetry_space_group_name_H-M "C 2/C"
_symmetry_group_IT_number 15
_symmetry_cell_setting 'monoclinic'
loop_
_space_group_symop_operation_xyz
x,y,z
-x,y,1/2-z
-x,-y,-z
x,-y,1/2+z
1/2+x,1/2+y,z
1/2-x,1/2+y,1/2-z
1/2-x,1/2-y,-z
1/2+x,1/2-y,1/2+z
loop_
_atom_site_type_symbol
_atom_site_label
_atom_site_fract_x
_atom_site_fract_y
_atom_site_fract_z
Si Si1 0.946316 0.491921 0.619115
Si Si2 0.119205 0.732829 0.421239
Si Si3 0.755266 0.132148 0.846534
Si Si4 0.403731 0.436438 0.159568
Si Si5 0.286595 0.063554 0.036431
Si Si6 0.640757 0.556294 0.995928
Si Si7 0.730952 0.915944 0.680126
O O1 0.968896 0.375986 0.557390
O O2 0.854344 0.589430 0.638491
O O3 0.896193 0.443353 0.714260
O O4 0.072534 0.560925 0.561765
O O5 0.158115 0.815655 0.340154
O O6 0.229262 0.661998 0.396986
O O7 0.067591 0.831034 0.501600
O O8 0.881057 0.084392 0.745699
O O9 0.750394 0.072805 0.918561
O O10 0.759358 0.278632 0.852318
O O11 0.545435 0.447789 0.065228
O O12 0.336313 0.560725 0.173379
O O13 0.202947 0.106056 0.025081
O O14 0.746639 0.505152 0.892271
#
# Coordination Sequence:
#
# PCOD8136005 Si02
#       7
#     8   8   8   8   8   8   8
#     4  10  22  38  65  90 117 157 211 244 293 353
#     4  10  19  42  65  85 117 159 206 249 280 354
#     4  10  21  39  64  88 118 159 207 249 289 353
#     4  10  22  38  65  90 117 157 211 244 293 353
#     4  11  25  39  60  94 127 157 192 247 313 358
#     4  11  25  39  60  94 127 157 192 247 313 358
#     4  10  21  39  64  88 118 159 207 249 289 353
#
# _framework density 22.103681000000002
#
# number of rings (size 3 to 8) (size 9 to 14) (size 15 to 20)
#    0.000    1.714    1.429    3.857    8.000    1.714 
#    0.000    1.429    0.000    6.857    0.000    0.000 
#    0.000    0.000    0.000    0.000    0.000    0.000 
#
# Total GULP energy -346905.743263 kJ/mol
# GULP energy per Si atom -12389.490831 kJ/mol
# Density = 2.205337 g / cm^3
# Si number density = 22.103681 Si / 1000 Ang^3
#
#
#
# Elastic Constant Matrix: (Units=GPa)
#
#
# Indices 1 2 3 4 5 6 
#
# 1 58.9833 2.0569 32.2519 0.0000 3.9624 0.0000
# 2 2.0569 81.7267 18.0852 0.0000 -2.1787 0.0000
# 3 32.2519 18.0852 93.5243 0.0000 2.4208 0.0000
# 4 0.0000 0.0000 0.0000 24.2405 0.0000 4.3912
# 5 3.9624 -2.1787 2.4208 0.0000 18.2854 0.0000
# 6 0.0000 0.0000 0.0000 4.3912 0.0000 19.0365
#
#
#
# Elastic Compliance Matrix: (Units=1/GPa)
#
#
# Indices 1 2 3 4 5 6 
#
# 1 0.021211 0.001015 -0.007420 0.000000 -0.003493 0.000000
# 2 0.001015 0.012895 -0.002888 0.000000 0.001699 0.000000
# 3 -0.007420 -0.002888 0.013824 0.000000 -0.000566 0.000000
# 4 0.000000 0.000000 0.000000 0.043052 0.000000 -0.009931
# 5 -0.003493 0.001699 -0.000566 0.000000 0.055723 0.000000
# 6 0.000000 0.000000 0.000000 -0.009931 0.000000 0.054821
#
#
# Mechanical properties :
#
#
# Convention : Reuss Voigt Hill
#
# Bulk Modulus (GPa) = 34.07849 37.66914 35.87381
# Shear Modulus (GPa) = 21.74925 24.43516 23.09221
#
# Velocity S-wave (km/s) = 3.14022 3.32848 3.23572
# Velocity P-wave (km/s) = 5.34781 5.64365 5.49772
#
# Compressibility (1/GPa) = 0.02934403
#
# Stress axis : x y z
#
# Youngs Moduli (GPa) = 47.14614 77.55172 72.33606
#
# Poissons Ratio (x) = -0.07872 0.53676
# Poissons Ratio (y) = -0.04786 0.20887
# Poissons Ratio (z) = 0.34984 0.22393
#
# Static dielectric constant tensor:
#      x y z
#    x 3.570050 0.000000 0.245620 
#    y 0.000000 4.158040 0.000000 
#    z 0.245620 0.000000 4.041280 
# 
# 
# High freq. dielectric constant tensor:
#      x y z
#    x 1.826060 0.000000 0.023870 
#    y 0.000000 1.879210 0.000000 
#    z 0.023870 0.000000 1.866470 
# 
# From -- ./inp_files/277037.got.cif
#   From: 2010.06.25/outbox.cif.g09.slc.cpg/sg15_139_cif.got.tgz:277037.got - 2010.06.28 07:06:18.
