data_PCOD8136066
_publ_section_title
;
Structure prediction by ZEFSAII (Michael W. Deem and Ramdas Pophale) SiO2 
 PCOD8136066
Probable space group: C 2/C
;
_chemical_formula_sum "Si O2"
_cell_formula_units_Z 40
_cell_length_a 18.254516
_cell_length_b 12.251310
_cell_length_c 13.359074
_cell_angle_alpha 90.000000
_cell_angle_beta 125.702862
_cell_angle_gamma 90.000000
_cell_volume 2426.131401
_symmetry_space_group_name_H-M "C 2/C"
_symmetry_group_IT_number 15
_symmetry_cell_setting 'monoclinic'
loop_
_space_group_symop_operation_xyz
x,y,z
-x,y,1/2-z
-x,-y,-z
x,-y,1/2+z
1/2+x,1/2+y,z
1/2-x,1/2+y,1/2-z
1/2-x,1/2-y,-z
1/2+x,1/2-y,1/2+z
loop_
_atom_site_type_symbol
_atom_site_label
_atom_site_fract_x
_atom_site_fract_y
_atom_site_fract_z
Si Si1 0.410121 0.464146 0.733470
Si Si2 0.064571 0.856817 0.545080
Si Si3 0.243115 0.808169 0.600419
Si Si4 0.367506 0.667575 0.825548
Si Si5 0.171354 0.966437 0.031504
O O1 0.500000 0.503448 0.750000
O O2 0.427511 0.368847 0.828081
O O3 0.362364 0.569224 0.742617
O O4 0.343438 0.421014 0.592271
O O5 0.145372 0.778132 0.570740
O O6 0.078091 0.976939 0.502897
O O7 0.969981 0.803258 0.438242
O O8 0.250000 0.750000 0.500000
O O9 0.322771 0.772602 0.738626
O O10 0.249417 0.940462 0.594379
O O11 0.309064 0.633900 0.877707
#
# Coordination Sequence:
#
# PCOD8136066 Si02
#       5
#     8   8   8   8   8
#     4  11  14  27  51  72  95 120 153 206 250 283
#     4   9  19  28  45  78  94 124 163 193 251 279
#     4  10  20  29  45  74 100 127 158 198 242 292
#     4  11  17  30  50  69 108 120 155 209 235 288
#     4   9  18  29  47  75  94 126 157 196 251 275
#
# _framework density 16.487154
#
# number of rings (size 3 to 8) (size 9 to 14) (size 15 to 20)
#    1.200    0.800    6.000    1.200    0.000    0.000 
#    0.000    1.000    0.000    1.200    0.000    0.000 
#    0.000    0.000    0.000    0.000    0.000    0.000 
#
# Total GULP energy -247785.538101 kJ/mol
# GULP energy per Si atom -12389.276905 kJ/mol
# Density = 1.644963 g / cm^3
# Si number density = 16.487154 Si / 1000 Ang^3
#
#
#
# Elastic Constant Matrix: (Units=GPa)
#
#
# Indices 1 2 3 4 5 6 
#
# 1 58.0318 20.3517 48.3911 0.0000 -9.4237 0.0000
# 2 20.3517 26.4562 40.7812 0.0000 4.2761 0.0000
# 3 48.3911 40.7812 148.8173 0.0000 -11.5053 0.0000
# 4 0.0000 0.0000 0.0000 26.5360 0.0000 0.8493
# 5 -9.4237 4.2761 -11.5053 0.0000 29.9204 0.0000
# 6 0.0000 0.0000 0.0000 0.8493 0.0000 21.0348
#
#
#
# Elastic Compliance Matrix: (Units=1/GPa)
#
#
# Indices 1 2 3 4 5 6 
#
# 1 0.027990 -0.017876 -0.003426 0.000000 0.010053 0.000000
# 2 -0.017876 0.086157 -0.019772 0.000000 -0.025547 0.000000
# 3 -0.003426 -0.019772 0.013797 0.000000 0.007052 0.000000
# 4 0.000000 0.000000 0.000000 0.037733 0.000000 -0.001524
# 5 0.010053 -0.025547 0.007052 0.000000 0.042951 0.000000
# 6 0.000000 0.000000 0.000000 -0.001524 0.000000 0.047602
#
#
# Mechanical properties :
#
#
# Convention : Reuss Voigt Hill
#
# Bulk Modulus (GPa) = 21.83595 50.26149 36.04872
# Shear Modulus (GPa) = 14.13850 23.75032 18.94441
#
# Velocity S-wave (km/s) = 2.93157 3.79956 3.39343
# Velocity P-wave (km/s) = 4.97310 7.05693 6.10459
#
# Compressibility (1/GPa) = 0.04579604
#
# Stress axis : x y z
#
# Youngs Moduli (GPa) = 35.72678 11.60673 72.47889
#
# Poissons Ratio (x) = 0.20748 0.24829
# Poissons Ratio (y) = 0.63866 1.43308
# Poissons Ratio (z) = 0.12239 0.22949
#
# Static dielectric constant tensor:
#      x y z
#    x 3.006550 0.000000 -0.254770 
#    y 0.000000 2.603070 0.000000 
#    z -0.254770 0.000000 3.299050 
# 
# 
# High freq. dielectric constant tensor:
#      x y z
#    x 1.619250 0.000000 -0.024180 
#    y 0.000000 1.569390 0.000000 
#    z -0.024180 0.000000 1.652270 
# 
# From -- ./inp_files/97573.got.cif
#   From: 2010.06.25/outbox.cif.g09.slc.cpg/sg15_49_cif.got.tgz:97573.got - 2010.06.28 07:06:18.
