data_PCOD8136819
_publ_section_title
;
Structure prediction by ZEFSAII (Michael W. Deem and Ramdas Pophale) SiO2 
 PCOD8136819
Probable space group: C 2/C
;
_chemical_formula_sum "Si O2"
_cell_formula_units_Z 64
_cell_length_a 22.032875
_cell_length_b 13.928170
_cell_length_c 21.300225
_cell_angle_alpha 90.000000
_cell_angle_beta 146.864670
_cell_angle_gamma 90.000000
_cell_volume 3573.005455
_symmetry_space_group_name_H-M "C 2/C"
_symmetry_group_IT_number 15
_symmetry_cell_setting 'monoclinic'
loop_
_space_group_symop_operation_xyz
x,y,z
-x,y,1/2-z
-x,-y,-z
x,-y,1/2+z
1/2+x,1/2+y,z
1/2-x,1/2+y,1/2-z
1/2-x,1/2-y,-z
1/2+x,1/2-y,1/2+z
loop_
_atom_site_type_symbol
_atom_site_label
_atom_site_fract_x
_atom_site_fract_y
_atom_site_fract_z
Si Si1 0.244210 0.295565 0.565093
Si Si2 0.684653 0.560088 0.129671
Si Si3 0.665153 0.462960 0.241878
Si Si4 0.980762 0.809732 0.438670
Si Si5 0.460054 0.408217 0.780885
Si Si6 0.616428 0.042693 0.025053
Si Si7 0.622712 0.641948 0.523769
Si Si8 0.072784 0.601258 0.127415
O O1 0.250000 0.250000 0.500000
O O2 0.363799 0.332272 0.686959
O O3 0.153430 0.382354 0.501507
O O4 0.224917 0.212961 0.599941
O O5 0.655840 0.538733 0.176854
O O6 0.671832 0.462596 0.079552
O O7 0.811021 0.597736 0.233994
O O8 0.598056 0.637733 0.026997
O O9 0.627414 0.358046 0.187549
O O10 0.575068 0.496871 0.213398
O O11 0.787166 0.463640 0.378046
O O12 0.957701 0.815266 0.492800
O O13 0.987591 0.703494 0.415882
O O14 0.500000 0.449439 0.750000
O O15 0.557167 0.354163 0.901519
O O16 0.592916 0.095426 0.070318
O O17 0.505706 0.982514 0.911633
#
# Coordination Sequence:
#
# PCOD8136819 Si02
#       8
#     8   8   8   8   8   8   8   8
#     4  11  22  35  56  84 113 155 195 227 281 349
#     4  10  20  35  53  79 113 142 190 237 287 340
#     4   9  18  34  53  79 109 145 186 241 280 330
#     4  11  19  32  59  81 111 147 194 234 286 348
#     4  11  20  34  54  79 114 144 191 231 278 334
#     4   9  20  37  49  80 122 146 188 235 290 340
#     4  11  20  36  52  81 113 151 187 236 279 337
#     4  10  21  34  53  83 113 153 181 233 300 344
#
# _framework density 17.912092000000001
#
# number of rings (size 3 to 8) (size 9 to 14) (size 15 to 20)
#    0.000    1.750    5.000    0.750    1.750    1.000 
#    2.250    0.000    0.000    0.000    3.250    3.500 
#    0.000    0.000    0.000    0.000    0.000    0.000 
#
# Total GULP energy -396559.357130 kJ/mol
# GULP energy per Si atom -12392.479910 kJ/mol
# Density = 1.787132 g / cm^3
# Si number density = 17.912092 Si / 1000 Ang^3
#
#
#
# Elastic Constant Matrix: (Units=GPa)
#
#
# Indices 1 2 3 4 5 6 
#
# 1 77.7621 36.3802 30.9828 0.0000 1.4481 0.0000
# 2 36.3802 108.6279 46.2816 0.0000 9.8470 0.0000
# 3 30.9828 46.2816 89.3927 0.0001 11.6251 0.0000
# 4 0.0000 0.0000 0.0001 18.6262 0.0000 2.2964
# 5 1.4481 9.8470 11.6251 0.0000 24.4262 0.0000
# 6 0.0000 0.0000 0.0000 2.2964 0.0000 27.6901
#
#
#
# Elastic Compliance Matrix: (Units=1/GPa)
#
#
# Indices 1 2 3 4 5 6 
#
# 1 0.016234 -0.004013 -0.003874 0.000000 0.002499 0.000000
# 2 -0.004013 0.012893 -0.004945 0.000000 -0.002606 0.000000
# 3 -0.003874 -0.004945 0.015777 0.000000 -0.005285 0.000000
# 4 0.000000 0.000000 0.000000 0.054243 0.000000 -0.004498
# 5 0.002499 -0.002606 -0.005285 0.000000 0.044358 0.000000
# 6 0.000000 0.000000 0.000000 -0.004498 0.000000 0.036487
#
#
# Mechanical properties :
#
#
# Convention : Reuss Voigt Hill
#
# Bulk Modulus (GPa) = 51.97628 55.89687 53.93657
# Shear Modulus (GPa) = 23.57724 24.95769 24.26747
#
# Velocity S-wave (km/s) = 3.63199 3.73680 3.68477
# Velocity P-wave (km/s) = 6.83146 7.06344 6.94842
#
# Compressibility (1/GPa) = 0.01923955
#
# Stress axis : x y z
#
# Youngs Moduli (GPa) = 61.59870 77.56203 63.38345
#
# Poissons Ratio (x) = 0.31125 0.24555
# Poissons Ratio (y) = 0.24719 0.31345
# Poissons Ratio (z) = 0.23863 0.38357
#
# Static dielectric constant tensor:
#      x y z
#    x 3.453340 0.000000 -0.065280 
#    y 0.000000 3.206230 0.000000 
#    z -0.065280 0.000000 3.601760 
# 
# 
# High freq. dielectric constant tensor:
#      x y z
#    x 1.669280 0.000000 0.017010 
#    y 0.000000 1.685920 0.000000 
#    z 0.017010 0.000000 1.693460 
# 
# From -- ./inp_files/281959.got.cif
#   From: 2010.06.25/outbox.cif.g09.slc.cpg/sg15_141_cif.got.tgz:281959.got - 2010.06.28 07:06:18.
