data_PCOD8136398
_publ_section_title
;
Structure prediction by ZEFSAII (Michael W. Deem and Ramdas Pophale) SiO2 
 PCOD8136398
Probable space group: C 2/C
;
_chemical_formula_sum "Si O2"
_cell_formula_units_Z 64
_cell_length_a 8.878692
_cell_length_b 20.035542
_cell_length_c 24.330340
_cell_angle_alpha 90.000000
_cell_angle_beta 130.443654
_cell_angle_gamma 90.000000
_cell_volume 3293.883163
_symmetry_space_group_name_H-M "C 2/C"
_symmetry_group_IT_number 15
_symmetry_cell_setting 'monoclinic'
loop_
_space_group_symop_operation_xyz
x,y,z
-x,y,1/2-z
-x,-y,-z
x,-y,1/2+z
1/2+x,1/2+y,z
1/2-x,1/2+y,1/2-z
1/2-x,1/2-y,-z
1/2+x,1/2-y,1/2+z
loop_
_atom_site_type_symbol
_atom_site_label
_atom_site_fract_x
_atom_site_fract_y
_atom_site_fract_z
Si Si1 0.722574 0.006784 0.071162
Si Si2 0.469653 0.632221 0.098694
Si Si3 0.484263 0.752656 0.312301
Si Si4 0.334444 0.641792 0.756381
Si Si5 0.254236 0.352627 0.441301
Si Si6 0.666043 0.040738 0.331560
Si Si7 0.937163 0.459900 0.359239
Si Si8 0.057623 0.920125 0.111664
O O1 0.724613 0.986177 0.135596
O O2 0.844806 0.954874 0.063170
O O3 0.814375 0.079743 0.086771
O O4 0.500000 0.000000 0.000000
O O5 0.523692 0.680522 0.161685
O O6 0.669774 0.598294 0.122919
O O7 0.366497 0.671689 0.023210
O O8 0.500000 0.747163 0.250000
O O9 0.278677 0.788622 0.277306
O O10 0.664319 0.792876 0.383579
O O11 0.500000 0.638326 0.750000
O O12 0.183109 0.579674 0.715913
O O13 0.430329 0.637475 0.839380
O O14 0.418226 0.388989 0.442637
O O15 0.091481 0.406998 0.422300
O O16 0.500000 0.065658 0.250000
O O17 0.556036 0.023299 0.362856
O O18 0.769980 0.973459 0.334683
#
# Coordination Sequence:
#
# PCOD8136398 Si02
#       8
#     8   8   8   8   8   8   8   8
#     4  11  22  37  58  94 131 156 192 253 322 379
#     4  11  25  40  61  91 128 169 199 250 325 380
#     4  11  24  43  65  86 118 169 219 263 302 361
#     4  11  20  37  64  91 115 156 215 268 293 350
#     4  10  21  40  64  87 121 160 215 255 297 374
#     4  10  21  35  58  90 127 158 196 248 310 378
#     4  10  20  33  61  90 121 156 201 253 308 355
#     4  10  20  35  63  93 118 156 210 251 305 358
#
# _framework density 19.429953999999999
#
# number of rings (size 3 to 8) (size 9 to 14) (size 15 to 20)
#    0.000    1.500    5.000    0.375    1.750    3.000 
#    0.000    0.000    0.000    1.500    0.000    0.000 
#    0.000    0.000    0.000    0.000    0.000    0.000 
#
# Total GULP energy -396712.596761 kJ/mol
# GULP energy per Si atom -12397.268649 kJ/mol
# Density = 1.938573 g / cm^3
# Si number density = 19.429954 Si / 1000 Ang^3
#
#
#
# Elastic Constant Matrix: (Units=GPa)
#
#
# Indices 1 2 3 4 5 6 
#
# 1 115.4338 38.7667 24.9580 0.0000 1.9682 0.0000
# 2 38.7667 89.7959 32.3138 0.0000 -1.7858 0.0000
# 3 24.9580 32.3138 93.0237 0.0000 -5.6341 0.0000
# 4 0.0000 0.0000 0.0000 21.4530 0.0000 -5.6643
# 5 1.9682 -1.7858 -5.6341 0.0000 31.9178 0.0000
# 6 0.0000 0.0000 0.0000 -5.6643 0.0000 24.7926
#
#
#
# Elastic Compliance Matrix: (Units=1/GPa)
#
#
# Indices 1 2 3 4 5 6 
#
# 1 0.010326 -0.003953 -0.001465 0.000000 -0.001117 0.000000
# 2 -0.003953 0.014241 -0.003865 0.000000 0.000358 0.000000
# 3 -0.001465 -0.003865 0.012613 0.000000 0.002100 0.000000
# 4 0.000000 0.000000 0.000000 0.049606 0.000000 0.011333
# 5 -0.001117 0.000358 0.002100 0.000000 0.031790 0.000000
# 6 0.000000 0.000000 0.000000 0.011333 0.000000 0.042924
#
#
# Mechanical properties :
#
#
# Convention : Reuss Voigt Hill
#
# Bulk Modulus (GPa) = 53.72133 54.48116 54.10125
# Shear Modulus (GPa) = 26.84277 29.11367 27.97822
#
# Velocity S-wave (km/s) = 3.72091 3.87511 3.79879
# Velocity P-wave (km/s) = 6.79477 6.93704 6.86628
#
# Compressibility (1/GPa) = 0.01861458
#
# Stress axis : x y z
#
# Youngs Moduli (GPa) = 96.83964 70.22069 79.28560
#
# Poissons Ratio (x) = 0.27759 0.11615
# Poissons Ratio (y) = 0.38282 0.30640
# Poissons Ratio (z) = 0.14187 0.27137
#
# Static dielectric constant tensor:
#      x y z
#    x 3.830700 0.000000 -0.030530 
#    y 0.000000 3.338120 0.000000 
#    z -0.030530 0.000000 3.530900 
# 
# 
# High freq. dielectric constant tensor:
#      x y z
#    x 1.765810 0.000000 -0.001550 
#    y 0.000000 1.728460 0.000000 
#    z -0.001550 0.000000 1.758670 
# 
# From -- ./inp_files/266147.got.cif
#   From: 2010.06.25/outbox.cif.g09.slc.cpg/sg15_134_cif.got.tgz:266147.got - 2010.06.28 07:06:18.
