data_PCOD8136284
_publ_section_title
;
Structure prediction by ZEFSAII (Michael W. Deem and Ramdas Pophale) SiO2 
 PCOD8136284
Probable space group: C 2/C
;
_chemical_formula_sum "Si O2"
_cell_formula_units_Z 40
_cell_length_a 9.602250
_cell_length_b 20.455247
_cell_length_c 8.870013
_cell_angle_alpha 90.000000
_cell_angle_beta 82.586535
_cell_angle_gamma 90.000000
_cell_volume 1727.652566
_symmetry_space_group_name_H-M "C 2/C"
_symmetry_group_IT_number 15
_symmetry_cell_setting 'monoclinic'
loop_
_space_group_symop_operation_xyz
x,y,z
-x,y,1/2-z
-x,-y,-z
x,-y,1/2+z
1/2+x,1/2+y,z
1/2-x,1/2+y,1/2-z
1/2-x,1/2-y,-z
1/2+x,1/2-y,1/2+z
loop_
_atom_site_type_symbol
_atom_site_label
_atom_site_fract_x
_atom_site_fract_y
_atom_site_fract_z
Si Si1 0.978316 0.764984 0.921318
Si Si2 0.346551 0.952574 0.199578
Si Si3 0.148954 0.577731 0.150817
Si Si4 0.653750 0.777636 0.655725
Si Si5 0.747469 0.825022 0.135849
O O1 0.893970 0.694471 0.938590
O O2 0.000000 0.790223 0.750000
O O3 0.886199 0.821530 0.013972
O O4 0.126674 0.752865 0.989878
O O5 0.500000 0.949726 0.250000
O O6 0.255085 0.894876 0.285007
O O7 0.273091 0.021486 0.260309
O O8 0.359270 0.947961 0.018994
O O9 0.221636 0.649209 0.142951
O O10 0.000000 0.587142 0.250000
O O11 0.500000 0.777615 0.750000
O O12 0.754102 0.731284 0.737622
#
# Coordination Sequence:
#
# PCOD8136284 Si02
#       5
#     8   8   8   8   8
#     4  10  20  34  54  83 114 143 182 230 274 323
#     4  11  21  34  53  81 115 144 177 222 275 336
#     4  10  20  33  52  77 112 146 173 222 284 332
#     4   9  19  36  54  80 113 143 179 222 272 329
#     4  10  21  35  56  84 114 148 183 223 278 329
#
# _framework density 23.152802000000001
#
# number of rings (size 3 to 8) (size 9 to 14) (size 15 to 20)
#    0.000    2.000    0.000    5.400    0.000    9.600 
#    0.000    0.000    0.000    0.000    0.000   49.000 
#    0.000    0.000    0.000    0.000    0.000    0.000 
#
# Total GULP energy -247889.514779 kJ/mol
# GULP energy per Si atom -12394.475739 kJ/mol
# Density = 2.310010 g / cm^3
# Si number density = 23.152802 Si / 1000 Ang^3
#
#
#
# Elastic Constant Matrix: (Units=GPa)
#
#
# Indices 1 2 3 4 5 6 
#
# 1 56.3610 12.0723 17.1591 0.0000 13.6523 0.0000
# 2 12.0723 185.5140 59.3734 0.0000 2.1656 0.0000
# 3 17.1591 59.3734 168.3536 0.0000 -8.8119 0.0000
# 4 0.0000 0.0000 0.0000 58.4643 0.0000 -20.4678
# 5 13.6523 2.1656 -8.8119 0.0000 37.3057 0.0000
# 6 0.0000 0.0000 0.0000 -20.4678 0.0000 44.6721
#
#
#
# Elastic Compliance Matrix: (Units=1/GPa)
#
#
# Indices 1 2 3 4 5 6 
#
# 1 0.020504 -0.000493 -0.002336 0.000000 -0.008027 0.000000
# 2 -0.000493 0.006116 -0.002142 0.000000 -0.000681 0.000000
# 3 -0.002336 -0.002142 0.007072 0.000000 0.002650 0.000000
# 4 0.000000 0.000000 0.000000 0.020372 0.000000 0.009334
# 5 -0.008027 -0.000681 0.002650 0.000000 0.030408 0.000000
# 6 0.000000 0.000000 0.000000 0.009334 0.000000 0.026662
#
#
# Mechanical properties :
#
#
# Convention : Reuss Voigt Hill
#
# Bulk Modulus (GPa) = 42.10626 65.27092 53.68859
# Shear Modulus (GPa) = 38.76141 49.53001 44.14571
#
# Velocity S-wave (km/s) = 4.09608 4.63024 4.37133
# Velocity P-wave (km/s) = 6.37152 7.53910 6.97977
#
# Compressibility (1/GPa) = 0.02374944
#
# Stress axis : x y z
#
# Youngs Moduli (GPa) = 48.77119 163.50268 141.39822
#
# Poissons Ratio (x) = 0.08059 0.33032
# Poissons Ratio (y) = 0.02404 0.30293
# Poissons Ratio (z) = 0.11394 0.35028
#
# Static dielectric constant tensor:
#      x y z
#    x 3.995580 0.000000 -0.020510 
#    y 0.000000 4.842760 0.000000 
#    z -0.020510 0.000000 4.820000 
# 
# 
# High freq. dielectric constant tensor:
#      x y z
#    x 1.883730 0.000000 -0.013450 
#    y 0.000000 1.903070 0.000000 
#    z -0.013450 0.000000 1.959290 
# 
# From -- ./inp_files/30265.got.cif
#   From: 2010.06.25/outbox.cif.g09.slc.cpg/sg15_16_cif.got.tgz:30265.got - 2010.06.28 07:06:18.
