data_PCOD8136067
_publ_section_title
;
Structure prediction by ZEFSAII (Michael W. Deem and Ramdas Pophale) SiO2 
 PCOD8136067
Probable space group: C 2/C
;
_chemical_formula_sum "Si O2"
_cell_formula_units_Z 64
_cell_length_a 23.688006
_cell_length_b 29.624433
_cell_length_c 18.367811
_cell_angle_alpha 90.000000
_cell_angle_beta 161.788110
_cell_angle_gamma 90.000000
_cell_volume 4028.380763
_symmetry_space_group_name_H-M "C 2/C"
_symmetry_group_IT_number 15
_symmetry_cell_setting 'monoclinic'
loop_
_space_group_symop_operation_xyz
x,y,z
-x,y,1/2-z
-x,-y,-z
x,-y,1/2+z
1/2+x,1/2+y,z
1/2-x,1/2+y,1/2-z
1/2-x,1/2-y,-z
1/2+x,1/2-y,1/2+z
loop_
_atom_site_type_symbol
_atom_site_label
_atom_site_fract_x
_atom_site_fract_y
_atom_site_fract_z
Si Si1 0.185283 0.060252 0.447214
Si Si2 0.340377 0.885065 0.267078
Si Si3 0.540722 0.613687 0.137476
Si Si4 0.832942 0.966819 0.803214
Si Si5 0.227241 0.202923 0.382748
Si Si6 0.474190 0.988681 0.795262
Si Si7 0.400687 0.201271 0.746061
Si Si8 0.897645 0.545002 0.350714
O O1 0.297007 0.082711 0.647762
O O2 0.133811 0.098132 0.326131
O O3 0.000000 0.037527 0.250000
O O4 0.321701 0.024060 0.581745
O O5 0.386168 0.835726 0.292040
O O6 0.509160 0.907665 0.514532
O O7 0.175620 0.885158 0.122173
O O8 0.608777 0.581213 0.157336
O O9 0.599076 0.664649 0.192730
O O10 0.793432 0.957979 0.840730
O O11 0.656598 0.987354 0.547686
O O12 0.000000 0.000000 0.000000
O O13 0.254307 0.193868 0.502481
O O14 0.407229 0.201013 0.556591
O O15 0.132883 0.251081 0.255716
O O16 0.500000 0.961802 0.750000
O O17 0.384684 0.956413 0.746918
O O18 0.000000 0.500000 0.500000
#
# Coordination Sequence:
#
# PCOD8136067 Si02
#       8
#     8   8   8   8   8   8   8   8
#     4  10  20  29  46  70  91 126 168 205 241 284
#     4  11  19  33  47  65  94 128 158 210 243 289
#     4  11  20  30  48  68  93 124 169 197 241 284
#     4  11  22  33  48  70  96 126 161 202 243 294
#     4  10  20  30  44  65  88 125 160 206 232 285
#     4  11  21  34  50  68  95 123 166 205 247 286
#     4  10  20  31  44  62  93 120 164 199 247 270
#     4  10  20  33  48  64  93 121 161 200 248 281
#
# _framework density 15.887276
#
# number of rings (size 3 to 8) (size 9 to 14) (size 15 to 20)
#    0.000    1.500    5.000    3.000    1.750    1.000 
#    0.000    0.000    0.000    0.000    0.000    0.000 
#    0.000    0.000    0.000   18.000    0.000    2.750 
#
# Total GULP energy -396587.542176 kJ/mol
# GULP energy per Si atom -12393.360693 kJ/mol
# Density = 1.585112 g / cm^3
# Si number density = 15.887276 Si / 1000 Ang^3
#
#
#
# Elastic Constant Matrix: (Units=GPa)
#
#
# Indices 1 2 3 4 5 6 
#
# 1 129.9088 44.1697 29.8999 -0.0053 8.4229 0.0062
# 2 44.1697 93.2868 30.3115 0.0025 6.0842 -0.0032
# 3 29.8999 30.3115 50.7350 -0.0047 14.4582 0.0030
# 4 -0.0053 0.0025 -0.0047 -9.2028 -0.0067 50.1193
# 5 8.4229 6.0842 14.4582 -0.0067 22.0720 0.0078
# 6 0.0062 -0.0032 0.0030 50.1193 0.0078 -40.6593
#
#
#
# Elastic Compliance Matrix: (Units=1/GPa)
#
#
# Indices 1 2 3 4 5 6 
#
# 1 0.009704 -0.003410 -0.003558 -0.000001 -0.000432 0.000001
# 2 -0.003410 0.014565 -0.007277 0.000000 0.002053 -0.000001
# 3 -0.003558 -0.007277 0.030979 0.000001 -0.016929 0.000001
# 4 -0.000001 0.000000 0.000001 0.019020 -0.000003 0.023445
# 5 -0.000432 0.002053 -0.016929 -0.000003 0.055995 0.000005
# 6 0.000001 -0.000001 0.000001 0.023445 0.000005 0.004305
#
#
# Mechanical properties :
#
#
# Convention : Reuss Voigt Hill
#
# Bulk Modulus (GPa) = 37.37350 53.63252 45.50301
# Shear Modulus (GPa) = 29.07340 5.74529 17.40935
#
# Velocity S-wave (km/s) = 4.28247 1.90372 3.31388
# Velocity P-wave (km/s) = 6.93022 6.21801 6.58375
#
# Compressibility (1/GPa) = 0.02675693
#
# Stress axis : x y z
#
# Youngs Moduli (GPa) = 103.04730 68.65756 32.27947
#
# Poissons Ratio (x) = 0.23415 0.11486
# Poissons Ratio (y) = 0.35143 0.23490
# Poissons Ratio (z) = 0.36668 0.49963
#
# Static dielectric constant tensor:
#      x y z
#    x 3.386160 0.000000 0.190180 
#    y 0.000000 2.964340 0.000000 
#    z 0.190180 0.000000 2.869900 
# 
# 
# High freq. dielectric constant tensor:
#      x y z
#    x 1.619430 0.000000 0.035120 
#    y 0.000000 1.589430 0.000000 
#    z 0.035120 0.000000 1.581210 
# 
# From -- ./inp_files/220495.got.cif
#   From: 2010.06.25/outbox.cif.g09.slc.cpg/sg15_111_cif.got.tgz:220495.got - 2010.06.28 07:06:18.
