data_PCOD8136404
_publ_section_title
;
Structure prediction by ZEFSAII (Michael W. Deem and Ramdas Pophale) SiO2 
 PCOD8136404
Probable space group: C 2/C
;
_chemical_formula_sum "Si O2"
_cell_formula_units_Z 56
_cell_length_a 8.105282
_cell_length_b 22.280039
_cell_length_c 16.393276
_cell_angle_alpha 90.000000
_cell_angle_beta 67.934076
_cell_angle_gamma 90.000000
_cell_volume 2743.553686
_symmetry_space_group_name_H-M "C 2/C"
_symmetry_group_IT_number 15
_symmetry_cell_setting 'monoclinic'
loop_
_space_group_symop_operation_xyz
x,y,z
-x,y,1/2-z
-x,-y,-z
x,-y,1/2+z
1/2+x,1/2+y,z
1/2-x,1/2+y,1/2-z
1/2-x,1/2-y,-z
1/2+x,1/2-y,1/2+z
loop_
_atom_site_type_symbol
_atom_site_label
_atom_site_fract_x
_atom_site_fract_y
_atom_site_fract_z
Si Si1 0.000000 0.291759 0.750000
Si Si2 0.500000 0.103336 0.750000
Si Si3 0.153892 0.095396 0.583448
Si Si4 0.228915 0.309491 0.313352
Si Si5 0.114230 0.301670 0.033274
Si Si6 0.319360 0.022931 0.068595
Si Si7 0.728707 0.583730 0.923087
Si Si8 0.479538 0.871950 0.909928
O O1 0.837674 0.247005 0.757054
O O2 0.052754 0.336654 0.667508
O O3 0.345404 0.145592 0.740861
O O4 0.391959 0.060162 0.833932
O O5 0.150530 0.151342 0.646018
O O6 0.291235 0.106036 0.482799
O O7 0.959579 0.083463 0.585620
O O8 0.211253 0.034661 0.622920
O O9 0.067418 0.278931 0.392232
O O10 0.207632 0.349054 0.074140
O O11 0.250000 0.250000 0.000000
O O12 0.073211 0.325793 0.952102
O O13 0.375515 0.073076 0.125754
O O14 0.209252 0.049005 0.011869
O O15 0.500000 0.000000 0.000000
#
# Coordination Sequence:
#
# PCOD8136404 Si02
#       8
#     4   4   8   8   8   8   8   8
#     4  12  24  38  57  90 131 156 196 252 314 362
#     4  10  20  38  51  88 125 152 198 240 314 352
#     4  10  20  39  63  87 114 153 215 246 284 362
#     4  10  23  35  57  87 115 161 192 243 296 356
#     4   9  20  35  56  82 113 157 199 237 288 362
#     4   9  18  40  62  83 113 156 202 247 291 360
#     4  10  20  33  62  89 114 152 200 249 300 350
#     4   9  22  37  57  86 120 157 195 245 309 350
#
# _framework density 20.411484000000002
#
# number of rings (size 3 to 8) (size 9 to 14) (size 15 to 20)
#    0.000    2.286    0.000    3.857    8.000    1.143 
#    0.000    6.429    0.000    3.429    0.000    0.000 
#    0.000    0.000    0.000    0.000    0.000    0.000 
#
# Total GULP energy -346888.389031 kJ/mol
# GULP energy per Si atom -12388.871037 kJ/mol
# Density = 2.036503 g / cm^3
# Si number density = 20.411484 Si / 1000 Ang^3
#
#
#
# Elastic Constant Matrix: (Units=GPa)
#
#
# Indices 1 2 3 4 5 6 
#
# 1 98.2771 22.9216 -1.1733 0.0000 -2.1333 0.0000
# 2 22.9216 67.7491 22.1494 0.0000 -13.4831 0.0000
# 3 -1.1733 22.1494 43.9230 0.0000 -2.9794 0.0000
# 4 0.0000 0.0000 0.0000 16.4109 0.0000 -12.1753
# 5 -2.1333 -13.4831 -2.9794 0.0000 19.7495 0.0000
# 6 0.0000 0.0000 0.0000 -12.1753 0.0000 17.7267
#
#
#
# Elastic Compliance Matrix: (Units=1/GPa)
#
#
# Indices 1 2 3 4 5 6 
#
# 1 0.011360 -0.005112 0.002756 0.000000 -0.001847 0.000000
# 2 -0.005112 0.022611 -0.010638 0.000000 0.013279 0.000000
# 3 0.002756 -0.010638 0.028019 0.000000 -0.002738 0.000000
# 4 0.000000 0.000000 0.000000 0.124247 0.000000 0.085337
# 5 -0.001847 0.013279 -0.002738 0.000000 0.059087 0.000000
# 6 0.000000 0.000000 0.000000 0.085337 0.000000 0.115024
#
#
# Mechanical properties :
#
#
# Convention : Reuss Voigt Hill
#
# Bulk Modulus (GPa) = 27.77575 33.08273 30.42924
# Shear Modulus (GPa) = 12.55216 21.84754 17.19985
#
# Velocity S-wave (km/s) = 2.48252 3.27518 2.90600
# Velocity P-wave (km/s) = 4.67490 5.52680 5.11860
#
# Compressibility (1/GPa) = 0.03600263
#
# Stress axis : x y z
#
# Youngs Moduli (GPa) = 88.02444 44.22700 35.68945
#
# Poissons Ratio (x) = 0.22610 -0.09837
# Poissons Ratio (y) = 0.45001 0.37966
# Poissons Ratio (z) = -0.24261 0.47048
#
# Static dielectric constant tensor:
#      x y z
#    x 3.857370 0.000000 0.137050 
#    y 0.000000 18.465640 0.000000 
#    z 0.137050 0.000000 3.329000 
# 
# 
# High freq. dielectric constant tensor:
#      x y z
#    x 1.809840 0.000000 0.003420 
#    y 0.000000 1.791730 0.000000 
#    z 0.003420 0.000000 1.776480 
# 
# From -- ./inp_files/137319.got.cif
#   From: 2010.06.25/outbox.cif.g09.slc.cpg/sg15_69_cif.got.tgz:137319.got - 2010.06.28 07:06:18.
