data_PCOD8136694
_publ_section_title
;
Structure prediction by ZEFSAII (Michael W. Deem and Ramdas Pophale) SiO2 
 PCOD8136694
Probable space group: C 2/C
;
_chemical_formula_sum "Si O2"
_cell_formula_units_Z 52
_cell_length_a 22.800911
_cell_length_b 21.635730
_cell_length_c 5.126947
_cell_angle_alpha 90.000000
_cell_angle_beta 120.027203
_cell_angle_gamma 90.000000
_cell_volume 2189.747807
_symmetry_space_group_name_H-M "C 2/C"
_symmetry_group_IT_number 15
_symmetry_cell_setting 'monoclinic'
loop_
_space_group_symop_operation_xyz
x,y,z
-x,y,1/2-z
-x,-y,-z
x,-y,1/2+z
1/2+x,1/2+y,z
1/2-x,1/2+y,1/2-z
1/2-x,1/2-y,-z
1/2+x,1/2-y,1/2+z
loop_
_atom_site_type_symbol
_atom_site_label
_atom_site_fract_x
_atom_site_fract_y
_atom_site_fract_z
Si Si1 0.568750 0.752876 0.046290
Si Si2 0.309477 0.387209 0.575165
Si Si3 0.453629 0.619432 0.399205
Si Si4 0.258133 0.322397 0.965292
Si Si5 0.000000 0.343098 0.250000
Si Si6 0.620382 0.142443 0.350106
Si Si7 0.178382 0.538579 0.800086
O O1 0.587294 0.685747 0.198103
O O2 0.557873 0.800802 0.253433
O O3 0.500000 0.736853 0.750000
O O4 0.618843 0.786389 0.954230
O O5 0.384352 0.420576 0.755125
O O6 0.304197 0.350427 0.293658
O O7 0.257395 0.444112 0.464059
O O8 0.293870 0.337855 0.771646
O O9 0.500000 0.609151 0.250000
O O10 0.500000 0.605205 0.750000
O O11 0.250000 0.250000 0.000000
O O12 0.184665 0.357673 0.799352
O O13 0.047548 0.379714 0.562714
O O14 0.631850 0.097401 0.622876
O O15 0.160967 0.484808 0.551072
#
# Coordination Sequence:
#
# PCOD8136694 Si02
#       7
#     8   8   8   8   4   8   8
#     4   9  19  34  54  90 129 173 197 238 301 388
#     4  11  24  41  64  95 128 167 217 265 324 385
#     4  11  22  38  63  97 137 172 202 240 310 402
#     4  11  23  37  61  97 134 172 207 262 315 390
#     4  10  20  34  60  84 134 164 208 248 318 380
#     4  10  23  37  62  89 125 169 219 265 323 381
#     4  11  25  46  68  88 117 167 227 287 337 370
#
# _framework density 23.747029000000001
#
# number of rings (size 3 to 8) (size 9 to 14) (size 15 to 20)
#    0.000    1.538    0.769    4.154    8.615    0.000 
#    0.000    0.769    0.000    2.769    0.000    0.000 
#    0.000    0.000    0.000    0.000    0.000    0.000 
#
# Total GULP energy -322151.993545 kJ/mol
# GULP energy per Si atom -12390.461290 kJ/mol
# Density = 2.369298 g / cm^3
# Si number density = 23.747029 Si / 1000 Ang^3
#
#
#
# Elastic Constant Matrix: (Units=GPa)
#
#
# Indices 1 2 3 4 5 6 
#
# 1 95.7528 -18.7063 37.3088 0.0000 -1.0629 0.0000
# 2 -18.7063 24.7074 6.4780 0.0000 -0.6010 0.0000
# 3 37.3088 6.4780 138.7278 0.0000 8.3417 0.0000
# 4 0.0000 0.0000 0.0000 27.7264 0.0000 -1.7912
# 5 -1.0629 -0.6010 8.3417 0.0000 39.6734 0.0000
# 6 0.0000 0.0000 0.0000 -1.7912 0.0000 20.6070
#
#
#
# Elastic Compliance Matrix: (Units=1/GPa)
#
#
# Indices 1 2 3 4 5 6 
#
# 1 0.014674 0.012358 -0.004617 0.000000 0.001551 0.000000
# 2 0.012358 0.051425 -0.005866 0.000000 0.002343 0.000000
# 3 -0.004617 -0.005866 0.008848 0.000000 -0.002073 0.000000
# 4 0.000000 0.000000 0.000000 0.036270 0.000000 0.003153
# 5 0.001551 0.002343 -0.002073 0.000000 0.025719 0.000000
# 6 0.000000 0.000000 0.000000 0.003153 0.000000 0.048801
#
#
# Mechanical properties :
#
#
# Convention : Reuss Voigt Hill
#
# Bulk Modulus (GPa) = 12.70675 34.37212 23.53943
# Shear Modulus (GPa) = 24.01313 33.20851 28.61082
#
# Velocity S-wave (km/s) = 3.18340 3.74361 3.47481
# Velocity P-wave (km/s) = 4.34448 5.76124 5.10227
#
# Compressibility (1/GPa) = 0.07869834
#
# Stress axis : x y z
#
# Youngs Moduli (GPa) = 68.14857 19.44582 113.01360
#
# Poissons Ratio (x) = -0.24031 0.52174
# Poissons Ratio (y) = -0.84217 0.66291
# Poissons Ratio (z) = 0.31462 0.11406
#
# Static dielectric constant tensor:
#      x y z
#    x 4.236280 0.000000 -0.002350 
#    y 0.000000 4.047770 0.000000 
#    z -0.002350 0.000000 4.663720 
# 
# 
# High freq. dielectric constant tensor:
#      x y z
#    x 1.942950 0.000000 0.002320 
#    y 0.000000 1.900930 0.000000 
#    z 0.002320 0.000000 1.960670 
# 
# From -- ./inp_files/16243.got.cif
#   From: 2010.06.25/outbox.cif.g09.slc.cpg/sg15_9_cif.got.tgz:16243.got - 2010.06.28 07:06:18.
