data_PCOD8136531
_publ_section_title
;
Structure prediction by ZEFSAII (Michael W. Deem and Ramdas Pophale) SiO2 
 PCOD8136531
Probable space group: C 2/C
;
_chemical_formula_sum "Si O2"
_cell_formula_units_Z 56
_cell_length_a 15.017243
_cell_length_b 24.704270
_cell_length_c 9.647186
_cell_angle_alpha 90.000000
_cell_angle_beta 124.239683
_cell_angle_gamma 90.000000
_cell_volume 2958.735454
_symmetry_space_group_name_H-M "C 2/C"
_symmetry_group_IT_number 15
_symmetry_cell_setting 'monoclinic'
loop_
_space_group_symop_operation_xyz
x,y,z
-x,y,1/2-z
-x,-y,-z
x,-y,1/2+z
1/2+x,1/2+y,z
1/2-x,1/2+y,1/2-z
1/2-x,1/2-y,-z
1/2+x,1/2-y,1/2+z
loop_
_atom_site_type_symbol
_atom_site_label
_atom_site_fract_x
_atom_site_fract_y
_atom_site_fract_z
Si Si1 0.534579 0.949682 0.121839
Si Si2 0.528590 0.855484 0.623732
Si Si3 0.375190 0.412463 0.098034
Si Si4 0.738606 0.317615 0.615078
Si Si5 0.761497 0.098165 0.781744
Si Si6 0.182643 0.296010 0.115452
Si Si7 0.071978 0.975976 0.941355
O O1 0.500000 0.957425 0.250000
O O2 0.662621 0.941350 0.228031
O O3 0.475738 0.898518 0.002766
O O4 0.500000 0.000000 0.000000
O O5 0.500000 0.881407 0.750000
O O6 0.647022 0.831553 0.719396
O O7 0.442964 0.807721 0.521876
O O8 0.500000 0.404688 0.250000
O O9 0.291086 0.406171 0.147564
O O10 0.351316 0.473615 0.028277
O O11 0.343427 0.369092 0.950269
O O12 0.746607 0.302140 0.461042
O O13 0.692119 0.267325 0.665539
O O14 0.729286 0.161973 0.773659
O O15 0.861793 0.077856 0.960957
O O16 0.000000 0.957270 0.750000
O O17 0.000000 0.000000 0.000000
#
# Coordination Sequence:
#
# PCOD8136531 Si02
#       7
#     8   8   8   8   8   8   8
#     4  11  25  38  57  83 109 149 192 232 281 341
#     4   9  18  36  55  82 115 143 186 234 279 337
#     4  10  20  34  55  88 119 146 189 235 283 342
#     4   9  17  30  57  83 112 145 184 233 284 326
#     4  10  21  38  57  79 121 148 183 239 286 331
#     4   8  17  32  53  84 111 147 182 233 281 330
#     4  11  21  37  56  83 116 153 186 231 282 342
#
# _framework density 18.927005999999999
#
# number of rings (size 3 to 8) (size 9 to 14) (size 15 to 20)
#    0.000    2.286    2.857    1.286    4.000    4.000 
#    0.000    0.000    0.000    4.286    0.000    0.000 
#    0.000    0.000    0.000    0.000    0.000    0.000 
#
# Total GULP energy -346957.570124 kJ/mol
# GULP energy per Si atom -12391.341790 kJ/mol
# Density = 1.888393 g / cm^3
# Si number density = 18.927006 Si / 1000 Ang^3
#
#
#
# Elastic Constant Matrix: (Units=GPa)
#
#
# Indices 1 2 3 4 5 6 
#
# 1 78.6104 31.0767 38.3330 0.0000 5.5373 0.0000
# 2 31.0767 130.3435 67.2764 0.0000 15.6908 0.0000
# 3 38.3330 67.2764 110.8937 0.0000 11.5610 0.0000
# 4 0.0000 0.0000 0.0000 25.2141 0.0000 3.9525
# 5 5.5373 15.6908 11.5610 0.0000 31.9200 0.0000
# 6 0.0000 0.0000 0.0000 3.9525 0.0000 23.8370
#
#
#
# Elastic Compliance Matrix: (Units=1/GPa)
#
#
# Indices 1 2 3 4 5 6 
#
# 1 0.015466 -0.001312 -0.004508 0.000000 -0.000405 0.000000
# 2 -0.001312 0.011595 -0.006246 0.000000 -0.003210 0.000000
# 3 -0.004508 -0.006246 0.014512 0.000000 -0.001403 0.000000
# 4 0.000000 0.000000 0.000000 0.040719 0.000000 -0.006752
# 5 -0.000405 -0.003210 -0.001403 0.000000 0.033485 0.000000
# 6 0.000000 0.000000 0.000000 -0.006752 0.000000 0.043071
#
#
# Mechanical properties :
#
#
# Convention : Reuss Voigt Hill
#
# Bulk Modulus (GPa) = 57.33740 65.91330 61.62535
# Shear Modulus (GPa) = 26.48375 28.40498 27.44436
#
# Velocity S-wave (km/s) = 3.74472 3.87817 3.81203
# Velocity P-wave (km/s) = 7.00407 7.41311 7.21149
#
# Compressibility (1/GPa) = 0.01744062
#
# Stress axis : x y z
#
# Youngs Moduli (GPa) = 64.65596 86.24169 68.90885
#
# Poissons Ratio (x) = 0.11313 0.31066
# Poissons Ratio (y) = 0.08482 0.43044
# Poissons Ratio (z) = 0.29148 0.53871
#
# Static dielectric constant tensor:
#      x y z
#    x 3.473760 0.000000 -0.129070 
#    y 0.000000 4.257100 0.000000 
#    z -0.129070 0.000000 3.787770 
# 
# 
# High freq. dielectric constant tensor:
#      x y z
#    x 1.722670 0.000000 0.022430 
#    y 0.000000 1.739510 0.000000 
#    z 0.022430 0.000000 1.715330 
# 
# From -- ./inp_files/42516.got.cif
#   From: 2010.06.25/outbox.cif.g09.slc.cpg/sg15_22_cif.got.tgz:42516.got - 2010.06.28 07:06:18.
