data_PCOD8136448
_publ_section_title
;
Structure prediction by ZEFSAII (Michael W. Deem and Ramdas Pophale) SiO2 
 PCOD8136448
Probable space group: C 2/C
;
_chemical_formula_sum "Si O2"
_cell_formula_units_Z 56
_cell_length_a 14.051230
_cell_length_b 24.085697
_cell_length_c 9.551021
_cell_angle_alpha 90.000000
_cell_angle_beta 66.318272
_cell_angle_gamma 90.000000
_cell_volume 2960.190119
_symmetry_space_group_name_H-M "C 2/C"
_symmetry_group_IT_number 15
_symmetry_cell_setting 'monoclinic'
loop_
_space_group_symop_operation_xyz
x,y,z
-x,y,1/2-z
-x,-y,-z
x,-y,1/2+z
1/2+x,1/2+y,z
1/2-x,1/2+y,1/2-z
1/2-x,1/2-y,-z
1/2+x,1/2-y,1/2+z
loop_
_atom_site_type_symbol
_atom_site_label
_atom_site_fract_x
_atom_site_fract_y
_atom_site_fract_z
Si Si1 0.279952 0.686962 0.961042
Si Si2 0.671937 0.107407 0.824349
Si Si3 0.822230 0.480377 0.942869
Si Si4 0.500000 0.938257 0.250000
Si Si5 0.764823 0.896469 0.708400
Si Si6 0.009398 0.934941 0.975240
Si Si7 0.198830 0.916130 0.514837
Si Si8 0.500000 0.360654 0.250000
O O1 0.192522 0.660602 0.910045
O O2 0.396993 0.677814 0.832556
O O3 0.250000 0.750000 0.000000
O O4 0.268811 0.660787 0.121895
O O5 0.556445 0.103224 0.826566
O O6 0.755441 0.111394 0.651654
O O7 0.683936 0.051393 0.906926
O O8 0.819627 0.437514 0.813486
O O9 0.920344 0.521389 0.877089
O O10 0.719916 0.517895 0.001169
O O11 0.743264 0.886800 0.886218
O O12 0.876272 0.924964 0.646405
O O13 0.984198 0.901595 0.130859
O O14 0.925970 0.911362 0.911634
O O15 0.000000 0.000000 0.000000
#
# Coordination Sequence:
#
# PCOD8136448 Si02
#       8
#     8   8   8   4   8   8   8   4
#     4  10  22  45  66  80 109 154 206 257 303 350
#     4  10  21  37  58  84 116 157 196 240 286 344
#     4  10  20  34  52  81 121 162 192 225 279 356
#     4  10  20  34  57  82 121 156 194 240 284 342
#     4  10  22  34  53  86 117 150 197 232 284 354
#     4  11  21  29  54  87 128 161 180 222 295 371
#     4  11  19  32  52  86 126 150 183 233 288 356
#     4  10  22  40  59  92 117 154 204 246 298 370
#
# _framework density 18.917704000000001
#
# number of rings (size 3 to 8) (size 9 to 14) (size 15 to 20)
#    0.000    1.714    2.857    2.571    2.000    1.143 
#    0.000    6.429    6.286    0.000    0.000    0.000 
#    0.000    0.000    0.000    0.000    0.000    0.000 
#
# Total GULP energy -346989.459932 kJ/mol
# GULP energy per Si atom -12392.480712 kJ/mol
# Density = 1.887465 g / cm^3
# Si number density = 18.917704 Si / 1000 Ang^3
#
#
#
# Elastic Constant Matrix: (Units=GPa)
#
#
# Indices 1 2 3 4 5 6 
#
# 1 113.1337 45.7199 30.8296 0.0000 7.1514 0.0000
# 2 45.7199 114.8442 35.7418 0.0000 2.5217 0.0000
# 3 30.8296 35.7418 92.3517 0.0000 16.4018 0.0000
# 4 0.0000 0.0000 0.0000 13.7773 0.0000 -1.6310
# 5 7.1514 2.5217 16.4018 0.0000 32.1134 0.0000
# 6 0.0000 0.0000 0.0000 -1.6310 0.0000 22.3244
#
#
#
# Elastic Compliance Matrix: (Units=1/GPa)
#
#
# Indices 1 2 3 4 5 6 
#
# 1 0.010960 -0.003708 -0.002026 0.000000 -0.001115 0.000000
# 2 -0.003708 0.011204 -0.003397 0.000000 0.001681 0.000000
# 3 -0.002026 -0.003397 0.013958 0.000000 -0.006411 0.000000
# 4 0.000000 0.000000 0.000000 0.073216 0.000000 0.005349
# 5 -0.001115 0.001681 -0.006411 0.000000 0.034530 0.000000
# 6 0.000000 0.000000 0.000000 0.005349 0.000000 0.045185
#
#
# Mechanical properties :
#
#
# Convention : Reuss Voigt Hill
#
# Bulk Modulus (GPa) = 55.98992 60.54579 58.26786
# Shear Modulus (GPa) = 23.44469 27.51225 25.47847
#
# Velocity S-wave (km/s) = 3.52419 3.81768 3.67387
# Velocity P-wave (km/s) = 6.79858 7.17685 6.99028
#
# Compressibility (1/GPa) = 0.01786036
#
# Stress axis : x y z
#
# Youngs Moduli (GPa) = 91.23905 89.25387 71.64587
#
# Poissons Ratio (x) = 0.33099 0.14512
# Poissons Ratio (y) = 0.33835 0.24336
# Poissons Ratio (z) = 0.18481 0.30317
#
# Static dielectric constant tensor:
#      x y z
#    x 3.832010 0.000000 0.172150 
#    y 0.000000 3.036950 0.000000 
#    z 0.172150 0.000000 3.705410 
# 
# 
# High freq. dielectric constant tensor:
#      x y z
#    x 1.749840 0.000000 0.013900 
#    y 0.000000 1.687710 0.000000 
#    z 0.013900 0.000000 1.743540 
# 
# From -- ./inp_files/42150.got.cif
#   From: 2010.06.25/outbox.cif.g09.slc.cpg/sg15_22_cif.got.tgz:42150.got - 2010.06.28 07:06:18.
