data_PCOD8136550
_publ_section_title
;
Structure prediction by ZEFSAII (Michael W. Deem and Ramdas Pophale) SiO2 
 PCOD8136550
Probable space group: C 2/C
;
_chemical_formula_sum "Si O2"
_cell_formula_units_Z 56
_cell_length_a 8.412798
_cell_length_b 26.673438
_cell_length_c 15.324714
_cell_angle_alpha 90.000000
_cell_angle_beta 121.870332
_cell_angle_gamma 90.000000
_cell_volume 2920.417468
_symmetry_space_group_name_H-M "C 2/C"
_symmetry_group_IT_number 15
_symmetry_cell_setting 'monoclinic'
loop_
_space_group_symop_operation_xyz
x,y,z
-x,y,1/2-z
-x,-y,-z
x,-y,1/2+z
1/2+x,1/2+y,z
1/2-x,1/2+y,1/2-z
1/2-x,1/2-y,-z
1/2+x,1/2-y,1/2+z
loop_
_atom_site_type_symbol
_atom_site_label
_atom_site_fract_x
_atom_site_fract_y
_atom_site_fract_z
Si Si1 0.192743 0.765145 0.341639
Si Si2 0.548078 0.986190 0.916289
Si Si3 0.294988 0.171239 0.707551
Si Si4 0.426354 0.307557 0.010896
Si Si5 0.123809 0.081293 0.043720
Si Si6 0.253090 0.058016 0.649967
Si Si7 0.671562 0.464640 0.735340
O O1 0.240866 0.809218 0.287675
O O2 0.361878 0.725323 0.407558
O O3 0.166551 0.789838 0.427348
O O4 0.000000 0.739023 0.250000
O O5 0.574297 0.033736 0.856417
O O6 0.735653 0.953505 0.970420
O O7 0.371987 0.952892 0.836111
O O8 0.500000 0.000000 0.000000
O O9 0.500000 0.193696 0.750000
O O10 0.305078 0.110785 0.709680
O O11 0.152036 0.191193 0.590802
O O12 0.341023 0.362092 0.972527
O O13 0.155746 0.076189 0.155418
O O14 0.912454 0.064463 0.966929
O O15 0.175110 0.021655 0.702302
O O16 0.500000 0.457103 0.750000
#
# Coordination Sequence:
#
# PCOD8136550 Si02
#       7
#     8   8   8   8   8   8   8
#     4   9  19  37  58  80 104 137 181 225 270 321
#     4  11  21  34  53  78 108 143 180 216 263 319
#     4  10  20  34  56  84 111 138 174 221 275 326
#     4   9  20  37  57  79 106 140 180 225 268 323
#     4  10  20  35  53  77 106 138 176 218 266 316
#     4  10  20  35  53  78 109 139 176 220 262 314
#     4  11  21  34  51  74 107 143 178 215 258 312
#
# _framework density 19.175339999999998
#
# number of rings (size 3 to 8) (size 9 to 14) (size 15 to 20)
#    0.000    2.000    0.000    6.000    0.000    6.857 
#    0.000    0.714    0.000    0.000    0.000    0.000 
#    0.000    0.000    0.000    0.000    0.000    0.000 
#
# Total GULP energy -347023.540802 kJ/mol
# GULP energy per Si atom -12393.697886 kJ/mol
# Density = 1.913170 g / cm^3
# Si number density = 19.175340 Si / 1000 Ang^3
#
#
#
# Elastic Constant Matrix: (Units=GPa)
#
#
# Indices 1 2 3 4 5 6 
#
# 1 103.6543 26.8718 40.4420 0.0000 2.5960 0.0000
# 2 26.8718 83.5020 37.1519 0.0000 4.7457 0.0000
# 3 40.4420 37.1519 106.5704 0.0000 3.2369 0.0000
# 4 0.0000 0.0000 0.0000 35.0198 0.0000 5.1205
# 5 2.5960 4.7457 3.2369 0.0000 36.3194 0.0000
# 6 0.0000 0.0000 0.0000 5.1205 0.0000 15.0288
#
#
#
# Elastic Compliance Matrix: (Units=1/GPa)
#
#
# Indices 1 2 3 4 5 6 
#
# 1 0.011631 -0.002094 -0.003677 0.000000 -0.000230 0.000000
# 2 -0.002094 0.014624 -0.004262 0.000000 -0.001381 0.000000
# 3 -0.003677 -0.004262 0.012273 0.000000 -0.000274 0.000000
# 4 0.000000 0.000000 0.000000 0.030052 0.000000 -0.010239
# 5 -0.000230 -0.001381 -0.000274 0.000000 0.027755 0.000000
# 6 0.000000 0.000000 0.000000 -0.010239 0.000000 0.070027
#
#
# Mechanical properties :
#
#
# Convention : Reuss Voigt Hill
#
# Bulk Modulus (GPa) = 54.16234 55.85090 55.00662
# Shear Modulus (GPa) = 25.96312 29.89100 27.92706
#
# Velocity S-wave (km/s) = 3.68365 3.95248 3.82043
# Velocity P-wave (km/s) = 6.81172 7.07242 6.94329
#
# Compressibility (1/GPa) = 0.01846301
#
# Stress axis : x y z
#
# Youngs Moduli (GPa) = 85.98042 68.37985 81.48166
#
# Poissons Ratio (x) = 0.14318 0.29958
# Poissons Ratio (y) = 0.18004 0.34724
# Poissons Ratio (z) = 0.31612 0.29141
#
# Static dielectric constant tensor:
#      x y z
#    x 1.677060 0.000000 -1.169440 
#    y 0.000000 3.444350 0.000000 
#    z -1.169440 0.000000 2.659890 
# 
# 
# High freq. dielectric constant tensor:
#      x y z
#    x 1.743910 0.000000 0.019160 
#    y 0.000000 1.724590 0.000000 
#    z 0.019160 0.000000 1.765660 
# 
# From -- ./inp_files/138695.got.cif
#   From: 2010.06.25/outbox.cif.g09.slc.cpg/sg15_70_cif.got.tgz:138695.got - 2010.06.28 07:06:18.
