data_PCOD8136215
_publ_section_title
;
Structure prediction by ZEFSAII (Michael W. Deem and Ramdas Pophale) SiO2 
 PCOD8136215
Probable space group: C 2/C
;
_chemical_formula_sum "Si O2"
_cell_formula_units_Z 44
_cell_length_a 17.645966
_cell_length_b 17.790207
_cell_length_c 13.842962
_cell_angle_alpha 90.000000
_cell_angle_beta 28.827006
_cell_angle_gamma 90.000000
_cell_volume 2095.331034
_symmetry_space_group_name_H-M "C 2/C"
_symmetry_group_IT_number 15
_symmetry_cell_setting 'monoclinic'
loop_
_space_group_symop_operation_xyz
x,y,z
-x,y,1/2-z
-x,-y,-z
x,-y,1/2+z
1/2+x,1/2+y,z
1/2-x,1/2+y,1/2-z
1/2-x,1/2-y,-z
1/2+x,1/2-y,1/2+z
loop_
_atom_site_type_symbol
_atom_site_label
_atom_site_fract_x
_atom_site_fract_y
_atom_site_fract_z
Si Si1 0.035910 0.492595 0.847532
Si Si2 0.269626 0.732694 0.755584
Si Si3 0.500000 0.206574 0.750000
Si Si4 0.708629 0.072472 0.498123
Si Si5 0.533137 0.824843 0.821129
Si Si6 0.422576 0.320555 0.678910
O O1 0.171846 0.549382 0.651684
O O2 0.097085 0.409680 0.753974
O O3 0.000000 0.500000 0.000000
O O4 0.869378 0.507491 0.979830
O O5 0.339573 0.769515 0.774401
O O6 0.398788 0.680256 0.559116
O O7 0.201775 0.800386 0.766207
O O8 0.129012 0.676474 0.938205
O O9 0.628666 0.152155 0.558368
O O10 0.408848 0.256172 0.774219
O O11 0.886696 0.095706 0.267310
O O12 0.500000 0.797129 0.750000
#
# Coordination Sequence:
#
# PCOD8136215 Si02
#       6
#     8   8   4   8   8   8
#     4  10  21  36  62  85 121 165 207 241 298 384
#     4  10  24  34  66  93 120 159 203 268 304 365
#     4  10  20  32  60  86 132 150 188 254 304 368
#     4  10  21  36  57  93 117 160 202 247 300 370
#     4  11  21  43  61  93 119 163 214 255 309 356
#     4  11  20  38  56  98 125 154 199 253 323 358
#
# _framework density 20.999068000000001
#
# number of rings (size 3 to 8) (size 9 to 14) (size 15 to 20)
#    0.000    1.818    3.636    2.182    7.636    0.000 
#    0.000    0.909    0.000    4.364    0.000    0.000 
#    0.000    0.000    0.000    0.000    0.000    0.000 
#
# Total GULP energy -272566.714762 kJ/mol
# GULP energy per Si atom -12389.396126 kJ/mol
# Density = 2.095127 g / cm^3
# Si number density = 20.999068 Si / 1000 Ang^3
#
#
#
# Elastic Constant Matrix: (Units=GPa)
#
#
# Indices 1 2 3 4 5 6 
#
# 1 106.2623 7.3183 19.1082 0.0016 18.8804 -0.0035
# 2 7.3183 70.5342 22.1646 -0.0049 3.5091 0.0011
# 3 19.1082 22.1646 98.0158 -0.0063 11.8083 0.0000
# 4 0.0016 -0.0049 -0.0063 27.2781 -0.0016 10.8839
# 5 18.8804 3.5091 11.8083 -0.0016 33.1848 0.0039
# 6 -0.0035 0.0011 0.0000 10.8839 0.0039 24.1691
#
#
#
# Elastic Compliance Matrix: (Units=1/GPa)
#
#
# Indices 1 2 3 4 5 6 
#
# 1 0.010663 -0.000417 -0.001315 -0.000003 -0.005554 0.000004
# 2 -0.000417 0.015283 -0.003352 0.000003 -0.000186 -0.000002
# 3 -0.001315 -0.003352 0.011581 0.000002 -0.003018 -0.000001
# 4 -0.000003 0.000003 0.000002 0.044689 0.000005 -0.020124
# 5 -0.005554 -0.000186 -0.003018 0.000005 0.034388 -0.000009
# 6 0.000004 -0.000002 -0.000001 -0.020124 -0.000009 0.050438
#
#
# Mechanical properties :
#
#
# Convention : Reuss Voigt Hill
#
# Bulk Modulus (GPa) = 36.55242 41.33270 38.94256
# Shear Modulus (GPa) = 26.83416 32.00783 29.42099
#
# Velocity S-wave (km/s) = 3.57861 3.90840 3.74714
# Velocity P-wave (km/s) = 5.87535 6.33193 6.10791
#
# Compressibility (1/GPa) = 0.02735797
#
# Stress axis : x y z
#
# Youngs Moduli (GPa) = 93.78400 65.43012 86.35183
#
# Poissons Ratio (x) = 0.02726 0.11358
# Poissons Ratio (y) = 0.03908 0.28949
# Poissons Ratio (z) = 0.12336 0.21935
#
# Static dielectric constant tensor:
#      x y z
#    x 3.833060 0.000000 0.143430 
#    y 0.000000 3.574220 0.000000 
#    z 0.143430 0.000000 4.068900 
# 
# 
# High freq. dielectric constant tensor:
#      x y z
#    x 1.820550 0.000000 0.017340 
#    y 0.000000 1.800380 0.000000 
#    z 0.017340 0.000000 1.820300 
# 
# From -- ./inp_files/39054.got.cif
#   From: 2010.06.25/outbox.cif.g09.slc.cpg/sg15_20_cif.got.tgz:39054.got - 2010.06.28 07:06:18.
