data_PCOD8136220
_publ_section_title
;
Structure prediction by ZEFSAII (Michael W. Deem and Ramdas Pophale) SiO2 
 PCOD8136220
Probable space group: C 2/C
;
_chemical_formula_sum "Si O2"
_cell_formula_units_Z 40
_cell_length_a 33.400223
_cell_length_b 9.775252
_cell_length_c 8.809682
_cell_angle_alpha 90.000000
_cell_angle_beta 143.267919
_cell_angle_gamma 90.000000
_cell_volume 1720.253582
_symmetry_space_group_name_H-M "C 2/C"
_symmetry_group_IT_number 15
_symmetry_cell_setting 'monoclinic'
loop_
_space_group_symop_operation_xyz
x,y,z
-x,y,1/2-z
-x,-y,-z
x,-y,1/2+z
1/2+x,1/2+y,z
1/2-x,1/2+y,1/2-z
1/2-x,1/2-y,-z
1/2+x,1/2-y,1/2+z
loop_
_atom_site_type_symbol
_atom_site_label
_atom_site_fract_x
_atom_site_fract_y
_atom_site_fract_z
Si Si1 0.934947 0.654497 0.838545
Si Si2 0.500000 0.549043 0.250000
Si Si3 0.811323 0.679125 0.872147
Si Si4 0.292470 0.899357 0.978823
Si Si5 0.500000 0.056391 0.750000
Si Si6 0.552050 0.334024 0.202299
O O1 0.856815 0.685785 0.616305
O O2 0.950943 0.643663 0.707825
O O3 0.950643 0.520773 0.985227
O O4 0.980940 0.773876 0.045936
O O5 0.556245 0.468630 0.319496
O O6 0.546562 0.636213 0.505674
O O7 0.770601 0.818489 0.786233
O O8 0.787005 0.610147 0.642940
O O9 0.797298 0.560107 0.952163
O O10 0.889453 0.722350 0.096633
#
# Coordination Sequence:
#
# PCOD8136220 Si02
#       6
#     8   4   8   8   4   8
#     4  11  20  37  62  91 124 163 215 270 325 385
#     4  10  24  40  62  96 132 170 218 274 338 396
#     4  11  26  45  68  98 137 180 226 277 337 401
#     4  11  25  44  66  99 137 179 226 279 336 400
#     4  10  20  32  60  94 120 150 208 278 326 370
#     4  11  23  41  65  94 130 173 220 274 332 397
#
# _framework density 23.252386999999999
#
# number of rings (size 3 to 8) (size 9 to 14) (size 15 to 20)
#    0.000    1.200    0.000    7.200    0.000    8.800 
#    0.000    0.000    0.000    0.000    0.000    0.000 
#    0.000    0.000    0.000    0.000    0.000    0.000 
#
# Total GULP energy -247902.180335 kJ/mol
# GULP energy per Si atom -12395.109017 kJ/mol
# Density = 2.319946 g / cm^3
# Si number density = 23.252387 Si / 1000 Ang^3
#
#
#
# Elastic Constant Matrix: (Units=GPa)
#
#
# Indices 1 2 3 4 5 6 
#
# 1 68.1309 3.2791 21.7443 0.0000 -2.2934 0.0000
# 2 3.2791 86.5612 35.9982 0.0000 6.8900 0.0000
# 3 21.7443 35.9982 87.5316 0.0000 3.9965 0.0000
# 4 0.0000 0.0000 0.0000 31.3689 0.0000 3.1029
# 5 -2.2934 6.8900 3.9965 0.0000 42.7666 0.0000
# 6 0.0000 0.0000 0.0000 3.1029 0.0000 52.7049
#
#
#
# Elastic Compliance Matrix: (Units=1/GPa)
#
#
# Indices 1 2 3 4 5 6 
#
# 1 0.016107 0.001191 -0.004541 0.000000 0.001096 0.000000
# 2 0.001191 0.014151 -0.006040 0.000000 -0.001651 0.000000
# 3 -0.004541 -0.006040 0.015068 0.000000 -0.000678 0.000000
# 4 0.000000 0.000000 0.000000 0.032065 0.000000 -0.001888
# 5 0.001096 -0.001651 -0.000678 0.000000 0.023771 0.000000
# 6 0.000000 0.000000 0.000000 -0.001888 0.000000 0.019085
#
#
# Mechanical properties :
#
#
# Convention : Reuss Voigt Hill
#
# Bulk Modulus (GPa) = 37.67232 40.47410 39.07321
# Shear Modulus (GPa) = 33.81249 37.44821 35.63035
#
# Velocity S-wave (km/s) = 3.81747 4.01747 3.91875
# Velocity P-wave (km/s) = 5.97222 6.24214 6.10867
#
# Compressibility (1/GPa) = 0.02654469
#
# Stress axis : x y z
#
# Youngs Moduli (GPa) = 62.08673 70.66758 66.36778
#
# Poissons Ratio (x) = -0.08417 0.30138
# Poissons Ratio (y) = -0.07395 0.40087
# Poissons Ratio (z) = 0.28194 0.42684
#
# Static dielectric constant tensor:
#      x y z
#    x 4.363580 0.000000 -0.076830 
#    y 0.000000 4.253100 0.000000 
#    z -0.076830 0.000000 4.168550 
# 
# 
# High freq. dielectric constant tensor:
#      x y z
#    x 1.925640 0.000000 -0.018370 
#    y 0.000000 1.917710 0.000000 
#    z -0.018370 0.000000 1.909980 
# 
# From -- ./inp_files/69253.got.cif
#   From: 2010.06.25/outbox.cif.g09.slc.cpg/sg15_35_cif.got.tgz:69253.got - 2010.06.28 07:06:18.
