data_PCOD8136946
_publ_section_title
;
Structure prediction by ZEFSAII (Michael W. Deem and Ramdas Pophale) SiO2 
 PCOD8136946
Probable space group: C 2/C
;
_chemical_formula_sum "Si O2"
_cell_formula_units_Z 64
_cell_length_a 22.095225
_cell_length_b 17.632241
_cell_length_c 20.497770
_cell_angle_alpha 90.000000
_cell_angle_beta 156.916223
_cell_angle_gamma 90.000000
_cell_volume 3131.003444
_symmetry_space_group_name_H-M "C 2/C"
_symmetry_group_IT_number 15
_symmetry_cell_setting 'monoclinic'
loop_
_space_group_symop_operation_xyz
x,y,z
-x,y,1/2-z
-x,-y,-z
x,-y,1/2+z
1/2+x,1/2+y,z
1/2-x,1/2+y,1/2-z
1/2-x,1/2-y,-z
1/2+x,1/2-y,1/2+z
loop_
_atom_site_type_symbol
_atom_site_label
_atom_site_fract_x
_atom_site_fract_y
_atom_site_fract_z
Si Si1 0.316781 0.077794 0.073257
Si Si2 0.822764 0.176012 0.944772
Si Si3 0.321605 0.084943 0.812923
Si Si4 0.334513 0.822361 0.710600
Si Si5 0.824511 0.590421 0.328264
Si Si6 0.182821 0.406808 0.427363
Si Si7 0.817113 0.161878 0.191493
Si Si8 0.302610 0.157719 0.929654
O O1 0.500000 0.076843 0.250000
O O2 0.260870 0.130230 0.077751
O O3 0.256143 0.992299 0.023930
O O4 0.245479 0.110319 0.935651
O O5 0.787480 0.125494 0.846975
O O6 0.732047 0.145859 0.917024
O O7 0.770705 0.261014 0.878618
O O8 0.002863 0.176142 0.138369
O O9 0.264559 0.108359 0.828180
O O10 0.304780 0.995638 0.785921
O O11 0.499034 0.108657 0.976724
O O12 0.272217 0.857125 0.716254
O O13 0.289047 0.735505 0.661940
O O14 0.517420 0.825848 0.887736
O O15 0.713747 0.605046 0.279401
O O16 0.254146 0.375046 0.563791
O O17 0.000000 0.404734 0.250000
#
# Coordination Sequence:
#
# PCOD8136946 Si02
#       8
#     8   8   8   8   8   8   8   8
#     4   9  19  37  61  86 113 151 194 235 284 346
#     4  12  25  41  61  88 121 156 197 244 297 356
#     4  10  21  39  62  87 117 157 202 246 296 354
#     4  10  20  35  57  85 116 151 193 237 285 342
#     4  10  21  39  62  87 117 157 202 246 296 354
#     4  11  22  41  66  88 114 151 196 245 298 356
#     4  12  25  41  61  88 121 156 197 244 297 356
#     4  10  20  35  57  85 116 151 193 237 285 342
#
# _framework density 20.440733000000002
#
# number of rings (size 3 to 8) (size 9 to 14) (size 15 to 20)
#    0.000    1.500    0.000    5.625    0.000    7.500 
#    0.000    5.000    0.000    0.000    0.000    0.000 
#    0.000    0.000    0.000    0.000    0.000    0.000 
#
# Total GULP energy -396983.694060 kJ/mol
# GULP energy per Si atom -12405.740439 kJ/mol
# Density = 2.039421 g / cm^3
# Si number density = 20.440733 Si / 1000 Ang^3
#
#
#
# Elastic Constant Matrix: (Units=GPa)
#
#
# Indices 1 2 3 4 5 6 
#
# 1 84.3185 6.7833 29.3836 0.0098 -19.3827 0.0024
# 2 6.7833 73.4971 20.2216 0.0460 2.3786 0.0279
# 3 29.3836 20.2216 78.6132 0.0209 -5.6250 0.0150
# 4 0.0098 0.0460 0.0209 15.4848 -0.0114 -14.3995
# 5 -19.3827 2.3786 -5.6250 -0.0114 26.5985 -0.0169
# 6 0.0024 0.0279 0.0150 -14.3995 -0.0169 34.3653
#
#
#
# Elastic Compliance Matrix: (Units=1/GPa)
#
#
# Indices 1 2 3 4 5 6 
#
# 1 0.016157 -0.000417 -0.005165 0.000020 0.010719 0.000015
# 2 -0.000417 0.014774 -0.003818 -0.000084 -0.002433 -0.000046
# 3 -0.005165 -0.003818 0.015625 -0.000016 -0.000118 -0.000010
# 4 0.000020 -0.000084 -0.000016 0.105807 0.000092 0.044335
# 5 0.010719 -0.002433 -0.000118 0.000092 0.045600 0.000062
# 6 0.000015 -0.000046 -0.000010 0.044335 0.000062 0.047676
#
#
# Mechanical properties :
#
#
# Convention : Reuss Voigt Hill
#
# Bulk Modulus (GPa) = 36.02942 38.80066 37.41504
# Shear Modulus (GPa) = 18.26876 27.29240 22.78058
#
# Velocity S-wave (km/s) = 2.99280 3.65800 3.34199
# Velocity P-wave (km/s) = 5.44123 6.07162 5.76505
#
# Compressibility (1/GPa) = 0.02775510
#
# Stress axis : x y z
#
# Youngs Moduli (GPa) = 61.89157 67.68712 64.00085
#
# Poissons Ratio (x) = 0.02823 0.33056
# Poissons Ratio (y) = 0.02581 0.24438
# Poissons Ratio (z) = 0.31967 0.25846
#
# Static dielectric constant tensor:
#      x y z
#    x 3.911530 -0.000100 -0.227560 
#    y -0.000100 3.920780 -0.000010 
#    z -0.227560 -0.000010 3.640400 
# 
# 
# High freq. dielectric constant tensor:
#      x y z
#    x 1.808040 0.000000 -0.017140 
#    y 0.000000 1.815470 0.000000 
#    z -0.017140 0.000000 1.788400 
# 
# From -- ./inp_files/256018.got.cif
#   From: 2010.06.25/outbox.cif.g09.slc.cpg/sg15_129_cif.got.tgz:256018.got - 2010.06.28 07:06:18.
