data_PCOD8136627
_publ_section_title
;
Structure prediction by ZEFSAII (Michael W. Deem and Ramdas Pophale) SiO2 
 PCOD8136627
Probable space group: C 2/C
;
_chemical_formula_sum "Si O2"
_cell_formula_units_Z 36
_cell_length_a 20.939796
_cell_length_b 8.735381
_cell_length_c 14.037586
_cell_angle_alpha 90.000000
_cell_angle_beta 44.112838
_cell_angle_gamma 90.000000
_cell_volume 1787.318475
_symmetry_space_group_name_H-M "C 2/C"
_symmetry_group_IT_number 15
_symmetry_cell_setting 'monoclinic'
loop_
_space_group_symop_operation_xyz
x,y,z
-x,y,1/2-z
-x,-y,-z
x,-y,1/2+z
1/2+x,1/2+y,z
1/2-x,1/2+y,1/2-z
1/2-x,1/2-y,-z
1/2+x,1/2-y,1/2+z
loop_
_atom_site_type_symbol
_atom_site_label
_atom_site_fract_x
_atom_site_fract_y
_atom_site_fract_z
Si Si1 0.817635 0.651420 0.989718
Si Si2 0.000000 0.490035 0.250000
Si Si3 0.072966 0.357152 0.486415
Si Si4 0.892477 0.308451 0.603998
Si Si5 0.753007 0.681227 0.601161
O O1 0.850636 0.746560 0.047869
O O2 0.762626 0.501336 0.082821
O O3 0.750000 0.750000 0.000000
O O4 0.908440 0.611587 0.831571
O O5 0.985811 0.591638 0.358424
O O6 0.110389 0.505560 0.388759
O O7 0.159436 0.256563 0.430602
O O8 0.000981 0.261348 0.498476
O O9 0.838815 0.230141 0.747477
O O10 0.750000 0.750000 0.500000
#
# Coordination Sequence:
#
# PCOD8136627 Si02
#       5
#     8   4   8   8   8
#     4  10  22  36  57  83 113 148 181 232 285 331
#     4   8  16  34  56  76 104 148 186 214 270 336
#     4   9  18  33  57  82 110 146 185 229 271 328
#     4   9  18  33  54  81 108 144 189 225 271 326
#     4  10  20  34  58  85 109 144 187 231 273 328
#
# _framework density 20.141905000000001
#
# number of rings (size 3 to 8) (size 9 to 14) (size 15 to 20)
#    0.000    3.111    0.000    2.667    0.000   10.667 
#    0.000    2.222    0.000   12.000    0.000    0.000 
#    0.000    0.000    0.000    0.000    0.000    0.000 
#
# Total GULP energy -222990.598538 kJ/mol
# GULP energy per Si atom -12388.366585 kJ/mol
# Density = 2.009606 g / cm^3
# Si number density = 20.141905 Si / 1000 Ang^3
#
#
#
# Elastic Constant Matrix: (Units=GPa)
#
#
# Indices 1 2 3 4 5 6 
#
# 1 178.9022 38.0244 16.5253 -0.0003 -28.8520 0.0002
# 2 38.0244 43.0632 34.5420 -0.0034 -7.2428 0.0022
# 3 16.5253 34.5420 89.5939 -0.0012 -13.4563 0.0009
# 4 -0.0003 -0.0034 -0.0012 32.6243 0.0004 -5.5465
# 5 -28.8520 -7.2428 -13.4563 0.0004 36.7389 -0.0002
# 6 0.0002 0.0022 0.0009 -5.5465 -0.0002 32.1089
#
#
#
# Elastic Compliance Matrix: (Units=1/GPa)
#
#
# Indices 1 2 3 4 5 6 
#
# 1 0.007984 -0.008110 0.002493 -0.000001 0.005584 0.000000
# 2 -0.008110 0.041994 -0.015246 0.000004 -0.003674 -0.000002
# 3 0.002493 -0.015246 0.017378 -0.000001 0.005317 0.000000
# 4 -0.000001 0.000004 -0.000001 0.031579 0.000000 0.005455
# 5 0.005584 -0.003674 0.005317 0.000000 0.032827 0.000000
# 6 0.000000 -0.000002 0.000000 0.005455 0.000000 0.032086
#
#
# Mechanical properties :
#
#
# Convention : Reuss Voigt Hill
#
# Bulk Modulus (GPa) = 39.01801 54.41585 46.71693
# Shear Modulus (GPa) = 23.35151 35.12561 29.23856
#
# Velocity S-wave (km/s) = 3.40862 4.18054 3.81416
# Velocity P-wave (km/s) = 5.90806 7.09771 6.53003
#
# Compressibility (1/GPa) = 0.02562919
#
# Stress axis : x y z
#
# Youngs Moduli (GPa) = 125.25693 23.81290 57.54281
#
# Poissons Ratio (x) = 0.19312 -0.14344
# Poissons Ratio (y) = 1.01580 0.87732
# Poissons Ratio (z) = -0.31223 0.36306
#
# Static dielectric constant tensor:
#      x y z
#    x 4.502570 0.000000 -0.272990 
#    y 0.000000 3.143380 0.000000 
#    z -0.272990 0.000000 3.742520 
# 
# 
# High freq. dielectric constant tensor:
#      x y z
#    x 1.823950 0.000000 -0.004870 
#    y 0.000000 1.719570 0.000000 
#    z -0.004870 0.000000 1.784520 
# 
# From -- ./inp_files/165599.got.cif
#   From: 2010.06.25/outbox.cif.g09.slc.cpg/sg15_83_cif.got.tgz:165599.got - 2010.06.28 07:06:18.
