data_PCOD8136605
_publ_section_title
;
Structure prediction by ZEFSAII (Michael W. Deem and Ramdas Pophale) SiO2 
 PCOD8136605
Probable space group: C 2/C
;
_chemical_formula_sum "Si O2"
_cell_formula_units_Z 60
_cell_length_a 14.356786
_cell_length_b 24.540340
_cell_length_c 9.168857
_cell_angle_alpha 90.000000
_cell_angle_beta 114.051072
_cell_angle_gamma 90.000000
_cell_volume 2949.922464
_symmetry_space_group_name_H-M "C 2/C"
_symmetry_group_IT_number 15
_symmetry_cell_setting 'monoclinic'
loop_
_space_group_symop_operation_xyz
x,y,z
-x,y,1/2-z
-x,-y,-z
x,-y,1/2+z
1/2+x,1/2+y,z
1/2-x,1/2+y,1/2-z
1/2-x,1/2-y,-z
1/2+x,1/2-y,1/2+z
loop_
_atom_site_type_symbol
_atom_site_label
_atom_site_fract_x
_atom_site_fract_y
_atom_site_fract_z
Si Si1 0.308792 0.355038 0.201659
Si Si2 0.875425 0.711492 0.962759
Si Si3 0.500000 0.709674 0.750000
Si Si4 0.199682 0.437047 0.646840
Si Si5 0.731037 0.341103 0.996373
Si Si6 0.384548 0.244990 0.663191
Si Si7 0.517002 0.893917 0.928461
Si Si8 0.779887 0.452661 0.498826
O O1 0.231191 0.317000 0.054108
O O2 0.421783 0.329618 0.285748
O O3 0.265623 0.364646 0.337628
O O4 0.309366 0.413988 0.123367
O O5 0.840680 0.745022 0.798960
O O6 0.955376 0.662916 0.974505
O O7 0.928460 0.752817 0.106104
O O8 0.264783 0.386777 0.625395
O O9 0.233750 0.486030 0.564094
O O10 0.079596 0.422549 0.556853
O O11 0.227576 0.450110 0.831089
O O12 0.628010 0.305453 0.911164
O O13 0.825251 0.299544 0.027813
O O14 0.500000 0.227583 0.750000
O O15 0.500000 0.878037 0.750000
O O16 0.611048 0.935338 0.997107
#
# Coordination Sequence:
#
# PCOD8136605 Si02
#       8
#     8   8   4   8   8   8   8   8
#     4  10  23  40  57  87 123 158 208 249 303 360
#     4  10  20  34  57  90 125 159 200 243 301 369
#     4  12  22  36  64  86 126 170 196 256 300 364
#     4  11  21  37  64  84 122 159 201 252 309 351
#     4  10  22  38  58  87 120 159 199 251 299 358
#     4  10  20  36  56  85 123 156 197 238 300 366
#     4   9  18  34  54  91 122 157 193 241 302 374
#     4  10  22  38  59  87 120 155 205 251 301 363
#
# _framework density 20.339518000000002
#
# number of rings (size 3 to 8) (size 9 to 14) (size 15 to 20)
#    0.000    1.867    0.667    3.200    1.867    2.133 
#    0.000    6.000    1.467    1.600    0.000    0.000 
#    0.000    0.000    0.000    0.000    0.000    0.000 
#
# Total GULP energy -371832.402447 kJ/mol
# GULP energy per Si atom -12394.413415 kJ/mol
# Density = 2.029322 g / cm^3
# Si number density = 20.339518 Si / 1000 Ang^3
#
#
#
# Elastic Constant Matrix: (Units=GPa)
#
#
# Indices 1 2 3 4 5 6 
#
# 1 71.2217 38.5642 18.0112 0.0000 -1.6490 0.0000
# 2 38.5642 124.8431 53.4897 0.0000 -8.8780 0.0000
# 3 18.0112 53.4897 91.9809 0.0000 -9.6984 0.0000
# 4 0.0000 0.0000 0.0000 33.2702 0.0000 -1.1270
# 5 -1.6490 -8.8780 -9.6984 0.0000 23.9900 0.0000
# 6 0.0000 0.0000 0.0000 -1.1270 0.0000 17.4007
#
#
#
# Elastic Compliance Matrix: (Units=1/GPa)
#
#
# Indices 1 2 3 4 5 6 
#
# 1 0.016888 -0.005092 -0.000441 0.000000 -0.000902 0.000000
# 2 -0.005092 0.012256 -0.005942 0.000000 0.001783 0.000000
# 3 -0.000441 -0.005942 0.014810 0.000000 0.003758 0.000000
# 4 0.000000 0.000000 0.000000 0.030123 0.000000 0.001951
# 5 -0.000902 0.001783 0.003758 0.000000 0.043801 0.000000
# 6 0.000000 0.000000 0.000000 0.001951 0.000000 0.057595
#
#
# Mechanical properties :
#
#
# Convention : Reuss Voigt Hill
#
# Bulk Modulus (GPa) = 47.60962 56.46398 52.03680
# Shear Modulus (GPa) = 24.33983 26.79756 25.56869
#
# Velocity S-wave (km/s) = 3.46305 3.63369 3.54940
# Velocity P-wave (km/s) = 6.28081 6.73988 6.51439
#
# Compressibility (1/GPa) = 0.02100416
#
# Stress axis : x y z
#
# Youngs Moduli (GPa) = 59.21194 81.59491 67.52295
#
# Poissons Ratio (x) = 0.41549 0.02977
# Poissons Ratio (y) = 0.30151 0.40122
# Poissons Ratio (z) = 0.02611 0.48483
#
# Static dielectric constant tensor:
#      x y z
#    x 3.499440 0.000000 0.070430 
#    y 0.000000 3.651940 0.000000 
#    z 0.070430 0.000000 3.781800 
# 
# 
# High freq. dielectric constant tensor:
#      x y z
#    x 1.767720 0.000000 0.001820 
#    y 0.000000 1.791880 0.000000 
#    z 0.001820 0.000000 1.795600 
# 
# From -- ./inp_files/42705.got.cif
#   From: 2010.06.25/outbox.cif.g09.slc.cpg/sg15_22_cif.got.tgz:42705.got - 2010.06.28 07:06:18.
