data_PCOD8136254
_publ_section_title
;
Structure prediction by ZEFSAII (Michael W. Deem and Ramdas Pophale) SiO2 
 PCOD8136254
Probable space group: C 2/C
;
_chemical_formula_sum "Si O2"
_cell_formula_units_Z 40
_cell_length_a 13.438416
_cell_length_b 9.383162
_cell_length_c 15.658383
_cell_angle_alpha 90.000000
_cell_angle_beta 109.668419
_cell_angle_gamma 90.000000
_cell_volume 1859.244820
_symmetry_space_group_name_H-M "C 2/C"
_symmetry_group_IT_number 15
_symmetry_cell_setting 'monoclinic'
loop_
_space_group_symop_operation_xyz
x,y,z
-x,y,1/2-z
-x,-y,-z
x,-y,1/2+z
1/2+x,1/2+y,z
1/2-x,1/2+y,1/2-z
1/2-x,1/2-y,-z
1/2+x,1/2-y,1/2+z
loop_
_atom_site_type_symbol
_atom_site_label
_atom_site_fract_x
_atom_site_fract_y
_atom_site_fract_z
Si Si1 0.259927 0.082808 0.990301
Si Si2 0.320430 0.903267 0.317445
Si Si3 0.853993 0.098585 0.275956
Si Si4 0.457578 0.932522 0.074671
Si Si5 0.420191 0.614533 0.102077
O O1 0.295345 0.046324 0.905313
O O2 0.149390 0.998263 0.973453
O O3 0.250000 0.250000 0.000000
O O4 0.354385 0.019892 0.077560
O O5 0.304440 0.735153 0.307374
O O6 0.443330 0.941741 0.329984
O O7 0.234398 0.978458 0.232196
O O8 0.872460 0.137094 0.182464
O O9 0.961901 0.049684 0.353835
O O10 0.424209 0.766271 0.054518
O O11 0.500000 0.000000 0.000000
#
# Coordination Sequence:
#
# PCOD8136254 Si02
#       5
#     8   8   8   8   8
#     4  10  20  33  50  75 102 128 165 208 248 296
#     4   9  19  34  50  72  99 128 164 204 247 295
#     4   9  18  33  52  73  98 129 166 206 249 296
#     4   9  18  34  51  71 100 132 164 198 242 299
#     4   9  18  34  53  71  98 135 166 200 251 300
#
# _framework density 21.514112000000001
#
# number of rings (size 3 to 8) (size 9 to 14) (size 15 to 20)
#    0.000    2.800    0.000    0.600    0.000    3.200 
#    0.000    9.000    0.000    0.000    0.000    0.000 
#    0.000    0.000    0.000    0.000    0.000    0.000 
#
# Total GULP energy -247789.772577 kJ/mol
# GULP energy per Si atom -12389.488629 kJ/mol
# Density = 2.146514 g / cm^3
# Si number density = 21.514112 Si / 1000 Ang^3
#
#
#
# Elastic Constant Matrix: (Units=GPa)
#
#
# Indices 1 2 3 4 5 6 
#
# 1 84.7711 68.0687 53.8871 0.0000 51.3232 0.0000
# 2 68.0687 143.0345 53.4733 0.0000 61.2092 0.0000
# 3 53.8871 53.4733 59.4542 0.0000 53.9500 0.0000
# 4 0.0000 0.0000 0.0000 38.3585 0.0000 12.5218
# 5 51.3232 61.2092 53.9500 0.0000 56.3592 0.0000
# 6 0.0000 0.0000 0.0000 12.5218 0.0000 42.1993
#
#
#
# Elastic Compliance Matrix: (Units=1/GPa)
#
#
# Indices 1 2 3 4 5 6 
#
# 1 0.031372 -0.006620 -0.023450 0.000000 0.001069 0.000000
# 2 -0.006620 0.015058 0.013902 0.000000 -0.023633 0.000000
# 3 -0.023450 0.013902 0.151432 0.000000 -0.138703 0.000000
# 4 0.000000 0.000000 0.000000 0.028866 0.000000 -0.008565
# 5 0.001069 -0.023633 -0.138703 0.000000 0.175211 0.000000
# 6 0.000000 0.000000 0.000000 -0.008565 0.000000 0.026239
#
#
# Mechanical properties :
#
#
# Convention : Reuss Voigt Hill
#
# Bulk Modulus (GPa) = 6.04133 70.90201 38.47167
# Shear Modulus (GPa) = 9.69581 34.83879 22.26730
#
# Velocity S-wave (km/s) = 2.12521 4.02848 3.22065
# Velocity P-wave (km/s) = 2.97257 7.39363 5.63480
#
# Compressibility (1/GPa) = 0.16552641
#
# Stress axis : x y z
#
# Youngs Moduli (GPa) = 31.87588 66.41086 6.60363
#
# Poissons Ratio (x) = 0.43965 0.15485
# Poissons Ratio (y) = 0.21102 -0.09181
# Poissons Ratio (z) = 0.74748 -0.92328
#
# Static dielectric constant tensor:
#      x y z
#    x 4.133960 0.000000 0.683850 
#    y 0.000000 3.670800 0.000000 
#    z 0.683850 0.000000 4.164410 
# 
# 
# High freq. dielectric constant tensor:
#      x y z
#    x 1.844740 0.000000 0.034980 
#    y 0.000000 1.835130 0.000000 
#    z 0.034980 0.000000 1.831630 
# 
# From -- ./inp_files/181005.got.cif
#   From: 2010.06.25/outbox.cif.g09.slc.cpg/sg15_91_cif.got.tgz:181005.got - 2010.06.28 07:06:18.
