data_PCOD8136410
_publ_section_title
;
Structure prediction by ZEFSAII (Michael W. Deem and Ramdas Pophale) SiO2 
 PCOD8136410
Probable space group: C 2/C
;
_chemical_formula_sum "Si O2"
_cell_formula_units_Z 36
_cell_length_a 15.152929
_cell_length_b 24.935101
_cell_length_c 14.165821
_cell_angle_alpha 90.000000
_cell_angle_beta 160.569064
_cell_angle_gamma 90.000000
_cell_volume 1780.588569
_symmetry_space_group_name_H-M "C 2/C"
_symmetry_group_IT_number 15
_symmetry_cell_setting 'monoclinic'
loop_
_space_group_symop_operation_xyz
x,y,z
-x,y,1/2-z
-x,-y,-z
x,-y,1/2+z
1/2+x,1/2+y,z
1/2-x,1/2+y,1/2-z
1/2-x,1/2-y,-z
1/2+x,1/2-y,1/2+z
loop_
_atom_site_type_symbol
_atom_site_label
_atom_site_fract_x
_atom_site_fract_y
_atom_site_fract_z
Si Si1 0.146820 0.399182 0.159639
Si Si2 0.378235 0.458070 0.804656
Si Si3 0.521425 0.212767 0.476078
Si Si4 0.000000 0.286617 0.750000
Si Si5 0.238104 0.945027 0.426330
O O1 0.391777 0.413054 0.478125
O O2 0.247902 0.411730 0.156145
O O3 0.889904 0.433908 0.923811
O O4 0.075396 0.336349 0.101598
O O5 0.310001 0.491268 0.641210
O O6 0.500000 0.500000 0.000000
O O7 0.740760 0.258897 0.711100
O O8 0.516923 0.182869 0.367556
O O9 0.750000 0.250000 0.500000
O O10 0.000000 0.921610 0.250000
O O11 0.500000 0.936421 0.750000
#
# Coordination Sequence:
#
# PCOD8136410 Si02
#       5
#     8   8   8   4   8
#     4  11  21  35  55  74 107 147 175 209 264 312
#     4  10  20  37  52  74 106 139 171 217 271 307
#     4  10  20  34  49  72 103 137 179 218 245 291
#     4   8  16  30  42  60  94 132 160 208 248 260
#     4  11  21  34  53  79 105 135 177 218 252 315
#
# _framework density 20.218033999999999
#
# number of rings (size 3 to 8) (size 9 to 14) (size 15 to 20)
#    0.000    1.778    0.000    8.000    1.556    0.000 
#    8.000    0.000    0.000    0.000    0.000    0.000 
#    0.000   62.222    0.000    0.000    0.000    0.000 
#
# Total GULP energy -222997.081025 kJ/mol
# GULP energy per Si atom -12388.726724 kJ/mol
# Density = 2.017202 g / cm^3
# Si number density = 20.218034 Si / 1000 Ang^3
#
#
#
# Elastic Constant Matrix: (Units=GPa)
#
#
# Indices 1 2 3 4 5 6 
#
# 1 21.5078 3.4893 12.9693 0.0070 17.2643 -0.0044
# 2 3.4893 67.4380 6.9731 -0.0099 1.4483 0.0018
# 3 12.9693 6.9731 118.6036 -0.0292 25.2077 0.0074
# 4 0.0070 -0.0099 -0.0292 50.3741 0.0035 -19.3600
# 5 17.2643 1.4483 25.2077 0.0035 28.7394 -0.0060
# 6 -0.0044 0.0018 0.0074 -19.3600 -0.0060 30.3015
#
#
#
# Elastic Compliance Matrix: (Units=1/GPa)
#
#
# Indices 1 2 3 4 5 6 
#
# 1 0.091115 -0.003735 0.002273 -0.000010 -0.056540 -0.000005
# 2 -0.003735 0.015072 -0.000975 0.000003 0.002339 0.000001
# 3 0.002273 -0.000975 0.010472 0.000006 -0.010502 0.000000
# 4 -0.000010 0.000003 0.000006 0.026312 0.000001 0.016811
# 5 -0.056540 0.002339 -0.010502 0.000001 0.077854 0.000010
# 6 -0.000005 0.000001 0.000000 0.016811 0.000010 0.043743
#
#
# Mechanical properties :
#
#
# Convention : Reuss Voigt Hill
#
# Bulk Modulus (GPa) = 8.94570 28.26809 18.60690
# Shear Modulus (GPa) = 16.30236 34.15751 25.22994
#
# Velocity S-wave (km/s) = 2.84267 4.11476 3.53638
# Velocity P-wave (km/s) = 3.89982 6.04872 5.08899
#
# Compressibility (1/GPa) = 0.11178551
#
# Stress axis : x y z
#
# Youngs Moduli (GPa) = 10.97514 66.34706 95.49082
#
# Poissons Ratio (x) = 0.24782 -0.21706
# Poissons Ratio (y) = 0.04099 0.09309
# Poissons Ratio (z) = -0.02495 0.06468
#
# Static dielectric constant tensor:
#      x y z
#    x 2.216720 0.000000 -0.089390 
#    y 0.000000 3.713950 -0.000010 
#    z -0.089390 -0.000010 4.316860 
# 
# 
# High freq. dielectric constant tensor:
#      x y z
#    x 1.738190 0.000000 0.014530 
#    y 0.000000 1.777570 0.000000 
#    z 0.014530 0.000000 1.819990 
# 
# From -- ./inp_files/7219.got.cif
#   From: 2010.06.25/outbox.cif.g09.slc.cpg/sg15_4_cif.got.tgz:7219.got - 2010.06.28 07:06:18.
