data_PCOD8136046
_publ_section_title
;
Structure prediction by ZEFSAII (Michael W. Deem and Ramdas Pophale) SiO2 
 PCOD8136046
Probable space group: C 2/C
;
_chemical_formula_sum "Si O2"
_cell_formula_units_Z 56
_cell_length_a 11.156377
_cell_length_b 29.697097
_cell_length_c 9.452945
_cell_angle_alpha 90.000000
_cell_angle_beta 57.979338
_cell_angle_gamma 90.000000
_cell_volume 2655.381287
_symmetry_space_group_name_H-M "C 2/C"
_symmetry_group_IT_number 15
_symmetry_cell_setting 'monoclinic'
loop_
_space_group_symop_operation_xyz
x,y,z
-x,y,1/2-z
-x,-y,-z
x,-y,1/2+z
1/2+x,1/2+y,z
1/2-x,1/2+y,1/2-z
1/2-x,1/2-y,-z
1/2+x,1/2-y,1/2+z
loop_
_atom_site_type_symbol
_atom_site_label
_atom_site_fract_x
_atom_site_fract_y
_atom_site_fract_z
Si Si1 0.040363 0.956231 0.387358
Si Si2 0.984368 0.287242 0.097041
Si Si3 0.878509 0.617578 0.992028
Si Si4 0.678649 0.092694 0.782385
Si Si5 0.713690 0.324881 0.151273
Si Si6 0.903571 0.109523 0.183200
Si Si7 0.541153 0.693884 0.506128
O O1 0.948712 0.915362 0.510479
O O2 0.000000 0.962770 0.250000
O O3 0.211544 0.948901 0.292069
O O4 0.000000 0.000000 0.500000
O O5 0.820151 0.291451 0.162473
O O6 0.027913 0.242214 0.986140
O O7 0.000000 0.276497 0.250000
O O8 0.072895 0.331550 0.997263
O O9 0.814845 0.619282 0.872640
O O10 0.011333 0.582143 0.914341
O O11 0.760630 0.600487 0.175813
O O12 0.722279 0.124683 0.886326
O O13 0.573208 0.331290 0.328894
O O14 0.684408 0.305733 0.012073
O O15 0.926899 0.163299 0.151158
O O16 0.000000 0.091065 0.250000
#
# Coordination Sequence:
#
# PCOD8136046 Si02
#       7
#     8   8   8   8   8   8   8
#     4  12  26  46  75 105 136 170 215 278 338 414
#     4  11  22  37  56  88 128 179 232 277 344 384
#     4  10  21  40  70  96 133 182 223 285 330 412
#     4  10  19  43  69  93 133 182 216 272 352 396
#     4  10  20  40  55  81 124 180 219 276 339 394
#     4  12  23  41  68 104 130 174 233 277 338 405
#     4  11  23  34  59  86 131 173 231 286 327 395
#
# _framework density 21.089251000000001
#
# number of rings (size 3 to 8) (size 9 to 14) (size 15 to 20)
#    0.000    1.143    5.714    2.143    2.000    0.571 
#    0.000    6.429    0.000    0.000    0.000    0.000 
#    0.000    0.000    0.000    0.000    0.000    0.000 
#
# Total GULP energy -346963.657205 kJ/mol
# GULP energy per Si atom -12391.559186 kJ/mol
# Density = 2.104125 g / cm^3
# Si number density = 21.089251 Si / 1000 Ang^3
#
#
#
# Elastic Constant Matrix: (Units=GPa)
#
#
# Indices 1 2 3 4 5 6 
#
# 1 118.2405 49.3903 54.6487 0.0000 0.2111 0.0000
# 2 49.3903 89.5825 35.5199 0.0000 -4.5943 0.0000
# 3 54.6487 35.5199 108.3815 0.0000 -9.7748 0.0000
# 4 0.0000 0.0000 0.0000 21.5769 0.0000 -0.8100
# 5 0.2111 -4.5943 -9.7748 0.0000 42.3766 0.0000
# 6 0.0000 0.0000 0.0000 -0.8100 0.0000 19.0320
#
#
#
# Elastic Compliance Matrix: (Units=1/GPa)
#
#
# Indices 1 2 3 4 5 6 
#
# 1 0.012956 -0.005264 -0.004968 0.000000 -0.001781 0.000000
# 2 -0.005264 0.014977 -0.002150 0.000000 0.001154 0.000000
# 3 -0.004968 -0.002150 0.012681 0.000000 0.002717 0.000000
# 4 0.000000 0.000000 0.000000 0.046420 0.000000 0.001976
# 5 -0.001781 0.001154 0.002717 0.000000 0.024359 0.000000
# 6 0.000000 0.000000 0.000000 0.001976 0.000000 0.052627
#
#
# Mechanical properties :
#
#
# Convention : Reuss Voigt Hill
#
# Bulk Modulus (GPa) = 63.09381 66.14691 64.62036
# Shear Modulus (GPa) = 25.76429 28.37349 27.06889
#
# Velocity S-wave (km/s) = 3.49904 3.67195 3.58654
# Velocity P-wave (km/s) = 6.80492 7.02929 6.91801
#
# Compressibility (1/GPa) = 0.01584942
#
# Stress axis : x y z
#
# Youngs Moduli (GPa) = 77.18663 66.76897 78.85699
#
# Poissons Ratio (x) = 0.35150 0.39175
# Poissons Ratio (y) = 0.40635 0.16953
# Poissons Ratio (z) = 0.38345 0.14354
#
# Static dielectric constant tensor:
#      x y z
#    x 4.222210 0.000000 -0.005950 
#    y 0.000000 3.549440 0.000000 
#    z -0.005950 0.000000 3.688710 
# 
# 
# High freq. dielectric constant tensor:
#      x y z
#    x 1.844040 0.000000 0.000780 
#    y 0.000000 1.795070 0.000000 
#    z 0.000780 0.000000 1.813300 
# 
# From -- ./inp_files/35562.got.cif
#   From: 2010.06.25/outbox.cif.g09.slc.cpg/sg15_18_cif.got.tgz:35562.got - 2010.06.28 07:06:18.
