data_PCOD8136651
_publ_section_title
;
Structure prediction by ZEFSAII (Michael W. Deem and Ramdas Pophale) SiO2 
 PCOD8136651
Probable space group: C 2/C
;
_chemical_formula_sum "Si O2"
_cell_formula_units_Z 60
_cell_length_a 25.094856
_cell_length_b 19.965813
_cell_length_c 12.111532
_cell_angle_alpha 90.000000
_cell_angle_beta 152.304890
_cell_angle_gamma 90.000000
_cell_volume 2820.366744
_symmetry_space_group_name_H-M "C 2/C"
_symmetry_group_IT_number 15
_symmetry_cell_setting 'monoclinic'
loop_
_space_group_symop_operation_xyz
x,y,z
-x,y,1/2-z
-x,-y,-z
x,-y,1/2+z
1/2+x,1/2+y,z
1/2-x,1/2+y,1/2-z
1/2-x,1/2-y,-z
1/2+x,1/2-y,1/2+z
loop_
_atom_site_type_symbol
_atom_site_label
_atom_site_fract_x
_atom_site_fract_y
_atom_site_fract_z
Si Si1 0.937164 0.836061 0.239389
Si Si2 0.054852 0.930817 0.064163
Si Si3 0.213054 0.738330 0.270949
Si Si4 0.671911 0.354355 0.904329
Si Si5 0.984736 0.713008 0.439568
Si Si6 0.335928 0.798736 0.051536
Si Si7 0.500000 0.125830 0.250000
Si Si8 0.248210 0.107776 0.770512
O O1 0.889828 0.897240 0.225078
O O2 0.022514 0.788336 0.470262
O O3 0.000000 0.868311 0.250000
O O4 0.841709 0.786623 0.016906
O O5 0.157294 0.941673 0.164288
O O6 0.958155 0.880029 0.841231
O O7 0.000000 0.000000 0.000000
O O8 0.147822 0.719834 0.265019
O O9 0.218100 0.818004 0.260548
O O10 0.149237 0.698097 0.053624
O O11 0.694823 0.278596 0.984789
O O12 0.740890 0.354823 0.914345
O O13 0.730874 0.399434 0.107492
O O14 0.051593 0.686150 0.669237
O O15 0.007099 0.667408 0.375464
O O16 0.620004 0.084812 0.462492
#
# Coordination Sequence:
#
# PCOD8136651 Si02
#       8
#     8   8   8   8   8   8   4   8
#     4  12  22  36  56  88 127 166 206 271 325 382
#     4  12  26  42  61  88 126 174 225 267 320 377
#     4  11  21  33  58  92 134 167 205 259 333 396
#     4  10  20  36  60  88 123 162 208 261 320 384
#     4  12  19  33  54  91 131 160 199 251 330 396
#     4  10  20  34  58  92 124 169 202 257 330 393
#     4  12  22  34  62  98 124 162 204 262 340 404
#     4  11  21  38  61  91 126 163 210 269 322 396
#
# _framework density 21.273828999999999
#
# number of rings (size 3 to 8) (size 9 to 14) (size 15 to 20)
#    0.000    0.800    6.000    2.800    1.867    3.200 
#    0.000    0.000    0.000    0.800    6.933    0.000 
#    0.000    0.000    0.000    0.000    0.000    0.000 
#
# Total GULP energy -371650.923523 kJ/mol
# GULP energy per Si atom -12388.364117 kJ/mol
# Density = 2.122541 g / cm^3
# Si number density = 21.273829 Si / 1000 Ang^3
#
#
#
# Elastic Constant Matrix: (Units=GPa)
#
#
# Indices 1 2 3 4 5 6 
#
# 1 125.9533 25.4450 31.2008 0.0000 6.4753 0.0000
# 2 25.4450 43.3584 16.4410 0.0000 0.8555 0.0000
# 3 31.2008 16.4410 97.1077 0.0000 11.0119 0.0000
# 4 0.0000 0.0000 0.0000 13.4239 0.0000 10.5205
# 5 6.4753 0.8555 11.0119 0.0000 41.2735 0.0000
# 6 0.0000 0.0000 0.0000 10.5205 0.0000 19.9575
#
#
#
# Elastic Compliance Matrix: (Units=1/GPa)
#
#
# Indices 1 2 3 4 5 6 
#
# 1 0.009468 -0.004725 -0.002150 0.000000 -0.000814 0.000000
# 2 -0.004725 0.027019 -0.003173 0.000000 0.001028 0.000000
# 3 -0.002150 -0.003173 0.011838 0.000000 -0.002755 0.000000
# 4 0.000000 0.000000 0.000000 0.126936 0.000000 -0.066914
# 5 -0.000814 0.001028 -0.002755 0.000000 0.025070 0.000000
# 6 0.000000 0.000000 0.000000 -0.066914 0.000000 0.085380
#
#
# Mechanical properties :
#
#
# Convention : Reuss Voigt Hill
#
# Bulk Modulus (GPa) = 35.42331 45.84366 40.63348
# Shear Modulus (GPa) = 15.86203 27.81981 21.84092
#
# Velocity S-wave (km/s) = 2.73355 3.62014 3.20762
# Velocity P-wave (km/s) = 5.16240 6.25060 5.73238
#
# Compressibility (1/GPa) = 0.02823000
#
# Stress axis : x y z
#
# Youngs Moduli (GPa) = 105.61373 37.01034 84.47186
#
# Poissons Ratio (x) = 0.17489 0.18161
# Poissons Ratio (y) = 0.49906 0.26802
# Poissons Ratio (z) = 0.22706 0.11743
#
# Static dielectric constant tensor:
#      x y z
#    x 4.332580 0.000000 -0.205060 
#    y 0.000000 3.152630 0.000000 
#    z -0.205060 0.000000 4.051880 
# 
# 
# High freq. dielectric constant tensor:
#      x y z
#    x 1.858290 0.000000 -0.011090 
#    y 0.000000 1.748540 0.000000 
#    z -0.011090 0.000000 1.847680 
# 
# From -- ./inp_files/119972.got.cif
#   From: 2010.06.25/outbox.cif.g09.slc.cpg/sg15_60_cif.got.tgz:119972.got - 2010.06.28 07:06:18.
