data_PCOD8136340
_publ_section_title
;
Structure prediction by ZEFSAII (Michael W. Deem and Ramdas Pophale) SiO2 
 PCOD8136340
Probable space group: C 2/C
;
_chemical_formula_sum "Si O2"
_cell_formula_units_Z 64
_cell_length_a 12.427264
_cell_length_b 14.442353
_cell_length_c 31.918557
_cell_angle_alpha 90.000000
_cell_angle_beta 146.623149
_cell_angle_gamma 90.000000
_cell_volume 3151.611180
_symmetry_space_group_name_H-M "C 2/C"
_symmetry_group_IT_number 15
_symmetry_cell_setting 'monoclinic'
loop_
_space_group_symop_operation_xyz
x,y,z
-x,y,1/2-z
-x,-y,-z
x,-y,1/2+z
1/2+x,1/2+y,z
1/2-x,1/2+y,1/2-z
1/2-x,1/2-y,-z
1/2+x,1/2-y,1/2+z
loop_
_atom_site_type_symbol
_atom_site_label
_atom_site_fract_x
_atom_site_fract_y
_atom_site_fract_z
Si Si1 0.373411 0.505343 0.169480
Si Si2 0.118332 0.009333 0.581652
Si Si3 0.600606 0.797049 0.481826
Si Si4 0.149188 0.790894 0.332541
Si Si5 0.490921 0.896931 0.571291
Si Si6 0.055585 0.794964 0.054387
Si Si7 0.329955 0.478780 0.562571
Si Si8 0.837898 0.369561 0.605792
O O1 0.500000 0.545159 0.250000
O O2 0.398143 0.396367 0.174085
O O3 0.433109 0.536695 0.141629
O O4 0.153654 0.537025 0.104996
O O5 0.190640 0.116604 0.612651
O O6 0.303244 0.940944 0.633390
O O7 0.000000 0.000000 0.500000
O O8 0.996798 0.969122 0.581511
O O9 0.750000 0.750000 0.500000
O O10 0.377738 0.780975 0.394069
O O11 0.633874 0.749821 0.537373
O O12 0.656021 0.904454 0.500638
O O13 0.094931 0.729864 0.355293
O O14 0.000000 0.751621 0.250000
O O15 0.540410 0.787985 0.582582
O O16 0.485860 0.913972 0.619952
O O17 0.287382 0.923516 0.481151
O O18 0.851753 0.848286 0.983903
#
# Coordination Sequence:
#
# PCOD8136340 Si02
#       8
#     8   8   8   8   8   8   8   8
#     4  11  25  42  59  89 126 167 209 258 317 377
#     4  10  20  36  57  91 127 149 193 260 314 362
#     4  11  21  35  62  92 123 162 215 261 311 370
#     4  10  22  41  61  88 128 166 211 256 320 379
#     4  12  21  37  62  91 119 155 206 256 303 368
#     4  10  20  33  55  92 119 148 198 259 304 354
#     4  12  20  37  65  89 124 160 206 264 312 359
#     4  10  21  37  59  88 124 154 200 255 309 366
#
# _framework density 20.307072000000002
#
# number of rings (size 3 to 8) (size 9 to 14) (size 15 to 20)
#    0.000    1.250    5.000    4.500    1.750    0.000 
#    4.500    0.000    0.000    0.750    0.000    0.000 
#    0.000    0.000    0.000    0.000    0.000    0.000 
#
# Total GULP energy -396438.171223 kJ/mol
# GULP energy per Si atom -12388.692851 kJ/mol
# Density = 2.026085 g / cm^3
# Si number density = 20.307072 Si / 1000 Ang^3
#
#
#
# Elastic Constant Matrix: (Units=GPa)
#
#
# Indices 1 2 3 4 5 6 
#
# 1 144.3772 28.6681 43.1289 0.0000 -30.4587 0.0000
# 2 28.6681 104.2133 19.8939 0.0000 -8.6829 0.0000
# 3 43.1289 19.8939 76.9514 0.0000 -17.6953 0.0000
# 4 0.0000 0.0000 0.0000 16.9331 0.0000 -8.8416
# 5 -30.4587 -8.6829 -17.6953 0.0000 20.5763 0.0000
# 6 0.0000 0.0000 0.0000 -8.8416 0.0000 24.9392
#
#
#
# Elastic Compliance Matrix: (Units=1/GPa)
#
#
# Indices 1 2 3 4 5 6 
#
# 1 0.010744 -0.001359 -0.002674 0.000000 0.013031 0.000000
# 2 -0.001359 0.010371 -0.001715 0.000000 0.000889 0.000000
# 3 -0.002674 -0.001715 0.017277 0.000000 0.010177 0.000000
# 4 0.000000 0.000000 0.000000 0.072471 0.000000 0.025693
# 5 0.013031 0.000889 0.010177 0.000000 0.077017 0.000000
# 6 0.000000 0.000000 0.000000 0.025693 0.000000 0.049206
#
#
# Mechanical properties :
#
#
# Convention : Reuss Voigt Hill
#
# Bulk Modulus (GPa) = 37.17932 56.54709 46.86321
# Shear Modulus (GPa) = 19.41385 28.07980 23.74683
#
# Velocity S-wave (km/s) = 3.09530 3.72258 3.42334
# Velocity P-wave (km/s) = 5.57878 6.81053 6.22520
#
# Compressibility (1/GPa) = 0.02689667
#
# Stress axis : x y z
#
# Youngs Moduli (GPa) = 93.07437 96.42165 57.87968
#
# Poissons Ratio (x) = 0.13108 0.15475
# Poissons Ratio (y) = 0.12653 0.09925
# Poissons Ratio (z) = 0.24885 0.16534
#
# Static dielectric constant tensor:
#      x y z
#    x 3.780040 0.000000 -0.135140 
#    y 0.000000 4.285970 0.000000 
#    z -0.135140 0.000000 3.506790 
# 
# 
# High freq. dielectric constant tensor:
#      x y z
#    x 1.797690 0.000000 -0.020960 
#    y 0.000000 1.813080 0.000000 
#    z -0.020960 0.000000 1.737990 
# 
# From -- ./inp_files/293111.got.cif
#   From: 2010.06.25/outbox.cif.g09.slc.cpg/sg15_147_cif.got.tgz:293111.got - 2010.06.28 07:06:18.
