data_PCOD8136724
_publ_section_title
;
Structure prediction by ZEFSAII (Michael W. Deem and Ramdas Pophale) SiO2 
 PCOD8136724
Probable space group: C 2/C
;
_chemical_formula_sum "Si O2"
_cell_formula_units_Z 56
_cell_length_a 11.657955
_cell_length_b 18.429400
_cell_length_c 18.159640
_cell_angle_alpha 90.000000
_cell_angle_beta 129.498478
_cell_angle_gamma 90.000000
_cell_volume 3010.622970
_symmetry_space_group_name_H-M "C 2/C"
_symmetry_group_IT_number 15
_symmetry_cell_setting 'monoclinic'
loop_
_space_group_symop_operation_xyz
x,y,z
-x,y,1/2-z
-x,-y,-z
x,-y,1/2+z
1/2+x,1/2+y,z
1/2-x,1/2+y,1/2-z
1/2-x,1/2-y,-z
1/2+x,1/2-y,1/2+z
loop_
_atom_site_type_symbol
_atom_site_label
_atom_site_fract_x
_atom_site_fract_y
_atom_site_fract_z
Si Si1 0.847543 0.537483 0.530179
Si Si2 0.669537 0.224415 0.744707
Si Si3 0.160638 0.693267 0.912370
Si Si4 0.876626 0.112554 0.758648
Si Si5 0.098634 0.886425 0.716809
Si Si6 0.658386 0.991237 0.637899
Si Si7 0.961093 0.003317 0.568257
O O1 0.796403 0.611738 0.548575
O O2 0.870917 0.547129 0.452285
O O3 0.715092 0.480901 0.493532
O O4 0.006607 0.505976 0.622276
O O5 0.694753 0.211910 0.841731
O O6 0.516558 0.193714 0.649561
O O7 0.807546 0.186990 0.760498
O O8 0.662509 0.308769 0.721334
O O9 0.250000 0.750000 0.000000
O O10 0.749289 0.066121 0.665797
O O11 0.000000 0.134223 0.750000
O O12 0.946456 0.066147 0.853780
O O13 0.000000 0.882400 0.750000
O O14 0.243748 0.935782 0.776601
O O15 0.991184 0.922730 0.612946
O O16 0.000000 0.000000 0.500000
#
# Coordination Sequence:
#
# PCOD8136724 Si02
#       7
#     8   8   8   8   8   8   8
#     4  11  19  34  57  90 116 146 200 248 301 348
#     4  11  23  38  60  91 120 160 204 251 312 368
#     4  11  21  35  60  91 125 149 194 265 315 352
#     4  11  21  42  58  82 124 168 200 240 304 381
#     4  11  19  40  61  84 117 155 204 243 308 360
#     4  10  20  34  61  85 111 154 203 244 292 363
#     4  11  22  37  62  90 120 154 201 254 305 360
#
# _framework density 18.600801000000001
#
# number of rings (size 3 to 8) (size 9 to 14) (size 15 to 20)
#    0.000    1.143    5.714    3.429    0.000    0.000 
#    0.000    1.429    0.000    2.571    0.000    0.000 
#    0.000    0.000    0.000    0.000    0.000    0.000 
#
# Total GULP energy -347075.570760 kJ/mol
# GULP energy per Si atom -12395.556099 kJ/mol
# Density = 1.855846 g / cm^3
# Si number density = 18.600801 Si / 1000 Ang^3
#
#
#
# Elastic Constant Matrix: (Units=GPa)
#
#
# Indices 1 2 3 4 5 6 
#
# 1 124.3359 53.4935 51.5401 0.0000 14.3159 0.0000
# 2 53.4935 105.7052 27.9551 0.0000 5.9941 0.0000
# 3 51.5401 27.9551 88.3351 0.0000 7.1357 0.0000
# 4 0.0000 0.0000 0.0000 17.9549 0.0000 2.3032
# 5 14.3159 5.9941 7.1357 0.0000 36.0182 0.0000
# 6 0.0000 0.0000 0.0000 2.3032 0.0000 30.4687
#
#
#
# Elastic Compliance Matrix: (Units=1/GPa)
#
#
# Indices 1 2 3 4 5 6 
#
# 1 0.012847 -0.004810 -0.005718 0.000000 -0.003173 0.000000
# 2 -0.004810 0.012167 -0.001052 0.000000 0.000095 0.000000
# 3 -0.005718 -0.001052 0.015032 0.000000 -0.000531 0.000000
# 4 0.000000 0.000000 0.000000 0.056241 0.000000 -0.004251
# 5 -0.003173 0.000095 -0.000531 0.000000 0.029114 0.000000
# 6 0.000000 0.000000 0.000000 -0.004251 0.000000 0.033142
#
#
# Mechanical properties :
#
#
# Convention : Reuss Voigt Hill
#
# Bulk Modulus (GPa) = 59.21177 64.92817 62.06997
# Shear Modulus (GPa) = 26.69071 29.24752 27.96912
#
# Velocity S-wave (km/s) = 3.79215 3.96963 3.88190
# Velocity P-wave (km/s) = 7.14674 7.48281 7.31670
#
# Compressibility (1/GPa) = 0.01688853
#
# Stress axis : x y z
#
# Youngs Moduli (GPa) = 77.83682 82.18937 66.52365
#
# Poissons Ratio (x) = 0.39530 0.38035
# Poissons Ratio (y) = 0.37436 0.06998
# Poissons Ratio (z) = 0.44504 0.08646
#
# Static dielectric constant tensor:
#      x y z
#    x 3.397960 0.000000 0.280730 
#    y 0.000000 3.488400 0.000000 
#    z 0.280730 0.000000 3.651590 
# 
# 
# High freq. dielectric constant tensor:
#      x y z
#    x 1.713620 0.000000 0.019250 
#    y 0.000000 1.710770 0.000000 
#    z 0.019250 0.000000 1.733020 
# 
# From -- ./inp_files/199581.got.cif
#   From: 2010.06.25/outbox.cif.g09.slc.cpg/sg15_100_cif.got.tgz:199581.got - 2010.06.28 07:06:18.
