data_PCOD8136048
_publ_section_title
;
Structure prediction by ZEFSAII (Michael W. Deem and Ramdas Pophale) SiO2 
 PCOD8136048
Probable space group: C 2/C
;
_chemical_formula_sum "Si O2"
_cell_formula_units_Z 44
_cell_length_a 8.197136
_cell_length_b 26.624819
_cell_length_c 9.893797
_cell_angle_alpha 90.000000
_cell_angle_beta 77.916692
_cell_angle_gamma 90.000000
_cell_volume 2111.453358
_symmetry_space_group_name_H-M "C 2/C"
_symmetry_group_IT_number 15
_symmetry_cell_setting 'monoclinic'
loop_
_space_group_symop_operation_xyz
x,y,z
-x,y,1/2-z
-x,-y,-z
x,-y,1/2+z
1/2+x,1/2+y,z
1/2-x,1/2+y,1/2-z
1/2-x,1/2-y,-z
1/2+x,1/2-y,1/2+z
loop_
_atom_site_type_symbol
_atom_site_label
_atom_site_fract_x
_atom_site_fract_y
_atom_site_fract_z
Si Si1 0.071942 0.438324 0.373937
Si Si2 0.500000 0.707232 0.750000
Si Si3 0.682505 0.644256 0.267963
Si Si4 0.711892 0.158770 0.945955
Si Si5 0.638828 0.951819 0.833215
Si Si6 0.109512 0.281803 0.946362
O O1 0.194267 0.400430 0.426589
O O2 0.174905 0.488614 0.311719
O O3 0.000000 0.413632 0.250000
O O4 0.917457 0.447349 0.501660
O O5 0.337374 0.674346 0.805705
O O6 0.514022 0.740680 0.878625
O O7 0.500000 0.659974 0.250000
O O8 0.711448 0.662789 0.416544
O O9 0.706616 0.584662 0.231123
O O10 0.813637 0.674332 0.156160
O O11 0.540281 0.189933 0.947032
O O12 0.500000 0.934461 0.750000
O O13 0.250000 0.250000 0.000000
#
# Coordination Sequence:
#
# PCOD8136048 Si02
#       6
#     8   4   8   8   8   8
#     4  10  22  37  72 100 133 176 227 282 338 407
#     4  12  28  42  66  98 136 174 226 282 338 396
#     4  12  24  43  71  99 132 184 228 275 346 414
#     4  12  25  48  67 100 138 178 228 284 337 415
#     4  10  19  43  69  98 132 182 228 274 341 410
#     4  12  26  44  69  95 132 179 227 283 341 402
#
# _framework density 20.838729000000001
#
# number of rings (size 3 to 8) (size 9 to 14) (size 15 to 20)
#    0.000    0.727    5.455    1.636    5.091    1.455 
#    1.636    0.909    0.000    0.000    0.000    0.000 
#    0.000    0.000    0.000    0.000    0.000    0.000 
#
# Total GULP energy -272628.855580 kJ/mol
# GULP energy per Si atom -12392.220708 kJ/mol
# Density = 2.079130 g / cm^3
# Si number density = 20.838729 Si / 1000 Ang^3
#
#
#
# Elastic Constant Matrix: (Units=GPa)
#
#
# Indices 1 2 3 4 5 6 
#
# 1 96.2359 31.0699 27.4284 0.0000 -5.5324 0.0000
# 2 31.0699 93.3062 19.1472 0.0000 -9.5663 0.0000
# 3 27.4284 19.1472 86.3632 0.0000 -3.0890 0.0000
# 4 0.0000 0.0000 0.0000 31.0532 0.0000 8.6744
# 5 -5.5324 -9.5663 -3.0890 0.0000 44.3252 0.0000
# 6 0.0000 0.0000 0.0000 8.6744 0.0000 17.4917
#
#
#
# Elastic Compliance Matrix: (Units=1/GPa)
#
#
# Indices 1 2 3 4 5 6 
#
# 1 0.012435 -0.003430 -0.003168 0.000000 0.000591 0.000000
# 2 -0.003430 0.012404 -0.001584 0.000000 0.002139 0.000000
# 3 -0.003168 -0.001584 0.012942 0.000000 0.000165 0.000000
# 4 0.000000 0.000000 0.000000 0.037381 0.000000 -0.018538
# 5 0.000591 0.002139 0.000165 0.000000 0.023107 0.000000
# 6 0.000000 0.000000 0.000000 -0.018538 0.000000 0.066363
#
#
# Mechanical properties :
#
#
# Convention : Reuss Voigt Hill
#
# Bulk Modulus (GPa) = 46.69114 47.91069 47.30091
# Shear Modulus (GPa) = 26.57644 31.79135 29.18390
#
# Velocity S-wave (km/s) = 3.57506 3.91012 3.74634
# Velocity P-wave (km/s) = 6.28459 6.58987 6.43904
#
# Compressibility (1/GPa) = 0.02141734
#
# Stress axis : x y z
#
# Youngs Moduli (GPa) = 80.41558 80.61952 77.26679
#
# Poissons Ratio (x) = 0.27654 0.24476
# Poissons Ratio (y) = 0.27584 0.12240
# Poissons Ratio (z) = 0.25474 0.12771
#
# Static dielectric constant tensor:
#      x y z
#    x 3.603460 0.000000 0.162920 
#    y 0.000000 4.051720 0.000000 
#    z 0.162920 0.000000 3.837170 
# 
# 
# High freq. dielectric constant tensor:
#      x y z
#    x 1.791930 0.000000 0.009040 
#    y 0.000000 1.834620 0.000000 
#    z 0.009040 0.000000 1.821110 
# 
# From -- ./inp_files/25461.got.cif
#   From: 2010.06.25/outbox.cif.g09.slc.cpg/sg15_13_cif.got.tgz:25461.got - 2010.06.28 07:06:18.
