data_PCOD8136906
_publ_section_title
;
Structure prediction by ZEFSAII (Michael W. Deem and Ramdas Pophale) SiO2 
 PCOD8136906
Probable space group: C 2/C
;
_chemical_formula_sum "Si O2"
_cell_formula_units_Z 48
_cell_length_a 17.827507
_cell_length_b 22.028026
_cell_length_c 11.732503
_cell_angle_alpha 90.000000
_cell_angle_beta 32.852410
_cell_angle_gamma 90.000000
_cell_volume 2499.413422
_symmetry_space_group_name_H-M "C 2/C"
_symmetry_group_IT_number 15
_symmetry_cell_setting 'monoclinic'
loop_
_space_group_symop_operation_xyz
x,y,z
-x,y,1/2-z
-x,-y,-z
x,-y,1/2+z
1/2+x,1/2+y,z
1/2-x,1/2+y,1/2-z
1/2-x,1/2-y,-z
1/2+x,1/2-y,1/2+z
loop_
_atom_site_type_symbol
_atom_site_label
_atom_site_fract_x
_atom_site_fract_y
_atom_site_fract_z
Si Si1 0.837782 0.446815 0.979971
Si Si2 0.319383 0.878506 0.787465
Si Si3 0.843735 0.233930 0.986134
Si Si4 0.646421 0.921691 0.999374
Si Si5 0.648146 0.192881 0.617745
Si Si6 0.384302 0.156632 0.584064
O O1 0.763332 0.419324 0.963518
O O2 0.775416 0.514663 0.076241
O O3 0.000000 0.453887 0.750000
O O4 0.811860 0.404188 0.124371
O O5 0.365450 0.919625 0.622232
O O6 0.455183 0.842982 0.659219
O O7 0.201835 0.830602 0.902912
O O8 0.000000 0.228656 0.750000
O O9 0.750000 0.250000 0.000000
O O10 0.814686 0.283998 0.119420
O O11 0.500000 0.919650 0.250000
O O12 0.722422 0.860065 0.946824
O O13 0.500000 0.212691 0.750000
O O14 0.750000 0.250000 0.500000
O O15 0.625231 0.160622 0.768324
#
# Coordination Sequence:
#
# PCOD8136906 Si02
#       6
#     8   8   8   8   8   8
#     4   9  20  31  56  87 113 149 190 241 295 333
#     4  11  20  37  55  85 118 148 190 239 290 343
#     4  12  22  37  59  88 118 150 192 240 292 342
#     4  10  20  35  56  86 117 152 192 237 288 344
#     4  11  23  39  57  86 117 157 194 232 287 351
#     4  11  20  35  58  85 122 145 193 243 289 339
#
# _framework density 19.204507
#
# number of rings (size 3 to 8) (size 9 to 14) (size 15 to 20)
#    0.000    1.333    6.667    1.500    2.333    2.000 
#    0.000    0.000    0.000    2.000    0.000    0.000 
#    0.000    0.000    0.000    0.000    0.000    0.000 
#
# Total GULP energy -297421.556710 kJ/mol
# GULP energy per Si atom -12392.564863 kJ/mol
# Density = 1.916080 g / cm^3
# Si number density = 19.204507 Si / 1000 Ang^3
#
#
#
# Elastic Constant Matrix: (Units=GPa)
#
#
# Indices 1 2 3 4 5 6 
#
# 1 123.7472 64.0568 35.0369 -0.0019 20.4764 0.0028
# 2 64.0568 174.8784 31.4234 -0.0002 1.2145 0.0010
# 3 35.0369 31.4234 44.3685 -0.0015 5.1880 0.0032
# 4 -0.0019 -0.0002 -0.0015 18.4329 0.0018 0.1581
# 5 20.4764 1.2145 5.1880 0.0018 26.4462 -0.0031
# 6 0.0028 0.0010 0.0032 0.1581 -0.0031 30.3994
#
#
#
# Elastic Compliance Matrix: (Units=1/GPa)
#
#
# Indices 1 2 3 4 5 6 
#
# 1 0.013374 -0.003581 -0.006994 0.000002 -0.008819 -0.000001
# 2 -0.003581 0.007521 -0.002848 -0.000001 0.002986 0.000001
# 3 -0.006994 -0.002848 0.030121 0.000002 -0.000363 -0.000003
# 4 0.000002 -0.000001 0.000002 0.054253 -0.000005 -0.000282
# 5 -0.008819 0.002986 -0.000363 -0.000005 0.044575 0.000005
# 6 -0.000001 0.000001 -0.000003 -0.000282 0.000005 0.032897
#
#
# Mechanical properties :
#
#
# Convention : Reuss Voigt Hill
#
# Bulk Modulus (GPa) = 41.37304 67.11423 54.24364
# Shear Modulus (GPa) = 22.97341 29.22084 26.09713
#
# Velocity S-wave (km/s) = 3.46244 3.90495 3.69033
# Velocity P-wave (km/s) = 6.12983 7.44006 6.81650
#
# Compressibility (1/GPa) = 0.02417033
#
# Stress axis : x y z
#
# Youngs Moduli (GPa) = 74.77185 132.96259 33.19946
#
# Poissons Ratio (x) = 0.47612 0.23220
# Poissons Ratio (y) = 0.26775 0.09455
# Poissons Ratio (z) = 0.52295 0.37868
#
# Static dielectric constant tensor:
#      x y z
#    x 3.594830 0.000000 0.167100 
#    y 0.000000 4.158280 0.000010 
#    z 0.167100 0.000010 3.136210 
# 
# 
# High freq. dielectric constant tensor:
#      x y z
#    x 1.750510 0.000000 0.034350 
#    y 0.000000 1.764440 0.000000 
#    z 0.034350 0.000000 1.692440 
# 
# From -- ./inp_files/99297.got.cif
#   From: 2010.06.25/outbox.cif.g09.slc.cpg/sg15_50_cif.got.tgz:99297.got - 2010.06.28 07:06:18.
