data_PCOD8136981
_publ_section_title
;
Structure prediction by ZEFSAII (Michael W. Deem and Ramdas Pophale) SiO2 
 PCOD8136981
Probable space group: C 2/C
;
_chemical_formula_sum "Si O2"
_cell_formula_units_Z 48
_cell_length_a 8.308948
_cell_length_b 15.984299
_cell_length_c 18.572726
_cell_angle_alpha 90.000000
_cell_angle_beta 89.700436
_cell_angle_gamma 90.000000
_cell_volume 2466.660343
_symmetry_space_group_name_H-M "C 2/C"
_symmetry_group_IT_number 15
_symmetry_cell_setting 'monoclinic'
loop_
_space_group_symop_operation_xyz
x,y,z
-x,y,1/2-z
-x,-y,-z
x,-y,1/2+z
1/2+x,1/2+y,z
1/2-x,1/2+y,1/2-z
1/2-x,1/2-y,-z
1/2+x,1/2-y,1/2+z
loop_
_atom_site_type_symbol
_atom_site_label
_atom_site_fract_x
_atom_site_fract_y
_atom_site_fract_z
Si Si1 0.187197 0.225917 0.165101
Si Si2 0.605261 0.178889 0.045178
Si Si3 0.283092 0.604281 0.913015
Si Si4 0.692919 0.914835 0.932226
Si Si5 0.887737 0.166953 0.559962
Si Si6 0.314487 0.249719 0.670487
O O1 0.253695 0.137326 0.137648
O O2 0.266283 0.303832 0.122709
O O3 0.236282 0.232222 0.248049
O O4 0.996915 0.225912 0.154374
O O5 0.498509 0.095157 0.054949
O O6 0.475322 0.251474 0.025685
O O7 0.697037 0.197488 0.119182
O O8 0.731469 0.163872 0.980727
O O9 0.219780 0.511611 0.917568
O O10 0.477112 0.604478 0.908383
O O11 0.209839 0.650201 0.843222
O O12 0.792556 0.883914 0.000478
#
# Coordination Sequence:
#
# PCOD8136981 Si02
#       6
#     8   8   8   8   8   8
#     4  10  21  39  58  77 108 150 187 221 273 339
#     4  10  20  35  58  79 109 148 183 220 270 336
#     4  11  21  35  56  85 112 139 182 234 275 318
#     4  11  21  35  56  85 112 139 182 234 275 318
#     4  10  20  35  58  79 109 148 183 220 270 336
#     4  10  21  39  58  77 108 150 187 221 273 339
#
# _framework density 19.459509000000001
#
# number of rings (size 3 to 8) (size 9 to 14) (size 15 to 20)
#    0.000    1.667    0.000    8.000    0.000    6.000 
#    0.000    8.333    0.000    0.000    0.000    0.000 
#    0.000    0.000    0.000    0.000    0.000    0.000 
#
# Total GULP energy -297616.307254 kJ/mol
# GULP energy per Si atom -12400.679469 kJ/mol
# Density = 1.941522 g / cm^3
# Si number density = 19.459509 Si / 1000 Ang^3
#
#
#
# Elastic Constant Matrix: (Units=GPa)
#
#
# Indices 1 2 3 4 5 6 
#
# 1 61.8652 -2.1093 13.1268 0.0000 0.9523 0.0000
# 2 -2.1093 60.7630 8.3521 0.0000 8.4685 0.0000
# 3 13.1268 8.3521 89.0684 0.0000 1.0919 0.0000
# 4 0.0000 0.0000 0.0000 14.0735 0.0000 -7.7729
# 5 0.9523 8.4685 1.0919 0.0000 32.4345 0.0000
# 6 0.0000 0.0000 0.0000 -7.7729 0.0000 24.2261
#
#
#
# Elastic Compliance Matrix: (Units=1/GPa)
#
#
# Indices 1 2 3 4 5 6 
#
# 1 0.016752 0.001027 -0.002557 0.000000 -0.000674 0.000000
# 2 0.001027 0.017358 -0.001724 0.000000 -0.004504 0.000000
# 3 -0.002557 -0.001724 0.011764 0.000000 0.000129 0.000000
# 4 0.000000 0.000000 0.000000 0.086359 0.000000 0.027708
# 5 -0.000674 -0.004504 0.000129 0.000000 0.032023 0.000000
# 6 0.000000 0.000000 0.000000 0.027708 0.000000 0.050168
#
#
# Mechanical properties :
#
#
# Convention : Reuss Voigt Hill
#
# Bulk Modulus (GPa) = 25.40236 27.82619 26.61428
# Shear Modulus (GPa) = 21.36264 26.96862 24.16563
#
# Velocity S-wave (km/s) = 3.31690 3.72678 3.52780
# Velocity P-wave (km/s) = 5.26796 5.73142 5.50457
#
# Compressibility (1/GPa) = 0.03936642
#
# Stress axis : x y z
#
# Youngs Moduli (GPa) = 59.69400 57.61122 85.00347
#
# Poissons Ratio (x) = -0.05916 0.21735
# Poissons Ratio (y) = -0.06130 0.14653
# Poissons Ratio (z) = 0.15263 0.09931
#
# Static dielectric constant tensor:
#      x y z
#    x 3.894300 0.000000 -0.060000 
#    y 0.000000 3.479700 0.000000 
#    z -0.060000 0.000000 3.475030 
# 
# 
# High freq. dielectric constant tensor:
#      x y z
#    x 1.783450 0.000000 -0.001580 
#    y 0.000000 1.742320 0.000000 
#    z -0.001580 0.000000 1.748040 
# 
# From -- ./inp_files/189881.got.cif
#   From: 2010.06.25/outbox.cif.g09.slc.cpg/sg15_95_cif.got.tgz:189881.got - 2010.06.28 07:06:18.
