data_PCOD8136054
_publ_section_title
;
Structure prediction by ZEFSAII (Michael W. Deem and Ramdas Pophale) SiO2 
 PCOD8136054
Probable space group: C 2/C
;
_chemical_formula_sum "Si O2"
_cell_formula_units_Z 40
_cell_length_a 24.679880
_cell_length_b 7.612802
_cell_length_c 13.829585
_cell_angle_alpha 90.000000
_cell_angle_beta 42.698049
_cell_angle_gamma 90.000000
_cell_volume 1762.027403
_symmetry_space_group_name_H-M "C 2/C"
_symmetry_group_IT_number 15
_symmetry_cell_setting 'monoclinic'
loop_
_space_group_symop_operation_xyz
x,y,z
-x,y,1/2-z
-x,-y,-z
x,-y,1/2+z
1/2+x,1/2+y,z
1/2-x,1/2+y,1/2-z
1/2-x,1/2-y,-z
1/2+x,1/2-y,1/2+z
loop_
_atom_site_type_symbol
_atom_site_label
_atom_site_fract_x
_atom_site_fract_y
_atom_site_fract_z
Si Si1 0.672005 0.055209 0.663187
Si Si2 0.387580 0.163211 0.559300
Si Si3 0.848296 0.960662 0.471027
Si Si4 0.453399 0.236105 0.215642
Si Si5 0.089034 0.684196 0.591831
O O1 0.657750 0.164065 0.779985
O O2 0.652468 0.173716 0.596718
O O3 0.762765 0.994916 0.536842
O O4 0.613770 0.889545 0.737443
O O5 0.338358 0.287814 0.551064
O O6 0.476474 0.249636 0.456557
O O7 0.394631 0.963865 0.509768
O O8 0.911532 0.918443 0.301169
O O9 0.886435 0.123183 0.482004
O O10 0.500000 0.155489 0.250000
O O11 0.000000 0.679422 0.750000
#
# Coordination Sequence:
#
# PCOD8136054 Si02
#       5
#     8   8   8   8   8
#     4  12  23  42  71 100 132 177 224 279 340 393
#     4  11  24  44  67  96 138 176 228 270 335 406
#     4  11  25  43  66  98 137 174 223 282 334 391
#     4  10  19  44  69  90 132 182 217 268 336 400
#     4  12  23  45  70  95 135 180 221 272 338 408
#
# _framework density 22.701122000000002
#
# number of rings (size 3 to 8) (size 9 to 14) (size 15 to 20)
#    0.000    0.800    6.000    3.600    2.800    0.000 
#    3.600    2.000    0.000    0.000    0.000    0.000 
#    0.000    0.000    0.000    0.000    0.000    0.000 
#
# Total GULP energy -247874.791680 kJ/mol
# GULP energy per Si atom -12393.739584 kJ/mol
# Density = 2.264945 g / cm^3
# Si number density = 22.701122 Si / 1000 Ang^3
#
#
#
# Elastic Constant Matrix: (Units=GPa)
#
#
# Indices 1 2 3 4 5 6 
#
# 1 82.0629 26.4848 44.4375 0.0020 -27.6005 -0.0022
# 2 26.4848 97.0478 29.8370 -0.0013 -9.7275 0.0004
# 3 44.4375 29.8370 88.9670 -0.0005 -14.3157 0.0011
# 4 0.0020 -0.0013 -0.0005 154.1564 -0.0008 -146.3498
# 5 -27.6005 -9.7275 -14.3157 -0.0008 43.8429 0.0008
# 6 -0.0022 0.0004 0.0011 -146.3498 0.0008 167.9330
#
#
#
# Elastic Compliance Matrix: (Units=1/GPa)
#
#
# Indices 1 2 3 4 5 6 
#
# 1 0.020479 -0.002169 -0.007921 0.000000 0.009825 0.000000
# 2 -0.002169 0.011796 -0.002819 0.000000 0.000331 0.000000
# 3 -0.007921 -0.002819 0.016084 0.000000 -0.000360 -0.000001
# 4 0.000000 0.000000 0.000000 0.037572 0.000000 0.032743
# 5 0.009825 0.000331 -0.000360 0.000000 0.028950 0.000000
# 6 0.000000 0.000000 -0.000001 0.032743 0.000000 0.034489
#
#
# Mechanical properties :
#
#
# Convention : Reuss Voigt Hill
#
# Bulk Modulus (GPa) = 44.36318 52.17737 48.27027
# Shear Modulus (GPa) = 27.36693 84.34102 55.85397
#
# Velocity S-wave (km/s) = 3.47584 6.10192 4.96563
# Velocity P-wave (km/s) = 5.97439 8.52520 7.36113
#
# Compressibility (1/GPa) = 0.02254122
#
# Stress axis : x y z
#
# Youngs Moduli (GPa) = 48.82976 84.77347 62.17340
#
# Poissons Ratio (x) = 0.18386 0.49246
# Poissons Ratio (y) = 0.10591 0.17530
# Poissons Ratio (z) = 0.38677 0.23902
#
# Static dielectric constant tensor:
#      x y z
#    x 3.935940 0.000000 -0.201290 
#    y 0.000000 4.302320 0.000000 
#    z -0.201290 0.000000 4.213910 
# 
# 
# High freq. dielectric constant tensor:
#      x y z
#    x 1.879250 0.000000 -0.026860 
#    y 0.000000 1.902050 0.000000 
#    z -0.026860 0.000000 1.891330 
# 
# From -- ./inp_files/171638.got.cif
#   From: 2010.06.25/outbox.cif.g09.slc.cpg/sg15_86_cif.got.tgz:171638.got - 2010.06.28 07:06:18.
