data_PCOD8136302
_publ_section_title
;
Structure prediction by ZEFSAII (Michael W. Deem and Ramdas Pophale) SiO2 
 PCOD8136302
Probable space group: C 2/C
;
_chemical_formula_sum "Si O2"
_cell_formula_units_Z 44
_cell_length_a 25.449097
_cell_length_b 8.862831
_cell_length_c 12.302789
_cell_angle_alpha 90.000000
_cell_angle_beta 124.020246
_cell_angle_gamma 90.000000
_cell_volume 2299.953647
_symmetry_space_group_name_H-M "C 2/C"
_symmetry_group_IT_number 15
_symmetry_cell_setting 'monoclinic'
loop_
_space_group_symop_operation_xyz
x,y,z
-x,y,1/2-z
-x,-y,-z
x,-y,1/2+z
1/2+x,1/2+y,z
1/2-x,1/2+y,1/2-z
1/2-x,1/2-y,-z
1/2+x,1/2-y,1/2+z
loop_
_atom_site_type_symbol
_atom_site_label
_atom_site_fract_x
_atom_site_fract_y
_atom_site_fract_z
Si Si1 0.899859 0.518490 0.487772
Si Si2 0.306864 0.035363 0.566039
Si Si3 0.391414 0.786903 0.772414
Si Si4 0.192734 0.709313 0.721209
Si Si5 0.702074 0.458832 0.288120
Si Si6 0.500000 0.125886 0.250000
O O1 0.850205 0.590670 0.515523
O O2 0.914922 0.639403 0.412093
O O3 0.869615 0.365269 0.403566
O O4 0.965528 0.481742 0.623167
O O5 0.302322 0.171300 0.645579
O O6 0.335971 0.887624 0.656287
O O7 0.237275 0.994508 0.442063
O O8 0.364703 0.620161 0.762635
O O9 0.449837 0.770816 0.756413
O O10 0.256176 0.653526 0.736106
O O11 0.188174 0.889388 0.703890
#
# Coordination Sequence:
#
# PCOD8136302 Si02
#       6
#     8   8   8   8   8   4
#     4   9  19  36  56  80 103 134 176 218 259 306
#     4   9  18  33  54  81 107 135 170 207 257 319
#     4  10  20  34  54  78 104 136 177 217 257 304
#     4  10  20  33  53  81 111 137 169 210 260 315
#     4  11  20  33  53  80 111 140 167 211 261 313
#     4  10  20  36  58  74  98 140 184 222 254 300
#
# _framework density 19.130821000000001
#
# number of rings (size 3 to 8) (size 9 to 14) (size 15 to 20)
#    0.000    2.182    0.000    4.909    0.000    2.909 
#    0.000    0.909    0.000   10.909    0.000    0.000 
#    0.000    0.000    0.000    0.000    0.000    0.000 
#
# Total GULP energy -272873.561433 kJ/mol
# GULP energy per Si atom -12403.343702 kJ/mol
# Density = 1.908728 g / cm^3
# Si number density = 19.130821 Si / 1000 Ang^3
#
#
#
# Elastic Constant Matrix: (Units=GPa)
#
#
# Indices 1 2 3 4 5 6 
#
# 1 104.4890 56.5999 44.5029 0.0000 -3.6599 0.0000
# 2 56.5999 106.0455 31.7835 0.0000 -0.0825 0.0000
# 3 44.5029 31.7835 117.1755 0.0000 0.7539 0.0000
# 4 0.0000 0.0000 0.0000 12.1969 0.0000 -5.6935
# 5 -3.6599 -0.0825 0.7539 0.0000 33.2970 0.0000
# 6 0.0000 0.0000 0.0000 -5.6935 0.0000 26.6943
#
#
#
# Elastic Compliance Matrix: (Units=1/GPa)
#
#
# Indices 1 2 3 4 5 6 
#
# 1 0.014971 -0.006837 -0.003842 0.000000 0.001716 0.000000
# 2 -0.006837 0.013387 -0.001030 0.000000 -0.000695 0.000000
# 3 -0.003842 -0.001030 0.010277 0.000000 -0.000658 0.000000
# 4 0.000000 0.000000 0.000000 0.091054 0.000000 0.019420
# 5 0.001716 -0.000695 -0.000658 0.000000 0.030234 0.000000
# 6 0.000000 0.000000 0.000000 0.019420 0.000000 0.041603
#
#
# Mechanical properties :
#
#
# Convention : Reuss Voigt Hill
#
# Bulk Modulus (GPa) = 65.72074 65.94253 65.83164
# Shear Modulus (GPa) = 21.73747 27.42588 24.58167
#
# Velocity S-wave (km/s) = 3.37449 3.79039 3.58847
# Velocity P-wave (km/s) = 7.04350 7.32804 7.18718
#
# Compressibility (1/GPa) = 0.01521590
#
# Stress axis : x y z
#
# Youngs Moduli (GPa) = 66.79747 74.69692 97.30388
#
# Poissons Ratio (x) = 0.51073 0.37386
# Poissons Ratio (y) = 0.45672 0.10022
# Poissons Ratio (z) = 0.25665 0.07694
#
# Static dielectric constant tensor:
#      x y z
#    x 3.490900 0.000000 -0.177320 
#    y 0.000000 3.189810 0.000000 
#    z -0.177320 0.000000 3.662170 
# 
# 
# High freq. dielectric constant tensor:
#      x y z
#    x 1.739720 0.000000 -0.016340 
#    y 0.000000 1.715730 0.000000 
#    z -0.016340 0.000000 1.755520 
# 
# From -- ./inp_files/109936.got.cif
#   From: 2010.06.25/outbox.cif.g09.slc.cpg/sg15_55_cif.got.tgz:109936.got - 2010.06.28 07:06:18.
