data_PCOD8136750
_publ_section_title
;
Structure prediction by ZEFSAII (Michael W. Deem and Ramdas Pophale) SiO2 
 PCOD8136750
Probable space group: C 2/C
;
_chemical_formula_sum "Si O2"
_cell_formula_units_Z 56
_cell_length_a 9.125550
_cell_length_b 27.585248
_cell_length_c 13.114552
_cell_angle_alpha 90.000000
_cell_angle_beta 127.748666
_cell_angle_gamma 90.000000
_cell_volume 2610.377049
_symmetry_space_group_name_H-M "C 2/C"
_symmetry_group_IT_number 15
_symmetry_cell_setting 'monoclinic'
loop_
_space_group_symop_operation_xyz
x,y,z
-x,y,1/2-z
-x,-y,-z
x,-y,1/2+z
1/2+x,1/2+y,z
1/2-x,1/2+y,1/2-z
1/2-x,1/2-y,-z
1/2+x,1/2-y,1/2+z
loop_
_atom_site_type_symbol
_atom_site_label
_atom_site_fract_x
_atom_site_fract_y
_atom_site_fract_z
Si Si1 0.105339 0.816210 0.583679
Si Si2 0.000000 0.792918 0.750000
Si Si3 0.330500 0.450136 0.751792
Si Si4 0.098818 0.724819 0.071475
Si Si5 0.500000 0.205922 0.250000
Si Si6 0.854954 0.547827 0.779557
Si Si7 0.086408 0.094557 0.521610
Si Si8 0.605697 0.885896 0.514103
O O1 0.069081 0.828468 0.688455
O O2 0.318657 0.824930 0.643436
O O3 0.038338 0.760759 0.545323
O O4 0.992925 0.854532 0.468886
O O5 0.183782 0.761720 0.858731
O O6 0.500000 0.462641 0.750000
O O7 0.191777 0.495512 0.695693
O O8 0.197682 0.407225 0.655356
O O9 0.418740 0.435882 0.898650
O O10 0.059291 0.735724 0.174512
O O11 0.053155 0.670046 0.015368
O O12 0.661330 0.567046 0.651690
O O13 0.000000 0.542239 0.750000
O O14 0.926055 0.583590 0.899841
O O15 0.247969 0.109404 0.513789
#
# Coordination Sequence:
#
# PCOD8136750 Si02
#       8
#     8   4   8   8   4   8   8   8
#     4  11  22  40  61  91 124 162 207 254 307 375
#     4  10  20  34  62  90 114 156 212 246 292 368
#     4  10  20  39  64  82 120 166 205 251 300 371
#     4  11  22  40  61  91 124 162 207 254 307 375
#     4  10  24  40  58  80 126 172 208 250 306 360
#     4  10  22  40  58  93 126 156 197 263 319 357
#     4  10  21  38  64  92 125 157 202 258 311 357
#     4  10  21  38  64  92 125 157 202 258 311 357
#
# _framework density 21.452839000000001
#
# number of rings (size 3 to 8) (size 9 to 14) (size 15 to 20)
#    0.000    1.714    1.429    3.429    2.000    2.286 
#   10.286    0.000    0.000    0.000    0.000    0.000 
#    0.000    0.000    0.000    0.000    0.000    0.000 
#
# Total GULP energy -346981.957691 kJ/mol
# GULP energy per Si atom -12392.212775 kJ/mol
# Density = 2.140401 g / cm^3
# Si number density = 21.452839 Si / 1000 Ang^3
#
#
#
# Elastic Constant Matrix: (Units=GPa)
#
#
# Indices 1 2 3 4 5 6 
#
# 1 75.2632 23.6692 24.6266 0.0000 15.6444 0.0000
# 2 23.6692 137.1975 53.9492 0.0000 17.8025 0.0000
# 3 24.6266 53.9492 131.9639 0.0000 22.9083 0.0000
# 4 0.0000 0.0000 0.0000 16.7586 0.0000 6.4513
# 5 15.6444 17.8025 22.9083 0.0000 29.8282 0.0000
# 6 0.0000 0.0000 0.0000 6.4513 0.0000 17.7944
#
#
#
# Elastic Compliance Matrix: (Units=1/GPa)
#
#
# Indices 1 2 3 4 5 6 
#
# 1 0.015433 -0.001358 -0.001223 0.000000 -0.006344 0.000000
# 2 -0.001358 0.009017 -0.003026 0.000000 -0.002346 0.000000
# 3 -0.001223 -0.003026 0.009944 0.000000 -0.005190 0.000000
# 4 0.000000 0.000000 0.000000 0.069350 0.000000 -0.025143
# 5 -0.006344 -0.002346 -0.005190 0.000000 0.042238 0.000000
# 6 0.000000 0.000000 0.000000 -0.025143 0.000000 0.065313
#
#
# Mechanical properties :
#
#
# Convention : Reuss Voigt Hill
#
# Bulk Modulus (GPa) = 43.14196 60.99051 52.06623
# Shear Modulus (GPa) = 21.71682 29.02154 25.36918
#
# Velocity S-wave (km/s) = 3.18513 3.68204 3.44256
# Velocity P-wave (km/s) = 5.80349 6.82410 6.33438
#
# Compressibility (1/GPa) = 0.02317929
#
# Stress axis : x y z
#
# Youngs Moduli (GPa) = 64.79678 110.89872 100.56300
#
# Poissons Ratio (x) = 0.15062 0.12304
# Poissons Ratio (y) = 0.08801 0.30428
# Poissons Ratio (z) = 0.07928 0.33555
#
# Static dielectric constant tensor:
#      x y z
#    x 3.784030 0.000000 0.199650 
#    y 0.000000 3.663960 0.000000 
#    z 0.199650 0.000000 4.199220 
# 
# 
# High freq. dielectric constant tensor:
#      x y z
#    x 1.827510 0.000000 0.013320 
#    y 0.000000 1.825890 0.000000 
#    z 0.013320 0.000000 1.854440 
# 
# From -- ./inp_files/124535.got.cif
#   From: 2010.06.25/outbox.cif.g09.slc.cpg/sg15_63_cif.got.tgz:124535.got - 2010.06.28 07:06:18.
