data_PCOD8136849
_publ_section_title
;
Structure prediction by ZEFSAII (Michael W. Deem and Ramdas Pophale) SiO2 
 PCOD8136849
Probable space group: C 2/C
;
_chemical_formula_sum "Si O2"
_cell_formula_units_Z 44
_cell_length_a 12.037411
_cell_length_b 23.766126
_cell_length_c 13.006699
_cell_angle_alpha 90.000000
_cell_angle_beta 143.473591
_cell_angle_gamma 90.000000
_cell_volume 2214.708460
_symmetry_space_group_name_H-M "C 2/C"
_symmetry_group_IT_number 15
_symmetry_cell_setting 'monoclinic'
loop_
_space_group_symop_operation_xyz
x,y,z
-x,y,1/2-z
-x,-y,-z
x,-y,1/2+z
1/2+x,1/2+y,z
1/2-x,1/2+y,1/2-z
1/2-x,1/2-y,-z
1/2+x,1/2-y,1/2+z
loop_
_atom_site_type_symbol
_atom_site_label
_atom_site_fract_x
_atom_site_fract_y
_atom_site_fract_z
Si Si1 0.163136 0.544806 0.613024
Si Si2 0.500000 0.485161 0.750000
Si Si3 0.915981 0.837925 0.989535
Si Si4 0.913094 0.942661 0.477379
Si Si5 0.144573 0.643212 0.449404
Si Si6 0.330973 0.263954 0.202505
O O1 0.345792 0.521839 0.692409
O O2 0.219575 0.565451 0.770259
O O3 0.088796 0.596805 0.491370
O O4 0.000000 0.500000 0.500000
O O5 0.389662 0.447394 0.583170
O O6 0.847147 0.866498 0.045943
O O7 0.753602 0.796353 0.824264
O O8 0.955040 0.888191 0.939907
O O9 0.103878 0.802239 0.152991
O O10 0.000000 0.000000 0.500000
O O11 0.159431 0.704101 0.516470
O O12 0.000000 0.641583 0.250000
O O13 0.500000 0.252454 0.250000
#
# Coordination Sequence:
#
# PCOD8136849 Si02
#       6
#     8   4   8   8   8   8
#     4  11  24  39  62  92 123 167 208 252 309 370
#     4  10  24  42  60  88 124 158 212 258 304 362
#     4  11  20  37  59  87 128 160 202 248 322 372
#     4  10  22  41  62  86 121 166 200 252 311 359
#     4  11  21  32  56  89 128 159 199 255 301 375
#     4  10  20  35  54  91 126 161 199 254 318 370
#
# _framework density 19.867175
#
# number of rings (size 3 to 8) (size 9 to 14) (size 15 to 20)
#    0.000    1.455    1.818    6.000    8.909    0.000 
#    0.000    0.000    0.000    1.091    0.000    0.000 
#    0.000    0.000    0.000    0.000    0.000    0.000 
#
# Total GULP energy -272608.084059 kJ/mol
# GULP energy per Si atom -12391.276548 kJ/mol
# Density = 1.982196 g / cm^3
# Si number density = 19.867175 Si / 1000 Ang^3
#
#
#
# Elastic Constant Matrix: (Units=GPa)
#
#
# Indices 1 2 3 4 5 6 
#
# 1 48.3208 34.2205 32.3326 0.0000 -4.5977 0.0000
# 2 34.2205 132.7053 54.3133 0.0000 -1.7217 0.0000
# 3 32.3326 54.3133 126.1820 0.0000 -12.6258 0.0000
# 4 0.0000 0.0000 0.0000 29.7367 0.0000 3.5482
# 5 -4.5977 -1.7217 -12.6258 0.0000 33.9026 0.0000
# 6 0.0000 0.0000 0.0000 3.5482 0.0000 41.2137
#
#
#
# Elastic Compliance Matrix: (Units=1/GPa)
#
#
# Indices 1 2 3 4 5 6 
#
# 1 0.027673 -0.005199 -0.004679 0.000000 0.001747 0.000000
# 2 -0.005199 0.010159 -0.003178 0.000000 -0.001373 0.000000
# 3 -0.004679 -0.003178 0.010815 0.000000 0.003232 0.000000
# 4 0.000000 0.000000 0.000000 0.033978 0.000000 -0.002925
# 5 0.001747 -0.001373 0.003232 0.000000 0.030867 0.000000
# 6 0.000000 0.000000 0.000000 -0.002925 0.000000 0.024516
#
#
# Mechanical properties :
#
#
# Convention : Reuss Voigt Hill
#
# Bulk Modulus (GPa) = 44.37123 60.99343 52.68233
# Shear Modulus (GPa) = 29.13237 33.39336 31.26287
#
# Velocity S-wave (km/s) = 3.83346 4.10424 3.97116
# Velocity P-wave (km/s) = 6.47891 7.29568 6.89939
#
# Compressibility (1/GPa) = 0.02253712
#
# Stress axis : x y z
#
# Youngs Moduli (GPa) = 36.13589 98.43538 92.46240
#
# Poissons Ratio (x) = 0.51173 0.43259
# Poissons Ratio (y) = 0.18786 0.29385
# Poissons Ratio (z) = 0.16906 0.31283
#
# Static dielectric constant tensor:
#      x y z
#    x 3.432540 0.000000 -0.139230 
#    y 0.000000 3.811800 0.000000 
#    z -0.139230 0.000000 4.258310 
# 
# 
# High freq. dielectric constant tensor:
#      x y z
#    x 1.706270 0.000000 0.007920 
#    y 0.000000 1.785940 0.000000 
#    z 0.007920 0.000000 1.800470 
# 
# From -- ./inp_files/91384.got.cif
#   From: 2010.06.25/outbox.cif.g09.slc.cpg/sg15_46_cif.got.tgz:91384.got - 2010.06.28 07:06:18.
