data_PCOD8136665
_publ_section_title
;
Structure prediction by ZEFSAII (Michael W. Deem and Ramdas Pophale) SiO2 
 PCOD8136665
Probable space group: C 2/C
;
_chemical_formula_sum "Si O2"
_cell_formula_units_Z 60
_cell_length_a 23.162175
_cell_length_b 11.937772
_cell_length_c 20.124994
_cell_angle_alpha 90.000000
_cell_angle_beta 149.458571
_cell_angle_gamma 90.000000
_cell_volume 2827.742918
_symmetry_space_group_name_H-M "C 2/C"
_symmetry_group_IT_number 15
_symmetry_cell_setting 'monoclinic'
loop_
_space_group_symop_operation_xyz
x,y,z
-x,y,1/2-z
-x,-y,-z
x,-y,1/2+z
1/2+x,1/2+y,z
1/2-x,1/2+y,1/2-z
1/2-x,1/2-y,-z
1/2+x,1/2-y,1/2+z
loop_
_atom_site_type_symbol
_atom_site_label
_atom_site_fract_x
_atom_site_fract_y
_atom_site_fract_z
Si Si1 0.375617 0.875686 0.427359
Si Si2 0.549222 0.950891 0.136871
Si Si3 0.844590 0.079225 0.147496
Si Si4 0.635935 0.532752 0.709808
Si Si5 0.101830 0.887055 0.555768
Si Si6 0.781793 0.054724 0.932626
Si Si7 0.000000 0.743153 0.750000
Si Si8 0.859952 0.695468 0.497152
O O1 0.379754 0.933570 0.359416
O O2 0.251881 0.900123 0.332869
O O3 0.377381 0.743193 0.431981
O O4 0.479682 0.931581 0.572498
O O5 0.643748 0.947011 0.289175
O O6 0.456077 0.849791 0.042599
O O7 0.747857 0.115615 0.104924
O O8 0.931375 0.181028 0.233552
O O9 0.904786 0.987045 0.253472
O O10 0.809465 0.039442 0.038842
O O11 0.652702 0.425343 0.677367
O O12 0.534450 0.603469 0.577079
O O13 0.160680 0.957065 0.553814
O O14 0.829781 0.174671 0.954537
O O15 0.910340 0.671233 0.620689
#
# Coordination Sequence:
#
# PCOD8136665 Si02
#       8
#     8   8   8   8   8   8   4   8
#     4  11  26  43  67  96 134 177 218 275 329 386
#     4  11  24  42  66  98 136 173 219 276 330 393
#     4  11  22  40  66  95 137 168 218 272 333 387
#     4  11  24  45  66  99 126 176 222 271 325 392
#     4  11  27  42  71  96 131 174 224 273 324 396
#     4  11  24  42  68 104 131 176 218 277 333 395
#     4  10  20  34  58  96 132 166 206 270 326 390
#     4  11  21  36  65  99 133 172 212 268 337 389
#
# _framework density 21.218336000000001
#
# number of rings (size 3 to 8) (size 9 to 14) (size 15 to 20)
#    0.000    1.067    2.667    4.800    9.333    0.000 
#    0.000    0.667    2.933    0.000    0.000    0.000 
#    0.000    0.000    0.000    0.000    0.000    0.000 
#
# Total GULP energy -371676.248525 kJ/mol
# GULP energy per Si atom -12389.208284 kJ/mol
# Density = 2.117004 g / cm^3
# Si number density = 21.218336 Si / 1000 Ang^3
#
#
#
# Elastic Constant Matrix: (Units=GPa)
#
#
# Indices 1 2 3 4 5 6 
#
# 1 74.5118 13.3601 22.8449 0.0000 -10.5445 0.0000
# 2 13.3601 115.1643 32.4859 0.0000 -11.1506 0.0000
# 3 22.8449 32.4859 96.0301 0.0000 -8.1177 0.0000
# 4 0.0000 0.0000 0.0000 21.2160 0.0000 -3.5887
# 5 -10.5445 -11.1506 -8.1177 0.0000 37.6352 0.0000
# 6 0.0000 0.0000 0.0000 -3.5887 0.0000 26.1076
#
#
#
# Elastic Compliance Matrix: (Units=1/GPa)
#
#
# Indices 1 2 3 4 5 6 
#
# 1 0.014939 -0.000537 -0.003088 0.000000 0.003361 0.000000
# 2 -0.000537 0.009798 -0.003009 0.000000 0.002104 0.000000
# 3 -0.003088 -0.003009 0.012241 0.000000 0.000883 0.000000
# 4 0.000000 0.000000 0.000000 0.048256 0.000000 0.006633
# 5 0.003361 0.002104 0.000883 0.000000 0.028326 0.000000
# 6 0.000000 0.000000 0.000000 0.006633 0.000000 0.039215
#
#
# Mechanical properties :
#
#
# Convention : Reuss Voigt Hill
#
# Bulk Modulus (GPa) = 42.17625 47.00977 44.59301
# Shear Modulus (GPa) = 28.74446 31.45945 30.10196
#
# Velocity S-wave (km/s) = 3.68462 3.85470 3.77062
# Velocity P-wave (km/s) = 6.16622 6.48190 6.32603
#
# Compressibility (1/GPa) = 0.02371003
#
# Stress axis : x y z
#
# Youngs Moduli (GPa) = 66.93738 102.06186 81.69453
#
# Poissons Ratio (x) = 0.05476 0.25230
# Poissons Ratio (y) = 0.03591 0.24583
# Poissons Ratio (z) = 0.20673 0.30711
#
# Static dielectric constant tensor:
#      x y z
#    x 3.771490 0.000000 0.201260 
#    y 0.000000 3.720200 0.000000 
#    z 0.201260 0.000000 4.022170 
# 
# 
# High freq. dielectric constant tensor:
#      x y z
#    x 1.830790 0.000000 0.011820 
#    y 0.000000 1.804320 0.000000 
#    z 0.011820 0.000000 1.859100 
# 
# From -- ./inp_files/255564.got.cif
#   From: 2010.06.25/outbox.cif.g09.slc.cpg/sg15_128_cif.got.tgz:255564.got - 2010.06.28 07:06:18.
