data_PCOD8136065
_publ_section_title
;
Structure prediction by ZEFSAII (Michael W. Deem and Ramdas Pophale) SiO2 
 PCOD8136065
Probable space group: C 2/C
;
_chemical_formula_sum "Si O2"
_cell_formula_units_Z 56
_cell_length_a 21.219693
_cell_length_b 25.167530
_cell_length_c 9.185677
_cell_angle_alpha 90.000000
_cell_angle_beta 133.245170
_cell_angle_gamma 90.000000
_cell_volume 3573.369503
_symmetry_space_group_name_H-M "C 2/C"
_symmetry_group_IT_number 15
_symmetry_cell_setting 'monoclinic'
loop_
_space_group_symop_operation_xyz
x,y,z
-x,y,1/2-z
-x,-y,-z
x,-y,1/2+z
1/2+x,1/2+y,z
1/2-x,1/2+y,1/2-z
1/2-x,1/2-y,-z
1/2+x,1/2-y,1/2+z
loop_
_atom_site_type_symbol
_atom_site_label
_atom_site_fract_x
_atom_site_fract_y
_atom_site_fract_z
Si Si1 0.020818 0.241399 0.448732
Si Si2 0.586289 0.748459 0.964181
Si Si3 0.314979 0.354275 0.944134
Si Si4 0.124846 0.061665 0.160049
Si Si5 0.675357 0.208162 0.353127
Si Si6 0.053420 0.877952 0.093432
Si Si7 0.598227 0.459473 0.938291
O O1 0.111516 0.269323 0.628502
O O2 0.023109 0.179139 0.489261
O O3 0.000000 0.252325 0.250000
O O4 0.941768 0.266977 0.418575
O O5 0.500000 0.725033 0.750000
O O6 0.655859 0.701368 0.080566
O O7 0.623297 0.797574 0.924714
O O8 0.383962 0.374928 0.170087
O O9 0.307117 0.396638 0.801277
O O10 0.220393 0.346357 0.870098
O O11 0.148591 0.050320 0.366066
O O12 0.028466 0.085911 0.992634
O O13 0.138352 0.007664 0.092156
O O14 0.750000 0.250000 0.500000
O O15 0.104794 0.905608 0.042432
O O16 0.500000 0.474949 0.750000
#
# Coordination Sequence:
#
# PCOD8136065 Si02
#       7
#     8   8   8   8   8   8   8
#     4  11  19  30  47  67  90 120 158 192 224 265
#     4   9  15  29  45  61  81 117 152 181 218 269
#     4  11  17  29  47  60  86 121 155 187 227 267
#     4  11  19  30  43  64  87 125 158 189 221 257
#     4   9  18  32  44  65  86 117 160 188 226 270
#     4  11  18  28  44  63  88 124 161 188 219 256
#     4  10  20  29  40  63  91 115 161 198 212 249
#
# _framework density 15.671484
#
# number of rings (size 3 to 8) (size 9 to 14) (size 15 to 20)
#    0.000    1.714    5.714    5.143    0.000    0.000 
#    0.000    4.286    0.000    0.000    0.000    0.000 
#    0.000    0.000    0.000   66.857    0.000    0.000 
#
# Total GULP energy -347008.723079 kJ/mol
# GULP energy per Si atom -12393.168681 kJ/mol
# Density = 1.563581 g / cm^3
# Si number density = 15.671484 Si / 1000 Ang^3
#
#
#
# Elastic Constant Matrix: (Units=GPa)
#
#
# Indices 1 2 3 4 5 6 
#
# 1 121.0461 49.9608 47.4248 0.0000 -28.1742 0.0000
# 2 49.9608 52.6151 16.8823 0.0000 -8.8832 0.0000
# 3 47.4248 16.8823 62.0334 0.0000 -21.0869 0.0000
# 4 0.0000 0.0000 0.0000 11.5978 0.0000 -6.6432
# 5 -28.1742 -8.8832 -21.0869 0.0000 29.3219 0.0000
# 6 0.0000 0.0000 0.0000 -6.6432 0.0000 30.0126
#
#
#
# Elastic Compliance Matrix: (Units=1/GPa)
#
#
# Indices 1 2 3 4 5 6 
#
# 1 0.019240 -0.014294 -0.007950 0.000000 0.008439 0.000000
# 2 -0.014294 0.031639 0.001200 0.000000 -0.003286 0.000000
# 3 -0.007950 0.001200 0.025675 0.000000 0.011189 0.000000
# 4 0.000000 0.000000 0.000000 0.098742 0.000000 0.021856
# 5 0.008439 -0.003286 0.011189 0.000000 0.049264 0.000000
# 6 0.000000 0.000000 0.000000 0.021856 0.000000 0.038157
#
#
# Mechanical properties :
#
#
# Convention : Reuss Voigt Hill
#
# Bulk Modulus (GPa) = 29.01407 51.58118 40.29762
# Shear Modulus (GPa) = 15.80808 22.28157 19.04483
#
# Velocity S-wave (km/s) = 3.17948 3.77475 3.48983
# Velocity P-wave (km/s) = 5.65976 7.20998 6.48139
#
# Compressibility (1/GPa) = 0.03446604
#
# Stress axis : x y z
#
# Youngs Moduli (GPa) = 51.97494 31.60698 38.94799
#
# Poissons Ratio (x) = 0.45178 0.30965
# Poissons Ratio (y) = 0.74291 -0.04674
# Poissons Ratio (z) = 0.41322 -0.03793
#
# Static dielectric constant tensor:
#      x y z
#    x 3.119490 0.000000 -0.555860 
#    y 0.000000 2.935770 0.000000 
#    z -0.555860 0.000000 2.680380 
# 
# 
# High freq. dielectric constant tensor:
#      x y z
#    x 1.601340 0.000000 -0.034890 
#    y 0.000000 1.571200 0.000000 
#    z -0.034890 0.000000 1.571680 
# 
# From -- ./inp_files/58503.got.cif
#   From: 2010.06.25/outbox.cif.g09.slc.cpg/sg15_30_cif.got.tgz:58503.got - 2010.06.28 07:06:18.
