data_PCOD8136192
_publ_section_title
;
Structure prediction by ZEFSAII (Michael W. Deem and Ramdas Pophale) SiO2 
 PCOD8136192
Probable space group: C 2/C
;
_chemical_formula_sum "Si O2"
_cell_formula_units_Z 60
_cell_length_a 20.372747
_cell_length_b 13.420528
_cell_length_c 9.892592
_cell_angle_alpha 90.000000
_cell_angle_beta 85.146875
_cell_angle_gamma 90.000000
_cell_volume 2695.066472
_symmetry_space_group_name_H-M "C 2/C"
_symmetry_group_IT_number 15
_symmetry_cell_setting 'monoclinic'
loop_
_space_group_symop_operation_xyz
x,y,z
-x,y,1/2-z
-x,-y,-z
x,-y,1/2+z
1/2+x,1/2+y,z
1/2-x,1/2+y,1/2-z
1/2-x,1/2-y,-z
1/2+x,1/2-y,1/2+z
loop_
_atom_site_type_symbol
_atom_site_label
_atom_site_fract_x
_atom_site_fract_y
_atom_site_fract_z
Si Si1 0.898383 0.018281 0.108087
Si Si2 0.703641 0.187924 0.155509
Si Si3 0.693868 0.612318 0.559917
Si Si4 0.919630 0.429337 0.884975
Si Si5 0.437599 0.106943 0.074946
Si Si6 0.712292 0.585410 0.163041
Si Si7 0.500000 0.363703 0.750000
Si Si8 0.896509 0.812113 0.978123
O O1 0.837535 0.034237 0.220710
O O2 0.964965 0.064726 0.149655
O O3 0.878812 0.074086 0.971210
O O4 0.913092 0.902689 0.075849
O O5 0.688187 0.305936 0.181909
O O6 0.644717 0.138373 0.079364
O O7 0.720104 0.135327 0.295472
O O8 0.772925 0.175043 0.066182
O O9 0.737465 0.513345 0.580029
O O10 0.923344 0.443799 0.722251
O O11 0.983186 0.374742 0.940524
O O12 0.913164 0.536601 0.957378
O O13 0.398646 0.211258 0.066298
O O14 0.675016 0.666687 0.076330
O O15 0.448907 0.297840 0.845679
#
# Coordination Sequence:
#
# PCOD8136192 Si02
#       8
#     8   8   8   8   8   8   4   8
#     4   9  19  36  54  86 126 152 194 246 302 362
#     4  10  21  37  62  85 114 168 202 242 313 366
#     4   9  20  37  56  86 121 153 199 248 295 366
#     4  10  24  43  64  89 125 157 212 265 311 365
#     4  10  24  45  62  94 120 164 209 265 312 370
#     4   9  20  38  57  91 125 153 198 259 301 361
#     4  10  20  32  56  88 118 168 198 244 304 366
#     4  10  21  37  60  87 122 159 205 252 309 372
#
# _framework density 22.262902
#
# number of rings (size 3 to 8) (size 9 to 14) (size 15 to 20)
#    0.000    2.400    0.000    0.400    5.600    4.267 
#    4.800    0.667    0.000    0.000    0.000    0.000 
#    0.000    0.000    0.000    0.000    0.000    0.000 
#
# Total GULP energy -371766.717925 kJ/mol
# GULP energy per Si atom -12392.223931 kJ/mol
# Density = 2.221223 g / cm^3
# Si number density = 22.262902 Si / 1000 Ang^3
#
#
#
# Elastic Constant Matrix: (Units=GPa)
#
#
# Indices 1 2 3 4 5 6 
#
# 1 73.5311 49.6035 12.6456 0.0000 27.6956 0.0000
# 2 49.6035 168.7573 54.3495 0.0000 38.1365 0.0000
# 3 12.6456 54.3495 76.8220 0.0000 26.1512 0.0000
# 4 0.0000 0.0000 0.0000 32.8215 0.0000 4.2865
# 5 27.6956 38.1365 26.1512 0.0000 39.7486 0.0000
# 6 0.0000 0.0000 0.0000 4.2865 0.0000 24.2736
#
#
#
# Elastic Compliance Matrix: (Units=1/GPa)
#
#
# Indices 1 2 3 4 5 6 
#
# 1 0.020800 -0.004550 0.004178 0.000000 -0.012877 0.000000
# 2 -0.004550 0.009484 -0.005080 0.000000 -0.002587 0.000000
# 3 0.004178 -0.005080 0.019658 0.000000 -0.010971 0.000000
# 4 0.000000 0.000000 0.000000 0.031187 0.000000 -0.005507
# 5 -0.012877 -0.002587 -0.010971 0.000000 0.043830 0.000000
# 6 0.000000 0.000000 0.000000 -0.005507 0.000000 0.042170
#
#
# Mechanical properties :
#
#
# Convention : Reuss Voigt Hill
#
# Bulk Modulus (GPa) = 25.61525 61.36752 43.49138
# Shear Modulus (GPa) = 26.17201 32.86952 29.52077
#
# Velocity S-wave (km/s) = 3.43241 3.84660 3.64539
# Velocity P-wave (km/s) = 5.21913 6.88136 6.10707
#
# Compressibility (1/GPa) = 0.03903924
#
# Stress axis : x y z
#
# Youngs Moduli (GPa) = 48.07607 105.44617 50.87062
#
# Poissons Ratio (x) = 0.47974 -0.21255
# Poissons Ratio (y) = 0.21873 0.25842
# Poissons Ratio (z) = -0.20087 0.53565
#
# Static dielectric constant tensor:
#      x y z
#    x 3.946890 0.000000 0.221160 
#    y 0.000000 4.085650 0.000000 
#    z 0.221160 0.000000 4.187360 
# 
# 
# High freq. dielectric constant tensor:
#      x y z
#    x 1.871970 0.000000 0.010340 
#    y 0.000000 1.868290 0.000000 
#    z 0.010340 0.000000 1.872500 
# 
# From -- ./inp_files/111634.got.cif
#   From: 2010.06.25/outbox.cif.g09.slc.cpg/sg15_56_cif.got.tgz:111634.got - 2010.06.28 07:06:18.
