data_PCOD8136260
_publ_section_title
;
Structure prediction by ZEFSAII (Michael W. Deem and Ramdas Pophale) SiO2 
 PCOD8136260
Probable space group: C 2/C
;
_chemical_formula_sum "Si O2"
_cell_formula_units_Z 52
_cell_length_a 18.858106
_cell_length_b 31.144287
_cell_length_c 8.788600
_cell_angle_alpha 90.000000
_cell_angle_beta 34.381275
_cell_angle_gamma 90.000000
_cell_volume 2914.820983
_symmetry_space_group_name_H-M "C 2/C"
_symmetry_group_IT_number 15
_symmetry_cell_setting 'monoclinic'
loop_
_space_group_symop_operation_xyz
x,y,z
-x,y,1/2-z
-x,-y,-z
x,-y,1/2+z
1/2+x,1/2+y,z
1/2-x,1/2+y,1/2-z
1/2-x,1/2-y,-z
1/2+x,1/2-y,1/2+z
loop_
_atom_site_type_symbol
_atom_site_label
_atom_site_fract_x
_atom_site_fract_y
_atom_site_fract_z
Si Si1 0.152239 0.958507 0.302635
Si Si2 0.727132 0.282051 0.680107
Si Si3 0.000000 0.261940 0.750000
Si Si4 0.323196 0.791697 0.821862
Si Si5 0.146676 0.956504 0.654997
Si Si6 0.154460 0.126949 0.640902
Si Si7 0.873169 0.870559 0.664727
O O1 0.197394 0.957980 0.394997
O O2 0.208866 0.917159 0.115380
O O3 0.002372 0.957939 0.560985
O O4 0.205617 0.002316 0.134969
O O5 0.750000 0.250000 0.500000
O O6 0.839947 0.287799 0.606562
O O7 0.701955 0.328266 0.649641
O O8 0.606795 0.269007 0.993872
O O9 0.952222 0.291275 0.692110
O O10 0.250000 0.750000 0.000000
O O11 0.248742 0.834077 0.006502
O O12 0.193150 0.911188 0.639116
O O13 0.137380 0.120204 0.493724
O O14 0.018377 0.136276 0.957236
#
# Coordination Sequence:
#
# PCOD8136260 Si02
#       7
#     8   8   4   8   8   8   8
#     4   9  16  25  37  59  88 121 156 187 227 278
#     4  10  20  33  51  73  97 127 164 202 245 292
#     4  10  20  36  50  68 100 130 162 206 248 288
#     4   9  18  32  49  68  93 126 161 197 241 289
#     4   9  16  24  37  58  88 122 153 188 229 280
#     4   9  16  28  46  64  90 126 157 190 235 287
#     4   9  16  28  44  65  93 123 155 193 237 283
#
# _framework density 17.839860000000002
#
# number of rings (size 3 to 8) (size 9 to 14) (size 15 to 20)
#    0.000    2.769    0.000    3.692    0.000    6.769 
#    0.000    3.077    0.000    0.000    0.000    0.000 
#    0.000   19.692    0.000    0.154    0.000    0.000 
#
# Total GULP energy -322160.319142 kJ/mol
# GULP energy per Si atom -12390.781505 kJ/mol
# Density = 1.779926 g / cm^3
# Si number density = 17.839860 Si / 1000 Ang^3
#
#
#
# Elastic Constant Matrix: (Units=GPa)
#
#
# Indices 1 2 3 4 5 6 
#
# 1 102.2046 62.4786 21.0069 0.0000 10.5720 0.0000
# 2 62.4786 175.2479 34.5667 0.0000 22.9665 0.0000
# 3 21.0069 34.5667 32.2809 0.0000 15.6058 0.0000
# 4 0.0000 0.0000 0.0000 29.7512 0.0000 9.0903
# 5 10.5720 22.9665 15.6058 0.0000 20.1334 0.0000
# 6 0.0000 0.0000 0.0000 9.0903 0.0000 29.8472
#
#
#
# Elastic Compliance Matrix: (Units=1/GPa)
#
#
# Indices 1 2 3 4 5 6 
#
# 1 0.013019 -0.003832 -0.005081 0.000000 0.001474 0.000000
# 2 -0.003832 0.008529 -0.004651 0.000000 -0.004111 0.000000
# 3 -0.005081 -0.004651 0.056631 0.000000 -0.035922 0.000000
# 4 0.000000 0.000000 0.000000 0.037061 0.000000 -0.011287
# 5 0.001474 -0.004111 -0.035922 0.000000 0.081428 0.000000
# 6 0.000000 0.000000 0.000000 -0.011287 0.000000 0.036942
#
#
# Mechanical properties :
#
#
# Convention : Reuss Voigt Hill
#
# Bulk Modulus (GPa) = 19.58866 60.64865 40.11865
# Shear Modulus (GPa) = 18.00149 28.72511 23.36330
#
# Velocity S-wave (km/s) = 3.18002 4.01704 3.62278
# Velocity P-wave (km/s) = 4.94848 7.45556 6.32744
#
# Compressibility (1/GPa) = 0.05104994
#
# Stress axis : x y z
#
# Youngs Moduli (GPa) = 76.81113 117.25081 17.65822
#
# Poissons Ratio (x) = 0.44936 0.08972
# Poissons Ratio (y) = 0.29437 0.08213
# Poissons Ratio (z) = 0.39025 0.54535
#
# Static dielectric constant tensor:
#      x y z
#    x 3.689630 0.000000 0.204290 
#    y 0.000000 3.581910 0.000000 
#    z 0.204290 0.000000 2.796490 
# 
# 
# High freq. dielectric constant tensor:
#      x y z
#    x 1.682950 0.000000 0.035070 
#    y 0.000000 1.706380 0.000000 
#    z 0.035070 0.000000 1.629910 
# 
# From -- ./inp_files/59303.got.cif
#   From: 2010.06.25/outbox.cif.g09.slc.cpg/sg15_30_cif.got.tgz:59303.got - 2010.06.28 07:06:18.
