data_PCOD8136214
_publ_section_title
;
Structure prediction by ZEFSAII (Michael W. Deem and Ramdas Pophale) SiO2 
 PCOD8136214
Probable space group: C 2/C
;
_chemical_formula_sum "Si O2"
_cell_formula_units_Z 56
_cell_length_a 24.081903
_cell_length_b 11.148573
_cell_length_c 9.620713
_cell_angle_alpha 90.000000
_cell_angle_beta 107.233231
_cell_angle_gamma 90.000000
_cell_volume 2467.000472
_symmetry_space_group_name_H-M "C 2/C"
_symmetry_group_IT_number 15
_symmetry_cell_setting 'monoclinic'
loop_
_space_group_symop_operation_xyz
x,y,z
-x,y,1/2-z
-x,-y,-z
x,-y,1/2+z
1/2+x,1/2+y,z
1/2-x,1/2+y,1/2-z
1/2-x,1/2-y,-z
1/2+x,1/2-y,1/2+z
loop_
_atom_site_type_symbol
_atom_site_label
_atom_site_fract_x
_atom_site_fract_y
_atom_site_fract_z
Si Si1 0.051277 0.776494 0.692769
Si Si2 0.179894 0.218555 0.288074
Si Si3 0.292291 0.104083 0.462552
Si Si4 0.939536 0.532669 0.893275
Si Si5 0.619236 0.208482 0.190521
Si Si6 0.341381 0.850434 0.494951
Si Si7 0.988428 0.876998 0.406153
O O1 0.114570 0.832513 0.774238
O O2 0.055734 0.633467 0.724678
O O3 0.000000 0.833980 0.750000
O O4 0.034613 0.789234 0.516073
O O5 0.225989 0.117335 0.361518
O O6 0.196593 0.342249 0.377393
O O7 0.183831 0.252339 0.129625
O O8 0.335177 0.183165 0.397740
O O9 0.297885 0.962018 0.479625
O O10 0.915583 0.413472 0.805488
O O11 0.900268 0.588636 0.985090
O O12 0.000000 0.500000 0.000000
O O13 0.652057 0.228296 0.360311
O O14 0.576500 0.320530 0.121192
O O15 0.000000 0.891068 0.250000
O O16 0.000000 0.000000 0.500000
#
# Coordination Sequence:
#
# PCOD8136214 Si02
#       7
#     8   8   8   8   8   8   8
#     4  11  22  39  67  99 135 170 215 269 338 401
#     4  10  22  40  62  90 129 174 216 272 332 394
#     4  10  21  41  64  90 130 174 219 273 333 387
#     4  10  20  32  60 102 135 162 197 261 344 396
#     4  11  23  39  68  99 131 165 217 275 330 388
#     4  10  21  38  62  99 130 161 215 278 327 387
#     4  12  26  44  63  90 132 177 221 270 318 397
#
# _framework density 22.699631
#
# number of rings (size 3 to 8) (size 9 to 14) (size 15 to 20)
#    0.000    1.429    1.429    5.571    4.000    0.571 
#    2.571    0.000    6.286    0.000    0.000    0.000 
#    0.000    0.000    0.000    0.000    0.000    0.000 
#
# Total GULP energy -346961.645453 kJ/mol
# GULP energy per Si atom -12391.487338 kJ/mol
# Density = 2.264797 g / cm^3
# Si number density = 22.699631 Si / 1000 Ang^3
#
#
#
# Elastic Constant Matrix: (Units=GPa)
#
#
# Indices 1 2 3 4 5 6 
#
# 1 110.8294 34.4444 34.9797 0.0000 34.9851 0.0000
# 2 34.4444 80.4291 24.0287 0.0000 9.4767 0.0000
# 3 34.9797 24.0287 128.1899 0.0000 19.0214 0.0000
# 4 0.0000 0.0000 0.0000 25.7859 0.0000 7.8385
# 5 34.9851 9.4767 19.0214 0.0000 36.6743 0.0000
# 6 0.0000 0.0000 0.0000 7.8385 0.0000 23.5467
#
#
#
# Elastic Compliance Matrix: (Units=1/GPa)
#
#
# Indices 1 2 3 4 5 6 
#
# 1 0.014665 -0.004442 -0.001369 0.000000 -0.012132 0.000000
# 2 -0.004442 0.014698 -0.001742 0.000000 0.001343 0.000000
# 3 -0.001369 -0.001742 0.008928 0.000000 -0.002874 0.000000
# 4 0.000000 0.000000 0.000000 0.043147 0.000000 -0.014363
# 5 -0.012132 0.001343 -0.002874 0.000000 0.039984 0.000000
# 6 0.000000 0.000000 0.000000 -0.014363 0.000000 0.047250
#
#
# Mechanical properties :
#
#
# Convention : Reuss Voigt Hill
#
# Bulk Modulus (GPa) = 43.13290 56.26155 49.69723
# Shear Modulus (GPa) = 26.10888 32.26777 29.18833
#
# Velocity S-wave (km/s) = 3.39512 3.77438 3.58977
# Velocity P-wave (km/s) = 5.86617 6.62070 6.25482
#
# Compressibility (1/GPa) = 0.02318416
#
# Stress axis : x y z
#
# Youngs Moduli (GPa) = 68.18944 68.03699 112.01291
#
# Poissons Ratio (x) = 0.30222 0.15334
# Poissons Ratio (y) = 0.30290 0.19515
# Poissons Ratio (z) = 0.09335 0.11854
#
# Static dielectric constant tensor:
#      x y z
#    x 4.553670 0.000000 0.889590 
#    y 0.000000 3.994980 0.000000 
#    z 0.889590 0.000000 5.380030 
# 
# 
# High freq. dielectric constant tensor:
#      x y z
#    x 1.888660 0.000000 0.010480 
#    y 0.000000 1.876010 0.000000 
#    z 0.010480 0.000000 1.909470 
# 
# From -- ./inp_files/65530.got.cif
#   From: 2010.06.25/outbox.cif.g09.slc.cpg/sg15_33_cif.got.tgz:65530.got - 2010.06.28 07:06:18.
