data_PCOD8136418
_publ_section_title
;
Structure prediction by ZEFSAII (Michael W. Deem and Ramdas Pophale) SiO2 
 PCOD8136418
Probable space group: C 2/C
;
_chemical_formula_sum "Si O2"
_cell_formula_units_Z 64
_cell_length_a 24.915057
_cell_length_b 22.489911
_cell_length_c 18.373221
_cell_angle_alpha 90.000000
_cell_angle_beta 160.515462
_cell_angle_gamma 90.000000
_cell_volume 3433.990370
_symmetry_space_group_name_H-M "C 2/C"
_symmetry_group_IT_number 15
_symmetry_cell_setting 'monoclinic'
loop_
_space_group_symop_operation_xyz
x,y,z
-x,y,1/2-z
-x,-y,-z
x,-y,1/2+z
1/2+x,1/2+y,z
1/2-x,1/2+y,1/2-z
1/2-x,1/2-y,-z
1/2+x,1/2-y,1/2+z
loop_
_atom_site_type_symbol
_atom_site_label
_atom_site_fract_x
_atom_site_fract_y
_atom_site_fract_z
Si Si1 0.736259 0.451612 0.670271
Si Si2 0.272321 0.318054 0.612829
Si Si3 0.263738 0.048388 0.829725
Si Si4 0.921104 0.879594 0.509567
Si Si5 0.907024 0.004681 0.749784
Si Si6 0.592975 0.004681 0.250214
Si Si7 0.078898 0.379594 0.490436
Si Si8 0.727678 0.818054 0.387170
O O1 0.749997 0.500000 0.749997
O O2 0.552174 0.453026 0.404927
O O3 0.863989 0.468579 0.772722
O O4 0.788256 0.390003 0.776113
O O5 0.460490 0.328863 0.870293
O O6 0.160930 0.359830 0.519947
O O7 0.225243 0.250000 0.568416
O O8 0.249998 0.335217 0.499998
O O9 0.211741 0.109997 0.723883
O O10 0.136010 0.031421 0.727277
O O11 0.447825 0.046975 0.095070
O O12 0.839071 0.859830 0.480054
O O13 0.030302 0.937432 0.665154
O O14 0.749998 0.008429 0.499998
O O15 0.530300 0.937432 0.165150
O O16 0.960490 0.328863 0.370295
#
# Coordination Sequence:
#
# PCOD8136418 Si02
#       8
#     8   8   8   8   8   8   8   8
#     4  10  20  34  50  74 104 134 170 212 251 303
#     4  11  23  36  51  75 106 139 180 221 248 287
#     4  10  20  34  50  74 104 134 170 212 251 303
#     4  11  20  35  54  73 103 144 175 205 260 305
#     4  11  21  34  52  77 105 136 172 207 251 310
#     4  11  21  34  52  77 105 136 172 207 251 310
#     4  11  20  35  54  73 103 144 175 205 260 305
#     4  11  23  36  51  75 106 139 180 221 248 287
#
# _framework density 18.637211000000001
#
# number of rings (size 3 to 8) (size 9 to 14) (size 15 to 20)
#    0.000    1.250    0.000   10.500    0.000    6.000 
#    0.000    0.000    0.000    0.000    0.000    0.000 
#    0.000   70.000    0.000    0.000    0.000    0.000 
#
# Total GULP energy -396608.994442 kJ/mol
# GULP energy per Si atom -12394.031076 kJ/mol
# Density = 1.859479 g / cm^3
# Si number density = 18.637211 Si / 1000 Ang^3
#
#
#
# Elastic Constant Matrix: (Units=GPa)
#
#
# Indices 1 2 3 4 5 6 
#
# 1 117.5118 52.1114 27.2427 0.0000 21.7504 0.0000
# 2 52.1114 66.9763 39.3988 0.0000 -0.3677 0.0000
# 3 27.2427 39.3988 129.4561 0.0000 9.0492 0.0000
# 4 0.0000 0.0000 0.0000 27.5887 0.0000 1.4332
# 5 21.7504 -0.3677 9.0492 0.0000 35.0454 0.0000
# 6 0.0000 0.0000 0.0000 1.4332 0.0000 31.5131
#
#
#
# Elastic Compliance Matrix: (Units=1/GPa)
#
#
# Indices 1 2 3 4 5 6 
#
# 1 0.016055 -0.013389 0.001428 0.000000 -0.010474 0.000000
# 2 -0.013389 0.029447 -0.006871 0.000000 0.010393 0.000000
# 3 0.001428 -0.006871 0.009758 0.000000 -0.003478 0.000000
# 4 0.000000 0.000000 0.000000 0.036333 0.000000 -0.001652
# 5 -0.010474 0.010393 -0.003478 0.000000 0.036042 0.000000
# 6 0.000000 0.000000 0.000000 -0.001652 0.000000 0.031808
#
#
# Mechanical properties :
#
#
# Convention : Reuss Voigt Hill
#
# Bulk Modulus (GPa) = 56.82852 61.27223 59.05038
# Shear Modulus (GPa) = 24.63398 31.84219 28.23808
#
# Velocity S-wave (km/s) = 3.63955 4.13792 3.89671
# Velocity P-wave (km/s) = 6.94406 7.46843 7.21101
#
# Compressibility (1/GPa) = 0.01759680
#
# Stress axis : x y z
#
# Youngs Moduli (GPa) = 62.28675 33.95913 102.47757
#
# Poissons Ratio (x) = 0.45469 -0.14639
# Poissons Ratio (y) = 0.83398 0.70410
# Poissons Ratio (z) = -0.08898 0.23333
#
# Static dielectric constant tensor:
#      x y z
#    x 3.459410 0.000000 0.328290 
#    y 0.000000 3.862790 0.000000 
#    z 0.328290 0.000000 4.460740 
# 
# 
# High freq. dielectric constant tensor:
#      x y z
#    x 1.731070 0.000000 0.025460 
#    y 0.000000 1.680580 0.000000 
#    z 0.025460 0.000000 1.738660 
# 
# From -- ./inp_files/220421.got.cif
#   From: 2010.06.25/outbox.cif.g09.slc.cpg/sg15_111_cif.got.tgz:220421.got - 2010.06.28 07:06:18.
