data_PCOD8136344
_publ_section_title
;
Structure prediction by ZEFSAII (Michael W. Deem and Ramdas Pophale) SiO2 
 PCOD8136344
Probable space group: C 2/C
;
_chemical_formula_sum "Si O2"
_cell_formula_units_Z 56
_cell_length_a 9.350538
_cell_length_b 25.715183
_cell_length_c 13.134808
_cell_angle_alpha 90.000000
_cell_angle_beta 120.639114
_cell_angle_gamma 90.000000
_cell_volume 2717.361903
_symmetry_space_group_name_H-M "C 2/C"
_symmetry_group_IT_number 15
_symmetry_cell_setting 'monoclinic'
loop_
_space_group_symop_operation_xyz
x,y,z
-x,y,1/2-z
-x,-y,-z
x,-y,1/2+z
1/2+x,1/2+y,z
1/2-x,1/2+y,1/2-z
1/2-x,1/2-y,-z
1/2+x,1/2-y,1/2+z
loop_
_atom_site_type_symbol
_atom_site_label
_atom_site_fract_x
_atom_site_fract_y
_atom_site_fract_z
Si Si1 0.162889 0.462050 0.154516
Si Si2 0.999603 0.265136 0.866644
Si Si3 0.178261 0.826563 0.538007
Si Si4 0.836381 0.571544 0.444241
Si Si5 0.213626 0.026081 0.593592
Si Si6 0.683816 0.670218 0.275318
Si Si7 0.620584 0.563016 0.938614
O O1 0.149005 0.523153 0.126178
O O2 0.151213 0.457813 0.272622
O O3 0.333614 0.442921 0.163825
O O4 0.020861 0.423848 0.058503
O O5 0.815201 0.282397 0.835425
O O6 0.000000 0.244540 0.750000
O O7 0.130864 0.312935 0.921210
O O8 0.055672 0.220327 0.964067
O O9 0.161869 0.841391 0.649249
O O10 0.113857 0.876158 0.454523
O O11 0.712945 0.564060 0.495741
O O12 0.766836 0.621007 0.360041
O O13 0.045600 0.031311 0.597271
O O14 0.250210 0.967821 0.561229
O O15 0.500000 0.684647 0.250000
#
# Coordination Sequence:
#
# PCOD8136344 Si02
#       7
#     8   8   8   8   8   8   8
#     4  10  20  34  53  80 117 154 193 236 277 335
#     4   9  21  39  61  88 112 141 191 243 291 344
#     4  10  20  39  62  83 113 150 188 240 291 339
#     4  10  21  35  54  81 113 154 195 231 281 343
#     4  10  20  34  51  82 120 151 187 233 279 333
#     4  11  22  38  61  85 116 152 192 240 293 357
#     4  10  20  33  56  83 111 150 193 227 278 345
#
# _framework density 20.608224
#
# number of rings (size 3 to 8) (size 9 to 14) (size 15 to 20)
#    0.000    2.000    0.000    3.429    0.000    4.000 
#    0.000    5.714    0.000    0.000    0.000    0.000 
#    0.000    0.000    0.000    0.000    0.000    0.000 
#
# Total GULP energy -346904.850842 kJ/mol
# GULP energy per Si atom -12389.458959 kJ/mol
# Density = 2.056132 g / cm^3
# Si number density = 20.608224 Si / 1000 Ang^3
#
#
#
# Elastic Constant Matrix: (Units=GPa)
#
#
# Indices 1 2 3 4 5 6 
#
# 1 109.6279 32.1124 17.5466 0.0000 4.3521 0.0000
# 2 32.1124 83.5849 43.2681 0.0000 -5.0602 0.0000
# 3 17.5466 43.2681 107.3812 0.0000 -8.4305 0.0000
# 4 0.0000 0.0000 0.0000 35.5484 0.0000 5.3450
# 5 4.3521 -5.0602 -8.4305 0.0000 26.6441 0.0000
# 6 0.0000 0.0000 0.0000 5.3450 0.0000 21.4732
#
#
#
# Elastic Compliance Matrix: (Units=1/GPa)
#
#
# Indices 1 2 3 4 5 6 
#
# 1 0.010447 -0.004019 -0.000289 0.000000 -0.002561 0.000000
# 2 -0.004019 0.016688 -0.005914 0.000000 0.001955 0.000000
# 3 -0.000289 -0.005914 0.011955 0.000000 0.002707 0.000000
# 4 0.000000 0.000000 0.000000 0.029224 0.000000 -0.007274
# 5 -0.002561 0.001955 0.002707 0.000000 0.039178 0.000000
# 6 0.000000 0.000000 0.000000 -0.007274 0.000000 0.048380
#
#
# Mechanical properties :
#
#
# Convention : Reuss Voigt Hill
#
# Bulk Modulus (GPa) = 53.62988 54.04980 53.83984
# Shear Modulus (GPa) = 27.39252 30.57759 28.98506
#
# Velocity S-wave (km/s) = 3.64978 3.85614 3.75438
# Velocity P-wave (km/s) = 6.62127 6.79048 6.70641
#
# Compressibility (1/GPa) = 0.01864632
#
# Stress axis : x y z
#
# Youngs Moduli (GPa) = 95.72171 59.92423 83.64518
#
# Poissons Ratio (x) = 0.24085 0.02414
# Poissons Ratio (y) = 0.38473 0.49467
# Poissons Ratio (z) = 0.02763 0.35439
#
# Static dielectric constant tensor:
#      x y z
#    x 3.896450 0.000000 0.021630 
#    y 0.000000 3.363690 0.000000 
#    z 0.021630 0.000000 4.000270 
# 
# 
# High freq. dielectric constant tensor:
#      x y z
#    x 1.816340 0.000000 -0.002850 
#    y 0.000000 1.774380 0.000000 
#    z -0.002850 0.000000 1.818400 
# 
# From -- ./inp_files/81418.got.cif
#   From: 2010.06.25/outbox.cif.g09.slc.cpg/sg15_41_cif.got.tgz:81418.got - 2010.06.28 07:06:18.
