data_PCOD8136700
_publ_section_title
;
Structure prediction by ZEFSAII (Michael W. Deem and Ramdas Pophale) SiO2 
 PCOD8136700
Probable space group: C 2/C
;
_chemical_formula_sum "Si O2"
_cell_formula_units_Z 44
_cell_length_a 16.580634
_cell_length_b 17.221529
_cell_length_c 8.425797
_cell_angle_alpha 90.000000
_cell_angle_beta 126.565278
_cell_angle_gamma 90.000000
_cell_volume 1932.395361
_symmetry_space_group_name_H-M "C 2/C"
_symmetry_group_IT_number 15
_symmetry_cell_setting 'monoclinic'
loop_
_space_group_symop_operation_xyz
x,y,z
-x,y,1/2-z
-x,-y,-z
x,-y,1/2+z
1/2+x,1/2+y,z
1/2-x,1/2+y,1/2-z
1/2-x,1/2-y,-z
1/2+x,1/2-y,1/2+z
loop_
_atom_site_type_symbol
_atom_site_label
_atom_site_fract_x
_atom_site_fract_y
_atom_site_fract_z
Si Si1 0.884643 0.313355 0.586980
Si Si2 0.500000 0.469130 0.750000
Si Si3 0.749151 0.801128 0.772819
Si Si4 0.667997 0.965680 0.134122
Si Si5 0.364900 0.448488 0.855392
Si Si6 0.612361 0.888111 0.399034
O O1 0.830081 0.269857 0.371735
O O2 0.831307 0.286349 0.684487
O O3 0.874296 0.404774 0.543570
O O4 0.000000 0.289745 0.750000
O O5 0.412670 0.421050 0.740156
O O6 0.455255 0.526797 0.569861
O O7 0.812166 0.877989 0.882327
O O8 0.686975 0.816507 0.535016
O O9 0.652517 0.932865 0.292226
O O10 0.786071 0.980774 0.238860
O O11 0.610167 0.047851 0.039314
O O12 0.500000 0.854584 0.250000
#
# Coordination Sequence:
#
# PCOD8136700 Si02
#       6
#     8   4   8   8   8   8
#     4  11  23  41  65  90 125 174 211 257 318 379
#     4  10  20  34  60  88 116 162 208 252 316 362
#     4  10  23  41  61  91 129 164 213 264 312 374
#     4  11  21  37  63  90 128 157 208 265 317 368
#     4  10  20  37  59  89 122 157 207 262 306 367
#     4  11  21  37  64  94 125 163 207 262 317 375
#
# _framework density 22.769667999999999
#
# number of rings (size 3 to 8) (size 9 to 14) (size 15 to 20)
#    0.000    1.455    0.000    7.636    1.273    0.727 
#    3.273    0.000    4.000    0.000    0.000    0.000 
#    0.000    0.000    0.000    0.000    0.000    0.000 
#
# Total GULP energy -272617.207961 kJ/mol
# GULP energy per Si atom -12391.691271 kJ/mol
# Density = 2.271784 g / cm^3
# Si number density = 22.769668 Si / 1000 Ang^3
#
#
#
# Elastic Constant Matrix: (Units=GPa)
#
#
# Indices 1 2 3 4 5 6 
#
# 1 126.1357 16.9479 37.5896 0.0000 18.4954 0.0000
# 2 16.9479 59.6267 25.1157 0.0000 22.0096 0.0000
# 3 37.5896 25.1157 117.3243 0.0000 28.8905 0.0000
# 4 0.0000 0.0000 0.0000 27.5013 0.0000 -8.4846
# 5 18.4954 22.0096 28.8905 0.0000 42.1793 0.0000
# 6 0.0000 0.0000 0.0000 -8.4846 0.0000 11.4915
#
#
#
# Elastic Compliance Matrix: (Units=1/GPa)
#
#
# Indices 1 2 3 4 5 6 
#
# 1 0.008994 -0.000903 -0.002205 0.000000 -0.001962 0.000000
# 2 -0.000903 0.021318 -0.001964 0.000000 -0.009383 0.000000
# 3 -0.002205 -0.001964 0.011018 0.000000 -0.005555 0.000000
# 4 0.000000 0.000000 0.000000 0.047088 0.000000 0.034767
# 5 -0.001962 -0.009383 -0.005555 0.000000 0.033270 0.000000
# 6 0.000000 0.000000 0.000000 0.034767 0.000000 0.112690
#
#
# Mechanical properties :
#
#
# Convention : Reuss Voigt Hill
#
# Bulk Modulus (GPa) = 32.06518 51.37702 41.72110
# Shear Modulus (GPa) = 19.61409 31.12998 25.37204
#
# Velocity S-wave (km/s) = 2.93817 3.70154 3.34172
# Velocity P-wave (km/s) = 5.06196 6.39385 5.76649
#
# Compressibility (1/GPa) = 0.03118648
#
# Stress axis : x y z
#
# Youngs Moduli (GPa) = 111.18276 46.90786 90.75887
#
# Poissons Ratio (x) = 0.04237 0.20013
# Poissons Ratio (y) = 0.10044 0.17822
# Poissons Ratio (z) = 0.24517 0.09211
#
# Static dielectric constant tensor:
#      x y z
#    x 4.498390 0.000000 0.067060 
#    y 0.000000 3.898510 0.000000 
#    z 0.067060 0.000000 4.379390 
# 
# 
# High freq. dielectric constant tensor:
#      x y z
#    x 1.905690 0.000000 0.010310 
#    y 0.000000 1.862460 0.000000 
#    z 0.010310 0.000000 1.913400 
# 
# From -- ./inp_files/49261.got.cif
#   From: 2010.06.25/outbox.cif.g09.slc.cpg/sg15_25_cif.got.tgz:49261.got - 2010.06.28 07:06:18.
