data_PCOD8136612
_publ_section_title
;
Structure prediction by ZEFSAII (Michael W. Deem and Ramdas Pophale) SiO2 
 PCOD8136612
Probable space group: C 2/C
;
_chemical_formula_sum "Si O2"
_cell_formula_units_Z 52
_cell_length_a 15.690966
_cell_length_b 28.800031
_cell_length_c 8.713615
_cell_angle_alpha 90.000000
_cell_angle_beta 139.295880
_cell_angle_gamma 90.000000
_cell_volume 2567.972955
_symmetry_space_group_name_H-M "C 2/C"
_symmetry_group_IT_number 15
_symmetry_cell_setting 'monoclinic'
loop_
_space_group_symop_operation_xyz
x,y,z
-x,y,1/2-z
-x,-y,-z
x,-y,1/2+z
1/2+x,1/2+y,z
1/2-x,1/2+y,1/2-z
1/2-x,1/2-y,-z
1/2+x,1/2-y,1/2+z
loop_
_atom_site_type_symbol
_atom_site_label
_atom_site_fract_x
_atom_site_fract_y
_atom_site_fract_z
Si Si1 0.327835 0.962382 0.778114
Si Si2 0.909324 0.971229 0.489441
Si Si3 0.288709 0.727067 0.215587
Si Si4 0.600086 0.378302 0.176710
Si Si5 0.500000 0.014605 0.250000
Si Si6 0.810120 0.871389 0.868937
Si Si7 0.936986 0.782215 0.499647
O O1 0.291000 0.912564 0.796212
O O2 0.203728 0.996501 0.593821
O O3 0.392996 0.955373 0.698027
O O4 0.432081 0.981376 0.037095
O O5 0.843311 0.926057 0.317885
O O6 0.000000 0.000000 0.500000
O O7 0.000000 0.952494 0.750000
O O8 0.260459 0.672148 0.198904
O O9 0.446146 0.731934 0.460918
O O10 0.250000 0.750000 0.000000
O O11 0.194618 0.752328 0.210682
O O12 0.680583 0.361375 0.435765
O O13 0.450219 0.389766 0.007696
O O14 0.606203 0.335726 0.066500
O O15 0.000000 0.772271 0.750000
#
# Coordination Sequence:
#
# PCOD8136612 Si02
#       7
#     8   8   8   8   4   8   8
#     4  11  22  41  59  85 123 167 214 254 307 375
#     4  12  22  35  62  96 124 156 207 266 323 373
#     4   9  19  37  58  83 113 155 196 259 313 374
#     4  10  20  34  57  93 120 153 193 257 327 371
#     4  10  24  42  58  78 124 180 208 246 304 368
#     4  10  20  36  60  84 120 155 201 257 315 371
#     4   9  18  36  56  81 116 150 195 248 306 371
#
# _framework density 20.249434999999998
#
# number of rings (size 3 to 8) (size 9 to 14) (size 15 to 20)
#    0.000    1.846    1.538    3.231    0.000    0.615 
#    4.154    3.077    0.000    0.000    0.000    0.000 
#    0.000    0.000    0.000    0.000    0.000    0.000 
#
# Total GULP energy -322162.450774 kJ/mol
# GULP energy per Si atom -12390.863491 kJ/mol
# Density = 2.020335 g / cm^3
# Si number density = 20.249435 Si / 1000 Ang^3
#
#
#
# Elastic Constant Matrix: (Units=GPa)
#
#
# Indices 1 2 3 4 5 6 
#
# 1 97.0942 55.0048 23.9674 0.0000 17.6963 0.0000
# 2 55.0048 140.9484 35.5214 0.0000 15.4756 0.0000
# 3 23.9674 35.5214 57.0927 0.0000 0.0536 0.0000
# 4 0.0000 0.0000 0.0000 33.3055 0.0000 -3.1107
# 5 17.6963 15.4756 0.0536 0.0000 33.4156 0.0000
# 6 0.0000 0.0000 0.0000 -3.1107 0.0000 34.9577
#
#
#
# Elastic Compliance Matrix: (Units=1/GPa)
#
#
# Indices 1 2 3 4 5 6 
#
# 1 0.014586 -0.004168 -0.003524 0.000000 -0.005788 0.000000
# 2 -0.004168 0.010143 -0.004558 0.000000 -0.002483 0.000000
# 3 -0.003524 -0.004558 0.021827 0.000000 0.003942 0.000000
# 4 0.000000 0.000000 0.000000 0.030277 0.000000 0.002694
# 5 -0.005788 -0.002483 0.003942 0.000000 0.034135 0.000000
# 6 0.000000 0.000000 0.000000 0.002694 0.000000 0.028846
#
#
# Mechanical properties :
#
#
# Convention : Reuss Voigt Hill
#
# Bulk Modulus (GPa) = 45.34351 58.23584 51.78967
# Shear Modulus (GPa) = 29.12633 32.37853 30.75243
#
# Velocity S-wave (km/s) = 3.79671 4.00307 3.90125
# Velocity P-wave (km/s) = 6.45454 7.08433 6.77676
#
# Compressibility (1/GPa) = 0.02205387
#
# Stress axis : x y z
#
# Youngs Moduli (GPa) = 68.56101 98.59157 45.81434
#
# Poissons Ratio (x) = 0.41096 0.16146
# Poissons Ratio (y) = 0.28578 0.20884
# Poissons Ratio (z) = 0.24162 0.44942
#
# Static dielectric constant tensor:
#      x y z
#    x 4.403320 0.000000 0.253730 
#    y 0.000000 3.638660 0.000000 
#    z 0.253730 0.000000 3.719270 
# 
# 
# High freq. dielectric constant tensor:
#      x y z
#    x 1.794600 0.000000 0.004730 
#    y 0.000000 1.782700 0.000000 
#    z 0.004730 0.000000 1.776470 
# 
# From -- ./inp_files/35116.got.cif
#   From: 2010.06.25/outbox.cif.g09.slc.cpg/sg15_18_cif.got.tgz:35116.got - 2010.06.28 07:06:18.
