data_PCOD8136671
_publ_section_title
;
Structure prediction by ZEFSAII (Michael W. Deem and Ramdas Pophale) SiO2 
 PCOD8136671
Probable space group: C 2/C
;
_chemical_formula_sum "Si O2"
_cell_formula_units_Z 60
_cell_length_a 28.078205
_cell_length_b 8.684335
_cell_length_c 27.715779
_cell_angle_alpha 90.000000
_cell_angle_beta 26.750009
_cell_angle_gamma 90.000000
_cell_volume 3041.869949
_symmetry_space_group_name_H-M "C 2/C"
_symmetry_group_IT_number 15
_symmetry_cell_setting 'monoclinic'
loop_
_space_group_symop_operation_xyz
x,y,z
-x,y,1/2-z
-x,-y,-z
x,-y,1/2+z
1/2+x,1/2+y,z
1/2-x,1/2+y,1/2-z
1/2-x,1/2-y,-z
1/2+x,1/2-y,1/2+z
loop_
_atom_site_type_symbol
_atom_site_label
_atom_site_fract_x
_atom_site_fract_y
_atom_site_fract_z
Si Si1 0.605760 0.013571 0.580053
Si Si2 0.445333 0.027749 0.981476
Si Si3 0.642654 0.113978 0.343302
Si Si4 0.853145 0.009148 0.876005
Si Si5 0.508283 0.371042 0.921287
Si Si6 0.520558 0.358278 0.661391
Si Si7 0.000000 0.713454 0.250000
Si Si8 0.341426 0.545100 0.648835
O O1 0.604508 0.977173 0.524137
O O2 0.727404 0.000092 0.486147
O O3 0.556024 0.181212 0.633461
O O4 0.535011 0.891897 0.673281
O O5 0.509774 0.187138 0.921302
O O6 0.527200 0.897051 0.923954
O O7 0.355103 0.046950 0.103804
O O8 0.673301 0.290831 0.313498
O O9 0.727906 0.019503 0.235149
O O10 0.886181 0.963110 0.900562
O O11 0.909512 0.883753 0.789990
O O12 0.900581 0.180215 0.822854
O O13 0.497413 0.421765 0.875965
O O14 0.615171 0.429359 0.849408
O O15 0.411423 0.447710 0.037658
#
# Coordination Sequence:
#
# PCOD8136671 Si02
#       8
#     8   8   8   8   8   8   4   8
#     4  11  21  40  62  87 115 162 192 245 296 347
#     4   9  21  38  56  80 113 147 197 237 283 342
#     4  10  20  37  54  83 115 148 190 238 283 349
#     4  10  22  39  61  87 119 159 191 246 298 347
#     4   9  19  37  57  82 113 148 189 242 279 346
#     4   9  20  38  61  88 115 147 205 243 284 353
#     4  10  22  40  58  86 128 150 196 246 288 358
#     4  10  20  34  59  82 115 152 185 233 294 340
#
# _framework density 19.724709000000001
#
# number of rings (size 3 to 8) (size 9 to 14) (size 15 to 20)
#    0.000    2.400    0.000    2.400    1.867    3.200 
#    9.600    0.000    0.000    0.000    0.000    0.000 
#    0.000    0.000    0.000    0.000    0.000    0.000 
#
# Total GULP energy -371926.481054 kJ/mol
# GULP energy per Si atom -12397.549368 kJ/mol
# Density = 1.967982 g / cm^3
# Si number density = 19.724709 Si / 1000 Ang^3
#
#
#
# Elastic Constant Matrix: (Units=GPa)
#
#
# Indices 1 2 3 4 5 6 
#
# 1 81.6747 10.4473 18.4281 -0.0015 18.3898 -0.0011
# 2 10.4473 70.8022 31.3547 0.0014 -0.7505 -0.0035
# 3 18.4281 31.3547 70.4603 -0.0002 -2.2536 -0.0017
# 4 -0.0015 0.0014 -0.0002 29.6317 0.0000 -0.9988
# 5 18.3898 -0.7505 -2.2536 0.0000 24.7847 0.0005
# 6 -0.0011 -0.0035 -0.0017 -0.9988 0.0005 27.3819
#
#
#
# Elastic Compliance Matrix: (Units=1/GPa)
#
#
# Indices 1 2 3 4 5 6 
#
# 1 0.016076 -0.000581 -0.004341 0.000001 -0.012340 0.000001
# 2 -0.000581 0.017612 -0.007677 -0.000001 0.000266 0.000002
# 3 -0.004341 -0.007677 0.018894 0.000000 0.004706 0.000000
# 4 0.000001 -0.000001 0.000000 0.033789 -0.000001 0.001232
# 5 -0.012340 0.000266 0.004706 -0.000001 0.049940 -0.000001
# 6 0.000001 0.000002 0.000000 0.001232 -0.000001 0.036565
#
#
# Mechanical properties :
#
#
# Convention : Reuss Voigt Hill
#
# Bulk Modulus (GPa) = 36.51543 38.15528 37.33536
# Shear Modulus (GPa) = 24.13100 27.20678 25.66889
#
# Velocity S-wave (km/s) = 3.50149 3.71796 3.61135
# Velocity P-wave (km/s) = 5.90762 6.14954 6.02979
#
# Compressibility (1/GPa) = 0.02738568
#
# Stress axis : x y z
#
# Youngs Moduli (GPa) = 62.20484 56.77910 52.92557
#
# Poissons Ratio (x) = 0.03297 0.22974
# Poissons Ratio (y) = 0.03612 0.40631
# Poissons Ratio (z) = 0.27002 0.43589
#
# Static dielectric constant tensor:
#      x y z
#    x 3.602900 -0.000010 0.143170 
#    y -0.000010 3.611930 0.000020 
#    z 0.143170 0.000020 3.522170 
# 
# 
# High freq. dielectric constant tensor:
#      x y z
#    x 1.760860 0.000000 0.003850 
#    y 0.000000 1.773680 0.000000 
#    z 0.003850 0.000000 1.768270 
# 
# From -- ./inp_files/303081.got.cif
#   From: 2010.06.25/outbox.cif.g09.slc.cpg/sg15_152_cif.got.tgz:303081.got - 2010.06.28 07:06:18.
