data_PCOD8136619
_publ_section_title
;
Structure prediction by ZEFSAII (Michael W. Deem and Ramdas Pophale) SiO2 
 PCOD8136619
Probable space group: C 2/C
;
_chemical_formula_sum "Si O2"
_cell_formula_units_Z 52
_cell_length_a 28.283290
_cell_length_b 15.826616
_cell_length_c 8.741117
_cell_angle_alpha 90.000000
_cell_angle_beta 42.605580
_cell_angle_gamma 90.000000
_cell_volume 2648.744165
_symmetry_space_group_name_H-M "C 2/C"
_symmetry_group_IT_number 15
_symmetry_cell_setting 'monoclinic'
loop_
_space_group_symop_operation_xyz
x,y,z
-x,y,1/2-z
-x,-y,-z
x,-y,1/2+z
1/2+x,1/2+y,z
1/2-x,1/2+y,1/2-z
1/2-x,1/2-y,-z
1/2+x,1/2-y,1/2+z
loop_
_atom_site_type_symbol
_atom_site_label
_atom_site_fract_x
_atom_site_fract_y
_atom_site_fract_z
Si Si1 0.759299 0.090837 0.132582
Si Si2 0.083990 0.091482 0.810971
Si Si3 0.044419 0.562375 0.294063
Si Si4 0.203496 0.563620 0.938851
Si Si5 0.716058 0.760664 0.248409
Si Si6 0.062057 0.254475 0.714009
Si Si7 0.500000 0.499014 0.750000
O O1 0.753388 0.185030 0.218209
O O2 0.746119 0.019950 0.292638
O O3 0.835462 0.068939 0.889103
O O4 0.707330 0.081784 0.111622
O O5 0.072404 0.191406 0.830076
O O6 0.057710 0.059800 0.035605
O O7 0.040203 0.054936 0.775234
O O8 0.047151 0.659487 0.342511
O O9 0.000000 0.563917 0.250000
O O10 0.000000 0.500000 0.500000
O O11 0.124648 0.535573 0.082589
O O12 0.232925 0.646519 0.779044
O O13 0.631859 0.755240 0.441626
O O14 0.750000 0.750000 0.000000
O O15 0.000000 0.227360 0.750000
#
# Coordination Sequence:
#
# PCOD8136619 Si02
#       7
#     8   8   8   8   8   8   4
#     4  11  22  37  60  85 124 155 197 246 301 352
#     4  10  20  37  55  84 114 154 191 237 289 341
#     4  10  21  39  62  83 113 150 194 242 300 355
#     4  11  22  39  61  88 121 156 199 248 305 358
#     4  10  22  39  60  89 118 159 205 245 302 364
#     4   9  19  38  59  81 116 151 188 245 294 345
#     4  10  20  34  58  78 116 148 198 232 280 348
#
# _framework density 19.631945000000002
#
# number of rings (size 3 to 8) (size 9 to 14) (size 15 to 20)
#    0.000    1.846    0.769    3.231    0.000    3.692 
#    4.154    0.000    0.000    0.000    0.000    0.000 
#    0.000    0.000    0.000    0.000    0.000    0.000 
#
# Total GULP energy -322214.943694 kJ/mol
# GULP energy per Si atom -12392.882450 kJ/mol
# Density = 1.958726 g / cm^3
# Si number density = 19.631945 Si / 1000 Ang^3
#
#
#
# Elastic Constant Matrix: (Units=GPa)
#
#
# Indices 1 2 3 4 5 6 
#
# 1 64.8015 30.1191 24.4321 0.0000 -10.3025 0.0000
# 2 30.1191 141.6822 69.2048 0.0000 0.9363 0.0000
# 3 24.4321 69.2048 104.0591 0.0000 0.7295 0.0000
# 4 0.0000 0.0000 0.0000 40.1146 0.0000 8.4001
# 5 -10.3025 0.9363 0.7295 0.0000 32.8794 0.0000
# 6 0.0000 0.0000 0.0000 8.4001 0.0000 54.0326
#
#
#
# Elastic Compliance Matrix: (Units=1/GPa)
#
#
# Indices 1 2 3 4 5 6 
#
# 1 0.018631 -0.002730 -0.002601 0.000000 0.005973 0.000000
# 2 -0.002730 0.010855 -0.006571 0.000000 -0.001019 0.000000
# 3 -0.002601 -0.006571 0.014597 0.000000 -0.000952 0.000000
# 4 0.000000 0.000000 0.000000 0.025767 0.000000 -0.004006
# 5 0.005973 -0.001019 -0.000952 0.000000 0.032336 0.000000
# 6 0.000000 0.000000 0.000000 -0.004006 0.000000 0.019130
#
#
# Mechanical properties :
#
#
# Convention : Reuss Voigt Hill
#
# Bulk Modulus (GPa) = 49.31003 62.00610 55.65806
# Shear Modulus (GPa) = 32.92104 37.85778 35.38941
#
# Velocity S-wave (km/s) = 4.09945 4.39609 4.25036
# Velocity P-wave (km/s) = 6.89776 7.57762 7.24567
#
# Compressibility (1/GPa) = 0.02027985
#
# Stress axis : x y z
#
# Youngs Moduli (GPa) = 53.67487 92.12693 68.50634
#
# Poissons Ratio (x) = 0.25148 0.17817
# Poissons Ratio (y) = 0.14651 0.45014
# Poissons Ratio (z) = 0.13960 0.60535
#
# Static dielectric constant tensor:
#      x y z
#    x 3.710110 0.000000 -0.161640 
#    y 0.000000 3.763860 0.000000 
#    z -0.161640 0.000000 3.511780 
# 
# 
# High freq. dielectric constant tensor:
#      x y z
#    x 1.768470 0.000000 -0.014020 
#    y 0.000000 1.784130 0.000000 
#    z -0.014020 0.000000 1.754590 
# 
# From -- ./inp_files/55394.got.cif
#   From: 2010.06.25/outbox.cif.g09.slc.cpg/sg15_28_cif.got.tgz:55394.got - 2010.06.28 07:06:18.
