data_PCOD8136879
_publ_section_title
;
Structure prediction by ZEFSAII (Michael W. Deem and Ramdas Pophale) SiO2 
 PCOD8136879
Probable space group: C 2/C
;
_chemical_formula_sum "Si O2"
_cell_formula_units_Z 60
_cell_length_a 25.717837
_cell_length_b 17.435243
_cell_length_c 8.427707
_cell_angle_alpha 90.000000
_cell_angle_beta 58.047743
_cell_angle_gamma 90.000000
_cell_volume 3206.404266
_symmetry_space_group_name_H-M "C 2/C"
_symmetry_group_IT_number 15
_symmetry_cell_setting 'monoclinic'
loop_
_space_group_symop_operation_xyz
x,y,z
-x,y,1/2-z
-x,-y,-z
x,-y,1/2+z
1/2+x,1/2+y,z
1/2-x,1/2+y,1/2-z
1/2-x,1/2-y,-z
1/2+x,1/2-y,1/2+z
loop_
_atom_site_type_symbol
_atom_site_label
_atom_site_fract_x
_atom_site_fract_y
_atom_site_fract_z
Si Si1 0.000000 0.681045 0.250000
Si Si2 0.814617 0.706548 0.202584
Si Si3 0.730144 0.165438 0.735365
Si Si4 0.701172 0.607562 0.426201
Si Si5 0.020027 0.418133 0.404887
Si Si6 0.656348 0.904312 0.097477
Si Si7 0.743118 0.486234 0.132349
Si Si8 0.372557 0.747376 0.914950
O O1 0.004881 0.636319 0.411987
O O2 0.941036 0.734991 0.357113
O O3 0.786695 0.775234 0.139964
O O4 0.757272 0.664756 0.382299
O O5 0.862763 0.745703 0.242502
O O6 0.853974 0.640418 0.051076
O O7 0.702828 0.155408 0.605222
O O8 0.752173 0.080481 0.746749
O O9 0.674667 0.192764 0.934623
O O10 0.711043 0.564223 0.245096
O O11 0.699408 0.542277 0.562373
O O12 0.640183 0.658979 0.513618
O O13 0.093462 0.415239 0.292455
O O14 0.000000 0.402104 0.250000
O O15 0.000000 0.500000 0.500000
O O16 0.687705 0.988403 0.030012
#
# Coordination Sequence:
#
# PCOD8136879 Si02
#       8
#     4   8   8   8   8   8   8   8
#     4  12  26  44  66  82 114 174 210 250 288 344
#     4  10  20  36  60  84 118 152 189 242 302 356
#     4  11  19  35  57  87 117 147 189 238 302 356
#     4  10  20  35  55  88 117 148 185 236 301 368
#     4  12  27  43  59  88 122 165 213 245 284 343
#     4  11  24  35  55  86 122 150 194 245 289 356
#     4  11  20  32  57  87 115 149 178 234 310 356
#     4  11  21  39  59  81 114 156 204 237 287 355
#
# _framework density 18.712548999999999
#
# number of rings (size 3 to 8) (size 9 to 14) (size 15 to 20)
#    0.000    1.067    6.000    2.000    3.733    0.000 
#    0.000    0.000    0.000    0.800    0.000    0.000 
#    0.000    0.000    0.000    0.000    0.000    0.000 
#
# Total GULP energy -371725.974407 kJ/mol
# GULP energy per Si atom -12390.865814 kJ/mol
# Density = 1.866996 g / cm^3
# Si number density = 18.712549 Si / 1000 Ang^3
#
#
#
# Elastic Constant Matrix: (Units=GPa)
#
#
# Indices 1 2 3 4 5 6 
#
# 1 66.5120 39.2053 26.1533 0.0000 2.9091 0.0000
# 2 39.2053 108.3649 37.0753 0.0000 -7.6245 0.0000
# 3 26.1533 37.0753 72.8295 0.0000 1.2001 0.0000
# 4 0.0000 0.0000 0.0000 27.4939 0.0000 4.2055
# 5 2.9091 -7.6245 1.2001 0.0000 29.9396 0.0000
# 6 0.0000 0.0000 0.0000 4.2055 0.0000 29.3078
#
#
#
# Elastic Compliance Matrix: (Units=1/GPa)
#
#
# Indices 1 2 3 4 5 6 
#
# 1 0.020484 -0.006241 -0.004123 0.000000 -0.003414 0.000000
# 2 -0.006241 0.013366 -0.004632 0.000000 0.004196 0.000000
# 3 -0.004123 -0.004632 0.017594 0.000000 -0.001484 0.000000
# 4 0.000000 0.000000 0.000000 0.037188 0.000000 -0.005336
# 5 -0.003414 0.004196 -0.001484 0.000000 0.034860 0.000000
# 6 0.000000 0.000000 0.000000 -0.005336 0.000000 0.034886
#
#
# Mechanical properties :
#
#
# Convention : Reuss Voigt Hill
#
# Bulk Modulus (GPa) = 46.61472 50.28600 48.45036
# Shear Modulus (GPa) = 25.57283 27.03309 26.30296
#
# Velocity S-wave (km/s) = 3.70078 3.80498 3.75324
# Velocity P-wave (km/s) = 6.57466 6.79963 6.68809
#
# Compressibility (1/GPa) = 0.02145245
#
# Stress axis : x y z
#
# Youngs Moduli (GPa) = 48.81918 74.81696 56.83821
#
# Poissons Ratio (x) = 0.46690 0.23432
# Poissons Ratio (y) = 0.30466 0.26329
# Poissons Ratio (z) = 0.20126 0.34658
#
# Static dielectric constant tensor:
#      x y z
#    x 3.342430 0.000000 0.267060 
#    y 0.000000 3.559040 0.000000 
#    z 0.267060 0.000000 3.518670 
# 
# 
# High freq. dielectric constant tensor:
#      x y z
#    x 1.702390 0.000000 0.026450 
#    y 0.000000 1.731380 0.000000 
#    z 0.026450 0.000000 1.722260 
# 
# From -- ./inp_files/56650.got.cif
#   From: 2010.06.25/outbox.cif.g09.slc.cpg/sg15_29_cif.got.tgz:56650.got - 2010.06.28 07:06:18.
