data_PCOD8136343
_publ_section_title
;
Structure prediction by ZEFSAII (Michael W. Deem and Ramdas Pophale) SiO2 
 PCOD8136343
Probable space group: C 2/C
;
_chemical_formula_sum "Si O2"
_cell_formula_units_Z 56
_cell_length_a 10.925324
_cell_length_b 33.974548
_cell_length_c 8.428224
_cell_angle_alpha 90.000000
_cell_angle_beta 115.472731
_cell_angle_gamma 90.000000
_cell_volume 2824.300215
_symmetry_space_group_name_H-M "C 2/C"
_symmetry_group_IT_number 15
_symmetry_cell_setting 'monoclinic'
loop_
_space_group_symop_operation_xyz
x,y,z
-x,y,1/2-z
-x,-y,-z
x,-y,1/2+z
1/2+x,1/2+y,z
1/2-x,1/2+y,1/2-z
1/2-x,1/2-y,-z
1/2+x,1/2-y,1/2+z
loop_
_atom_site_type_symbol
_atom_site_label
_atom_site_fract_x
_atom_site_fract_y
_atom_site_fract_z
Si Si1 0.369949 0.608042 0.898071
Si Si2 0.787884 0.812203 0.952410
Si Si3 0.643218 0.256760 0.244743
Si Si4 0.855365 0.463663 0.737600
Si Si5 0.065394 0.188394 0.457631
Si Si6 0.353057 0.048716 0.608966
Si Si7 0.173090 0.103113 0.998673
O O1 0.270427 0.578058 0.929219
O O2 0.529765 0.599135 0.011887
O O3 0.341885 0.606636 0.697149
O O4 0.339365 0.650079 0.967496
O O5 0.719319 0.785441 0.777678
O O6 0.948522 0.817048 0.023148
O O7 0.766716 0.789199 0.107681
O O8 0.737670 0.857501 0.909980
O O9 0.500000 0.248860 0.250000
O O10 0.638309 0.271682 0.059320
O O11 0.817164 0.508588 0.679832
O O12 0.750013 0.435793 0.591334
O O13 0.000000 0.452364 0.750000
O O14 0.858610 0.458430 0.926192
O O15 0.000000 0.193752 0.250000
O O16 0.500000 0.064974 0.750000
#
# Coordination Sequence:
#
# PCOD8136343 Si02
#       7
#     8   8   8   8   8   8   8
#     4  10  21  37  60  86 122 155 200 249 297 354
#     4   9  18  33  56  79 109 148 195 233 282 343
#     4   9  17  34  55  81 107 150 195 236 282 350
#     4  11  23  40  64  88 120 158 199 244 303 358
#     4  10  20  33  56  81 115 151 187 239 300 345
#     4  11  23  41  63  86 120 160 198 246 301 361
#     4  10  20  37  60  90 118 158 202 250 299 352
#
# _framework density 19.827919000000001
#
# number of rings (size 3 to 8) (size 9 to 14) (size 15 to 20)
#    0.000    2.000    1.429    3.429    4.000    1.714 
#    0.000    0.000    0.000    0.000    0.000    0.000 
#    0.000    0.000    0.000    0.000    0.000    0.000 
#
# Total GULP energy -346956.511397 kJ/mol
# GULP energy per Si atom -12391.303978 kJ/mol
# Density = 1.978279 g / cm^3
# Si number density = 19.827919 Si / 1000 Ang^3
#
#
#
# Elastic Constant Matrix: (Units=GPa)
#
#
# Indices 1 2 3 4 5 6 
#
# 1 78.3676 65.5358 32.9364 0.0000 0.3165 0.0000
# 2 65.5358 128.1893 58.2995 0.0000 14.2941 0.0000
# 3 32.9364 58.2995 124.3389 0.0000 -6.4754 0.0000
# 4 0.0000 0.0000 0.0000 32.5837 0.0000 9.8404
# 5 0.3165 14.2941 -6.4754 0.0000 30.3399 0.0000
# 6 0.0000 0.0000 0.0000 9.8404 0.0000 28.9969
#
#
#
# Elastic Compliance Matrix: (Units=1/GPa)
#
#
# Indices 1 2 3 4 5 6 
#
# 1 0.023168 -0.012476 0.000006 0.000000 0.005637 0.000000
# 2 -0.012476 0.017726 -0.005496 0.000000 -0.009394 0.000000
# 3 0.000006 -0.005496 0.010873 0.000000 0.004910 0.000000
# 4 0.000000 0.000000 0.000000 0.034195 0.000000 -0.011604
# 5 0.005637 -0.009394 0.004910 0.000000 0.038375 0.000000
# 6 0.000000 0.000000 0.000000 -0.011604 0.000000 0.038424
#
#
# Mechanical properties :
#
#
# Convention : Reuss Voigt Hill
#
# Bulk Modulus (GPa) = 63.14485 71.60437 67.37461
# Shear Modulus (GPa) = 24.51317 29.99240 27.25278
#
# Velocity S-wave (km/s) = 3.51991 3.89348 3.71140
# Velocity P-wave (km/s) = 6.95955 7.51023 7.24013
#
# Compressibility (1/GPa) = 0.01583660
#
# Stress axis : x y z
#
# Youngs Moduli (GPa) = 43.16267 56.41366 91.96709
#
# Poissons Ratio (x) = 0.70382 -0.00057
# Poissons Ratio (y) = 0.53850 0.50544
# Poissons Ratio (z) = -0.00027 0.31004
#
# Static dielectric constant tensor:
#      x y z
#    x 3.932320 0.000000 0.226290 
#    y 0.000000 4.148910 0.000000 
#    z 0.226290 0.000000 3.657190 
# 
# 
# High freq. dielectric constant tensor:
#      x y z
#    x 1.748570 0.000000 -0.002520 
#    y 0.000000 1.780860 0.000000 
#    z -0.002520 0.000000 1.777560 
# 
# From -- ./inp_files/35775.got.cif
#   From: 2010.06.25/outbox.cif.g09.slc.cpg/sg15_18_cif.got.tgz:35775.got - 2010.06.28 07:06:18.
