data_PCOD8136681
_publ_section_title
;
Structure prediction by ZEFSAII (Michael W. Deem and Ramdas Pophale) SiO2 
 PCOD8136681
Probable space group: C 2/C
;
_chemical_formula_sum "Si O2"
_cell_formula_units_Z 52
_cell_length_a 19.540388
_cell_length_b 18.289889
_cell_length_c 9.219720
_cell_angle_alpha 90.000000
_cell_angle_beta 51.737705
_cell_angle_gamma 90.000000
_cell_volume 2587.220599
_symmetry_space_group_name_H-M "C 2/C"
_symmetry_group_IT_number 15
_symmetry_cell_setting 'monoclinic'
loop_
_space_group_symop_operation_xyz
x,y,z
-x,y,1/2-z
-x,-y,-z
x,-y,1/2+z
1/2+x,1/2+y,z
1/2-x,1/2+y,1/2-z
1/2-x,1/2-y,-z
1/2+x,1/2-y,1/2+z
loop_
_atom_site_type_symbol
_atom_site_label
_atom_site_fract_x
_atom_site_fract_y
_atom_site_fract_z
Si Si1 0.321553 0.646924 0.868430
Si Si2 0.500000 0.835885 0.250000
Si Si3 0.248590 0.738570 0.227978
Si Si4 0.830208 0.403448 0.560341
Si Si5 0.500000 0.901590 0.750000
Si Si6 0.000000 0.835798 0.250000
Si Si7 0.567723 0.217088 0.947342
Si Si8 0.818414 0.465644 0.890881
O O1 0.325265 0.701635 0.723182
O O2 0.418214 0.618347 0.791060
O O3 0.280039 0.695471 0.047183
O O4 0.256000 0.580091 0.926250
O O5 0.432659 0.890006 0.416241
O O6 0.458798 0.782219 0.185148
O O7 0.213606 0.677146 0.384973
O O8 0.327663 0.784755 0.190779
O O9 0.809701 0.451426 0.730823
O O10 0.799354 0.449946 0.459869
O O11 0.526769 0.853307 0.577591
O O12 0.416028 0.948846 0.817344
O O13 0.966432 0.788916 0.428714
#
# Coordination Sequence:
#
# PCOD8136681 Si02
#       8
#     8   4   8   8   4   4   8   8
#     4   9  17  33  62  86 112 147 201 245 289 338
#     4  12  23  36  53  87 120 157 188 240 301 358
#     4   9  18  36  57  85 113 153 194 247 283 351
#     4  11  25  37  55  81 121 157 197 236 294 352
#     4  11  19  36  60  86 114 165 191 232 284 360
#     4   9  18  34  61  89 110 142 199 256 285 338
#     4  10  20  34  59  87 118 147 193 244 293 338
#     4  11  23  38  56  84 121 160 195 239 288 358
#
# _framework density 20.098789
#
# number of rings (size 3 to 8) (size 9 to 14) (size 15 to 20)
#    0.000    1.846    3.077    1.385    6.462    1.846 
#    0.000    1.538    0.000    9.231    0.000    0.000 
#    0.000    0.000    0.000    0.000    0.000    0.000 
#
# Total GULP energy -322166.364953 kJ/mol
# GULP energy per Si atom -12391.014037 kJ/mol
# Density = 2.005304 g / cm^3
# Si number density = 20.098789 Si / 1000 Ang^3
#
#
#
# Elastic Constant Matrix: (Units=GPa)
#
#
# Indices 1 2 3 4 5 6 
#
# 1 104.3250 41.8898 26.1823 0.0000 -21.2375 0.0000
# 2 41.8898 74.7794 38.3584 0.0000 -10.1247 0.0000
# 3 26.1823 38.3584 70.3772 0.0000 -4.3187 0.0000
# 4 0.0000 0.0000 0.0000 10.1673 0.0000 3.1337
# 5 -21.2375 -10.1247 -4.3187 0.0000 36.3392 0.0000
# 6 0.0000 0.0000 0.0000 3.1337 0.0000 23.1210
#
#
#
# Elastic Compliance Matrix: (Units=1/GPa)
#
#
# Indices 1 2 3 4 5 6 
#
# 1 0.013620 -0.006103 -0.001366 0.000000 0.006097 0.000000
# 2 -0.006103 0.021893 -0.009576 0.000000 0.001395 0.000000
# 3 -0.001366 -0.009576 0.019869 0.000000 -0.001105 0.000000
# 4 0.000000 0.000000 0.000000 0.102643 0.000000 -0.013912
# 5 0.006097 0.001395 -0.001105 0.000000 0.031339 0.000000
# 6 0.000000 0.000000 0.000000 -0.013912 0.000000 0.045136
#
#
# Mechanical properties :
#
#
# Convention : Reuss Voigt Hill
#
# Bulk Modulus (GPa) = 46.97020 51.37142 49.17081
# Shear Modulus (GPa) = 18.13644 23.46223 20.79934
#
# Velocity S-wave (km/s) = 3.00720 3.42035 3.22041
# Velocity P-wave (km/s) = 5.95635 6.41976 6.19239
#
# Compressibility (1/GPa) = 0.02129009
#
# Stress axis : x y z
#
# Youngs Moduli (GPa) = 73.42015 45.67761 50.32961
#
# Poissons Ratio (x) = 0.27879 0.06877
# Poissons Ratio (y) = 0.44811 0.48196
# Poissons Ratio (z) = 0.10032 0.43741
#
# Static dielectric constant tensor:
#      x y z
#    x 3.892740 0.000000 -0.121730 
#    y 0.000000 3.564030 0.000000 
#    z -0.121730 0.000000 3.808620 
# 
# 
# High freq. dielectric constant tensor:
#      x y z
#    x 1.785300 0.000000 -0.003310 
#    y 0.000000 1.752560 0.000000 
#    z -0.003310 0.000000 1.774170 
# 
# From -- ./inp_files/48494.got.cif
#   From: 2010.06.25/outbox.cif.g09.slc.cpg/sg15_25_cif.got.tgz:48494.got - 2010.06.28 07:06:18.
