data_PCOD8136259
_publ_section_title
;
Structure prediction by ZEFSAII (Michael W. Deem and Ramdas Pophale) SiO2 
 PCOD8136259
Probable space group: C 2/C
;
_chemical_formula_sum "Si O2"
_cell_formula_units_Z 40
_cell_length_a 21.647217
_cell_length_b 19.482575
_cell_length_c 5.000043
_cell_angle_alpha 90.000000
_cell_angle_beta 79.753391
_cell_angle_gamma 90.000000
_cell_volume 2075.104031
_symmetry_space_group_name_H-M "C 2/C"
_symmetry_group_IT_number 15
_symmetry_cell_setting 'monoclinic'
loop_
_space_group_symop_operation_xyz
x,y,z
-x,y,1/2-z
-x,-y,-z
x,-y,1/2+z
1/2+x,1/2+y,z
1/2-x,1/2+y,1/2-z
1/2-x,1/2-y,-z
1/2+x,1/2-y,1/2+z
loop_
_atom_site_type_symbol
_atom_site_label
_atom_site_fract_x
_atom_site_fract_y
_atom_site_fract_z
Si Si1 0.645371 0.273152 0.583143
Si Si2 0.759573 0.957033 0.518463
Si Si3 0.568177 0.306126 0.132554
Si Si4 0.237017 0.687720 0.215848
Si Si5 0.592417 0.542737 0.569937
O O1 0.609434 0.310030 0.369425
O O2 0.702795 0.321745 0.634938
O O3 0.675623 0.202764 0.445672
O O4 0.599749 0.260111 0.873164
O O5 0.725236 0.883529 0.573318
O O6 0.833418 0.945078 0.488982
O O7 0.737539 0.988296 0.256140
O O8 0.500000 0.274082 0.250000
O O9 0.560064 0.384106 0.036935
O O10 0.250000 0.750000 0.000000
O O11 0.569791 0.488759 0.365925
#
# Coordination Sequence:
#
# PCOD8136259 Si02
#       5
#     8   8   8   8   8
#     4  11  23  37  59  84 106 152 198 230 302 328
#     4  10  22  33  54  84 119 148 185 236 292 336
#     4  12  24  39  54  78 116 150 200 248 276 325
#     4  11  22  38  65  83 118 151 197 240 289 367
#     4  10  20  33  51  72 108 154 198 233 271 324
#
# _framework density 19.276142
#
# number of rings (size 3 to 8) (size 9 to 14) (size 15 to 20)
#    0.000    1.200    4.000    1.800   11.200    0.800 
#    0.000    0.000    0.000    0.000    0.000    0.000 
#    0.000   16.000    0.000    0.000    0.000    0.000 
#
# Total GULP energy -248001.413616 kJ/mol
# GULP energy per Si atom -12400.070681 kJ/mol
# Density = 1.923227 g / cm^3
# Si number density = 19.276142 Si / 1000 Ang^3
#
#
#
# Elastic Constant Matrix: (Units=GPa)
#
#
# Indices 1 2 3 4 5 6 
#
# 1 63.2419 27.8550 46.9493 0.0000 -19.0091 0.0000
# 2 27.8550 75.1323 23.3262 0.0000 -16.1065 0.0000
# 3 46.9493 23.3262 117.6535 0.0000 -15.9439 0.0000
# 4 0.0000 0.0000 0.0000 34.6273 0.0000 -4.4097
# 5 -19.0091 -16.1065 -15.9439 0.0000 34.9050 0.0000
# 6 0.0000 0.0000 0.0000 -4.4097 0.0000 16.8377
#
#
#
# Elastic Compliance Matrix: (Units=1/GPa)
#
#
# Indices 1 2 3 4 5 6 
#
# 1 0.027162 -0.005627 -0.008603 0.000000 0.008266 0.000000
# 2 -0.005627 0.016459 -0.000430 0.000000 0.004334 0.000000
# 3 -0.008603 -0.000430 0.012105 0.000000 0.000646 0.000000
# 4 0.000000 0.000000 0.000000 0.029875 0.000000 0.007824
# 5 0.008266 0.004334 0.000646 0.000000 0.035445 0.000000
# 6 0.000000 0.000000 0.000000 0.007824 0.000000 0.061440
#
#
# Mechanical properties :
#
#
# Convention : Reuss Voigt Hill
#
# Bulk Modulus (GPa) = 37.87173 50.25429 44.06301
# Shear Modulus (GPa) = 22.66442 27.80046 25.23244
#
# Velocity S-wave (km/s) = 3.43268 3.80178 3.62193
# Velocity P-wave (km/s) = 5.94984 6.73785 6.35607
#
# Compressibility (1/GPa) = 0.02640492
#
# Stress axis : x y z
#
# Youngs Moduli (GPa) = 36.81585 60.75800 82.60758
#
# Poissons Ratio (x) = 0.34190 0.71069
# Poissons Ratio (y) = 0.20717 0.03555
# Poissons Ratio (z) = 0.31673 0.02615
#
# Static dielectric constant tensor:
#      x y z
#    x 3.376250 0.000000 -0.121330 
#    y 0.000000 3.269760 0.000000 
#    z -0.121330 0.000000 3.950920 
# 
# 
# High freq. dielectric constant tensor:
#      x y z
#    x 1.713110 0.000000 0.001500 
#    y 0.000000 1.716980 0.000000 
#    z 0.001500 0.000000 1.779800 
# 
# From -- ./inp_files/12750.got.cif
#   From: 2010.06.25/outbox.cif.g09.slc.cpg/sg15_7_cif.got.tgz:12750.got - 2010.06.28 07:06:18.
