data_PCOD8136278
_publ_section_title
;
Structure prediction by ZEFSAII (Michael W. Deem and Ramdas Pophale) SiO2 
 PCOD8136278
Probable space group: C 2/C
;
_chemical_formula_sum "Si O2"
_cell_formula_units_Z 48
_cell_length_a 16.161301
_cell_length_b 9.158208
_cell_length_c 21.842267
_cell_angle_alpha 90.000000
_cell_angle_beta 46.943768
_cell_angle_gamma 90.000000
_cell_volume 2362.186260
_symmetry_space_group_name_H-M "C 2/C"
_symmetry_group_IT_number 15
_symmetry_cell_setting 'monoclinic'
loop_
_space_group_symop_operation_xyz
x,y,z
-x,y,1/2-z
-x,-y,-z
x,-y,1/2+z
1/2+x,1/2+y,z
1/2-x,1/2+y,1/2-z
1/2-x,1/2-y,-z
1/2+x,1/2-y,1/2+z
loop_
_atom_site_type_symbol
_atom_site_label
_atom_site_fract_x
_atom_site_fract_y
_atom_site_fract_z
Si Si1 0.830216 0.916344 0.304502
Si Si2 0.754248 0.845204 0.920043
Si Si3 0.594184 0.627182 0.047023
Si Si4 0.440744 0.345908 0.374135
Si Si5 0.436017 0.068139 0.452092
Si Si6 0.591774 0.824398 0.401661
O O1 0.858067 0.856238 0.358100
O O2 0.727809 0.821515 0.327513
O O3 0.934452 0.902496 0.206443
O O4 0.793552 0.087852 0.334327
O O5 0.863235 0.813731 0.907881
O O6 0.679840 0.695602 0.952118
O O7 0.675683 0.968174 0.992305
O O8 0.597425 0.450838 0.049861
O O9 0.465746 0.679731 0.098107
O O10 0.435805 0.178306 0.395446
O O11 0.446758 0.161928 0.508501
O O12 0.545931 0.966263 0.388642
#
# Coordination Sequence:
#
# PCOD8136278 Si02
#       6
#     8   8   8   8   8   8
#     4   9  19  34  52  72 102 138 168 206 258 305
#     4   8  16  33  54  72  99 137 169 200 254 310
#     4   9  17  30  52  79 100 128 173 212 245 296
#     4  10  20  33  52  76 101 132 174 212 249 301
#     4   9  18  33  53  73 100 136 167 204 256 306
#     4   9  18  33  51  73 102 134 165 203 256 304
#
# _framework density 20.320159
#
# number of rings (size 3 to 8) (size 9 to 14) (size 15 to 20)
#    0.000    3.000    0.000    1.000    0.000    8.000 
#    0.000    0.000    0.000   48.000    0.000    0.000 
#    0.000    0.000    0.000    0.000    0.000    0.000 
#
# Total GULP energy -297328.622756 kJ/mol
# GULP energy per Si atom -12388.692615 kJ/mol
# Density = 2.027391 g / cm^3
# Si number density = 20.320159 Si / 1000 Ang^3
#
#
#
# Elastic Constant Matrix: (Units=GPa)
#
#
# Indices 1 2 3 4 5 6 
#
# 1 110.6103 23.4057 8.8750 0.0000 -23.3749 0.0000
# 2 23.4057 74.1438 24.1014 0.0000 5.0811 0.0002
# 3 8.8750 24.1014 51.4677 0.0000 -12.2740 0.0000
# 4 0.0000 0.0000 0.0000 19.6062 0.0000 -0.4016
# 5 -23.3749 5.0811 -12.2740 0.0000 28.4984 0.0000
# 6 0.0000 0.0002 0.0000 -0.4016 0.0000 32.8346
#
#
#
# Elastic Compliance Matrix: (Units=1/GPa)
#
#
# Indices 1 2 3 4 5 6 
#
# 1 0.012868 -0.006239 0.003884 0.000000 0.013340 0.000000
# 2 -0.006239 0.020186 -0.011652 0.000000 -0.013735 0.000000
# 3 0.003884 -0.011652 0.028387 0.000000 0.017489 0.000000
# 4 0.000000 0.000000 0.000000 0.051017 0.000000 0.000624
# 5 0.013340 -0.013735 0.017489 0.000000 0.056013 0.000000
# 6 0.000000 0.000000 0.000000 0.000624 0.000000 0.030463
#
#
# Mechanical properties :
#
#
# Convention : Reuss Voigt Hill
#
# Bulk Modulus (GPa) = 29.91605 38.77622 34.34613
# Shear Modulus (GPa) = 21.00028 28.17715 24.58872
#
# Velocity S-wave (km/s) = 3.21825 3.72783 3.48237
# Velocity P-wave (km/s) = 5.34451 6.13620 5.75399
#
# Compressibility (1/GPa) = 0.03342688
#
# Stress axis : x y z
#
# Youngs Moduli (GPa) = 77.70939 49.53968 35.22692
#
# Poissons Ratio (x) = 0.30908 -0.13682
# Poissons Ratio (y) = 0.48483 0.41048
# Poissons Ratio (z) = -0.30182 0.57725
#
# Static dielectric constant tensor:
#      x y z
#    x 3.853540 0.000000 -0.250460 
#    y 0.000000 3.619140 0.000000 
#    z -0.250460 0.000000 3.351010 
# 
# 
# High freq. dielectric constant tensor:
#      x y z
#    x 1.807930 0.000000 -0.026050 
#    y 0.000000 1.775380 0.000000 
#    z -0.026050 0.000000 1.743910 
# 
# From -- ./inp_files/276205.got.cif
#   From: 2010.06.25/outbox.cif.g09.slc.cpg/sg15_139_cif.got.tgz:276205.got - 2010.06.28 07:06:18.
