data_PCOD8136828
_publ_section_title
;
Structure prediction by ZEFSAII (Michael W. Deem and Ramdas Pophale) SiO2 
 PCOD8136828
Probable space group: C 2/C
;
_chemical_formula_sum "Si O2"
_cell_formula_units_Z 64
_cell_length_a 20.160214
_cell_length_b 18.910477
_cell_length_c 17.531182
_cell_angle_alpha 90.000000
_cell_angle_beta 29.918027
_cell_angle_gamma 90.000000
_cell_volume 3333.502944
_symmetry_space_group_name_H-M "C 2/C"
_symmetry_group_IT_number 15
_symmetry_cell_setting 'monoclinic'
loop_
_space_group_symop_operation_xyz
x,y,z
-x,y,1/2-z
-x,-y,-z
x,-y,1/2+z
1/2+x,1/2+y,z
1/2-x,1/2+y,1/2-z
1/2-x,1/2-y,-z
1/2+x,1/2-y,1/2+z
loop_
_atom_site_type_symbol
_atom_site_label
_atom_site_fract_x
_atom_site_fract_y
_atom_site_fract_z
Si Si1 0.249041 0.018533 0.911816
Si Si2 0.700978 0.149836 0.973529
Si Si3 0.266459 0.853265 0.893618
Si Si4 0.978451 0.168962 0.634607
Si Si5 0.522195 0.494316 0.390171
Si Si6 0.282560 0.017814 0.051208
Si Si7 0.516270 0.063476 0.923068
Si Si8 0.983108 0.689912 0.068738
O O1 0.341321 0.060712 0.760155
O O2 0.283215 0.936933 0.871609
O O3 0.269643 0.046764 0.977580
O O4 0.096170 0.028505 0.040753
O O5 0.844323 0.186734 0.815502
O O6 0.700370 0.065721 0.966412
O O7 0.663766 0.171032 0.097307
O O8 0.591879 0.177343 0.024951
O O9 0.337622 0.825342 0.747222
O O10 0.113994 0.826517 0.048719
O O11 0.987416 0.224229 0.553205
O O12 0.960447 0.088980 0.630124
O O13 0.500000 0.500000 0.500000
O O14 0.651675 0.535575 0.231063
O O15 0.405019 0.057126 0.969022
O O16 0.508049 0.141398 0.969990
O O17 0.500000 0.000000 0.000000
#
# Coordination Sequence:
#
# PCOD8136828 Si02
#       8
#     8   8   8   8   8   8   8   8
#     4  10  20  36  57  83 112 146 190 232 278 332
#     4  10  20  35  54  77 112 153 187 223 272 337
#     4  10  20  35  54  77 112 153 187 223 272 337
#     4  10  23  36  51  79 112 144 190 222 278 336
#     4  10  21  37  62  84 111 141 178 234 288 336
#     4  10  20  36  57  83 112 146 190 232 278 332
#     4  12  21  35  55  80 114 153 191 236 272 319
#     4  12  23  34  51  79 114 152 190 226 270 327
#
# _framework density 19.199024000000001
#
# number of rings (size 3 to 8) (size 9 to 14) (size 15 to 20)
#    0.000    1.500    2.500    3.000    3.500    8.000 
#    0.000    0.000    0.000    0.000    0.000    5.250 
#    0.000    0.000    0.000    0.000    0.000    0.000 
#
# Total GULP energy -396483.773807 kJ/mol
# GULP energy per Si atom -12390.117931 kJ/mol
# Density = 1.915533 g / cm^3
# Si number density = 19.199024 Si / 1000 Ang^3
#
#
#
# Elastic Constant Matrix: (Units=GPa)
#
#
# Indices 1 2 3 4 5 6 
#
# 1 64.1297 18.7134 3.6679 0.0063 8.5261 -0.0020
# 2 18.7134 45.3062 14.3694 0.0029 -0.0511 -0.0010
# 3 3.6679 14.3694 86.0781 0.0213 4.4233 -0.0159
# 4 0.0063 0.0029 0.0213 11.4996 -0.0141 10.4358
# 5 8.5261 -0.0511 4.4233 -0.0141 30.6394 0.0090
# 6 -0.0020 -0.0010 -0.0159 10.4358 0.0090 5.8607
#
#
#
# Elastic Compliance Matrix: (Units=1/GPa)
#
#
# Indices 1 2 3 4 5 6 
#
# 1 0.018565 -0.007929 0.000805 0.000049 -0.005296 -0.000072
# 2 -0.007929 0.026704 -0.004267 -0.000035 0.002867 0.000049
# 3 0.000805 -0.004267 0.012399 0.000094 -0.002021 -0.000131
# 4 0.000049 -0.000035 0.000094 -0.141183 -0.000166 0.251397
# 5 -0.005296 0.002867 -0.002021 -0.000166 0.034408 0.000236
# 6 -0.000072 0.000049 -0.000131 0.251397 0.000236 -0.277022
#
#
# Mechanical properties :
#
#
# Convention : Reuss Voigt Hill
#
# Bulk Modulus (GPa) = 28.66608 29.89060 29.27834
# Shear Modulus (GPa) = -17.13991 20.18416 1.52213
#
# Velocity S-wave (km/s) = -2.99113 3.24591 0.89137
# Velocity P-wave (km/s) = 1.74191 5.44523 4.04257
#
# Compressibility (1/GPa) = 0.03488443
#
# Stress axis : x y z
#
# Youngs Moduli (GPa) = 53.86396 37.44773 80.65027
#
# Poissons Ratio (x) = 0.29694 -0.06490
# Poissons Ratio (y) = 0.42711 0.34415
# Poissons Ratio (z) = -0.04334 0.15980
#
# Static dielectric constant tensor:
#      x y z
#    x 3.380370 0.000010 -0.274040 
#    y 0.000010 3.386900 0.000020 
#    z -0.274040 0.000020 3.597530 
# 
# 
# High freq. dielectric constant tensor:
#      x y z
#    x 1.739170 0.000000 -0.016100 
#    y 0.000000 1.716720 0.000000 
#    z -0.016100 0.000000 1.760260 
# 
# From -- ./inp_files/216160.got.cif
#   From: 2010.06.25/outbox.cif.g09.slc.cpg/sg15_109_cif.got.tgz:216160.got - 2010.06.28 07:06:18.
