data_PCOD8136964
_publ_section_title
;
Structure prediction by ZEFSAII (Michael W. Deem and Ramdas Pophale) SiO2 
 PCOD8136964
Probable space group: C 2/C
;
_chemical_formula_sum "Si O2"
_cell_formula_units_Z 56
_cell_length_a 20.319702
_cell_length_b 6.764697
_cell_length_c 23.800109
_cell_angle_alpha 90.000000
_cell_angle_beta 124.169366
_cell_angle_gamma 90.000000
_cell_volume 2706.762576
_symmetry_space_group_name_H-M "C 2/C"
_symmetry_group_IT_number 15
_symmetry_cell_setting 'monoclinic'
loop_
_space_group_symop_operation_xyz
x,y,z
-x,y,1/2-z
-x,-y,-z
x,-y,1/2+z
1/2+x,1/2+y,z
1/2-x,1/2+y,1/2-z
1/2-x,1/2-y,-z
1/2+x,1/2-y,1/2+z
loop_
_atom_site_type_symbol
_atom_site_label
_atom_site_fract_x
_atom_site_fract_y
_atom_site_fract_z
Si Si1 0.481997 0.031898 0.585866
Si Si2 0.139367 0.399774 0.226885
Si Si3 0.157832 0.801117 0.949863
Si Si4 0.753058 0.239078 0.321416
Si Si5 0.515796 0.724498 0.521329
Si Si6 0.819215 0.873918 0.659339
Si Si7 0.325785 0.411134 0.424866
O O1 0.473497 0.807105 0.557736
O O2 0.551462 0.044588 0.664954
O O3 0.398360 0.106152 0.571206
O O4 0.512246 0.153845 0.546405
O O5 0.198935 0.311459 0.209359
O O6 0.179914 0.598398 0.269610
O O7 0.125493 0.227372 0.266897
O O8 0.137295 0.906443 0.880361
O O9 0.250000 0.750000 0.000000
O O10 0.140943 0.944090 0.995231
O O11 0.716705 0.420882 0.337971
O O12 0.815326 0.125225 0.391606
O O13 0.500000 0.500000 0.500000
O O14 0.611319 0.729559 0.577666
O O15 0.754957 0.707414 0.615277
#
# Coordination Sequence:
#
# PCOD8136964 Si02
#       7
#     8   8   8   8   8   8   8
#     4  10  22  37  58  86 122 158 203 259 312 376
#     4  11  22  36  59  90 123 160 202 257 326 385
#     4   9  20  41  62  82 116 162 211 258 314 382
#     4  11  21  35  59  92 123 160 203 262 319 386
#     4  10  20  35  57  90 119 153 198 258 320 370
#     4  10  21  38  60  86 121 164 207 257 313 386
#     4   9  20  36  60  89 117 155 206 254 320 381
#
# _framework density 20.688924
#
# number of rings (size 3 to 8) (size 9 to 14) (size 15 to 20)
#    0.000    2.000    1.429    1.714    2.000    6.857 
#    0.000    7.143    0.000    5.143    0.000    0.000 
#    0.000    0.000    0.000    0.000    0.000    0.000 
#
# Total GULP energy -346912.640725 kJ/mol
# GULP energy per Si atom -12389.737169 kJ/mol
# Density = 2.064183 g / cm^3
# Si number density = 20.688924 Si / 1000 Ang^3
#
#
#
# Elastic Constant Matrix: (Units=GPa)
#
#
# Indices 1 2 3 4 5 6 
#
# 1 87.5943 32.3613 52.0218 0.0000 -8.1966 0.0001
# 2 32.3613 109.0627 53.1727 -0.0003 -20.2275 0.0007
# 3 52.0218 53.1727 115.5524 0.0000 -17.8391 -0.0001
# 4 0.0000 -0.0003 0.0000 25.6199 0.0000 2.9512
# 5 -8.1966 -20.2275 -17.8391 0.0000 35.6073 0.0000
# 6 0.0001 0.0007 -0.0001 2.9512 0.0000 22.8969
#
#
#
# Elastic Compliance Matrix: (Units=1/GPa)
#
#
# Indices 1 2 3 4 5 6 
#
# 1 0.015797 -0.001647 -0.006435 0.000000 -0.000523 0.000000
# 2 -0.001647 0.012641 -0.004363 0.000000 0.004616 0.000000
# 3 -0.006435 -0.004363 0.014033 0.000000 0.003071 0.000000
# 4 0.000000 0.000000 0.000000 0.039620 0.000000 -0.005107
# 5 -0.000523 0.004616 0.003071 0.000000 0.032124 0.000000
# 6 0.000000 0.000000 0.000000 -0.005107 0.000000 0.044332
#
#
# Mechanical properties :
#
#
# Convention : Reuss Voigt Hill
#
# Bulk Modulus (GPa) = 56.87744 65.25791 61.06767
# Shear Modulus (GPa) = 26.41339 28.46840 27.44090
#
# Velocity S-wave (km/s) = 3.57696 3.71350 3.64587
# Velocity P-wave (km/s) = 6.67914 7.07090 6.87781
#
# Compressibility (1/GPa) = 0.01758166
#
# Stress axis : x y z
#
# Youngs Moduli (GPa) = 63.30117 79.10823 71.26258
#
# Poissons Ratio (x) = 0.13031 0.45856
# Poissons Ratio (y) = 0.10427 0.31089
# Poissons Ratio (z) = 0.40733 0.34512
#
# Static dielectric constant tensor:
#      x y z
#    x -2.082450 -0.000050 -2.120100 
#    y -0.000050 2.774090 -0.000010 
#    z -2.120100 -0.000010 3.832050 
# 
# 
# High freq. dielectric constant tensor:
#      x y z
#    x 1.797470 0.000000 -0.005760 
#    y 0.000000 1.800880 0.000000 
#    z -0.005760 0.000000 1.820770 
# 
# From -- ./inp_files/301702.got.cif
#   From: 2010.06.25/outbox.cif.g09.slc.cpg/sg15_151_cif.got.tgz:301702.got - 2010.06.28 07:06:18.
