data_PCOD8136739
_publ_section_title
;
Structure prediction by ZEFSAII (Michael W. Deem and Ramdas Pophale) SiO2 
 PCOD8136739
Probable space group: C 2/C
;
_chemical_formula_sum "Si O2"
_cell_formula_units_Z 40
_cell_length_a 4.926723
_cell_length_b 20.887685
_cell_length_c 19.970725
_cell_angle_alpha 90.000000
_cell_angle_beta 114.302993
_cell_angle_gamma 90.000000
_cell_volume 1873.020918
_symmetry_space_group_name_H-M "C 2/C"
_symmetry_group_IT_number 15
_symmetry_cell_setting 'monoclinic'
loop_
_space_group_symop_operation_xyz
x,y,z
-x,y,1/2-z
-x,-y,-z
x,-y,1/2+z
1/2+x,1/2+y,z
1/2-x,1/2+y,1/2-z
1/2-x,1/2-y,-z
1/2+x,1/2-y,1/2+z
loop_
_atom_site_type_symbol
_atom_site_label
_atom_site_fract_x
_atom_site_fract_y
_atom_site_fract_z
Si Si1 0.469487 0.378807 0.944459
Si Si2 0.808814 0.751006 0.083937
Si Si3 0.336175 0.945373 0.296875
Si Si4 0.940409 0.461755 0.926517
Si Si5 0.673582 0.168537 0.893520
O O1 0.279882 0.318648 0.895404
O O2 0.254727 0.438735 0.930680
O O3 0.726251 0.400584 0.918619
O O4 0.603577 0.362937 0.030479
O O5 0.604703 0.804095 0.095798
O O6 0.150553 0.774928 0.129397
O O7 0.750000 0.750000 0.000000
O O8 0.500000 0.979507 0.250000
O O9 0.551459 0.884904 0.331409
O O10 0.000000 0.921852 0.250000
O O11 0.304038 0.992641 0.356389
O O12 0.000000 0.500000 0.000000
#
# Coordination Sequence:
#
# PCOD8136739 Si02
#       5
#     8   8   8   8   8
#     4  11  21  37  64  98 129 161 208 273 327 366
#     4  10  20  34  61  97 128 156 199 262 330 381
#     4  12  27  43  63  92 134 177 219 265 333 398
#     4  12  24  39  66  93 133 169 218 270 318 385
#     4  11  21  38  63  92 133 160 208 269 326 385
#
# _framework density 21.355874
#
# number of rings (size 3 to 8) (size 9 to 14) (size 15 to 20)
#    0.000    0.800    2.000    9.000    2.800    0.000 
#    0.000    0.000    0.000   18.000    0.000    0.000 
#    0.000    0.000    0.000    0.000    0.000    0.000 
#
# Total GULP energy -247965.556199 kJ/mol
# GULP energy per Si atom -12398.277810 kJ/mol
# Density = 2.130727 g / cm^3
# Si number density = 21.355874 Si / 1000 Ang^3
#
#
#
# Elastic Constant Matrix: (Units=GPa)
#
#
# Indices 1 2 3 4 5 6 
#
# 1 115.9574 18.6083 30.2958 0.0000 -8.6549 0.0000
# 2 18.6083 83.7242 37.9382 0.0000 -10.1962 0.0000
# 3 30.2958 37.9382 79.9764 0.0000 -1.8854 0.0000
# 4 0.0000 0.0000 0.0000 14.8204 0.0000 -0.3850
# 5 -8.6549 -10.1962 -1.8854 0.0000 19.9833 0.0000
# 6 0.0000 0.0000 0.0000 -0.3850 0.0000 60.4388
#
#
#
# Elastic Compliance Matrix: (Units=1/GPa)
#
#
# Indices 1 2 3 4 5 6 
#
# 1 0.009870 -0.000086 -0.003607 0.000000 0.003891 0.000000
# 2 -0.000086 0.016291 -0.007517 0.000000 0.007566 0.000000
# 3 -0.003607 -0.007517 0.017347 0.000000 -0.003761 0.000000
# 4 0.000000 0.000000 0.000000 0.067486 0.000000 0.000430
# 5 0.003891 0.007566 -0.003761 0.000000 0.055232 0.000000
# 6 0.000000 0.000000 0.000000 0.000430 0.000000 0.016548
#
#
# Mechanical properties :
#
#
# Convention : Reuss Voigt Hill
#
# Bulk Modulus (GPa) = 47.41681 50.37142 48.89411
# Shear Modulus (GPa) = 23.56015 31.90287 27.73151
#
# Velocity S-wave (km/s) = 3.32507 3.86925 3.60744
# Velocity P-wave (km/s) = 6.08218 6.60298 6.34792
#
# Compressibility (1/GPa) = 0.02108957
#
# Stress axis : x y z
#
# Youngs Moduli (GPa) = 101.31410 61.38526 57.64675
#
# Poissons Ratio (x) = 0.00526 0.20791
# Poissons Ratio (y) = 0.00867 0.43333
# Poissons Ratio (z) = 0.36540 0.46143
#
# Static dielectric constant tensor:
#      x y z
#    x 3.995340 0.000000 0.034080 
#    y 0.000000 4.232240 0.000000 
#    z 0.034080 0.000000 3.463250 
# 
# 
# High freq. dielectric constant tensor:
#      x y z
#    x 1.868860 0.000000 -0.001470 
#    y 0.000000 1.841890 0.000000 
#    z -0.001470 0.000000 1.795000 
# 
# From -- ./inp_files/185399.got.cif
#   From: 2010.06.25/outbox.cif.g09.slc.cpg/sg15_93_cif.got.tgz:185399.got - 2010.06.28 07:06:18.
