data_PCOD8136937
_publ_section_title
;
Structure prediction by ZEFSAII (Michael W. Deem and Ramdas Pophale) SiO2 
 PCOD8136937
Probable space group: C 2/C
;
_chemical_formula_sum "Si O2"
_cell_formula_units_Z 40
_cell_length_a 17.298878
_cell_length_b 13.391943
_cell_length_c 8.885578
_cell_angle_alpha 90.000000
_cell_angle_beta 93.541091
_cell_angle_gamma 90.000000
_cell_volume 2054.552515
_symmetry_space_group_name_H-M "C 2/C"
_symmetry_group_IT_number 15
_symmetry_cell_setting 'monoclinic'
loop_
_space_group_symop_operation_xyz
x,y,z
-x,y,1/2-z
-x,-y,-z
x,-y,1/2+z
1/2+x,1/2+y,z
1/2-x,1/2+y,1/2-z
1/2-x,1/2-y,-z
1/2+x,1/2-y,1/2+z
loop_
_atom_site_type_symbol
_atom_site_label
_atom_site_fract_x
_atom_site_fract_y
_atom_site_fract_z
Si Si1 0.660691 0.827172 0.440771
Si Si2 0.178543 0.104564 0.522006
Si Si3 0.492450 0.106718 0.427383
Si Si4 0.574769 0.244416 0.654584
Si Si5 0.088853 0.038765 0.220142
O O1 0.728397 0.912128 0.455878
O O2 0.677481 0.723730 0.527579
O O3 0.592481 0.864494 0.535856
O O4 0.641648 0.808727 0.261343
O O5 0.140411 0.060104 0.370272
O O6 0.129505 0.056332 0.650637
O O7 0.500000 0.102953 0.250000
O O8 0.557650 0.182925 0.500625
O O9 0.500000 0.000000 0.500000
O O10 0.500000 0.246296 0.750000
O O11 0.593153 0.360727 0.616698
O O12 0.000000 0.011217 0.250000
#
# Coordination Sequence:
#
# PCOD8136937 Si02
#       5
#     8   8   8   8   8
#     4   9  20  39  55  79 114 147 184 222 275 327
#     4  10  21  36  58  81 112 148 177 228 281 326
#     4  11  22  36  59  83 108 147 187 226 267 319
#     4   8  17  36  57  80 112 143 178 227 273 324
#     4  10  20  35  57  84 110 142 183 226 278 330
#
# _framework density 19.468959000000002
#
# number of rings (size 3 to 8) (size 9 to 14) (size 15 to 20)
#    0.000    2.400    0.000    3.600    0.000    5.600 
#    0.000    0.000    0.000    8.400    0.000    0.000 
#    0.000    0.000    0.000    0.000    0.000    0.000 
#
# Total GULP energy -247777.154300 kJ/mol
# GULP energy per Si atom -12388.857715 kJ/mol
# Density = 1.942465 g / cm^3
# Si number density = 19.468959 Si / 1000 Ang^3
#
#
#
# Elastic Constant Matrix: (Units=GPa)
#
#
# Indices 1 2 3 4 5 6 
#
# 1 135.5048 59.5679 63.7629 0.0000 13.5829 0.0000
# 2 59.5679 85.8138 44.3622 0.0000 -11.2703 0.0000
# 3 63.7629 44.3622 69.1279 0.0000 -11.6778 0.0000
# 4 0.0000 0.0000 0.0000 -87.2080 0.0000 -223.5116
# 5 13.5829 -11.2703 -11.6778 0.0000 25.2159 0.0000
# 6 0.0000 0.0000 0.0000 -223.5116 0.0000 -391.3981
#
#
#
# Elastic Compliance Matrix: (Units=1/GPa)
#
#
# Indices 1 2 3 4 5 6 
#
# 1 0.023717 -0.009450 -0.020269 0.000000 -0.026386 0.000000
# 2 -0.009450 0.021393 -0.002752 0.000000 0.013378 0.000000
# 3 -0.020269 -0.002752 0.039668 0.000000 0.028059 0.000000
# 4 0.000000 0.000000 0.000000 0.024734 0.000000 -0.014124
# 5 -0.026386 0.013378 0.028059 0.000000 0.072844 0.000000
# 6 0.000000 0.000000 0.000000 -0.014124 0.000000 0.005511
#
#
# Mechanical properties :
#
#
# Convention : Reuss Voigt Hill
#
# Bulk Modulus (GPa) = 50.41558 69.53693 59.97626
# Shear Modulus (GPa) = 19.27386 -82.49446 -31.61030
#
# Velocity S-wave (km/s) = 3.14981 -6.51646 -4.03380
# Velocity P-wave (km/s) = 6.25939 4.56341 3.02946
#
# Compressibility (1/GPa) = 0.01983514
#
# Stress axis : x y z
#
# Youngs Moduli (GPa) = 42.16447 46.74531 25.20954
#
# Poissons Ratio (x) = 0.44175 0.51097
# Poissons Ratio (y) = 0.39846 0.06937
# Poissons Ratio (z) = 0.85462 0.12863
#
# Static dielectric constant tensor:
#      x y z
#    x 3.618330 0.000000 0.353870 
#    y 0.000000 3.853560 0.000000 
#    z 0.353870 0.000000 3.571580 
# 
# 
# High freq. dielectric constant tensor:
#      x y z
#    x 1.758860 0.000000 0.025280 
#    y 0.000000 1.762710 0.000000 
#    z 0.025280 0.000000 1.745750 
# 
# From -- ./inp_files/46178.got.cif
#   From: 2010.06.25/outbox.cif.g09.slc.cpg/sg15_24_cif.got.tgz:46178.got - 2010.06.28 07:06:18.
