data_PCOD8136544
_publ_section_title
;
Structure prediction by ZEFSAII (Michael W. Deem and Ramdas Pophale) SiO2 
 PCOD8136544
Probable space group: C 2/C
;
_chemical_formula_sum "Si O2"
_cell_formula_units_Z 44
_cell_length_a 16.674163
_cell_length_b 15.354576
_cell_length_c 8.344863
_cell_angle_alpha 90.000000
_cell_angle_beta 88.626291
_cell_angle_gamma 90.000000
_cell_volume 2135.877034
_symmetry_space_group_name_H-M "C 2/C"
_symmetry_group_IT_number 15
_symmetry_cell_setting 'monoclinic'
loop_
_space_group_symop_operation_xyz
x,y,z
-x,y,1/2-z
-x,-y,-z
x,-y,1/2+z
1/2+x,1/2+y,z
1/2-x,1/2+y,1/2-z
1/2-x,1/2-y,-z
1/2+x,1/2-y,1/2+z
loop_
_atom_site_type_symbol
_atom_site_label
_atom_site_fract_x
_atom_site_fract_y
_atom_site_fract_z
Si Si1 0.550025 0.888409 0.439227
Si Si2 0.500000 0.532161 0.750000
Si Si3 0.873395 0.464551 0.768674
Si Si4 0.398603 0.209105 0.846955
Si Si5 0.721018 0.901515 0.010660
Si Si6 0.092097 0.898858 0.538853
O O1 0.577013 0.897276 0.621632
O O2 0.597036 0.810128 0.344426
O O3 0.455828 0.863126 0.433862
O O4 0.565525 0.980180 0.346457
O O5 0.568674 0.472893 0.666814
O O6 0.459952 0.593993 0.619803
O O7 0.811879 0.407736 0.667653
O O8 0.815328 0.523185 0.878030
O O9 0.308716 0.191528 0.915181
O O10 0.426733 0.306330 0.879572
O O11 0.815810 0.908433 0.011141
#
# Coordination Sequence:
#
# PCOD8136544 Si02
#       6
#     8   4   8   8   8   8
#     4   9  19  34  53  82 115 147 177 209 255 318
#     4  10  24  40  64  74  96 142 186 234 266 314
#     4   9  19  34  55  84 112 145 181 208 256 318
#     4  10  21  34  54  80 114 144 169 220 270 314
#     4  10  20  34  56  81 112 143 173 222 265 313
#     4  11  22  42  57  80 103 136 186 226 274 319
#
# _framework density 20.600436999999999
#
# number of rings (size 3 to 8) (size 9 to 14) (size 15 to 20)
#    0.000    2.182    0.000    2.727    0.000   15.273 
#    0.000    0.909    0.000    0.000    0.000    0.000 
#    0.000    0.000    0.000    0.000    0.000    0.000 
#
# Total GULP energy -272740.748412 kJ/mol
# GULP energy per Si atom -12397.306746 kJ/mol
# Density = 2.055355 g / cm^3
# Si number density = 20.600437 Si / 1000 Ang^3
#
#
#
# Elastic Constant Matrix: (Units=GPa)
#
#
# Indices 1 2 3 4 5 6 
#
# 1 108.1740 17.4429 9.9700 0.0000 -8.8641 0.0000
# 2 17.4429 81.2149 23.5512 0.0000 4.9795 0.0000
# 3 9.9700 23.5512 86.7240 0.0000 6.4244 0.0000
# 4 0.0000 0.0000 0.0000 16.1621 0.0000 -1.7598
# 5 -8.8641 4.9795 6.4244 0.0000 22.6922 0.0000
# 6 0.0000 0.0000 0.0000 -1.7598 0.0000 17.7742
#
#
#
# Elastic Compliance Matrix: (Units=1/GPa)
#
#
# Indices 1 2 3 4 5 6 
#
# 1 0.010063 -0.002184 -0.000910 0.000000 0.004667 0.000000
# 2 -0.002184 0.013924 -0.003310 0.000000 -0.002971 0.000000
# 3 -0.000910 -0.003310 0.012775 0.000000 -0.003246 0.000000
# 4 0.000000 0.000000 0.000000 0.062547 0.000000 0.006193
# 5 0.004667 -0.002971 -0.003246 0.000000 0.047462 0.000000
# 6 0.000000 0.000000 0.000000 0.006193 0.000000 0.056875
#
#
# Mechanical properties :
#
#
# Convention : Reuss Voigt Hill
#
# Bulk Modulus (GPa) = 41.74519 42.00455 41.87487
# Shear Modulus (GPa) = 22.27794 26.33562 24.30678
#
# Velocity S-wave (km/s) = 3.29208 3.57935 3.43872
# Velocity P-wave (km/s) = 5.89564 6.12509 6.01146
#
# Compressibility (1/GPa) = 0.02395486
#
# Stress axis : x y z
#
# Youngs Moduli (GPa) = 99.37629 71.81809 78.27936
#
# Poissons Ratio (x) = 0.15682 0.07120
# Poissons Ratio (y) = 0.21700 0.25912
# Poissons Ratio (z) = 0.09039 0.23773
#
# Static dielectric constant tensor:
#      x y z
#    x 3.669170 0.000000 -0.103460 
#    y 0.000000 3.551020 0.000000 
#    z -0.103460 0.000000 3.964980 
# 
# 
# High freq. dielectric constant tensor:
#      x y z
#    x 1.808960 0.000000 -0.013780 
#    y 0.000000 1.787440 0.000000 
#    z -0.013780 0.000000 1.811540 
# 
# From -- ./inp_files/47161.got.cif
#   From: 2010.06.25/outbox.cif.g09.slc.cpg/sg15_24_cif.got.tgz:47161.got - 2010.06.28 07:06:18.
