data_PCOD8136478
_publ_section_title
;
Structure prediction by ZEFSAII (Michael W. Deem and Ramdas Pophale) SiO2 
 PCOD8136478
Probable space group: C 2/C
;
_chemical_formula_sum "Si O2"
_cell_formula_units_Z 56
_cell_length_a 25.872796
_cell_length_b 21.550794
_cell_length_c 16.292747
_cell_angle_alpha 90.000000
_cell_angle_beta 18.799442
_cell_angle_gamma 90.000000
_cell_volume 2927.538444
_symmetry_space_group_name_H-M "C 2/C"
_symmetry_group_IT_number 15
_symmetry_cell_setting 'monoclinic'
loop_
_space_group_symop_operation_xyz
x,y,z
-x,y,1/2-z
-x,-y,-z
x,-y,1/2+z
1/2+x,1/2+y,z
1/2-x,1/2+y,1/2-z
1/2-x,1/2-y,-z
1/2+x,1/2-y,1/2+z
loop_
_atom_site_type_symbol
_atom_site_label
_atom_site_fract_x
_atom_site_fract_y
_atom_site_fract_z
Si Si1 0.906838 0.093963 0.663688
Si Si2 0.846513 0.081994 0.929748
Si Si3 0.432836 0.912879 0.524739
Si Si4 0.920976 0.170002 0.226516
Si Si5 0.937267 0.700632 0.760172
Si Si6 0.269383 0.526794 0.314804
Si Si7 0.269235 0.551454 0.501301
O O1 0.830536 0.116980 0.865258
O O2 0.959546 0.151041 0.527305
O O3 0.058793 0.054530 0.467431
O O4 0.785784 0.048517 0.795357
O O5 0.000000 0.105906 0.750000
O O6 0.684872 0.094238 0.222065
O O7 0.866680 0.008383 0.882735
O O8 0.483600 0.842738 0.427284
O O9 0.356959 0.952927 0.564337
O O10 0.598780 0.945671 0.304876
O O11 0.000010 0.228382 0.154165
O O12 0.753903 0.196542 0.443964
O O13 0.885519 0.111217 0.339928
O O14 0.000000 0.673564 0.750000
O O15 0.220822 0.552654 0.477292
#
# Coordination Sequence:
#
# PCOD8136478 Si02
#       7
#     8   8   8   8   8   8   8
#     4   9  17  32  48  75 107 134 171 209 261 316
#     4  11  21  30  49  80 106 136 174 210 257 321
#     4  11  19  32  51  78 106 140 172 212 259 314
#     4   9  19  35  55  74 103 140 168 223 269 303
#     4  10  20  34  54  79 101 133 183 218 261 311
#     4   9  16  29  52  75 100 138 169 209 259 313
#     4   9  19  33  50  74 108 132 170 214 268 311
#
# _framework density 19.128698
#
# number of rings (size 3 to 8) (size 9 to 14) (size 15 to 20)
#    0.000    2.286    1.429    4.286    0.000    0.571 
#    0.000    0.714    0.000    0.000    0.000    0.000 
#    0.000    0.000    0.000    0.000    0.000    0.000 
#
# Total GULP energy -346988.716751 kJ/mol
# GULP energy per Si atom -12392.454170 kJ/mol
# Density = 1.908516 g / cm^3
# Si number density = 19.128698 Si / 1000 Ang^3
#
#
#
# Elastic Constant Matrix: (Units=GPa)
#
#
# Indices 1 2 3 4 5 6 
#
# 1 38.3210 4.2453 22.4785 0.0096 12.3808 -0.0021
# 2 4.2453 72.7781 15.6287 0.0267 4.9122 0.0122
# 3 22.4785 15.6287 97.7412 0.0020 27.1494 0.0106
# 4 0.0096 0.0267 0.0020 19.2439 0.0100 -2.0030
# 5 12.3808 4.9122 27.1494 0.0100 28.2375 -0.0006
# 6 -0.0021 0.0122 0.0106 -2.0030 -0.0006 18.2938
#
#
#
# Elastic Compliance Matrix: (Units=1/GPa)
#
#
# Indices 1 2 3 4 5 6 
#
# 1 0.031920 -0.000219 -0.004679 -0.000010 -0.009459 0.000005
# 2 -0.000219 0.014234 -0.002135 -0.000020 -0.000328 -0.000010
# 3 -0.004679 -0.002135 0.014975 0.000009 -0.011975 -0.000007
# 4 -0.000010 -0.000020 0.000009 0.052563 -0.000020 0.005755
# 5 -0.009459 -0.000328 -0.011975 -0.000020 0.051132 0.000006
# 6 0.000005 -0.000010 -0.000007 0.005755 0.000006 0.055294
#
#
# Mechanical properties :
#
#
# Convention : Reuss Voigt Hill
#
# Bulk Modulus (GPa) = 21.24744 32.61615 26.93179
# Shear Modulus (GPa) = 20.01046 24.25422 22.13234
#
# Velocity S-wave (km/s) = 3.23785 3.56469 3.40519
# Velocity P-wave (km/s) = 5.01098 5.83358 5.43786
#
# Compressibility (1/GPa) = 0.04706450
#
# Stress axis : x y z
#
# Youngs Moduli (GPa) = 31.32827 70.25588 66.77949
#
# Poissons Ratio (x) = 0.01537 0.31243
# Poissons Ratio (y) = 0.00686 0.14254
# Poissons Ratio (z) = 0.14657 0.14996
#
# Static dielectric constant tensor:
#      x y z
#    x 3.258840 -0.000020 0.186300 
#    y -0.000020 3.464450 0.000040 
#    z 0.186300 0.000040 3.580340 
# 
# 
# High freq. dielectric constant tensor:
#      x y z
#    x 1.722460 0.000000 0.012240 
#    y 0.000000 1.721100 0.000000 
#    z 0.012240 0.000000 1.743300 
# 
# From -- ./inp_files/174704.got.cif
#   From: 2010.06.25/outbox.cif.g09.slc.cpg/sg15_88_cif.got.tgz:174704.got - 2010.06.28 07:06:18.
