data_PCOD8136504
_publ_section_title
;
Structure prediction by ZEFSAII (Michael W. Deem and Ramdas Pophale) SiO2 
 PCOD8136504
Probable space group: C 2/C
;
_chemical_formula_sum "Si O2"
_cell_formula_units_Z 60
_cell_length_a 11.418450
_cell_length_b 9.071893
_cell_length_c 26.609993
_cell_angle_alpha 90.000000
_cell_angle_beta 85.732683
_cell_angle_gamma 90.000000
_cell_volume 2748.806603
_symmetry_space_group_name_H-M "C 2/C"
_symmetry_group_IT_number 15
_symmetry_cell_setting 'monoclinic'
loop_
_space_group_symop_operation_xyz
x,y,z
-x,y,1/2-z
-x,-y,-z
x,-y,1/2+z
1/2+x,1/2+y,z
1/2-x,1/2+y,1/2-z
1/2-x,1/2-y,-z
1/2+x,1/2-y,1/2+z
loop_
_atom_site_type_symbol
_atom_site_label
_atom_site_fract_x
_atom_site_fract_y
_atom_site_fract_z
Si Si1 0.500000 0.581059 0.750000
Si Si2 0.640157 0.516521 0.336901
Si Si3 0.251935 0.553389 0.898996
Si Si4 0.383544 0.317402 0.564686
Si Si5 0.866790 0.721207 0.322825
Si Si6 0.593831 0.194772 0.369995
Si Si7 0.069217 0.728005 0.481342
Si Si8 0.254614 0.468211 0.006129
O O1 0.447889 0.475278 0.707962
O O2 0.608243 0.686736 0.728835
O O3 0.577375 0.596017 0.386290
O O4 0.763725 0.600016 0.320436
O O5 0.657347 0.345968 0.350697
O O6 0.141290 0.650288 0.920615
O O7 0.341005 0.654265 0.865482
O O8 0.199110 0.423865 0.866055
O O9 0.310646 0.492885 0.948453
O O10 0.480804 0.318792 0.518510
O O11 0.267607 0.391251 0.542582
O O12 0.990604 0.646601 0.334750
O O13 0.526856 0.200402 0.426014
O O14 0.116185 0.574788 0.505092
O O15 0.181137 0.833262 0.469057
#
# Coordination Sequence:
#
# PCOD8136504 Si02
#       8
#     4   8   8   8   8   8   8   8
#     4  10  24  44  68  92 118 150 196 264 326 378
#     4  10  23  43  67  92 118 159 201 254 320 372
#     4  10  23  37  58  94 126 164 211 249 299 360
#     4  11  21  36  59  88 126 165 210 249 296 358
#     4  10  23  44  67  91 120 156 203 256 316 375
#     4  10  21  42  60  90 128 169 204 250 300 355
#     4  10  21  34  56  89 127 169 215 243 293 351
#     4  10  20  34  54  88 127 172 207 244 292 346
#
# _framework density 21.827653999999999
#
# number of rings (size 3 to 8) (size 9 to 14) (size 15 to 20)
#    0.000    1.867    1.333    1.600    3.733    7.467 
#    0.000    4.000    0.000    1.600    0.000    0.000 
#    0.000    0.000    0.000    0.000    0.000    0.000 
#
# Total GULP energy -371760.474389 kJ/mol
# GULP energy per Si atom -12392.015813 kJ/mol
# Density = 2.177797 g / cm^3
# Si number density = 21.827654 Si / 1000 Ang^3
#
#
#
# Elastic Constant Matrix: (Units=GPa)
#
#
# Indices 1 2 3 4 5 6 
#
# 1 61.7097 26.4902 33.1716 0.0000 5.0414 0.0000
# 2 26.4902 90.6279 26.4195 0.0000 10.6716 0.0000
# 3 33.1716 26.4195 92.7041 0.0000 17.1400 0.0000
# 4 0.0000 0.0000 0.0000 21.7506 0.0000 -2.6242
# 5 5.0414 10.6716 17.1400 0.0000 35.5397 0.0000
# 6 0.0000 0.0000 0.0000 -2.6242 0.0000 27.1023
#
#
#
# Elastic Compliance Matrix: (Units=1/GPa)
#
#
# Indices 1 2 3 4 5 6 
#
# 1 0.021652 -0.004547 -0.006737 0.000000 0.001543 0.000000
# 2 -0.004547 0.013140 -0.001655 0.000000 -0.002502 0.000000
# 3 -0.006737 -0.001655 0.014713 0.000000 -0.005643 0.000000
# 4 0.000000 0.000000 0.000000 0.046519 0.000000 0.004504
# 5 0.001543 -0.002502 -0.005643 0.000000 0.031391 0.000000
# 6 0.000000 0.000000 0.000000 0.004504 0.000000 0.037333
#
#
# Mechanical properties :
#
#
# Convention : Reuss Voigt Hill
#
# Bulk Modulus (GPa) = 42.32420 46.35601 44.34011
# Shear Modulus (GPa) = 25.18855 27.47589 26.33222
#
# Velocity S-wave (km/s) = 3.40071 3.55176 3.47705
# Velocity P-wave (km/s) = 5.90356 6.17279 6.03968
#
# Compressibility (1/GPa) = 0.02362714
#
# Stress axis : x y z
#
# Youngs Moduli (GPa) = 46.18496 76.10197 67.96807
#
# Poissons Ratio (x) = 0.34600 0.45791
# Poissons Ratio (y) = 0.20998 0.11251
# Poissons Ratio (z) = 0.31116 0.12597
#
# Static dielectric constant tensor:
#      x y z
#    x 3.664090 0.000000 0.114600 
#    y 0.000000 4.026380 0.000000 
#    z 0.114600 0.000000 4.060300 
# 
# 
# High freq. dielectric constant tensor:
#      x y z
#    x 1.836830 0.000000 0.009840 
#    y 0.000000 1.861080 0.000000 
#    z 0.009840 0.000000 1.856270 
# 
# From -- ./inp_files/291577.got.cif
#   From: 2010.06.25/outbox.cif.g09.slc.cpg/sg15_146_cif.got.tgz:291577.got - 2010.06.28 07:06:18.
