data_PCOD8136954
_publ_section_title
;
Structure prediction by ZEFSAII (Michael W. Deem and Ramdas Pophale) SiO2 
 PCOD8136954
Probable space group: C 2/C
;
_chemical_formula_sum "Si O2"
_cell_formula_units_Z 64
_cell_length_a 11.207244
_cell_length_b 24.384740
_cell_length_c 11.773383
_cell_angle_alpha 90.000000
_cell_angle_beta 100.473551
_cell_angle_gamma 90.000000
_cell_volume 3163.890617
_symmetry_space_group_name_H-M "C 2/C"
_symmetry_group_IT_number 15
_symmetry_cell_setting 'monoclinic'
loop_
_space_group_symop_operation_xyz
x,y,z
-x,y,1/2-z
-x,-y,-z
x,-y,1/2+z
1/2+x,1/2+y,z
1/2-x,1/2+y,1/2-z
1/2-x,1/2-y,-z
1/2+x,1/2-y,1/2+z
loop_
_atom_site_type_symbol
_atom_site_label
_atom_site_fract_x
_atom_site_fract_y
_atom_site_fract_z
Si Si1 0.571737 0.161143 0.435334
Si Si2 0.376724 0.572491 0.298829
Si Si3 0.310733 0.757622 0.217871
Si Si4 0.004958 0.241547 0.433758
Si Si5 0.325386 0.151539 0.292597
Si Si6 0.261995 0.638947 0.653174
Si Si7 0.522017 0.629804 0.973712
Si Si8 0.118932 0.949583 0.195732
O O1 0.543246 0.222897 0.469600
O O2 0.443777 0.131630 0.383676
O O3 0.651418 0.161713 0.336528
O O4 0.646134 0.132490 0.550269
O O5 0.500000 0.574195 0.250000
O O6 0.273935 0.603756 0.207925
O O7 0.390346 0.602666 0.419822
O O8 0.334410 0.510703 0.323048
O O9 0.394805 0.729868 0.328195
O O10 0.387100 0.771580 0.116924
O O11 0.213870 0.711105 0.165881
O O12 0.251753 0.812914 0.256373
O O13 0.048095 0.182831 0.489446
O O14 0.389622 0.649829 0.612195
O O15 0.272091 0.581344 0.720823
O O16 0.419237 0.585705 0.921301
O O17 0.000000 0.955418 0.250000
#
# Coordination Sequence:
#
# PCOD8136954 Si02
#       8
#     8   8   8   8   8   8   8   8
#     4  10  22  37  58  84 121 160 201 232 286 361
#     4  11  21  39  60  91 124 146 197 258 306 342
#     4  10  20  35  57  86 122 155 191 245 298 355
#     4  10  20  35  57  87 122 154 188 241 305 350
#     4  11  21  36  60  89 117 159 201 241 289 356
#     4  10  20  40  59  83 122 160 197 240 298 356
#     4  11  19  35  63  89 117 156 194 242 306 360
#     4   9  22  37  60  89 116 154 199 251 302 352
#
# _framework density 20.228258
#
# number of rings (size 3 to 8) (size 9 to 14) (size 15 to 20)
#    0.000    1.750    2.500    1.875    1.750    2.500 
#    2.250    0.625    0.000    6.000    0.000    0.000 
#    0.000    0.000    0.000    0.000    0.000    0.000 
#
# Total GULP energy -396722.382040 kJ/mol
# GULP energy per Si atom -12397.574439 kJ/mol
# Density = 2.018222 g / cm^3
# Si number density = 20.228258 Si / 1000 Ang^3
#
#
#
# Elastic Constant Matrix: (Units=GPa)
#
#
# Indices 1 2 3 4 5 6 
#
# 1 86.4812 48.7307 31.1140 0.0000 5.7534 0.0000
# 2 48.7307 132.7529 38.1853 0.0000 -0.1679 0.0000
# 3 31.1140 38.1853 60.0680 0.0000 8.6839 0.0000
# 4 0.0000 0.0000 0.0000 17.2266 0.0000 0.9966
# 5 5.7534 -0.1679 8.6839 0.0000 35.3224 0.0000
# 6 0.0000 0.0000 0.0000 0.9966 0.0000 23.4787
#
#
#
# Elastic Compliance Matrix: (Units=1/GPa)
#
#
# Indices 1 2 3 4 5 6 
#
# 1 0.016023 -0.004345 -0.005347 0.000000 -0.001316 0.000000
# 2 -0.004345 0.010478 -0.004686 0.000000 0.001910 0.000000
# 3 -0.005347 -0.004686 0.023095 0.000000 -0.004829 0.000000
# 4 0.000000 0.000000 0.000000 0.058193 0.000000 -0.002470
# 5 -0.001316 0.001910 -0.004829 0.000000 0.029721 0.000000
# 6 0.000000 0.000000 0.000000 -0.002470 0.000000 0.042697
#
#
# Mechanical properties :
#
#
# Convention : Reuss Voigt Hill
#
# Bulk Modulus (GPa) = 47.98788 57.26245 52.62517
# Shear Modulus (GPa) = 23.15778 25.95701 24.55740
#
# Velocity S-wave (km/s) = 3.38719 3.58607 3.48805
# Velocity P-wave (km/s) = 6.25077 6.74657 6.50339
#
# Compressibility (1/GPa) = 0.02083860
#
# Stress axis : x y z
#
# Youngs Moduli (GPa) = 62.41024 95.43566 43.30004
#
# Poissons Ratio (x) = 0.41470 0.23153
# Poissons Ratio (y) = 0.27119 0.20292
# Poissons Ratio (z) = 0.33371 0.44724
#
# Static dielectric constant tensor:
#      x y z
#    x 3.588720 0.000000 0.086950 
#    y 0.000000 3.665260 0.000000 
#    z 0.086950 0.000000 3.781160 
# 
# 
# High freq. dielectric constant tensor:
#      x y z
#    x 1.778020 0.000000 0.006010 
#    y 0.000000 1.772320 0.000000 
#    z 0.006010 0.000000 1.796690 
# 
# From -- ./inp_files/90867.got.cif
#   From: 2010.06.25/outbox.cif.g09.slc.cpg/sg15_46_cif.got.tgz:90867.got - 2010.06.28 07:06:18.
