data_PCOD8136476
_publ_section_title
;
Structure prediction by ZEFSAII (Michael W. Deem and Ramdas Pophale) SiO2 
 PCOD8136476
Probable space group: C 2/C
;
_chemical_formula_sum "Si O2"
_cell_formula_units_Z 64
_cell_length_a 33.687118
_cell_length_b 14.060548
_cell_length_c 9.862044
_cell_angle_alpha 90.000000
_cell_angle_beta 126.052591
_cell_angle_gamma 90.000000
_cell_volume 3776.598203
_symmetry_space_group_name_H-M "C 2/C"
_symmetry_group_IT_number 15
_symmetry_cell_setting 'monoclinic'
loop_
_space_group_symop_operation_xyz
x,y,z
-x,y,1/2-z
-x,-y,-z
x,-y,1/2+z
1/2+x,1/2+y,z
1/2-x,1/2+y,1/2-z
1/2-x,1/2-y,-z
1/2+x,1/2-y,1/2+z
loop_
_atom_site_type_symbol
_atom_site_label
_atom_site_fract_x
_atom_site_fract_y
_atom_site_fract_z
Si Si1 0.751159 0.502486 0.095590
Si Si2 0.638250 0.674117 0.063040
Si Si3 0.311222 0.486546 0.281690
Si Si4 0.629768 0.679771 0.722882
Si Si5 0.275422 0.203006 0.680131
Si Si6 0.281593 0.788434 0.687103
Si Si7 0.528205 0.618870 0.436539
Si Si8 0.537475 0.598668 0.940086
O O1 0.703855 0.475787 0.091739
O O2 0.784984 0.409271 0.174137
O O3 0.776536 0.598587 0.203293
O O4 0.736097 0.522923 0.910694
O O5 0.667192 0.590123 0.193618
O O6 0.668890 0.765404 0.173194
O O7 0.637487 0.666362 0.898721
O O8 0.583704 0.668746 0.013965
O O9 0.351813 0.411411 0.321623
O O10 0.660843 0.769367 0.729237
O O11 0.572117 0.689400 0.570784
O O12 0.250000 0.250000 0.500000
O O13 0.237587 0.227305 0.724842
O O14 0.250000 0.750000 0.500000
O O15 0.500000 0.660674 0.250000
O O16 0.485801 0.616603 0.461964
O O17 0.550453 0.513520 0.451750
O O18 0.500000 0.630017 0.750000
#
# Coordination Sequence:
#
# PCOD8136476 Si02
#       8
#     8   8   8   8   8   8   8   8
#     4  12  22  36  52  79 116 149 187 232 260 323
#     4  12  22  35  54  82 111 154 188 219 276 330
#     4  12  20  32  55  76 111 150 183 222 269 317
#     4  12  22  35  56  80 111 151 190 218 275 344
#     4  12  23  35  53  83 113 146 192 230 272 317
#     4  12  21  37  56  79 109 153 189 220 273 338
#     4  10  22  34  53  82 106 143 182 231 280 326
#     4  10  20  34  54  77 113 143 182 231 276 331
#
# _framework density 16.946467999999999
#
# number of rings (size 3 to 8) (size 9 to 14) (size 15 to 20)
#    0.000    0.500   10.000    0.000    0.000    2.000 
#    0.000    0.000    0.000    0.000    0.000    1.750 
#    0.000    0.000    0.000    0.000    0.000    0.000 
#
# Total GULP energy -396653.342694 kJ/mol
# GULP energy per Si atom -12395.416959 kJ/mol
# Density = 1.690790 g / cm^3
# Si number density = 16.946468 Si / 1000 Ang^3
#
#
#
# Elastic Constant Matrix: (Units=GPa)
#
#
# Indices 1 2 3 4 5 6 
#
# 1 85.2424 19.2999 33.0103 0.0000 6.2254 0.0000
# 2 19.2999 80.3115 15.1086 0.0000 5.9661 0.0000
# 3 33.0103 15.1086 90.7891 0.0000 -1.0481 0.0000
# 4 0.0000 0.0000 0.0000 21.2792 0.0000 6.1018
# 5 6.2254 5.9661 -1.0481 0.0000 33.5048 0.0000
# 6 0.0000 0.0000 0.0000 6.1018 0.0000 34.8545
#
#
#
# Elastic Compliance Matrix: (Units=1/GPa)
#
#
# Indices 1 2 3 4 5 6 
#
# 1 0.014313 -0.002351 -0.004840 0.000000 -0.002392 0.000000
# 2 -0.002351 0.013429 -0.001403 0.000000 -0.001998 0.000000
# 3 -0.004840 -0.001403 0.013026 0.000000 0.001557 0.000000
# 4 0.000000 0.000000 0.000000 0.049478 0.000000 -0.008662
# 5 -0.002392 -0.001998 0.001557 0.000000 0.030695 0.000000
# 6 0.000000 0.000000 0.000000 -0.008662 0.000000 0.030207
#
#
# Mechanical properties :
#
#
# Convention : Reuss Voigt Hill
#
# Bulk Modulus (GPa) = 42.41150 43.46449 42.93799
# Shear Modulus (GPa) = 28.37737 30.52264 29.45000
#
# Velocity S-wave (km/s) = 4.09654 4.24857 4.17325
# Velocity P-wave (km/s) = 6.88888 7.05485 6.97236
#
# Compressibility (1/GPa) = 0.02357851
#
# Stress axis : x y z
#
# Youngs Moduli (GPa) = 69.86779 74.46611 76.77009
#
# Poissons Ratio (x) = 0.17509 0.37160
# Poissons Ratio (y) = 0.16428 0.10770
# Poissons Ratio (z) = 0.33819 0.10447
#
# Static dielectric constant tensor:
#      x y z
#    x 3.609100 0.000000 -0.296740 
#    y 0.000000 3.155470 0.000000 
#    z -0.296740 0.000000 3.247010 
# 
# 
# High freq. dielectric constant tensor:
#      x y z
#    x 1.650450 0.000000 -0.018110 
#    y 0.000000 1.622960 0.000000 
#    z -0.018110 0.000000 1.661900 
# 
# From -- ./inp_files/69950.got.cif
#   From: 2010.06.25/outbox.cif.g09.slc.cpg/sg15_35_cif.got.tgz:69950.got - 2010.06.28 07:06:18.
