data_PCOD8136961
_publ_section_title
;
Structure prediction by ZEFSAII (Michael W. Deem and Ramdas Pophale) SiO2 
 PCOD8136961
Probable space group: C 2/C
;
_chemical_formula_sum "Si O2"
_cell_formula_units_Z 64
_cell_length_a 12.841682
_cell_length_b 18.578309
_cell_length_c 32.632369
_cell_angle_alpha 90.000000
_cell_angle_beta 154.732986
_cell_angle_gamma 90.000000
_cell_volume 3323.066710
_symmetry_space_group_name_H-M "C 2/C"
_symmetry_group_IT_number 15
_symmetry_cell_setting 'monoclinic'
loop_
_space_group_symop_operation_xyz
x,y,z
-x,y,1/2-z
-x,-y,-z
x,-y,1/2+z
1/2+x,1/2+y,z
1/2-x,1/2+y,1/2-z
1/2-x,1/2-y,-z
1/2+x,1/2-y,1/2+z
loop_
_atom_site_type_symbol
_atom_site_label
_atom_site_fract_x
_atom_site_fract_y
_atom_site_fract_z
Si Si1 0.612794 0.710377 0.834274
Si Si2 0.036309 0.788522 0.948004
Si Si3 0.311879 0.568482 0.972242
Si Si4 0.333289 0.577278 0.227558
Si Si5 0.350636 0.552193 0.631009
Si Si6 0.678360 0.155539 0.251034
Si Si7 0.644305 0.980674 0.840268
Si Si8 0.060387 0.502130 0.955558
O O1 0.500000 0.700704 0.750000
O O2 0.575802 0.635679 0.844766
O O3 0.472927 0.771407 0.810754
O O4 0.894057 0.732439 0.926482
O O5 0.861065 0.831868 0.853978
O O6 0.250000 0.750000 0.000000
O O7 0.150752 0.846348 0.020252
O O8 0.133826 0.537813 0.873606
O O9 0.175921 0.560331 0.966896
O O10 0.570719 0.528464 0.067637
O O11 0.500000 0.608945 0.250000
O O12 0.430422 0.499349 0.276983
O O13 0.325429 0.634048 0.262128
O O14 0.063861 0.563317 0.113824
O O15 0.276643 0.531726 0.558945
O O16 0.127964 0.544558 0.583095
O O17 0.484929 0.093822 0.193433
O O18 0.500000 0.013636 0.750000
#
# Coordination Sequence:
#
# PCOD8136961 Si02
#       8
#     8   8   8   8   8   8   8   8
#     4  10  20  37  58  84 123 160 200 245 319 366
#     4  11  22  35  60  94 124 160 205 253 308 367
#     4  11  21  35  63  91 119 158 211 250 302 370
#     4  10  21  37  61  85 115 159 203 250 310 365
#     4  10  21  36  58  88 119 155 201 258 305 361
#     4  11  20  41  60  84 126 165 197 255 319 365
#     4  11  21  38  61  88 120 161 201 256 302 364
#     4  10  20  35  57  89 119 148 205 258 299 353
#
# _framework density 19.259318
#
# number of rings (size 3 to 8) (size 9 to 14) (size 15 to 20)
#    0.000    1.500    3.750    3.000    0.000    3.000 
#    0.000    0.625    0.000    3.750    0.000    0.000 
#    0.000    0.000    0.000    0.000    0.000    0.000 
#
# Total GULP energy -396773.749866 kJ/mol
# GULP energy per Si atom -12399.179683 kJ/mol
# Density = 1.921548 g / cm^3
# Si number density = 19.259318 Si / 1000 Ang^3
#
#
#
# Elastic Constant Matrix: (Units=GPa)
#
#
# Indices 1 2 3 4 5 6 
#
# 1 80.8782 33.3929 23.8037 -0.0003 -4.4134 0.0000
# 2 33.3929 106.3282 27.6892 0.0007 -8.1269 -0.0003
# 3 23.8037 27.6892 78.3785 -0.0007 -13.3522 -0.0008
# 4 -0.0003 0.0007 -0.0007 23.3367 0.0002 4.8817
# 5 -4.4134 -8.1269 -13.3522 0.0002 29.5758 -0.0004
# 6 0.0000 -0.0003 -0.0008 4.8817 -0.0004 25.2292
#
#
#
# Elastic Compliance Matrix: (Units=1/GPa)
#
#
# Indices 1 2 3 4 5 6 
#
# 1 0.014887 -0.003862 -0.003206 0.000000 -0.000287 0.000000
# 2 -0.003862 0.011406 -0.002622 -0.000001 0.001374 0.000000
# 3 -0.003206 -0.002622 0.015659 0.000000 0.005870 0.000000
# 4 0.000000 -0.000001 0.000000 0.044659 0.000000 -0.008641
# 5 -0.000287 0.001374 0.005870 0.000000 0.036796 0.000001
# 6 0.000000 0.000000 0.000000 -0.008641 0.000001 0.041309
#
#
# Mechanical properties :
#
#
# Convention : Reuss Voigt Hill
#
# Bulk Modulus (GPa) = 44.30555 48.37293 46.33924
# Shear Modulus (GPa) = 26.09352 27.67496 26.88424
#
# Velocity S-wave (km/s) = 3.68482 3.79484 3.74024
# Velocity P-wave (km/s) = 6.41550 6.66125 6.53953
#
# Compressibility (1/GPa) = 0.02257054
#
# Stress axis : x y z
#
# Youngs Moduli (GPa) = 67.17378 87.67509 63.86290
#
# Poissons Ratio (x) = 0.33864 0.20471
# Poissons Ratio (y) = 0.25945 0.16747
# Poissons Ratio (z) = 0.21533 0.22991
#
# Static dielectric constant tensor:
#      x y z
#    x 3.597990 0.000000 0.027300 
#    y 0.000000 3.501910 0.000000 
#    z 0.027300 0.000000 3.697720 
# 
# 
# High freq. dielectric constant tensor:
#      x y z
#    x 1.746260 0.000000 0.010690 
#    y 0.000000 1.732650 0.000000 
#    z 0.010690 0.000000 1.751660 
# 
# From -- ./inp_files/311642.got.cif
#   From: 2010.06.25/outbox.cif.g09.slc.cpg/sg15_156_cif.got.tgz:311642.got - 2010.06.28 07:06:18.
