data_PCOD8136992
_publ_section_title
;
Structure prediction by ZEFSAII (Michael W. Deem and Ramdas Pophale) SiO2 
 PCOD8136992
Probable space group: C 2/C
;
_chemical_formula_sum "Si O2"
_cell_formula_units_Z 64
_cell_length_a 9.080669
_cell_length_b 28.462271
_cell_length_c 14.450309
_cell_angle_alpha 90.000000
_cell_angle_beta 57.982150
_cell_angle_gamma 90.000000
_cell_volume 3166.652720
_symmetry_space_group_name_H-M "C 2/C"
_symmetry_group_IT_number 15
_symmetry_cell_setting 'monoclinic'
loop_
_space_group_symop_operation_xyz
x,y,z
-x,y,1/2-z
-x,-y,-z
x,-y,1/2+z
1/2+x,1/2+y,z
1/2-x,1/2+y,1/2-z
1/2-x,1/2-y,-z
1/2+x,1/2-y,1/2+z
loop_
_atom_site_type_symbol
_atom_site_label
_atom_site_fract_x
_atom_site_fract_y
_atom_site_fract_z
Si Si1 0.146418 0.668415 0.776850
Si Si2 0.996191 0.780855 0.358323
Si Si3 0.046046 0.388899 0.635409
Si Si4 0.144807 0.947974 0.937727
Si Si5 0.891567 0.305833 0.009254
Si Si6 0.227512 0.530316 0.302580
Si Si7 0.697463 0.541578 0.023264
Si Si8 0.054706 0.563724 0.832958
O O1 0.335731 0.686188 0.678925
O O2 0.082600 0.696265 0.889155
O O3 0.159052 0.612854 0.795480
O O4 0.000000 0.678700 0.750000
O O5 0.000000 0.764062 0.250000
O O6 0.997124 0.736500 0.426670
O O7 0.815678 0.807430 0.441551
O O8 0.249175 0.401636 0.574526
O O9 0.020281 0.352550 0.561271
O O10 0.000000 0.365689 0.750000
O O11 0.939182 0.436132 0.653199
O O12 0.166125 0.968617 0.826993
O O13 0.941545 0.933630 0.999691
O O14 0.198075 0.986770 0.994855
O O15 0.342103 0.545380 0.353415
O O16 0.169735 0.476666 0.341295
O O17 0.878512 0.568728 0.950112
O O18 0.000000 0.545976 0.750000
#
# Coordination Sequence:
#
# PCOD8136992 Si02
#       8
#     8   8   8   8   8   8   8   8
#     4  10  23  37  58  91 119 151 191 236 290 355
#     4   9  20  41  62  88 118 144 188 245 296 350
#     4  10  20  35  58  83 110 146 200 235 280 345
#     4  10  22  36  49  81 112 145 199 240 274 329
#     4  10  20  38  64  86 113 152 190 240 298 346
#     4  11  20  37  55  77 114 159 193 237 280 332
#     4  11  21  34  54  75 110 160 190 234 285 326
#     4  11  20  36  54  79 120 156 192 237 284 338
#
# _framework density 20.210614
#
# number of rings (size 3 to 8) (size 9 to 14) (size 15 to 20)
#    0.000    1.750    2.500    2.250    1.750    2.500 
#    0.000    1.250    0.000    6.000    0.000    0.000 
#    0.000    0.000    0.000    0.000    0.000    0.000 
#
# Total GULP energy -396616.610831 kJ/mol
# GULP energy per Si atom -12394.269088 kJ/mol
# Density = 2.016461 g / cm^3
# Si number density = 20.210614 Si / 1000 Ang^3
#
#
#
# Elastic Constant Matrix: (Units=GPa)
#
#
# Indices 1 2 3 4 5 6 
#
# 1 70.8111 34.3170 9.8670 0.0000 6.8065 0.0000
# 2 34.3170 93.0873 27.8965 0.0000 -5.4073 0.0000
# 3 9.8670 27.8965 66.7662 0.0000 13.2788 0.0000
# 4 0.0000 0.0000 0.0000 26.7551 0.0000 -0.6421
# 5 6.8065 -5.4073 13.2788 0.0000 33.9571 0.0000
# 6 0.0000 0.0000 0.0000 -0.6421 0.0000 18.9947
#
#
#
# Elastic Compliance Matrix: (Units=1/GPa)
#
#
# Indices 1 2 3 4 5 6 
#
# 1 0.018018 -0.007405 0.001500 0.000000 -0.005378 0.000000
# 2 -0.007405 0.015930 -0.006898 0.000000 0.006718 0.000000
# 3 0.001500 -0.006898 0.019427 0.000000 -0.008996 0.000000
# 4 0.000000 0.000000 0.000000 0.037406 0.000000 0.001264
# 5 -0.005378 0.006718 -0.008996 0.000000 0.035114 0.000000
# 6 0.000000 0.000000 0.000000 0.001264 0.000000 0.052689
#
#
# Mechanical properties :
#
#
# Convention : Reuss Voigt Hill
#
# Bulk Modulus (GPa) = 36.00799 41.64729 38.82764
# Shear Modulus (GPa) = 23.42517 26.51366 24.96941
#
# Velocity S-wave (km/s) = 3.40818 3.62590 3.51872
# Velocity P-wave (km/s) = 5.77431 6.17907 5.98012
#
# Compressibility (1/GPa) = 0.02777162
#
# Stress axis : x y z
#
# Youngs Moduli (GPa) = 55.49898 62.77591 51.47452
#
# Poissons Ratio (x) = 0.46483 -0.07724
# Poissons Ratio (y) = 0.41095 0.35505
# Poissons Ratio (z) = -0.08328 0.43301
#
# Static dielectric constant tensor:
#      x y z
#    x 3.656730 0.000000 0.012590 
#    y 0.000000 3.322730 0.000000 
#    z 0.012590 0.000000 3.950040 
# 
# 
# High freq. dielectric constant tensor:
#      x y z
#    x 1.786270 0.000000 0.003770 
#    y 0.000000 1.757870 0.000000 
#    z 0.003770 0.000000 1.805230 
# 
# From -- ./inp_files/139509.got.cif
#   From: 2010.06.25/outbox.cif.g09.slc.cpg/sg15_70_cif.got.tgz:139509.got - 2010.06.28 07:06:18.
