data_PCOD8136977
_publ_section_title
;
Structure prediction by ZEFSAII (Michael W. Deem and Ramdas Pophale) SiO2 
 PCOD8136977
Probable space group: C 2/C
;
_chemical_formula_sum "Si O2"
_cell_formula_units_Z 36
_cell_length_a 5.121535
_cell_length_b 19.052912
_cell_length_c 21.106905
_cell_angle_alpha 90.000000
_cell_angle_beta 89.998861
_cell_angle_gamma 90.000000
_cell_volume 2059.615075
_symmetry_space_group_name_H-M "C 2/C"
_symmetry_group_IT_number 15
_symmetry_cell_setting 'monoclinic'
loop_
_space_group_symop_operation_xyz
x,y,z
-x,y,1/2-z
-x,-y,-z
x,-y,1/2+z
1/2+x,1/2+y,z
1/2-x,1/2+y,1/2-z
1/2-x,1/2-y,-z
1/2+x,1/2-y,1/2+z
loop_
_atom_site_type_symbol
_atom_site_label
_atom_site_fract_x
_atom_site_fract_y
_atom_site_fract_z
Si Si1 0.727047 0.079485 0.541225
Si Si2 0.760082 0.207318 0.128862
Si Si3 0.739944 0.792683 0.128862
Si Si4 0.500000 0.750000 0.250000
Si Si5 0.272941 0.579486 0.041225
O O1 0.766146 0.129556 0.601330
O O2 0.444311 0.094221 0.511739
O O3 0.944312 0.094212 0.488261
O O4 0.749969 0.999999 0.566586
O O5 0.500023 0.250004 0.114481
O O6 0.817228 0.201495 0.204705
O O7 0.733859 0.129558 0.101329
O O8 0.000023 0.249997 0.096112
O O9 0.682781 0.798504 0.204705
#
# Coordination Sequence:
#
# PCOD8136977 Si02
#       5
#     8   8   8   4   8
#     4  10  21  36  55  82 113 138 170 219 273 323
#     4  10  20  35  58  76 109 139 179 221 263 307
#     4  10  20  35  58  76 109 139 179 221 263 307
#     4   8  22  36  54  76 106 140 184 230 246 312
#     4  10  21  36  55  82 113 138 170 219 273 323
#
# _framework density 17.478995000000001
#
# number of rings (size 3 to 8) (size 9 to 14) (size 15 to 20)
#    1.333    0.889    0.000    3.333    0.000    5.333 
#    0.000    0.000    9.778    0.000    0.000    0.000 
#    0.000    0.000    0.000    0.000    0.000    0.000 
#
# Total GULP energy -223080.173365 kJ/mol
# GULP energy per Si atom -12393.342965 kJ/mol
# Density = 1.743921 g / cm^3
# Si number density = 17.478995 Si / 1000 Ang^3
#
#
#
# Elastic Constant Matrix: (Units=GPa)
#
#
# Indices 1 2 3 4 5 6 
#
# 1 113.2422 46.8448 18.3217 0.0000 6.5189 0.0000
# 2 46.8448 138.5304 83.8623 0.0000 -2.9771 0.0000
# 3 18.3217 83.8623 88.2247 0.0000 -4.4763 0.0000
# 4 0.0000 0.0000 0.0000 16.3990 0.0000 0.5772
# 5 6.5189 -2.9771 -4.4763 0.0000 8.1091 0.0000
# 6 0.0000 0.0000 0.0000 0.5772 0.0000 23.5353
#
#
#
# Elastic Compliance Matrix: (Units=1/GPa)
#
#
# Indices 1 2 3 4 5 6 
#
# 1 0.011260 -0.005422 0.002320 0.000000 -0.009762 0.000000
# 2 -0.005422 0.019673 -0.017477 0.000000 0.001934 0.000000
# 3 0.002320 -0.017477 0.027824 0.000000 0.007078 0.000000
# 4 0.000000 0.000000 0.000000 0.061032 0.000000 -0.001497
# 5 -0.009762 0.001934 0.007078 0.000000 0.135783 0.000000
# 6 0.000000 0.000000 0.000000 -0.001497 0.000000 0.042526
#
#
# Mechanical properties :
#
#
# Convention : Reuss Voigt Hill
#
# Bulk Modulus (GPa) = 56.81411 70.89499 63.85455
# Shear Modulus (GPa) = 14.48759 22.33991 18.41375
#
# Velocity S-wave (km/s) = 2.88211 3.57893 3.24926
# Velocity P-wave (km/s) = 6.60683 7.59780 7.11958
#
# Compressibility (1/GPa) = 0.01760126
#
# Stress axis : x y z
#
# Youngs Moduli (GPa) = 88.80908 50.82980 35.93974
#
# Poissons Ratio (x) = 0.27560 -0.08339
# Poissons Ratio (y) = 0.48153 0.62810
# Poissons Ratio (z) = -0.20606 0.88833
#
# Static dielectric constant tensor:
#      x y z
#    x 3.460410 0.000000 0.041220 
#    y 0.000000 3.283470 0.000000 
#    z 0.041220 0.000000 2.950980 
# 
# 
# High freq. dielectric constant tensor:
#      x y z
#    x 1.699180 0.000000 0.003890 
#    y 0.000000 1.662170 0.000000 
#    z 0.003890 0.000000 1.651040 
# 
# From -- ./inp_files/226653.got.cif
#   From: 2010.06.25/outbox.cif.g09.slc.cpg/sg15_114_cif.got.tgz:226653.got - 2010.06.28 07:06:18.
