data_PCOD8136329
_publ_section_title
;
Structure prediction by ZEFSAII (Michael W. Deem and Ramdas Pophale) SiO2 
 PCOD8136329
Probable space group: C 2/C
;
_chemical_formula_sum "Si O2"
_cell_formula_units_Z 36
_cell_length_a 21.078995
_cell_length_b 10.893902
_cell_length_c 17.022667
_cell_angle_alpha 90.000000
_cell_angle_beta 31.658711
_cell_angle_gamma 90.000000
_cell_volume 2051.649255
_symmetry_space_group_name_H-M "C 2/C"
_symmetry_group_IT_number 15
_symmetry_cell_setting 'monoclinic'
loop_
_space_group_symop_operation_xyz
x,y,z
-x,y,1/2-z
-x,-y,-z
x,-y,1/2+z
1/2+x,1/2+y,z
1/2-x,1/2+y,1/2-z
1/2-x,1/2-y,-z
1/2+x,1/2-y,1/2+z
loop_
_atom_site_type_symbol
_atom_site_label
_atom_site_fract_x
_atom_site_fract_y
_atom_site_fract_z
Si Si1 0.119206 0.365749 0.766071
Si Si2 0.036839 0.809339 0.474080
Si Si3 0.500000 0.039319 0.250000
Si Si4 0.690393 0.542164 0.328862
Si Si5 0.572540 0.057891 0.516647
O O1 0.088623 0.232048 0.833963
O O2 0.095114 0.373241 0.697838
O O3 0.255001 0.406352 0.646404
O O4 0.029162 0.461106 0.907367
O O5 0.037370 0.697586 0.534579
O O6 0.901050 0.856992 0.608792
O O7 0.123476 0.914932 0.416759
O O8 0.425652 0.955414 0.389785
O O9 0.795446 0.523524 0.154188
#
# Coordination Sequence:
#
# PCOD8136329 Si02
#       5
#     8   8   4   8   8
#     4   9  20  34  54  73 104 135 171 205 256 305
#     4  10  20  33  55  81 100 130 173 218 254 291
#     4   8  20  34  48  84  92 146 176 184 264 318
#     4  10  20  33  55  81 100 130 173 218 254 291
#     4   9  20  34  54  73 104 135 171 205 256 305
#
# _framework density 17.546859000000001
#
# number of rings (size 3 to 8) (size 9 to 14) (size 15 to 20)
#    1.333    1.333    0.000    2.667   12.444    0.000 
#    0.000    8.889    0.000    5.333    0.000    0.000 
#    0.000    0.000    0.000    0.000    0.000    0.000 
#
# Total GULP energy -223023.407003 kJ/mol
# GULP energy per Si atom -12390.189278 kJ/mol
# Density = 1.750692 g / cm^3
# Si number density = 17.546859 Si / 1000 Ang^3
#
#
#
# Elastic Constant Matrix: (Units=GPa)
#
#
# Indices 1 2 3 4 5 6 
#
# 1 84.7818 6.2034 30.3337 0.0000 -9.4308 0.0000
# 2 6.2034 53.9014 13.9092 0.0000 -13.9259 0.0000
# 3 30.3337 13.9092 57.7589 0.0000 -27.5086 0.0000
# 4 0.0000 0.0000 0.0000 10.8161 0.0000 -0.8543
# 5 -9.4308 -13.9259 -27.5086 0.0000 30.8765 0.0000
# 6 0.0000 0.0000 0.0000 -0.8543 0.0000 12.3828
#
#
#
# Elastic Compliance Matrix: (Units=1/GPa)
#
#
# Indices 1 2 3 4 5 6 
#
# 1 0.014833 -0.000299 -0.009770 0.000000 -0.004309 0.000000
# 2 -0.000299 0.021035 -0.000753 0.000000 0.008725 0.000000
# 3 -0.009770 -0.000753 0.036553 0.000000 0.029242 0.000000
# 4 0.000000 0.000000 0.000000 0.092961 0.000000 0.006413
# 5 -0.004309 0.008725 0.029242 0.000000 0.061058 0.000000
# 6 0.000000 0.000000 0.000000 0.006413 0.000000 0.081200
#
#
# Mechanical properties :
#
#
# Convention : Reuss Voigt Hill
#
# Bulk Modulus (GPa) = 19.69419 33.03718 26.36569
# Shear Modulus (GPa) = 14.44207 20.54813 17.49510
#
# Velocity S-wave (km/s) = 2.87201 3.42576 3.16104
# Velocity P-wave (km/s) = 4.71657 5.87509 5.32742
#
# Compressibility (1/GPa) = 0.05077639
#
# Stress axis : x y z
#
# Youngs Moduli (GPa) = 67.41638 47.53904 27.35778
#
# Poissons Ratio (x) = 0.01422 0.26729
# Poissons Ratio (y) = 0.02017 0.02060
# Poissons Ratio (z) = 0.65867 0.03580
#
# Static dielectric constant tensor:
#      x y z
#    x 3.225900 0.000000 -0.158590 
#    y 0.000000 3.159900 0.000000 
#    z -0.158590 0.000000 3.057980 
# 
# 
# High freq. dielectric constant tensor:
#      x y z
#    x 1.675800 0.000000 -0.017910 
#    y 0.000000 1.675560 0.000000 
#    z -0.017910 0.000000 1.661440 
# 
# From -- ./inp_files/60369.got.cif
#   From: 2010.06.25/outbox.cif.g09.slc.cpg/sg15_31_cif.got.tgz:60369.got - 2010.06.28 07:06:18.
