data_PCOD8136295
_publ_section_title
;
Structure prediction by ZEFSAII (Michael W. Deem and Ramdas Pophale) SiO2 
 PCOD8136295
Probable space group: C 2/C
;
_chemical_formula_sum "Si O2"
_cell_formula_units_Z 64
_cell_length_a 18.250034
_cell_length_b 28.983085
_cell_length_c 8.480177
_cell_angle_alpha 90.000000
_cell_angle_beta 139.832526
_cell_angle_gamma 90.000000
_cell_volume 2893.270715
_symmetry_space_group_name_H-M "C 2/C"
_symmetry_group_IT_number 15
_symmetry_cell_setting 'monoclinic'
loop_
_space_group_symop_operation_xyz
x,y,z
-x,y,1/2-z
-x,-y,-z
x,-y,1/2+z
1/2+x,1/2+y,z
1/2-x,1/2+y,1/2-z
1/2-x,1/2-y,-z
1/2+x,1/2-y,1/2+z
loop_
_atom_site_type_symbol
_atom_site_label
_atom_site_fract_x
_atom_site_fract_y
_atom_site_fract_z
Si Si1 0.380345 0.371828 0.493618
Si Si2 0.663004 0.931430 0.202498
Si Si3 0.114220 0.145789 0.869688
Si Si4 0.338638 0.191255 0.368261
Si Si5 0.768977 0.781586 0.380537
Si Si6 0.874783 0.043297 0.555439
Si Si7 0.277696 0.995949 0.447489
Si Si8 0.074152 0.663220 0.645792
O O1 0.289539 0.410395 0.394713
O O2 0.383511 0.360341 0.314055
O O3 0.356590 0.323800 0.548110
O O4 0.500000 0.391538 0.750000
O O5 0.654839 0.968974 0.329319
O O6 0.574243 0.890433 0.091927
O O7 0.636350 0.959136 0.995506
O O8 0.116041 0.097262 0.962087
O O9 0.000000 0.171047 0.750000
O O10 0.225494 0.172254 0.105951
O O11 0.320548 0.246788 0.335871
O O12 0.445042 0.180212 0.430719
O O13 0.365289 0.169277 0.583686
O O14 0.750000 0.750000 0.500000
O O15 0.646876 0.805871 0.140362
O O16 0.782848 0.025112 0.284690
O O17 0.000000 0.020331 0.750000
O O18 0.823577 0.033243 0.641914
#
# Coordination Sequence:
#
# PCOD8136295 Si02
#       8
#     8   8   8   8   8   8   8   8
#     4  11  25  39  63  91 135 175 217 270 331 395
#     4  10  21  39  59  96 125 174 219 269 332 380
#     4  11  25  39  60  97 135 170 212 275 328 383
#     4  10  21  40  67  95 128 173 220 261 324 394
#     4   9  21  38  66  95 125 166 219 264 324 389
#     4  10  20  33  52  84 123 165 211 260 324 376
#     4  10  20  34  60  84 128 164 218 271 314 400
#     4   9  20  39  68  95 130 173 214 271 321 394
#
# _framework density 22.120296
#
# number of rings (size 3 to 8) (size 9 to 14) (size 15 to 20)
#    0.000    2.000    1.250    1.125   12.250    2.500 
#    0.000    2.500    0.000   13.500    0.000    0.000 
#    0.000    0.000    0.000    0.000    0.000    0.000 
#
# Total GULP energy -396553.203851 kJ/mol
# GULP energy per Si atom -12392.287620 kJ/mol
# Density = 2.206995 g / cm^3
# Si number density = 22.120296 Si / 1000 Ang^3
#
#
#
# Elastic Constant Matrix: (Units=GPa)
#
#
# Indices 1 2 3 4 5 6 
#
# 1 103.3705 53.4204 33.5305 0.0000 16.4115 0.0000
# 2 53.4204 132.9155 23.3647 0.0000 11.1515 0.0000
# 3 33.5305 23.3647 71.0508 0.0000 16.3353 0.0000
# 4 0.0000 0.0000 0.0000 11.0438 0.0000 3.1517
# 5 16.4115 11.1515 16.3353 0.0000 37.6605 0.0000
# 6 0.0000 0.0000 0.0000 3.1517 0.0000 41.3504
#
#
#
# Elastic Compliance Matrix: (Units=1/GPa)
#
#
# Indices 1 2 3 4 5 6 
#
# 1 0.013919 -0.004583 -0.004420 0.000000 -0.002791 0.000000
# 2 -0.004583 0.009558 -0.000876 0.000000 -0.000453 0.000000
# 3 -0.004420 -0.000876 0.017712 0.000000 -0.005497 0.000000
# 4 0.000000 0.000000 0.000000 0.092562 0.000000 -0.007055
# 5 -0.002791 -0.000453 -0.005497 0.000000 0.030288 0.000000
# 6 0.000000 0.000000 0.000000 -0.007055 0.000000 0.024721
#
#
# Mechanical properties :
#
#
# Convention : Reuss Voigt Hill
#
# Bulk Modulus (GPa) = 46.66126 58.66312 52.66219
# Shear Modulus (GPa) = 23.18444 31.14570 27.16507
#
# Velocity S-wave (km/s) = 3.24096 3.75642 3.50817
# Velocity P-wave (km/s) = 5.92834 6.73735 6.34575
#
# Compressibility (1/GPa) = 0.02143105
#
# Stress axis : x y z
#
# Youngs Moduli (GPa) = 71.84239 104.62883 56.45822
#
# Poissons Ratio (x) = 0.47954 0.24954
# Poissons Ratio (y) = 0.32927 0.04945
# Poissons Ratio (z) = 0.31754 0.09165
#
# Static dielectric constant tensor:
#      x y z
#    x 4.611630 0.000000 0.035590 
#    y 0.000000 4.448700 0.000000 
#    z 0.035590 0.000000 3.549310 
# 
# 
# High freq. dielectric constant tensor:
#      x y z
#    x 1.883450 0.000000 0.007010 
#    y 0.000000 1.882010 0.000000 
#    z 0.007010 0.000000 1.834740 
# 
# From -- ./inp_files/52856.got.cif
#   From: 2010.06.25/outbox.cif.g09.slc.cpg/sg15_27_cif.got.tgz:52856.got - 2010.06.28 07:06:18.
