data_PCOD8136457
_publ_section_title
;
Structure prediction by ZEFSAII (Michael W. Deem and Ramdas Pophale) SiO2 
 PCOD8136457
Probable space group: C 2/C
;
_chemical_formula_sum "Si O2"
_cell_formula_units_Z 56
_cell_length_a 16.757269
_cell_length_b 25.067221
_cell_length_c 8.934145
_cell_angle_alpha 90.000000
_cell_angle_beta 124.643422
_cell_angle_gamma 90.000000
_cell_volume 3087.500102
_symmetry_space_group_name_H-M "C 2/C"
_symmetry_group_IT_number 15
_symmetry_cell_setting 'monoclinic'
loop_
_space_group_symop_operation_xyz
x,y,z
-x,y,1/2-z
-x,-y,-z
x,-y,1/2+z
1/2+x,1/2+y,z
1/2-x,1/2+y,1/2-z
1/2-x,1/2-y,-z
1/2+x,1/2-y,1/2+z
loop_
_atom_site_type_symbol
_atom_site_label
_atom_site_fract_x
_atom_site_fract_y
_atom_site_fract_z
Si Si1 0.903161 0.680092 0.736342
Si Si2 0.311939 0.242181 0.382677
Si Si3 0.637877 0.665218 0.198412
Si Si4 0.617313 0.550487 0.691568
Si Si5 0.005289 0.251457 0.932512
Si Si6 0.390512 0.556713 0.471477
Si Si7 0.788222 0.139992 0.910344
O O1 0.849301 0.730022 0.592992
O O2 0.825388 0.630887 0.659818
O O3 0.000000 0.662080 0.750000
O O4 0.926719 0.701606 0.928023
O O5 0.225645 0.203260 0.245374
O O6 0.398337 0.231210 0.362212
O O7 0.281060 0.302870 0.322649
O O8 0.657618 0.611621 0.127555
O O9 0.637436 0.646324 0.371377
O O10 0.537634 0.694553 0.041501
O O11 0.503762 0.561071 0.551863
O O12 0.651479 0.493824 0.662415
O O13 0.676865 0.595653 0.667568
O O14 0.639887 0.549068 0.890032
O O15 0.000000 0.247289 0.750000
#
# Coordination Sequence:
#
# PCOD8136457 Si02
#       7
#     8   8   8   8   8   8   8
#     4   9  18  36  52  75 110 144 183 219 265 327
#     4  10  20  34  53  77 107 148 185 216 269 329
#     4  11  21  35  53  78 112 144 184 225 264 324
#     4  10  22  37  57  78 108 144 182 224 266 327
#     4  11  22  31  48  76 112 148 176 224 269 313
#     4  10  22  38  52  80 110 143 181 221 273 315
#     4  11  19  35  57  80 103 148 186 222 269 319
#
# _framework density 18.137653
#
# number of rings (size 3 to 8) (size 9 to 14) (size 15 to 20)
#    0.000    1.714    2.857    2.571    4.000    4.571 
#    0.000    0.000    0.000    0.000    0.000   17.000 
#    0.000    0.000    0.000    0.000    0.000    0.000 
#
# Total GULP energy -347027.118989 kJ/mol
# GULP energy per Si atom -12393.825678 kJ/mol
# Density = 1.809637 g / cm^3
# Si number density = 18.137653 Si / 1000 Ang^3
#
#
#
# Elastic Constant Matrix: (Units=GPa)
#
#
# Indices 1 2 3 4 5 6 
#
# 1 83.8872 52.5082 36.1050 0.0000 -6.4590 0.0000
# 2 52.5082 115.2627 39.7276 0.0000 -12.6736 0.0000
# 3 36.1050 39.7276 79.2732 0.0000 -16.9899 0.0000
# 4 0.0000 0.0000 0.0000 25.5632 0.0000 -3.9272
# 5 -6.4590 -12.6736 -16.9899 0.0000 24.0397 0.0000
# 6 0.0000 0.0000 0.0000 -3.9272 0.0000 27.4617
#
#
#
# Elastic Compliance Matrix: (Units=1/GPa)
#
#
# Indices 1 2 3 4 5 6 
#
# 1 0.018302 -0.006715 -0.005510 0.000000 -0.002517 0.000000
# 2 -0.006715 0.013045 -0.002819 0.000000 0.003081 0.000000
# 3 -0.005510 -0.002819 0.018739 0.000000 0.010278 0.000000
# 4 0.000000 0.000000 0.000000 0.039998 0.000000 0.005720
# 5 -0.002517 0.003081 0.010278 0.000000 0.049810 0.000000
# 6 0.000000 0.000000 0.000000 0.005720 0.000000 0.037232
#
#
# Mechanical properties :
#
#
# Convention : Reuss Voigt Hill
#
# Bulk Modulus (GPa) = 50.00255 59.45606 54.72931
# Shear Modulus (GPa) = 23.37771 25.41839 24.39805
#
# Velocity S-wave (km/s) = 3.59403 3.74761 3.67162
# Velocity P-wave (km/s) = 6.69708 7.18176 6.94365
#
# Compressibility (1/GPa) = 0.01999898
#
# Stress axis : x y z
#
# Youngs Moduli (GPa) = 54.64021 76.65622 53.36366
#
# Poissons Ratio (x) = 0.51475 0.29401
# Poissons Ratio (y) = 0.36691 0.15043
# Poissons Ratio (z) = 0.30105 0.21609
#
# Static dielectric constant tensor:
#      x y z
#    x 3.529490 0.000000 0.125900 
#    y 0.000000 3.209680 0.000000 
#    z 0.125900 0.000000 3.416770 
# 
# 
# High freq. dielectric constant tensor:
#      x y z
#    x 1.704310 0.000000 -0.003540 
#    y 0.000000 1.679540 0.000000 
#    z -0.003540 0.000000 1.695910 
# 
# From -- ./inp_files/50108.got.cif
#   From: 2010.06.25/outbox.cif.g09.slc.cpg/sg15_26_cif.got.tgz:50108.got - 2010.06.28 07:06:18.
