data_PCOD8136229
_publ_section_title
;
Structure prediction by ZEFSAII (Michael W. Deem and Ramdas Pophale) SiO2 
 PCOD8136229
Probable space group: C 2/C
;
_chemical_formula_sum "Si O2"
_cell_formula_units_Z 60
_cell_length_a 30.015349
_cell_length_b 11.124197
_cell_length_c 8.828768
_cell_angle_alpha 90.000000
_cell_angle_beta 112.650883
_cell_angle_gamma 90.000000
_cell_volume 2720.520663
_symmetry_space_group_name_H-M "C 2/C"
_symmetry_group_IT_number 15
_symmetry_cell_setting 'monoclinic'
loop_
_space_group_symop_operation_xyz
x,y,z
-x,y,1/2-z
-x,-y,-z
x,-y,1/2+z
1/2+x,1/2+y,z
1/2-x,1/2+y,1/2-z
1/2-x,1/2-y,-z
1/2+x,1/2-y,1/2+z
loop_
_atom_site_type_symbol
_atom_site_label
_atom_site_fract_x
_atom_site_fract_y
_atom_site_fract_z
Si Si1 0.215013 0.145772 0.206016
Si Si2 0.340586 0.499841 0.115962
Si Si3 0.824686 0.620935 0.295383
Si Si4 0.665571 0.870873 0.045351
Si Si5 0.000000 0.450176 0.250000
Si Si6 0.609671 0.653403 0.568407
Si Si7 0.938760 0.672617 0.127238
Si Si8 0.982856 0.734444 0.478751
O O1 0.191766 0.086067 0.322987
O O2 0.272181 0.142010 0.297448
O O3 0.203692 0.287861 0.182722
O O4 0.196204 0.080804 0.029471
O O5 0.375239 0.414081 0.258561
O O6 0.376132 0.576815 0.058972
O O7 0.842873 0.494972 0.381651
O O8 0.861736 0.720929 0.403418
O O9 0.819538 0.612848 0.108457
O O10 0.614865 0.801551 0.995548
O O11 0.955961 0.533471 0.134195
O O12 0.991094 0.362719 0.380214
O O13 0.550236 0.666887 0.476978
O O14 0.940617 0.687772 0.311133
O O15 0.972751 0.767163 0.076938
#
# Coordination Sequence:
#
# PCOD8136229 Si02
#       8
#     8   8   8   8   4   8   8   8
#     4  11  24  45  65  97 135 182 226 283 333 388
#     4  10  24  43  72  89 133 182 233 274 331 391
#     4  12  26  40  67 101 139 175 227 278 342 400
#     4  12  26  41  66 102 140 178 225 278 339 404
#     4  10  20  32  62  94 130 166 206 264 342 398
#     4  11  23  45  66  99 128 180 227 278 332 402
#     4  10  20  37  61  91 134 174 207 267 345 393
#     4  10  20  37  62  91 128 161 210 270 329 400
#
# _framework density 22.054601999999999
#
# number of rings (size 3 to 8) (size 9 to 14) (size 15 to 20)
#    0.000    1.333    2.667    3.600    7.467    1.600 
#    0.000    1.333    0.000   20.000    0.000    0.000 
#    0.000    0.000    0.000    0.000    0.000    0.000 
#
# Total GULP energy -371716.443326 kJ/mol
# GULP energy per Si atom -12390.548111 kJ/mol
# Density = 2.200440 g / cm^3
# Si number density = 22.054602 Si / 1000 Ang^3
#
#
#
# Elastic Constant Matrix: (Units=GPa)
#
#
# Indices 1 2 3 4 5 6 
#
# 1 128.3043 21.0730 26.6213 0.0000 -1.5863 0.0000
# 2 21.0730 88.3114 19.3668 0.0000 -14.5332 0.0000
# 3 26.6213 19.3668 53.4036 0.0000 -15.2323 0.0000
# 4 0.0000 0.0000 0.0000 19.6744 0.0000 -5.0234
# 5 -1.5863 -14.5332 -15.2323 0.0000 29.3813 0.0000
# 6 0.0000 0.0000 0.0000 -5.0234 0.0000 22.2456
#
#
#
# Elastic Compliance Matrix: (Units=1/GPa)
#
#
# Indices 1 2 3 4 5 6 
#
# 1 0.008990 -0.001564 -0.004690 0.000000 -0.002720 0.000000
# 2 -0.001564 0.013085 -0.002515 0.000000 0.005084 0.000000
# 3 -0.004690 -0.002515 0.025288 0.000000 0.011613 0.000000
# 4 0.000000 0.000000 0.000000 0.053937 0.000000 0.012180
# 5 -0.002720 0.005084 0.011613 0.000000 0.042423 0.000000
# 6 0.000000 0.000000 0.000000 0.012180 0.000000 0.047703
#
#
# Mechanical properties :
#
#
# Convention : Reuss Voigt Hill
#
# Bulk Modulus (GPa) = 33.53064 44.90461 39.21762
# Shear Modulus (GPa) = 22.84065 27.79082 25.31574
#
# Velocity S-wave (km/s) = 3.22163 3.55363 3.39169
# Velocity P-wave (km/s) = 5.39212 6.10267 5.75837
#
# Compressibility (1/GPa) = 0.02982347
#
# Stress axis : x y z
#
# Youngs Moduli (GPa) = 111.22954 76.42255 39.54479
#
# Poissons Ratio (x) = 0.11955 0.18547
# Poissons Ratio (y) = 0.17400 0.09947
# Poissons Ratio (z) = 0.52168 0.19224
#
# Static dielectric constant tensor:
#      x y z
#    x 4.160220 0.000000 -0.135560 
#    y 0.000000 3.916110 0.000000 
#    z -0.135560 0.000000 4.023930 
# 
# 
# High freq. dielectric constant tensor:
#      x y z
#    x 1.880020 0.000000 -0.012420 
#    y 0.000000 1.849450 0.000000 
#    z -0.012420 0.000000 1.871580 
# 
# From -- ./inp_files/69397.got.cif
#   From: 2010.06.25/outbox.cif.g09.slc.cpg/sg15_35_cif.got.tgz:69397.got - 2010.06.28 07:06:18.
