data_PCOD8136332
_publ_section_title
;
Structure prediction by ZEFSAII (Michael W. Deem and Ramdas Pophale) SiO2 
 PCOD8136332
Probable space group: C 2/C
;
_chemical_formula_sum "Si O2"
_cell_formula_units_Z 64
_cell_length_a 17.209376
_cell_length_b 26.546598
_cell_length_c 14.235401
_cell_angle_alpha 90.000000
_cell_angle_beta 144.662413
_cell_angle_gamma 90.000000
_cell_volume 3761.548409
_symmetry_space_group_name_H-M "C 2/C"
_symmetry_group_IT_number 15
_symmetry_cell_setting 'monoclinic'
loop_
_space_group_symop_operation_xyz
x,y,z
-x,y,1/2-z
-x,-y,-z
x,-y,1/2+z
1/2+x,1/2+y,z
1/2-x,1/2+y,1/2-z
1/2-x,1/2-y,-z
1/2+x,1/2-y,1/2+z
loop_
_atom_site_type_symbol
_atom_site_label
_atom_site_fract_x
_atom_site_fract_y
_atom_site_fract_z
Si Si1 0.770620 0.631714 0.349420
Si Si2 0.849855 0.021748 0.600960
Si Si3 0.841121 0.567986 0.588856
Si Si4 0.352561 0.443345 0.904357
Si Si5 0.160328 0.950904 0.198282
Si Si6 0.252552 0.635615 0.838247
Si Si7 0.511500 0.312612 0.653517
Si Si8 0.488825 0.195148 0.850601
O O1 0.787260 0.584415 0.434691
O O2 0.735084 0.604336 0.216471
O O3 0.657714 0.671993 0.264142
O O4 0.906386 0.663695 0.483551
O O5 0.846916 0.061129 0.511919
O O6 0.816348 0.047800 0.666823
O O7 0.000000 0.996861 0.750000
O O8 0.736288 0.982418 0.461266
O O9 0.796043 0.611104 0.613864
O O10 0.000000 0.558291 0.750000
O O11 0.296307 0.496626 0.808504
O O12 0.506046 0.438658 0.019858
O O13 0.254656 0.905674 0.252240
O O14 0.151184 0.682980 0.734257
O O15 0.402838 0.656311 0.988064
O O16 0.500000 0.327575 0.750000
O O17 0.484513 0.253860 0.611765
O O18 0.500000 0.179843 0.750000
#
# Coordination Sequence:
#
# PCOD8136332 Si02
#       8
#     8   8   8   8   8   8   8   8
#     4  12  20  35  53  78 110 149 176 216 267 321
#     4  10  22  38  56  77 110 143 184 230 256 307
#     4  12  22  34  49  82 119 148 179 213 267 322
#     4  10  20  33  55  83 105 137 185 220 261 319
#     4  10  20  33  55  83 105 137 185 220 261 319
#     4  12  20  35  53  78 110 149 176 216 267 321
#     4  11  22  32  57  79 105 141 187 224 267 313
#     4  11  22  38  49  79 115 143 177 224 269 327
#
# _framework density 17.01427
#
# number of rings (size 3 to 8) (size 9 to 14) (size 15 to 20)
#    0.000    1.000    7.500    0.750    1.750    2.000 
#    2.250    1.875    0.000    0.000    0.000    5.250 
#    0.000    0.000    0.000    0.000    0.000    0.000 
#
# Total GULP energy -396665.019284 kJ/mol
# GULP energy per Si atom -12395.781853 kJ/mol
# Density = 1.697554 g / cm^3
# Si number density = 17.014270 Si / 1000 Ang^3
#
#
#
# Elastic Constant Matrix: (Units=GPa)
#
#
# Indices 1 2 3 4 5 6 
#
# 1 63.6393 28.1198 25.8826 0.0000 -8.5496 0.0000
# 2 28.1198 68.8981 29.9748 0.0000 -2.0600 0.0000
# 3 25.8826 29.9748 76.3306 0.0000 1.3551 0.0000
# 4 0.0000 0.0000 0.0000 65.7294 0.0000 38.7621
# 5 -8.5496 -2.0600 1.3551 0.0000 28.0584 0.0000
# 6 0.0000 0.0000 0.0000 38.7621 0.0000 54.0772
#
#
#
# Elastic Compliance Matrix: (Units=1/GPa)
#
#
# Indices 1 2 3 4 5 6 
#
# 1 0.021361 -0.006430 -0.004830 0.000000 0.006270 0.000000
# 2 -0.006430 0.019514 -0.005478 0.000000 -0.000262 0.000000
# 3 -0.004830 -0.005478 0.016938 0.000000 -0.002692 0.000000
# 4 0.000000 0.000000 0.000000 0.026354 0.000000 -0.018890
# 5 0.006270 -0.000262 -0.002692 0.000000 0.037661 0.000000
# 6 0.000000 0.000000 0.000000 -0.018890 0.000000 0.032033
#
#
# Mechanical properties :
#
#
# Convention : Reuss Voigt Hill
#
# Bulk Modulus (GPa) = 41.08853 41.86916 41.47885
# Shear Modulus (GPa) = 25.58223 37.89903 31.74063
#
# Velocity S-wave (km/s) = 3.88180 4.72474 4.32386
# Velocity P-wave (km/s) = 6.65530 7.37740 7.02563
#
# Compressibility (1/GPa) = 0.02433769
#
# Stress axis : x y z
#
# Youngs Moduli (GPa) = 46.81380 51.24559 59.04002
#
# Poissons Ratio (x) = 0.32949 0.28515
# Poissons Ratio (y) = 0.30099 0.32343
# Poissons Ratio (z) = 0.22610 0.28073
#
# Static dielectric constant tensor:
#      x y z
#    x 3.059220 0.000000 0.084770 
#    y 0.000000 3.051720 0.000000 
#    z 0.084770 0.000000 3.181240 
# 
# 
# High freq. dielectric constant tensor:
#      x y z
#    x 1.636510 0.000000 0.012860 
#    y 0.000000 1.647870 0.000000 
#    z 0.012860 0.000000 1.653540 
# 
# From -- ./inp_files/164268.got.cif
#   From: 2010.06.25/outbox.cif.g09.slc.cpg/sg15_83_cif.got.tgz:164268.got - 2010.06.28 07:06:18.
