data_PCOD8136563
_publ_section_title
;
Structure prediction by ZEFSAII (Michael W. Deem and Ramdas Pophale) SiO2 
 PCOD8136563
Probable space group: C 2/C
;
_chemical_formula_sum "Si O2"
_cell_formula_units_Z 40
_cell_length_a 12.533774
_cell_length_b 31.318494
_cell_length_c 4.859554
_cell_angle_alpha 90.000000
_cell_angle_beta 89.846342
_cell_angle_gamma 90.000000
_cell_volume 1907.557247
_symmetry_space_group_name_H-M "C 2/C"
_symmetry_group_IT_number 15
_symmetry_cell_setting 'monoclinic'
loop_
_space_group_symop_operation_xyz
x,y,z
-x,y,1/2-z
-x,-y,-z
x,-y,1/2+z
1/2+x,1/2+y,z
1/2-x,1/2+y,1/2-z
1/2-x,1/2-y,-z
1/2+x,1/2-y,1/2+z
loop_
_atom_site_type_symbol
_atom_site_label
_atom_site_fract_x
_atom_site_fract_y
_atom_site_fract_z
Si Si1 0.258724 0.717650 0.743343
Si Si2 0.376773 0.691567 0.223115
Si Si3 0.124542 0.360921 0.286807
Si Si4 0.120828 0.971322 0.719564
Si Si5 0.751433 0.388638 0.696701
O O1 0.312620 0.727925 0.428545
O O2 0.154097 0.688133 0.706370
O O3 0.250000 0.750000 0.000000
O O4 0.349965 0.689026 0.897715
O O5 0.500000 0.701661 0.250000
O O6 0.342419 0.646296 0.351086
O O7 0.159187 0.371545 0.595212
O O8 0.000000 0.367320 0.250000
O O9 0.186911 0.394137 0.090748
O O10 0.200952 0.933154 0.790125
O O11 0.000000 0.954209 0.750000
O O12 0.141698 0.988032 0.413035
#
# Coordination Sequence:
#
# PCOD8136563 Si02
#       5
#     8   8   8   8   8
#     4  10  21  36  54  80 110 140 181 230 279 332
#     4  10  20  35  55  80 108 141 178 220 278 334
#     4  10  21  37  58  80 105 148 195 232 274 323
#     4  10  20  34  56  87 118 147 177 218 282 344
#     4  10  20  36  58  81 111 144 184 232 270 330
#
# _framework density 20.969225000000002
#
# number of rings (size 3 to 8) (size 9 to 14) (size 15 to 20)
#    0.000    2.000    0.000    3.600    0.000    0.800 
#    0.000   12.000    0.000   12.000    0.000    0.000 
#    0.000    0.000    0.000    0.000    0.000    0.000 
#
# Total GULP energy -247863.413301 kJ/mol
# GULP energy per Si atom -12393.170665 kJ/mol
# Density = 2.092150 g / cm^3
# Si number density = 20.969225 Si / 1000 Ang^3
#
#
#
# Elastic Constant Matrix: (Units=GPa)
#
#
# Indices 1 2 3 4 5 6 
#
# 1 117.7227 46.2343 36.5259 0.0000 -7.8457 0.0000
# 2 46.2343 86.2953 24.4211 0.0000 -9.2937 0.0000
# 3 36.5259 24.4211 120.8924 0.0000 0.3187 0.0000
# 4 0.0000 0.0000 0.0000 15.3691 0.0000 1.1033
# 5 -7.8457 -9.2937 0.3187 0.0000 28.8874 0.0000
# 6 0.0000 0.0000 0.0000 1.1033 0.0000 20.6301
#
#
#
# Elastic Compliance Matrix: (Units=1/GPa)
#
#
# Indices 1 2 3 4 5 6 
#
# 1 0.011403 -0.005282 -0.002382 0.000000 0.001424 0.000000
# 2 -0.005282 0.015213 -0.001486 0.000000 0.003476 0.000000
# 3 -0.002382 -0.001486 0.009295 0.000000 -0.001228 0.000000
# 4 0.000000 0.000000 0.000000 0.065317 0.000000 -0.003493
# 5 0.001424 0.003476 -0.001228 0.000000 0.036136 0.000000
# 6 0.000000 0.000000 0.000000 -0.003493 0.000000 0.048660
#
#
# Mechanical properties :
#
#
# Convention : Reuss Voigt Hill
#
# Bulk Modulus (GPa) = 56.78502 59.91922 58.35212
# Shear Modulus (GPa) = 23.78757 27.49258 25.64008
#
# Velocity S-wave (km/s) = 3.37175 3.62483 3.50057
# Velocity P-wave (km/s) = 6.50363 6.79382 6.65031
#
# Compressibility (1/GPa) = 0.01761028
#
# Stress axis : x y z
#
# Youngs Moduli (GPa) = 87.69704 65.73326 107.58451
#
# Poissons Ratio (x) = 0.34719 0.25627
# Poissons Ratio (y) = 0.46320 0.15992
# Poissons Ratio (z) = 0.20889 0.09771
#
# Static dielectric constant tensor:
#      x y z
#    x 3.234050 0.000000 -1.720130 
#    y 0.000000 4.554900 0.000000 
#    z -1.720130 0.000000 -3.739490 
# 
# 
# High freq. dielectric constant tensor:
#      x y z
#    x 1.807610 0.000000 0.009550 
#    y 0.000000 1.807320 0.000000 
#    z 0.009550 0.000000 1.856530 
# 
# From -- ./inp_files/5491.got.cif
#   From: 2010.06.25/outbox.cif.g09.slc.cpg/sg15_3_cif.got.tgz:5491.got - 2010.06.28 07:06:18.
