data_PCOD8136800
_publ_section_title
;
Structure prediction by ZEFSAII (Michael W. Deem and Ramdas Pophale) SiO2 
 PCOD8136800
Probable space group: C 2/C
;
_chemical_formula_sum "Si O2"
_cell_formula_units_Z 56
_cell_length_a 21.971893
_cell_length_b 22.004662
_cell_length_c 8.453336
_cell_angle_alpha 90.000000
_cell_angle_beta 130.806445
_cell_angle_gamma 90.000000
_cell_volume 3093.578771
_symmetry_space_group_name_H-M "C 2/C"
_symmetry_group_IT_number 15
_symmetry_cell_setting 'monoclinic'
loop_
_space_group_symop_operation_xyz
x,y,z
-x,y,1/2-z
-x,-y,-z
x,-y,1/2+z
1/2+x,1/2+y,z
1/2-x,1/2+y,1/2-z
1/2-x,1/2-y,-z
1/2+x,1/2-y,1/2+z
loop_
_atom_site_type_symbol
_atom_site_label
_atom_site_fract_x
_atom_site_fract_y
_atom_site_fract_z
Si Si1 0.824017 0.049119 0.618996
Si Si2 0.685404 0.300771 0.933632
Si Si3 0.621948 0.750243 0.863745
Si Si4 0.010944 0.909537 0.957144
Si Si5 0.762623 0.833344 0.135650
Si Si6 0.839102 0.926839 0.777263
Si Si7 0.969108 0.779383 0.977181
O O1 0.761844 0.095396 0.596156
O O2 0.822795 0.063932 0.433002
O O3 0.793828 0.980174 0.601040
O O4 0.910708 0.055857 0.849675
O O5 0.690333 0.359878 0.827874
O O6 0.596171 0.269553 0.773120
O O7 0.750000 0.250000 0.000000
O O8 0.694770 0.323118 0.125731
O O9 0.686093 0.702396 0.907359
O O10 0.544690 0.767421 0.619548
O O11 0.669713 0.812100 0.982294
O O12 0.585185 0.719202 0.957112
O O13 0.000000 0.912843 0.750000
O O14 0.933070 0.938225 0.906148
O O15 0.018002 0.841190 0.032484
#
# Coordination Sequence:
#
# PCOD8136800 Si02
#       7
#     8   8   8   8   8   8   8
#     4  12  22  39  55  78 114 149 192 234 277 345
#     4  11  22  36  56  83 117 146 190 236 281 330
#     4  10  21  33  54  79 111 147 197 225 286 332
#     4  11  21  33  52  80 112 154 192 228 270 334
#     4  11  21  35  56  81 112 149 190 239 282 329
#     4  11  25  36  55  79 110 154 191 229 282 336
#     4  10  20  35  51  80 113 155 186 231 276 341
#
# _framework density 18.102011000000001
#
# number of rings (size 3 to 8) (size 9 to 14) (size 15 to 20)
#    0.000    1.143    2.857    6.000    6.000    0.000 
#    0.000    0.000    0.000    0.000    0.000    1.000 
#    0.000    0.000    0.000    0.000    0.000    0.000 
#
# Total GULP energy -346960.366893 kJ/mol
# GULP energy per Si atom -12391.441675 kJ/mol
# Density = 1.806081 g / cm^3
# Si number density = 18.102011 Si / 1000 Ang^3
#
#
#
# Elastic Constant Matrix: (Units=GPa)
#
#
# Indices 1 2 3 4 5 6 
#
# 1 44.4449 16.6030 36.4429 0.0000 -10.4934 0.0000
# 2 16.6030 89.0256 47.5982 0.0000 3.7973 0.0000
# 3 36.4429 47.5982 115.2707 0.0000 4.3144 0.0000
# 4 0.0000 0.0000 0.0000 25.1202 0.0000 -0.8643
# 5 -10.4934 3.7973 4.3144 0.0000 34.3791 0.0000
# 6 0.0000 0.0000 0.0000 -0.8643 0.0000 17.3055
#
#
#
# Elastic Compliance Matrix: (Units=1/GPa)
#
#
# Indices 1 2 3 4 5 6 
#
# 1 0.034793 -0.001132 -0.010986 0.000000 0.012124 0.000000
# 2 -0.001132 0.014477 -0.005573 0.000000 -0.001245 0.000000
# 3 -0.010986 -0.005573 0.014621 0.000000 -0.004573 0.000000
# 4 0.000000 0.000000 0.000000 0.039877 0.000000 0.001992
# 5 0.012124 -0.001245 -0.004573 0.000000 0.033499 0.000000
# 6 0.000000 0.000000 0.000000 0.001992 0.000000 0.057884
#
#
# Mechanical properties :
#
#
# Convention : Reuss Voigt Hill
#
# Bulk Modulus (GPa) = 35.07807 50.00328 42.54067
# Shear Modulus (GPa) = 20.83006 25.23411 23.03209
#
# Velocity S-wave (km/s) = 3.39588 3.73767 3.57087
# Velocity P-wave (km/s) = 5.89882 6.80514 6.36813
#
# Compressibility (1/GPa) = 0.02850784
#
# Stress axis : x y z
#
# Youngs Moduli (GPa) = 28.74118 69.07608 68.39460
#
# Poissons Ratio (x) = 0.07820 0.75140
# Poissons Ratio (y) = 0.03254 0.38118
# Poissons Ratio (z) = 0.31576 0.38498
#
# Static dielectric constant tensor:
#      x y z
#    x 3.371180 0.000000 -0.041880 
#    y 0.000000 3.467690 0.000000 
#    z -0.041880 0.000000 3.697780 
# 
# 
# High freq. dielectric constant tensor:
#      x y z
#    x 1.691310 0.000000 -0.021290 
#    y 0.000000 1.682840 0.000000 
#    z -0.021290 0.000000 1.704850 
# 
# From -- ./inp_files/57912.got.cif
#   From: 2010.06.25/outbox.cif.g09.slc.cpg/sg15_29_cif.got.tgz:57912.got - 2010.06.28 07:06:18.
