data_PCOD8136032
_publ_section_title
;
Structure prediction by ZEFSAII (Michael W. Deem and Ramdas Pophale) SiO2 
 PCOD8136032
Probable space group: C 2/C
;
_chemical_formula_sum "Si O2"
_cell_formula_units_Z 48
_cell_length_a 20.666501
_cell_length_b 11.817083
_cell_length_c 14.098557
_cell_angle_alpha 90.000000
_cell_angle_beta 136.830341
_cell_angle_gamma 90.000000
_cell_volume 2355.646984
_symmetry_space_group_name_H-M "C 2/C"
_symmetry_group_IT_number 15
_symmetry_cell_setting 'monoclinic'
loop_
_space_group_symop_operation_xyz
x,y,z
-x,y,1/2-z
-x,-y,-z
x,-y,1/2+z
1/2+x,1/2+y,z
1/2-x,1/2+y,1/2-z
1/2-x,1/2-y,-z
1/2+x,1/2-y,1/2+z
loop_
_atom_site_type_symbol
_atom_site_label
_atom_site_fract_x
_atom_site_fract_y
_atom_site_fract_z
Si Si1 0.320023 0.786144 0.953502
Si Si2 0.895759 0.007122 0.349729
Si Si3 0.771869 0.906192 0.885796
Si Si4 0.743563 0.828004 0.193072
Si Si5 0.607506 0.022882 0.091552
Si Si6 0.333041 0.409823 0.594108
O O1 0.247705 0.725743 0.803002
O O2 0.392986 0.866670 0.976535
O O3 0.265908 0.864394 0.971031
O O4 0.375284 0.685036 0.067839
O O5 0.831640 0.076982 0.353482
O O6 0.904434 0.068559 0.256960
O O7 0.844998 0.886152 0.280106
O O8 0.000000 0.000000 0.500000
O O9 0.771712 0.770549 0.902079
O O10 0.665751 0.950717 0.750253
O O11 0.815401 0.971454 0.021251
O O12 0.656473 0.915627 0.091962
O O13 0.500000 0.000000 0.000000
#
# Coordination Sequence:
#
# PCOD8136032 Si02
#       6
#     8   8   8   8   8   8
#     4  10  20  39  67  93 121 177 217 264 324 385
#     4  11  23  40  63  96 128 164 220 275 329 382
#     4  10  22  40  61  90 133 171 210 268 334 390
#     4  10  19  43  61  90 132 167 208 268 328 385
#     4  10  20  39  63  95 128 168 213 267 326 385
#     4  11  20  41  68  92 129 171 225 265 323 394
#
# _framework density 20.376567999999999
#
# number of rings (size 3 to 8) (size 9 to 14) (size 15 to 20)
#    0.000    1.667    8.333    0.000    0.000    4.000 
#    0.000    2.500    0.000    2.000    0.000    0.000 
#    0.000    0.000    0.000    0.000    0.000    0.000 
#
# Total GULP energy -297472.321390 kJ/mol
# GULP energy per Si atom -12394.680058 kJ/mol
# Density = 2.033019 g / cm^3
# Si number density = 20.376568 Si / 1000 Ang^3
#
#
#
# Elastic Constant Matrix: (Units=GPa)
#
#
# Indices 1 2 3 4 5 6 
#
# 1 71.3446 46.9825 57.9173 0.0000 2.1406 0.0000
# 2 46.9825 149.3594 60.9385 0.0000 5.4157 0.0000
# 3 57.9173 60.9385 129.2031 0.0000 5.1524 0.0000
# 4 0.0000 0.0000 0.0000 22.4529 0.0000 -10.3530
# 5 2.1406 5.4157 5.1524 0.0000 38.4651 0.0000
# 6 0.0000 0.0000 0.0000 -10.3530 0.0000 33.3236
#
#
#
# Elastic Compliance Matrix: (Units=1/GPa)
#
#
# Indices 1 2 3 4 5 6 
#
# 1 0.023717 -0.003877 -0.008819 0.000000 0.000407 0.000000
# 2 -0.003877 0.008940 -0.002450 0.000000 -0.000715 0.000000
# 3 -0.008819 -0.002450 0.012884 0.000000 -0.000890 0.000000
# 4 0.000000 0.000000 0.000000 0.051985 0.000000 0.016151
# 5 0.000407 -0.000715 -0.000890 0.000000 0.026195 0.000000
# 6 0.000000 0.000000 0.000000 0.016151 0.000000 0.035027
#
#
# Mechanical properties :
#
#
# Convention : Reuss Voigt Hill
#
# Bulk Modulus (GPa) = 65.57959 75.73151 70.65555
# Shear Modulus (GPa) = 25.75692 31.11959 28.43825
#
# Velocity S-wave (km/s) = 3.55920 3.91221 3.73987
# Velocity P-wave (km/s) = 7.01029 7.59301 7.30746
#
# Compressibility (1/GPa) = 0.01524865
#
# Stress axis : x y z
#
# Youngs Moduli (GPa) = 42.16466 111.85127 77.61440
#
# Poissons Ratio (x) = 0.43364 0.68448
# Poissons Ratio (y) = 0.16347 0.19018
# Poissons Ratio (z) = 0.37185 0.27408
#
# Static dielectric constant tensor:
#      x y z
#    x 7.300110 0.000000 9.191510 
#    y 0.000000 4.100870 0.000000 
#    z 9.191510 0.000000 27.051590 
# 
# 
# High freq. dielectric constant tensor:
#      x y z
#    x 1.773930 0.000000 -0.017100 
#    y 0.000000 1.818960 0.000000 
#    z -0.017100 0.000000 1.770150 
# 
# From -- ./inp_files/167918.got.cif
#   From: 2010.06.25/outbox.cif.g09.slc.cpg/sg15_84_cif.got.tgz:167918.got - 2010.06.28 07:06:18.
