data_PCOD8136084
_publ_section_title
;
Structure prediction by ZEFSAII (Michael W. Deem and Ramdas Pophale) SiO2 
 PCOD8136084
Probable space group: C 2/C
;
_chemical_formula_sum "Si O2"
_cell_formula_units_Z 52
_cell_length_a 22.636703
_cell_length_b 15.809524
_cell_length_c 7.984072
_cell_angle_alpha 90.000000
_cell_angle_beta 109.128970
_cell_angle_gamma 90.000000
_cell_volume 2699.532992
_symmetry_space_group_name_H-M "C 2/C"
_symmetry_group_IT_number 15
_symmetry_cell_setting 'monoclinic'
loop_
_space_group_symop_operation_xyz
x,y,z
-x,y,1/2-z
-x,-y,-z
x,-y,1/2+z
1/2+x,1/2+y,z
1/2-x,1/2+y,1/2-z
1/2-x,1/2-y,-z
1/2+x,1/2-y,1/2+z
loop_
_atom_site_type_symbol
_atom_site_label
_atom_site_fract_x
_atom_site_fract_y
_atom_site_fract_z
Si Si1 0.797477 0.656851 0.684106
Si Si2 0.674229 0.743384 0.620814
Si Si3 0.455591 0.930075 0.037157
Si Si4 0.864192 0.675253 0.073381
Si Si5 0.535129 0.267461 0.944092
Si Si6 0.870751 0.496819 0.704932
Si Si7 0.000000 0.745829 0.250000
O O1 0.724927 0.668132 0.666593
O O2 0.808731 0.689630 0.506894
O O3 0.813094 0.557575 0.691523
O O4 0.839566 0.705526 0.866430
O O5 0.673394 0.781507 0.808189
O O6 0.607208 0.706337 0.503758
O O7 0.478501 0.833633 0.050245
O O8 0.434712 0.950841 0.209675
O O9 0.388675 0.938475 0.880993
O O10 0.500000 0.000000 0.000000
O O11 0.851539 0.573928 0.050273
O O12 0.938300 0.688106 0.169329
O O13 0.500000 0.304933 0.750000
O O14 0.506810 0.305071 0.091178
#
# Coordination Sequence:
#
# PCOD8136084 Si02
#       7
#     8   8   8   8   8   8   4
#     4  11  22  36  52  68 101 147 183 221 249 299
#     4  10  22  38  50  71 100 143 187 212 256 314
#     4  12  22  29  45  73 106 137 171 208 247 302
#     4  11  21  35  52  74 105 141 174 216 264 305
#     4  11  20  34  49  72 103 136 169 210 256 301
#     4  12  20  32  47  72 101 135 181 215 251 296
#     4  10  20  30  48  74 102 132 172 204 244 310
#
# _framework density 19.262592000000001
#
# number of rings (size 3 to 8) (size 9 to 14) (size 15 to 20)
#    0.000    0.923    6.154    3.692    0.000    0.000 
#    0.000    0.000    0.000    0.000    0.000    0.000 
#    0.000    1.231    3.846    2.769    1.231    0.308 
#
# Total GULP energy -322106.943161 kJ/mol
# GULP energy per Si atom -12388.728583 kJ/mol
# Density = 1.921875 g / cm^3
# Si number density = 19.262592 Si / 1000 Ang^3
#
#
#
# Elastic Constant Matrix: (Units=GPa)
#
#
# Indices 1 2 3 4 5 6 
#
# 1 120.1338 22.6994 41.3822 0.0000 -4.9349 0.0000
# 2 22.6994 17.6848 9.2853 0.0000 1.0547 0.0000
# 3 41.3822 9.2853 107.2389 0.0000 -0.1520 0.0000
# 4 0.0000 0.0000 0.0000 14.0777 0.0000 3.7424
# 5 -4.9349 1.0547 -0.1520 0.0000 29.1896 0.0000
# 6 0.0000 0.0000 0.0000 3.7424 0.0000 33.4569
#
#
#
# Elastic Compliance Matrix: (Units=1/GPa)
#
#
# Indices 1 2 3 4 5 6 
#
# 1 0.012308 -0.014101 -0.003525 0.000000 0.002572 0.000000
# 2 -0.014101 0.075531 -0.001106 0.000000 -0.005119 0.000000
# 3 -0.003525 -0.001106 0.010780 0.000000 -0.000500 0.000000
# 4 0.000000 0.000000 0.000000 0.073212 0.000000 -0.008189
# 5 0.002572 -0.005119 -0.000500 0.000000 0.034876 0.000000
# 6 0.000000 0.000000 0.000000 -0.008189 0.000000 0.030805
#
#
# Mechanical properties :
#
#
# Convention : Reuss Voigt Hill
#
# Bulk Modulus (GPa) = 16.35165 43.53235 29.94200
# Shear Modulus (GPa) = 16.92843 26.79086 21.85965
#
# Velocity S-wave (km/s) = 2.96771 3.73342 3.37237
# Velocity P-wave (km/s) = 4.50004 6.42130 5.54452
#
# Compressibility (1/GPa) = 0.06115592
#
# Stress axis : x y z
#
# Youngs Moduli (GPa) = 81.24545 13.23964 92.76191
#
# Poissons Ratio (x) = 0.18669 0.32699
# Poissons Ratio (y) = 1.14564 0.10256
# Poissons Ratio (z) = 0.28640 0.01464
#
# Static dielectric constant tensor:
#      x y z
#    x 3.709910 0.000000 -0.198990 
#    y 0.000000 2.964340 0.000000 
#    z -0.198990 0.000000 4.377570 
# 
# 
# High freq. dielectric constant tensor:
#      x y z
#    x 1.745680 0.000000 -0.016010 
#    y 0.000000 1.662830 0.000000 
#    z -0.016010 0.000000 1.792650 
# 
# From -- ./inp_files/62285.got.cif
#   From: 2010.06.25/outbox.cif.g09.slc.cpg/sg15_32_cif.got.tgz:62285.got - 2010.06.28 07:06:18.
