data_PCOD8136611
_publ_section_title
;
Structure prediction by ZEFSAII (Michael W. Deem and Ramdas Pophale) SiO2 
 PCOD8136611
Probable space group: C 2/C
;
_chemical_formula_sum "Si O2"
_cell_formula_units_Z 56
_cell_length_a 20.444156
_cell_length_b 25.368390
_cell_length_c 5.506363
_cell_angle_alpha 90.000000
_cell_angle_beta 118.208199
_cell_angle_gamma 90.000000
_cell_volume 2516.628280
_symmetry_space_group_name_H-M "C 2/C"
_symmetry_group_IT_number 15
_symmetry_cell_setting 'monoclinic'
loop_
_space_group_symop_operation_xyz
x,y,z
-x,y,1/2-z
-x,-y,-z
x,-y,1/2+z
1/2+x,1/2+y,z
1/2-x,1/2+y,1/2-z
1/2-x,1/2-y,-z
1/2+x,1/2-y,1/2+z
loop_
_atom_site_type_symbol
_atom_site_label
_atom_site_fract_x
_atom_site_fract_y
_atom_site_fract_z
Si Si1 0.329397 0.372040 0.418758
Si Si2 0.215291 0.473549 0.753275
Si Si3 0.702463 0.141488 0.366032
Si Si4 0.376938 0.486607 0.580198
Si Si5 0.423261 0.783636 0.725589
Si Si6 0.805427 0.214734 0.244175
Si Si7 0.959835 0.176268 0.937691
O O1 0.352014 0.427138 0.572848
O O2 0.344853 0.328907 0.650289
O O3 0.382260 0.356067 0.283237
O O4 0.242416 0.374889 0.190015
O O5 0.183460 0.501639 0.451949
O O6 0.194210 0.411527 0.692163
O O7 0.304414 0.476335 0.924555
O O8 0.620370 0.165878 0.248078
O O9 0.756219 0.187130 0.363195
O O10 0.421821 0.504935 0.903262
O O11 0.500000 0.806048 0.750000
O O12 0.371256 0.752473 0.445726
O O13 0.444802 0.738657 0.959314
O O14 0.750000 0.250000 0.000000
O O15 0.000000 0.166849 0.750000
O O16 0.000000 0.153537 0.250000
#
# Coordination Sequence:
#
# PCOD8136611 Si02
#       7
#     8   8   8   8   8   8   8
#     4  12  22  37  66  90 125 166 221 270 321 384
#     4  10  20  37  59  94 126 156 205 275 330 371
#     4  12  23  37  65  97 124 168 220 271 321 383
#     4  10  20  34  57  92 121 157 203 271 328 371
#     4  11  24  43  61  93 137 177 214 260 329 395
#     4  12  23  38  64  98 131 167 222 279 315 381
#     4  11  25  44  63  90 132 179 216 258 323 397
#
# _framework density 22.251995000000001
#
# number of rings (size 3 to 8) (size 9 to 14) (size 15 to 20)
#    0.000    0.857    5.714    4.714    0.000    0.000 
#    0.000    0.000    0.000    3.429    0.000    0.000 
#    0.000    0.000    0.000    0.000    0.000    0.000 
#
# Total GULP energy -346953.643047 kJ/mol
# GULP energy per Si atom -12391.201537 kJ/mol
# Density = 2.220135 g / cm^3
# Si number density = 22.251995 Si / 1000 Ang^3
#
#
#
# Elastic Constant Matrix: (Units=GPa)
#
#
# Indices 1 2 3 4 5 6 
#
# 1 117.1539 43.2532 32.9572 0.0000 1.9614 0.0000
# 2 43.2532 100.6487 16.1884 0.0000 -4.5657 0.0000
# 3 32.9572 16.1884 109.0721 0.0000 -24.6476 0.0000
# 4 0.0000 0.0000 0.0000 18.2016 0.0000 -11.0810
# 5 1.9614 -4.5657 -24.6476 0.0000 27.6118 0.0000
# 6 0.0000 0.0000 0.0000 -11.0810 0.0000 19.3676
#
#
#
# Elastic Compliance Matrix: (Units=1/GPa)
#
#
# Indices 1 2 3 4 5 6 
#
# 1 0.011378 -0.004489 -0.003911 0.000000 -0.005042 0.000000
# 2 -0.004489 0.011954 0.000127 0.000000 0.002408 0.000000
# 3 -0.003911 0.000127 0.013026 0.000000 0.011927 0.000000
# 4 0.000000 0.000000 0.000000 0.084305 0.000000 0.048234
# 5 -0.005042 0.002408 0.011927 0.000000 0.047619 0.000000
# 6 0.000000 0.000000 0.000000 0.048234 0.000000 0.079230
#
#
# Mechanical properties :
#
#
# Convention : Reuss Voigt Hill
#
# Bulk Modulus (GPa) = 50.47788 56.85246 53.66517
# Shear Modulus (GPa) = 18.47324 28.66795 23.57059
#
# Velocity S-wave (km/s) = 2.88442 3.59323 3.25815
# Velocity P-wave (km/s) = 5.81610 6.54369 6.19060
#
# Compressibility (1/GPa) = 0.01981066
#
# Stress axis : x y z
#
# Youngs Moduli (GPa) = 87.89054 83.65645 76.76774
#
# Poissons Ratio (x) = 0.37555 0.30023
# Poissons Ratio (y) = 0.39456 -0.00972
# Poissons Ratio (z) = 0.34373 -0.01059
#
# Static dielectric constant tensor:
#      x y z
#    x 3.655040 0.000000 -0.502070 
#    y 0.000000 4.111660 0.000000 
#    z -0.502070 0.000000 4.075760 
# 
# 
# High freq. dielectric constant tensor:
#      x y z
#    x 1.846260 0.000000 -0.020960 
#    y 0.000000 1.878290 0.000000 
#    z -0.020960 0.000000 1.873330 
# 
# From -- ./inp_files/13928.got.cif
#   From: 2010.06.25/outbox.cif.g09.slc.cpg/sg15_7_cif.got.tgz:13928.got - 2010.06.28 07:06:18.
