data_PCOD8136962
_publ_section_title
;
Structure prediction by ZEFSAII (Michael W. Deem and Ramdas Pophale) SiO2 
 PCOD8136962
Probable space group: C 2/C
;
_chemical_formula_sum "Si O2"
_cell_formula_units_Z 56
_cell_length_a 9.241422
_cell_length_b 30.082253
_cell_length_c 13.840319
_cell_angle_alpha 90.000000
_cell_angle_beta 135.674279
_cell_angle_gamma 90.000000
_cell_volume 2688.491655
_symmetry_space_group_name_H-M "C 2/C"
_symmetry_group_IT_number 15
_symmetry_cell_setting 'monoclinic'
loop_
_space_group_symop_operation_xyz
x,y,z
-x,y,1/2-z
-x,-y,-z
x,-y,1/2+z
1/2+x,1/2+y,z
1/2-x,1/2+y,1/2-z
1/2-x,1/2-y,-z
1/2+x,1/2-y,1/2+z
loop_
_atom_site_type_symbol
_atom_site_label
_atom_site_fract_x
_atom_site_fract_y
_atom_site_fract_z
Si Si1 0.872721 0.558228 0.962318
Si Si2 0.904535 0.351892 0.378378
Si Si3 0.530195 0.649106 0.568707
Si Si4 0.184118 0.787615 0.397472
Si Si5 0.237951 0.571326 0.379529
Si Si6 0.301805 0.480239 0.717200
Si Si7 0.190573 0.706731 0.912190
O O1 0.906965 0.610056 0.959212
O O2 0.733316 0.533672 0.813346
O O3 0.755476 0.550483 0.009401
O O4 0.104948 0.540548 0.070557
O O5 0.742673 0.368446 0.219041
O O6 0.853542 0.303992 0.402179
O O7 0.126312 0.338541 0.439622
O O8 0.381494 0.666882 0.581313
O O9 0.403035 0.611524 0.449402
O O10 0.594577 0.691614 0.534851
O O11 0.250000 0.750000 0.500000
O O12 0.000000 0.765243 0.250000
O O13 0.306936 0.534402 0.332644
O O14 0.000000 0.587739 0.250000
O O15 0.500000 0.464225 0.750000
O O16 0.000000 0.719185 0.750000
O O17 0.250000 0.750000 0.000000
#
# Coordination Sequence:
#
# PCOD8136962 Si02
#       7
#     8   8   8   8   8   8   8
#     4  10  22  44  63  92 131 167 210 270 319 382
#     4  10  21  39  64  88 124 171 211 256 322 385
#     4  10  21  38  62  87 122 168 211 261 315 389
#     4  10  20  35  57  89 121 161 213 258 316 382
#     4  10  22  42  62  94 130 163 218 270 328 386
#     4  10  24  41  65  94 129 163 213 268 324 386
#     4  10  22  42  60  93 131 170 216 270 323 387
#
# _framework density 20.829526000000001
#
# number of rings (size 3 to 8) (size 9 to 14) (size 15 to 20)
#    0.000    2.000    1.429    0.857    4.000    1.143 
#    5.143    5.000    0.000    0.000    0.000    0.000 
#    0.000    0.000    0.000    0.000    0.000    0.000 
#
# Total GULP energy -346902.092793 kJ/mol
# GULP energy per Si atom -12389.360457 kJ/mol
# Density = 2.078212 g / cm^3
# Si number density = 20.829526 Si / 1000 Ang^3
#
#
#
# Elastic Constant Matrix: (Units=GPa)
#
#
# Indices 1 2 3 4 5 6 
#
# 1 106.0964 38.6181 39.9378 0.0000 -4.3626 0.0000
# 2 38.6181 100.0342 59.0849 0.0000 -10.6315 0.0000
# 3 39.9378 59.0849 89.0140 0.0000 -12.1154 0.0000
# 4 0.0000 0.0000 0.0000 37.9675 0.0000 -17.0119
# 5 -4.3626 -10.6315 -12.1154 0.0000 32.3639 0.0000
# 6 0.0000 0.0000 0.0000 -17.0119 0.0000 22.9247
#
#
#
# Elastic Compliance Matrix: (Units=1/GPa)
#
#
# Indices 1 2 3 4 5 6 
#
# 1 0.011671 -0.002349 -0.003759 0.000000 -0.000606 0.000000
# 2 -0.002349 0.016975 -0.010008 0.000000 0.001513 0.000000
# 3 -0.003759 -0.010008 0.020070 0.000000 0.003719 0.000000
# 4 0.000000 0.000000 0.000000 0.039458 0.000000 0.029281
# 5 -0.000606 0.001513 0.003719 0.000000 0.032706 0.000000
# 6 0.000000 0.000000 0.000000 0.029281 0.000000 0.065350
#
#
# Mechanical properties :
#
#
# Convention : Reuss Voigt Hill
#
# Bulk Modulus (GPa) = 60.66791 63.38068 62.02430
# Shear Modulus (GPa) = 22.32570 29.15149 25.73860
#
# Velocity S-wave (km/s) = 3.27743 3.74508 3.51904
# Velocity P-wave (km/s) = 6.59630 7.01393 6.80832
#
# Compressibility (1/GPa) = 0.01648318
#
# Stress axis : x y z
#
# Youngs Moduli (GPa) = 85.68426 58.90866 49.82607
#
# Poissons Ratio (x) = 0.13840 0.18731
# Poissons Ratio (y) = 0.20131 0.49864
# Poissons Ratio (z) = 0.32211 0.58954
#
# Static dielectric constant tensor:
#      x y z
#    x 3.917200 0.000000 -0.044790 
#    y 0.000000 3.741290 0.000000 
#    z -0.044790 0.000000 3.681850 
# 
# 
# High freq. dielectric constant tensor:
#      x y z
#    x 1.831860 0.000000 0.000570 
#    y 0.000000 1.801260 0.000000 
#    z 0.000570 0.000000 1.806270 
# 
# From -- ./inp_files/139579.got.cif
#   From: 2010.06.25/outbox.cif.g09.slc.cpg/sg15_70_cif.got.tgz:139579.got - 2010.06.28 07:06:18.
