data_PCOD8136584
_publ_section_title
;
Structure prediction by ZEFSAII (Michael W. Deem and Ramdas Pophale) SiO2 
 PCOD8136584
Probable space group: C 2/C
;
_chemical_formula_sum "Si O2"
_cell_formula_units_Z 56
_cell_length_a 14.150098
_cell_length_b 8.590871
_cell_length_c 22.984494
_cell_angle_alpha 90.000000
_cell_angle_beta 101.272571
_cell_angle_gamma 90.000000
_cell_volume 2740.131883
_symmetry_space_group_name_H-M "C 2/C"
_symmetry_group_IT_number 15
_symmetry_cell_setting 'monoclinic'
loop_
_space_group_symop_operation_xyz
x,y,z
-x,y,1/2-z
-x,-y,-z
x,-y,1/2+z
1/2+x,1/2+y,z
1/2-x,1/2+y,1/2-z
1/2-x,1/2-y,-z
1/2+x,1/2-y,1/2+z
loop_
_atom_site_type_symbol
_atom_site_label
_atom_site_fract_x
_atom_site_fract_y
_atom_site_fract_z
Si Si1 0.448014 0.289981 0.100118
Si Si2 0.264260 0.725865 0.288477
Si Si3 0.758505 0.046042 0.618560
Si Si4 0.788871 0.290019 0.156532
Si Si5 0.122770 0.983923 0.616220
Si Si6 0.848568 0.731647 0.977516
Si Si7 0.075436 0.448085 0.808166
O O1 0.343195 0.346194 0.105578
O O2 0.519023 0.436863 0.111463
O O3 0.478516 0.154549 0.149023
O O4 0.437543 0.216546 0.033803
O O5 0.266984 0.895922 0.319315
O O6 0.277025 0.753970 0.222693
O O7 0.351446 0.619522 0.323881
O O8 0.163380 0.642258 0.288968
O O9 0.665286 0.079084 0.565607
O O10 0.793688 0.869367 0.621240
O O11 0.698210 0.377188 0.118705
O O12 0.885274 0.391977 0.158127
O O13 0.128664 0.882441 0.558842
O O14 0.750000 0.750000 0.000000
O O15 0.000000 0.494482 0.750000
#
# Coordination Sequence:
#
# PCOD8136584 Si02
#       7
#     8   8   8   8   8   8   8
#     4  10  20  37  56  77 106 143 182 222 267 325
#     4   9  19  35  54  76 106 143 181 220 269 326
#     4   9  19  34  55  79 106 141 181 221 268 321
#     4  11  20  34  53  80 110 141 175 222 273 321
#     4  10  20  34  57  81 105 142 181 222 274 326
#     4   9  18  37  58  78 105 142 184 224 266 326
#     4  10  21  35  52  77 108 142 177 221 273 325
#
# _framework density 20.436972000000001
#
# number of rings (size 3 to 8) (size 9 to 14) (size 15 to 20)
#    0.000    2.286    0.000    5.571    0.000    2.286 
#    0.000    9.286    0.000    0.000    0.000    0.000 
#    0.000    0.000    0.000    0.000    0.000    0.000 
#
# Total GULP energy -347051.822331 kJ/mol
# GULP energy per Si atom -12394.707940 kJ/mol
# Density = 2.039046 g / cm^3
# Si number density = 20.436972 Si / 1000 Ang^3
#
#
#
# Elastic Constant Matrix: (Units=GPa)
#
#
# Indices 1 2 3 4 5 6 
#
# 1 46.7484 19.0076 28.0407 0.0000 7.0551 0.0000
# 2 19.0076 119.5031 38.0336 0.0000 -1.8236 0.0000
# 3 28.0407 38.0336 106.4623 0.0000 7.9490 0.0000
# 4 0.0000 0.0000 0.0000 17.4374 0.0000 2.8125
# 5 7.0551 -1.8236 7.9490 0.0000 24.9353 0.0000
# 6 0.0000 0.0000 0.0000 2.8125 0.0000 28.2860
#
#
#
# Elastic Compliance Matrix: (Units=1/GPa)
#
#
# Indices 1 2 3 4 5 6 
#
# 1 0.026730 -0.002530 -0.005694 0.000000 -0.005933 0.000000
# 2 -0.002530 0.009761 -0.002999 0.000000 0.002386 0.000000
# 3 -0.005694 -0.002999 0.012149 0.000000 -0.002481 0.000000
# 4 0.000000 0.000000 0.000000 0.058283 0.000000 -0.005795
# 5 -0.005933 0.002386 -0.002481 0.000000 0.042748 0.000000
# 6 0.000000 0.000000 0.000000 -0.005795 0.000000 0.035929
#
#
# Mechanical properties :
#
#
# Convention : Reuss Voigt Hill
#
# Bulk Modulus (GPa) = 38.17427 49.20862 43.69144
# Shear Modulus (GPa) = 23.06509 26.64053 24.85281
#
# Velocity S-wave (km/s) = 3.36310 3.61438 3.49100
# Velocity P-wave (km/s) = 5.81379 6.44584 6.13796
#
# Compressibility (1/GPa) = 0.02619566
#
# Stress axis : x y z
#
# Youngs Moduli (GPa) = 37.41077 102.44564 82.30960
#
# Poissons Ratio (x) = 0.25920 0.46863
# Poissons Ratio (y) = 0.09465 0.24684
# Poissons Ratio (z) = 0.21300 0.30723
#
# Static dielectric constant tensor:
#      x y z
#    x 3.454500 0.000000 0.161090 
#    y 0.000000 3.840030 0.000000 
#    z 0.161090 0.000000 4.101030 
# 
# 
# High freq. dielectric constant tensor:
#      x y z
#    x 1.772650 0.000000 0.011290 
#    y 0.000000 1.798120 0.000000 
#    z 0.011290 0.000000 1.810680 
# 
# From -- ./inp_files/272643.got.cif
#   From: 2010.06.25/outbox.cif.g09.slc.cpg/sg15_137_cif.got.tgz:272643.got - 2010.06.28 07:06:18.
