data_PCOD8136000
_publ_section_title
;
Structure prediction by ZEFSAII (Michael W. Deem and Ramdas Pophale) SiO2 
 PCOD8136000
Probable space group: C 2/C
;
_chemical_formula_sum "Si O2"
_cell_formula_units_Z 60
_cell_length_a 19.996405
_cell_length_b 14.224338
_cell_length_c 12.042989
_cell_angle_alpha 90.000000
_cell_angle_beta 57.800371
_cell_angle_gamma 90.000000
_cell_volume 2898.608503
_symmetry_space_group_name_H-M "C 2/C"
_symmetry_group_IT_number 15
_symmetry_cell_setting 'monoclinic'
loop_
_space_group_symop_operation_xyz
x,y,z
-x,y,1/2-z
-x,-y,-z
x,-y,1/2+z
1/2+x,1/2+y,z
1/2-x,1/2+y,1/2-z
1/2-x,1/2-y,-z
1/2+x,1/2-y,1/2+z
loop_
_atom_site_type_symbol
_atom_site_label
_atom_site_fract_x
_atom_site_fract_y
_atom_site_fract_z
Si Si1 0.598134 0.653288 0.999126
Si Si2 0.587815 0.816258 0.679295
Si Si3 0.785464 0.661784 0.613409
Si Si4 0.232190 0.566721 0.647530
Si Si5 0.687765 0.818604 0.997196
Si Si6 0.715886 0.141577 0.226813
Si Si7 0.500000 0.462374 0.750000
Si Si8 0.389423 0.621266 0.766283
O O1 0.526502 0.603166 0.125030
O O2 0.680188 0.602616 0.952027
O O3 0.608005 0.760580 0.036481
O O4 0.581246 0.650059 0.883011
O O5 0.500000 0.860201 0.750000
O O6 0.642830 0.858525 0.533454
O O7 0.626057 0.840965 0.764913
O O8 0.582811 0.702917 0.673848
O O9 0.808542 0.617912 0.711396
O O10 0.770578 0.774033 0.632460
O O11 0.705437 0.610009 0.643797
O O12 0.175380 0.593974 0.593057
O O13 0.243798 0.456206 0.651537
O O14 0.722462 0.861593 0.853211
O O15 0.750000 0.750000 0.000000
O O16 0.427000 0.523657 0.771043
#
# Coordination Sequence:
#
# PCOD8136000 Si02
#       8
#     8   8   8   8   8   8   4   8
#     4  10  22  40  58  90 140 164 206 264 327 395
#     4  11  23  41  64  90 129 170 216 276 330 374
#     4  10  22  42  64  96 127 165 220 268 328 383
#     4  10  23  38  68  98 120 174 225 265 314 395
#     4  10  19  42  62  91 134 167 217 270 325 382
#     4  11  21  39  70  93 126 172 217 277 321 384
#     4  12  24  34  64 100 128 172 202 262 348 398
#     4  10  20  41  59  92 131 161 211 263 317 400
#
# _framework density 20.699587999999999
#
# number of rings (size 3 to 8) (size 9 to 14) (size 15 to 20)
#    0.000    1.600    6.000    2.000    5.600    3.200 
#    2.400    0.667    1.467    0.000    0.000    0.000 
#    0.000    0.000    0.000    0.000    0.000    0.000 
#
# Total GULP energy -371876.398692 kJ/mol
# GULP energy per Si atom -12395.879956 kJ/mol
# Density = 2.065247 g / cm^3
# Si number density = 20.699588 Si / 1000 Ang^3
#
#
#
# Elastic Constant Matrix: (Units=GPa)
#
#
# Indices 1 2 3 4 5 6 
#
# 1 64.4218 9.4885 51.2564 0.0000 3.3103 0.0000
# 2 9.4885 87.8334 25.1940 0.0000 -0.1330 0.0000
# 3 51.2564 25.1940 132.4275 0.0000 -5.4033 0.0000
# 4 0.0000 0.0000 0.0000 31.8437 0.0000 5.0647
# 5 3.3103 -0.1330 -5.4033 0.0000 32.1583 0.0000
# 6 0.0000 0.0000 0.0000 5.0647 0.0000 23.5196
#
#
#
# Elastic Compliance Matrix: (Units=1/GPa)
#
#
# Indices 1 2 3 4 5 6 
#
# 1 0.022900 0.000114 -0.009044 0.000000 -0.003876 0.000000
# 2 0.000114 0.012047 -0.002351 0.000000 -0.000357 0.000000
# 3 -0.009044 -0.002351 0.011616 0.000000 0.002873 0.000000
# 4 0.000000 0.000000 0.000000 0.032517 0.000000 -0.007002
# 5 -0.003876 -0.000357 0.002873 0.000000 0.031976 0.000000
# 6 0.000000 0.000000 0.000000 -0.007002 0.000000 0.044026
#
#
# Mechanical properties :
#
#
# Convention : Reuss Voigt Hill
#
# Bulk Modulus (GPa) = 41.66105 50.72894 46.19500
# Shear Modulus (GPa) = 26.93337 30.75389 28.84363
#
# Velocity S-wave (km/s) = 3.61107 3.85869 3.73693
# Velocity P-wave (km/s) = 6.12834 6.66431 6.40194
#
# Compressibility (1/GPa) = 0.02400324
#
# Stress axis : x y z
#
# Youngs Moduli (GPa) = 43.66720 83.01125 86.08763
#
# Poissons Ratio (x) = -0.00949 0.77854
# Poissons Ratio (y) = -0.00499 0.20236
# Poissons Ratio (z) = 0.39491 0.19513
#
# Static dielectric constant tensor:
#      x y z
#    x 3.782310 0.000000 0.357020 
#    y 0.000000 3.992760 0.000000 
#    z 0.357020 0.000000 3.731560 
# 
# 
# High freq. dielectric constant tensor:
#      x y z
#    x 1.787520 0.000000 0.027500 
#    y 0.000000 1.807800 0.000000 
#    z 0.027500 0.000000 1.804940 
# 
# From -- ./inp_files/112696.got.cif
#   From: 2010.06.25/outbox.cif.g09.slc.cpg/sg15_57_cif.got.tgz:112696.got - 2010.06.28 07:06:18.
