data_PCOD8136266
_publ_section_title
;
Structure prediction by ZEFSAII (Michael W. Deem and Ramdas Pophale) SiO2 
 PCOD8136266
Probable space group: C 2/C
;
_chemical_formula_sum "Si O2"
_cell_formula_units_Z 64
_cell_length_a 14.449039
_cell_length_b 8.144702
_cell_length_c 27.962982
_cell_angle_alpha 90.000000
_cell_angle_beta 103.324670
_cell_angle_gamma 90.000000
_cell_volume 3202.182436
_symmetry_space_group_name_H-M "C 2/C"
_symmetry_group_IT_number 15
_symmetry_cell_setting 'monoclinic'
loop_
_space_group_symop_operation_xyz
x,y,z
-x,y,1/2-z
-x,-y,-z
x,-y,1/2+z
1/2+x,1/2+y,z
1/2-x,1/2+y,1/2-z
1/2-x,1/2-y,-z
1/2+x,1/2-y,1/2+z
loop_
_atom_site_type_symbol
_atom_site_label
_atom_site_fract_x
_atom_site_fract_y
_atom_site_fract_z
Si Si1 0.781677 0.011355 0.982111
Si Si2 0.184776 0.324401 0.050147
Si Si3 0.699412 0.827408 0.197992
Si Si4 0.644840 0.913145 0.762434
Si Si5 0.989969 0.319638 0.674472
Si Si6 0.337080 0.436394 0.137776
Si Si7 0.148815 0.772695 0.927310
Si Si8 0.956191 0.408423 0.390225
O O1 0.734251 0.139986 0.939585
O O2 0.840514 0.868690 0.961391
O O3 0.850334 0.108923 0.026313
O O4 0.697873 0.919611 0.001717
O O5 0.282199 0.325133 0.092349
O O6 0.103095 0.426095 0.067825
O O7 0.749843 0.657395 0.216612
O O8 0.778083 0.940775 0.180328
O O9 0.607671 0.798931 0.153537
O O10 0.661095 0.908569 0.242054
O O11 0.584010 0.797727 0.718537
O O12 0.587689 0.929442 0.805538
O O13 0.942203 0.143382 0.657225
O O14 0.019466 0.413957 0.629457
O O15 0.342520 0.623136 0.120321
O O16 0.049590 0.684847 0.915418
#
# Coordination Sequence:
#
# PCOD8136266 Si02
#       8
#     8   8   8   8   8   8   8   8
#     4   9  19  36  54  72  99 136 170 205 254 302
#     4   9  18  35  55  72  99 137 170 204 250 306
#     4   9  19  34  51  74 100 131 169 204 247 299
#     4   9  18  33  53  75 100 132 169 208 249 299
#     4   9  18  34  53  72 101 138 168 200 252 308
#     4   9  18  34  52  73 103 135 167 203 249 302
#     4  10  20  33  51  77 103 129 167 212 253 296
#     4  10  20  33  51  77 101 127 168 210 250 299
#
# _framework density 19.986369
#
# number of rings (size 3 to 8) (size 9 to 14) (size 15 to 20)
#    0.000    2.750    0.000    0.750    0.000    3.000 
#    0.000    6.250    0.000    0.000    0.000    0.000 
#    0.000    0.000    0.000    0.000    0.000    0.000 
#
# Total GULP energy -396646.155750 kJ/mol
# GULP energy per Si atom -12395.192367 kJ/mol
# Density = 1.994088 g / cm^3
# Si number density = 19.986369 Si / 1000 Ang^3
#
#
#
# Elastic Constant Matrix: (Units=GPa)
#
#
# Indices 1 2 3 4 5 6 
#
# 1 53.1502 7.8546 17.8023 0.0000 5.5128 0.0000
# 2 7.8546 57.5094 21.2413 0.0000 -5.5771 0.0000
# 3 17.8023 21.2413 52.2143 0.0000 -12.3261 0.0000
# 4 0.0000 0.0000 0.0000 33.5064 0.0000 2.1336
# 5 5.5128 -5.5771 -12.3261 0.0000 34.9419 0.0000
# 6 0.0000 0.0000 0.0000 2.1336 0.0000 26.3158
#
#
#
# Elastic Compliance Matrix: (Units=1/GPa)
#
#
# Indices 1 2 3 4 5 6 
#
# 1 0.022665 -0.000363 -0.009204 0.000000 -0.006881 0.000000
# 2 -0.000363 0.020473 -0.008094 0.000000 0.000470 0.000000
# 3 -0.009204 -0.008094 0.027948 0.000000 0.010019 0.000000
# 4 0.000000 0.000000 0.000000 0.030000 0.000000 -0.002432
# 5 -0.006881 0.000470 0.010019 0.000000 0.033314 0.000000
# 6 0.000000 0.000000 0.000000 -0.002432 0.000000 0.038197
#
#
# Mechanical properties :
#
#
# Convention : Reuss Voigt Hill
#
# Bulk Modulus (GPa) = 27.96158 28.51892 28.24025
# Shear Modulus (GPa) = 22.74384 26.68455 24.71419
#
# Velocity S-wave (km/s) = 3.37704 3.65792 3.52028
# Velocity P-wave (km/s) = 5.40616 5.66927 5.53928
#
# Compressibility (1/GPa) = 0.03576336
#
# Stress axis : x y z
#
# Youngs Moduli (GPa) = 44.12142 48.84447 35.78112
#
# Poissons Ratio (x) = 0.01774 0.32933
# Poissons Ratio (y) = 0.01603 0.28961
# Poissons Ratio (z) = 0.40609 0.39534
#
# Static dielectric constant tensor:
#      x y z
#    x 3.588090 0.000000 0.031760 
#    y 0.000000 3.432410 0.000000 
#    z 0.031760 0.000000 3.769320 
# 
# 
# High freq. dielectric constant tensor:
#      x y z
#    x 1.768500 0.000000 0.006280 
#    y 0.000000 1.752500 0.000000 
#    z 0.006280 0.000000 1.785130 
# 
# From -- ./inp_files/312690.got.cif
#   From: 2010.06.25/outbox.cif.g09.slc.cpg/sg15_157_cif.got.tgz:312690.got - 2010.06.28 07:06:18.
