data_PCOD8136112
_publ_section_title
;
Structure prediction by ZEFSAII (Michael W. Deem and Ramdas Pophale) SiO2 
 PCOD8136112
Probable space group: C 2/C
;
_chemical_formula_sum "Si O2"
_cell_formula_units_Z 64
_cell_length_a 11.636280
_cell_length_b 20.827010
_cell_length_c 17.294718
_cell_angle_alpha 90.000000
_cell_angle_beta 125.823880
_cell_angle_gamma 90.000000
_cell_volume 3398.435235
_symmetry_space_group_name_H-M "C 2/C"
_symmetry_group_IT_number 15
_symmetry_cell_setting 'monoclinic'
loop_
_space_group_symop_operation_xyz
x,y,z
-x,y,1/2-z
-x,-y,-z
x,-y,1/2+z
1/2+x,1/2+y,z
1/2-x,1/2+y,1/2-z
1/2-x,1/2-y,-z
1/2+x,1/2-y,1/2+z
loop_
_atom_site_type_symbol
_atom_site_label
_atom_site_fract_x
_atom_site_fract_y
_atom_site_fract_z
Si Si1 0.338778 0.101780 0.708004
Si Si2 0.580879 0.408915 0.488886
Si Si3 0.166147 0.055837 0.318072
Si Si4 0.826521 0.534747 0.995744
Si Si5 0.632512 0.692094 0.544399
Si Si6 0.524043 0.078629 0.590308
Si Si7 0.710534 0.831443 0.546017
Si Si8 0.857593 0.001519 0.353087
O O1 0.500000 0.104829 0.750000
O O2 0.257390 0.164099 0.647005
O O3 0.341185 0.094930 0.802415
O O4 0.264222 0.036625 0.646479
O O5 0.741585 0.415405 0.518711
O O6 0.518023 0.337365 0.482886
O O7 0.479328 0.446987 0.388628
O O8 0.576384 0.441481 0.571316
O O9 0.237794 0.124600 0.362396
O O10 0.000000 0.064501 0.250000
O O11 0.212765 0.007955 0.404210
O O12 0.211745 0.028300 0.252874
O O13 0.919269 0.577668 0.974584
O O14 0.940715 0.487323 0.081967
O O15 0.642973 0.768396 0.558976
O O16 0.659520 0.679324 0.463276
O O17 0.411349 0.135827 0.553220
#
# Coordination Sequence:
#
# PCOD8136112 Si02
#       8
#     8   8   8   8   8   8   8   8
#     4  11  19  32  54  84 111 138 180 223 274 343
#     4  10  20  35  55  80 113 145 179 231 280 332
#     4  11  19  32  54  85 111 137 176 227 283 339
#     4  10  20  34  56  84 114 142 175 224 286 345
#     4  10  22  38  55  78 108 150 193 230 269 326
#     4  10  20  35  55  81 115 146 174 225 286 338
#     4  10  22  39  54  76 114 148 186 232 275 328
#     4  10  20  31  52  84 112 135 174 226 286 329
#
# _framework density 18.832198000000002
#
# number of rings (size 3 to 8) (size 9 to 14) (size 15 to 20)
#    0.000    1.750    3.750    1.500    7.000    0.500 
#    2.250    0.625    0.000    0.000    3.250    0.000 
#    0.000    0.000    0.000    0.000    0.000    0.000 
#
# Total GULP energy -396429.364571 kJ/mol
# GULP energy per Si atom -12388.417643 kJ/mol
# Density = 1.878933 g / cm^3
# Si number density = 18.832198 Si / 1000 Ang^3
#
#
#
# Elastic Constant Matrix: (Units=GPa)
#
#
# Indices 1 2 3 4 5 6 
#
# 1 83.3548 25.6144 -15.3293 0.0000 1.6796 0.0000
# 2 25.6144 72.5287 4.2963 0.0000 -6.0355 0.0000
# 3 -15.3293 4.2963 53.0699 0.0000 -2.9693 0.0000
# 4 0.0000 0.0000 0.0000 16.0140 0.0000 2.6580
# 5 1.6796 -6.0355 -2.9693 0.0000 24.7066 0.0000
# 6 0.0000 0.0000 0.0000 2.6580 0.0000 28.0764
#
#
#
# Elastic Compliance Matrix: (Units=1/GPa)
#
#
# Indices 1 2 3 4 5 6 
#
# 1 0.014584 -0.005571 0.004563 0.000000 -0.001804 0.000000
# 2 -0.005571 0.016250 -0.002700 0.000000 0.004024 0.000000
# 3 0.004563 -0.002700 0.020463 0.000000 0.001490 0.000000
# 4 0.000000 0.000000 0.000000 0.063442 0.000000 -0.006006
# 5 -0.001804 0.004024 0.001490 0.000000 0.041760 0.000000
# 6 0.000000 0.000000 0.000000 -0.006006 0.000000 0.036186
#
#
# Mechanical properties :
#
#
# Convention : Reuss Voigt Hill
#
# Bulk Modulus (GPa) = 22.78867 26.45735 24.62301
# Shear Modulus (GPa) = 23.28531 26.71752 25.00142
#
# Velocity S-wave (km/s) = 3.52015 3.77067 3.64756
# Velocity P-wave (km/s) = 5.35249 5.74776 5.55364
#
# Compressibility (1/GPa) = 0.04388146
#
# Stress axis : x y z
#
# Youngs Moduli (GPa) = 68.56677 61.53887 48.86885
#
# Poissons Ratio (x) = 0.34284 -0.22298
# Poissons Ratio (y) = 0.38199 0.13192
# Poissons Ratio (z) = -0.31285 0.16613
#
# Static dielectric constant tensor:
#      x y z
#    x 3.457620 0.000000 -0.058420 
#    y 0.000000 3.260980 0.000000 
#    z -0.058420 0.000000 4.381190 
# 
# 
# High freq. dielectric constant tensor:
#      x y z
#    x 1.722190 0.000000 0.007350 
#    y 0.000000 1.701450 0.000000 
#    z 0.007350 0.000000 1.736410 
# 
# From -- ./inp_files/200409.got.cif
#   From: 2010.06.25/outbox.cif.g09.slc.cpg/sg15_101_cif.got.tgz:200409.got - 2010.06.28 07:06:18.
