data_PCOD8136695
_publ_section_title
;
Structure prediction by ZEFSAII (Michael W. Deem and Ramdas Pophale) SiO2 
 PCOD8136695
Probable space group: C 2/C
;
_chemical_formula_sum "Si O2"
_cell_formula_units_Z 48
_cell_length_a 6.163055
_cell_length_b 22.183492
_cell_length_c 19.161658
_cell_angle_alpha 90.000000
_cell_angle_beta 69.584696
_cell_angle_gamma 90.000000
_cell_volume 2455.195914
_symmetry_space_group_name_H-M "C 2/C"
_symmetry_group_IT_number 15
_symmetry_cell_setting 'monoclinic'
loop_
_space_group_symop_operation_xyz
x,y,z
-x,y,1/2-z
-x,-y,-z
x,-y,1/2+z
1/2+x,1/2+y,z
1/2-x,1/2+y,1/2-z
1/2-x,1/2-y,-z
1/2+x,1/2-y,1/2+z
loop_
_atom_site_type_symbol
_atom_site_label
_atom_site_fract_x
_atom_site_fract_y
_atom_site_fract_z
Si Si1 0.960964 0.546312 0.673407
Si Si2 0.457167 0.525039 0.579106
Si Si3 0.731716 0.127222 0.910031
Si Si4 0.361703 0.437881 0.833516
Si Si5 0.275639 0.834409 0.544173
Si Si6 0.512078 0.717829 0.542073
O O1 0.812149 0.604865 0.664626
O O2 0.846542 0.482091 0.666649
O O3 0.000000 0.552552 0.750000
O O4 0.205469 0.554988 0.607508
O O5 0.500000 0.500000 0.500000
O O6 0.672954 0.568827 0.562293
O O7 0.457523 0.474421 0.639311
O O8 0.933654 0.178203 0.894209
O O9 0.498637 0.147076 0.974672
O O10 0.500000 0.414198 0.750000
O O11 0.270480 0.381425 0.888631
O O12 0.316679 0.768806 0.576260
O O13 0.061250 0.826445 0.514235
O O14 0.750000 0.750000 0.500000
#
# Coordination Sequence:
#
# PCOD8136695 Si02
#       6
#     8   8   8   8   8   8
#     4  11  22  37  55  85 123 160 191 239 306 362
#     4  11  21  35  58  87 117 150 201 242 296 366
#     4  10  20  34  60  86 114 151 200 246 296 353
#     4  11  22  37  56  87 122 157 194 242 311 369
#     4  10  20  37  62  86 116 152 199 258 298 357
#     4   9  19  37  60  88 110 147 201 251 303 347
#
# _framework density 19.550376
#
# number of rings (size 3 to 8) (size 9 to 14) (size 15 to 20)
#    0.000    1.667    1.667    4.000    0.000    4.000 
#    0.000    0.000    0.000   24.000    0.000    0.000 
#    0.000    0.000    0.000    0.000    0.000    0.000 
#
# Total GULP energy -297334.062108 kJ/mol
# GULP energy per Si atom -12388.919255 kJ/mol
# Density = 1.950588 g / cm^3
# Si number density = 19.550376 Si / 1000 Ang^3
#
#
#
# Elastic Constant Matrix: (Units=GPa)
#
#
# Indices 1 2 3 4 5 6 
#
# 1 117.4320 49.3906 52.2276 0.0000 22.5301 0.0000
# 2 49.3906 114.3774 53.8641 0.0000 26.3512 0.0000
# 3 52.2276 53.8641 78.3580 0.0000 18.8563 0.0000
# 4 0.0000 0.0000 0.0000 24.0247 0.0000 5.4958
# 5 22.5301 26.3512 18.8563 0.0000 34.8115 0.0000
# 6 0.0000 0.0000 0.0000 5.4958 0.0000 36.2078
#
#
#
# Elastic Compliance Matrix: (Units=1/GPa)
#
#
# Indices 1 2 3 4 5 6 
#
# 1 0.012790 -0.001626 -0.006567 0.000000 -0.003489 0.000000
# 2 -0.001626 0.014207 -0.007299 0.000000 -0.005748 0.000000
# 3 -0.006567 -0.007299 0.022772 0.000000 -0.002560 0.000000
# 4 0.000000 0.000000 0.000000 0.043121 0.000000 -0.006545
# 5 -0.003489 -0.005748 -0.002560 0.000000 0.036722 0.000000
# 6 0.000000 0.000000 0.000000 -0.006545 0.000000 0.028612
#
#
# Mechanical properties :
#
#
# Convention : Reuss Voigt Hill
#
# Bulk Modulus (GPa) = 53.23494 69.01465 61.12480
# Shear Modulus (GPa) = 25.57950 29.32115 27.45032
#
# Velocity S-wave (km/s) = 3.62109 3.87689 3.75117
# Velocity P-wave (km/s) = 6.69117 7.44432 7.07777
#
# Compressibility (1/GPa) = 0.01878465
#
# Stress axis : x y z
#
# Youngs Moduli (GPa) = 78.18797 70.38930 43.91316
#
# Poissons Ratio (x) = 0.11448 0.28838
# Poissons Ratio (y) = 0.12716 0.32051
# Poissons Ratio (z) = 0.51346 0.51374
#
# Static dielectric constant tensor:
#      x y z
#    x 3.920120 0.000000 0.387790 
#    y 0.000000 4.020910 0.000000 
#    z 0.387790 0.000000 3.201300 
# 
# 
# High freq. dielectric constant tensor:
#      x y z
#    x 1.788390 0.000000 0.017890 
#    y 0.000000 1.764880 0.000000 
#    z 0.017890 0.000000 1.727390 
# 
# From -- ./inp_files/185236.got.cif
#   From: 2010.06.25/outbox.cif.g09.slc.cpg/sg15_93_cif.got.tgz:185236.got - 2010.06.28 07:06:18.
