data_PCOD8136625
_publ_section_title
;
Structure prediction by ZEFSAII (Michael W. Deem and Ramdas Pophale) SiO2 
 PCOD8136625
Probable space group: C 2/C
;
_chemical_formula_sum "Si O2"
_cell_formula_units_Z 60
_cell_length_a 12.337597
_cell_length_b 23.458358
_cell_length_c 16.717041
_cell_angle_alpha 90.000000
_cell_angle_beta 42.833572
_cell_angle_gamma 90.000000
_cell_volume 3289.381041
_symmetry_space_group_name_H-M "C 2/C"
_symmetry_group_IT_number 15
_symmetry_cell_setting 'monoclinic'
loop_
_space_group_symop_operation_xyz
x,y,z
-x,y,1/2-z
-x,-y,-z
x,-y,1/2+z
1/2+x,1/2+y,z
1/2-x,1/2+y,1/2-z
1/2-x,1/2-y,-z
1/2+x,1/2-y,1/2+z
loop_
_atom_site_type_symbol
_atom_site_label
_atom_site_fract_x
_atom_site_fract_y
_atom_site_fract_z
Si Si1 0.939232 0.397028 0.114300
Si Si2 0.549125 0.576611 0.400848
Si Si3 0.471061 0.792224 0.354428
Si Si4 0.620138 0.329367 0.583266
Si Si5 0.679235 0.453171 0.146956
Si Si6 0.734928 0.416661 0.645629
Si Si7 0.500000 0.958569 0.250000
Si Si8 0.193911 0.024762 0.468748
O O1 0.779786 0.422611 0.162330
O O2 0.982105 0.423193 0.177706
O O3 0.920677 0.328862 0.141509
O O4 0.078622 0.408940 0.974684
O O5 0.435206 0.631959 0.461405
O O6 0.695625 0.588549 0.260620
O O7 0.621516 0.572088 0.449435
O O8 0.445182 0.520812 0.434706
O O9 0.500000 0.814952 0.250000
O O10 0.502755 0.724051 0.341103
O O11 0.290566 0.804571 0.473305
O O12 0.627793 0.369913 0.657290
O O13 0.500000 0.429560 0.250000
O O14 0.682298 0.520817 0.150018
O O15 0.745353 0.441382 0.021389
O O16 0.343007 0.996533 0.343860
#
# Coordination Sequence:
#
# PCOD8136625 Si02
#       8
#     8   8   8   8   8   8   4   8
#     4  11  24  35  57  81 118 151 184 230 283 340
#     4  11  21  36  54  80 113 145 187 231 275 336
#     4  10  20  35  55  84 111 143 187 238 287 330
#     4  10  20  34  58  84 111 142 186 238 291 330
#     4  12  22  37  54  80 115 154 187 220 278 347
#     4  11  19  37  55  80 111 150 181 231 290 341
#     4  12  22  36  52  82 112 148 178 236 280 330
#     4  11  24  33  53  82 111 149 189 221 277 341
#
# _framework density 18.240513
#
# number of rings (size 3 to 8) (size 9 to 14) (size 15 to 20)
#    0.000    1.067    4.667    3.200    3.733    0.000 
#    0.000    0.000    0.000    0.800    1.733    0.000 
#    0.000    0.000    0.000    0.000    0.000    0.000 
#
# Total GULP energy -371782.950056 kJ/mol
# GULP energy per Si atom -12392.765002 kJ/mol
# Density = 1.819900 g / cm^3
# Si number density = 18.240513 Si / 1000 Ang^3
#
#
#
# Elastic Constant Matrix: (Units=GPa)
#
#
# Indices 1 2 3 4 5 6 
#
# 1 97.3766 62.3257 15.7541 0.0003 9.3817 -0.0001
# 2 62.3257 102.6397 38.4917 0.0002 12.2072 0.0001
# 3 15.7541 38.4917 63.8720 0.0008 4.1109 -0.0004
# 4 0.0003 0.0002 0.0008 19.4578 -0.0005 3.0203
# 5 9.3817 12.2072 4.1109 -0.0005 29.8436 0.0001
# 6 -0.0001 0.0001 -0.0004 3.0203 0.0001 36.4587
#
#
#
# Elastic Compliance Matrix: (Units=1/GPa)
#
#
# Indices 1 2 3 4 5 6 
#
# 1 0.017173 -0.011280 0.002636 0.000000 -0.001148 0.000000
# 2 -0.011280 0.020525 -0.009358 0.000000 -0.003561 0.000000
# 3 0.002636 -0.009358 0.020636 -0.000001 0.000157 0.000000
# 4 0.000000 0.000000 -0.000001 0.052063 0.000001 -0.004313
# 5 -0.001148 -0.003561 0.000157 0.000001 0.035304 0.000000
# 6 0.000000 0.000000 0.000000 -0.004313 0.000000 0.027786
#
#
# Mechanical properties :
#
#
# Convention : Reuss Voigt Hill
#
# Bulk Modulus (GPa) = 44.78306 55.22568 50.00437
# Shear Modulus (GPa) = 23.04850 26.97313 25.01081
#
# Velocity S-wave (km/s) = 3.55855 3.84962 3.70695
# Velocity P-wave (km/s) = 6.44121 7.07825 6.76723
#
# Compressibility (1/GPa) = 0.02232987
#
# Stress axis : x y z
#
# Youngs Moduli (GPa) = 58.22961 48.72033 48.46011
#
# Poissons Ratio (x) = 0.54957 -0.12774
# Poissons Ratio (y) = 0.65684 0.45349
# Poissons Ratio (z) = -0.15349 0.45592
#
# Static dielectric constant tensor:
#      x y z
#    x 3.229640 0.000000 0.096350 
#    y 0.000000 3.646520 0.000000 
#    z 0.096350 0.000000 4.002740 
# 
# 
# High freq. dielectric constant tensor:
#      x y z
#    x 1.680590 0.000000 0.001570 
#    y 0.000000 1.686510 0.000000 
#    z 0.001570 0.000000 1.730450 
# 
# From -- ./inp_files/148084.got.cif
#   From: 2010.06.25/outbox.cif.g09.slc.cpg/sg15_75_cif.got.tgz:148084.got - 2010.06.28 07:06:18.
