data_PCOD8136270
_publ_section_title
;
Structure prediction by ZEFSAII (Michael W. Deem and Ramdas Pophale) SiO2 
 PCOD8136270
Probable space group: C 2/C
;
_chemical_formula_sum "Si O2"
_cell_formula_units_Z 60
_cell_length_a 27.142452
_cell_length_b 13.042558
_cell_length_c 8.735440
_cell_angle_alpha 90.000000
_cell_angle_beta 112.386391
_cell_angle_gamma 90.000000
_cell_volume 2859.352398
_symmetry_space_group_name_H-M "C 2/C"
_symmetry_group_IT_number 15
_symmetry_cell_setting 'monoclinic'
loop_
_space_group_symop_operation_xyz
x,y,z
-x,y,1/2-z
-x,-y,-z
x,-y,1/2+z
1/2+x,1/2+y,z
1/2-x,1/2+y,1/2-z
1/2-x,1/2-y,-z
1/2+x,1/2-y,1/2+z
loop_
_atom_site_type_symbol
_atom_site_label
_atom_site_fract_x
_atom_site_fract_y
_atom_site_fract_z
Si Si1 0.762642 0.873664 0.709787
Si Si2 0.075370 0.951898 0.591344
Si Si3 0.500000 0.492460 0.750000
Si Si4 0.732740 0.421968 0.132839
Si Si5 0.863789 0.832901 0.313699
Si Si6 0.858014 0.419453 0.298648
Si Si7 0.354782 0.721733 0.449752
Si Si8 0.137929 0.627726 0.043792
O O1 0.780766 0.898147 0.558494
O O2 0.793657 0.774142 0.812210
O O3 0.700457 0.853927 0.641114
O O4 0.782970 0.961480 0.849325
O O5 0.044780 0.926507 0.713812
O O6 0.120326 0.867936 0.624783
O O7 0.098861 0.067923 0.619466
O O8 0.031546 0.936369 0.406853
O O9 0.695924 0.350304 0.194592
O O10 0.794705 0.414127 0.244969
O O11 0.889381 0.733764 0.431827
O O12 0.859814 0.802124 0.132563
O O13 0.881117 0.331674 0.440041
O O14 0.880425 0.530360 0.375812
O O15 0.876608 0.396378 0.148464
#
# Coordination Sequence:
#
# PCOD8136270 Si02
#       8
#     8   8   4   8   8   8   8   8
#     4  10  20  33  51  79 118 161 204 246 286 333
#     4  11  24  42  64  94 118 152 184 244 308 373
#     4  10  24  46  64  86 126 142 184 242 322 374
#     4  10  20  33  51  79 118 161 204 246 286 333
#     4  12  23  35  58  88 117 155 201 241 291 357
#     4  10  22  38  55  80 120 165 206 246 282 328
#     4  12  23  35  58  88 117 155 201 241 291 357
#     4  10  22  38  55  80 120 165 206 246 282 328
#
# _framework density 20.983771999999998
#
# number of rings (size 3 to 8) (size 9 to 14) (size 15 to 20)
#    0.000    1.333    2.667    3.200    3.733    6.400 
#    0.000    0.000    0.000    0.000    0.000    5.600 
#    0.000    0.000    0.000    0.000    0.000    0.000 
#
# Total GULP energy -371827.992797 kJ/mol
# GULP energy per Si atom -12394.266427 kJ/mol
# Density = 2.093601 g / cm^3
# Si number density = 20.983772 Si / 1000 Ang^3
#
#
#
# Elastic Constant Matrix: (Units=GPa)
#
#
# Indices 1 2 3 4 5 6 
#
# 1 49.7154 21.4278 25.0371 0.0000 -22.5699 0.0000
# 2 21.4278 138.0186 30.3181 0.0000 -16.4766 0.0000
# 3 25.0371 30.3181 80.2503 0.0000 -17.9018 0.0000
# 4 0.0000 0.0000 0.0000 30.3147 0.0000 -9.1989
# 5 -22.5699 -16.4766 -17.9018 0.0000 29.4670 0.0000
# 6 0.0000 0.0000 0.0000 -9.1989 0.0000 7.8441
#
#
#
# Elastic Compliance Matrix: (Units=1/GPa)
#
#
# Indices 1 2 3 4 5 6 
#
# 1 0.032966 -0.001474 -0.004950 0.000000 0.021419 0.000000
# 2 -0.001474 0.008205 -0.002161 0.000000 0.002146 0.000000
# 3 -0.004950 -0.002161 0.015855 0.000000 0.004632 0.000000
# 4 0.000000 0.000000 0.000000 0.051211 0.000000 0.060057
# 5 0.021419 0.002146 0.004632 0.000000 0.054356 0.000000
# 6 0.000000 0.000000 0.000000 0.060057 0.000000 0.197915
#
#
# Mechanical properties :
#
#
# Convention : Reuss Voigt Hill
#
# Bulk Modulus (GPa) = 25.09023 46.83892 35.96457
# Shear Modulus (GPa) = 12.78885 26.27190 19.53038
#
# Velocity S-wave (km/s) = 2.47141 3.54221 3.05411
# Velocity P-wave (km/s) = 4.48628 6.25297 5.44180
#
# Compressibility (1/GPa) = 0.03985616
#
# Stress axis : x y z
#
# Youngs Moduli (GPa) = 30.33382 121.87421 63.07023
#
# Poissons Ratio (x) = 0.17961 0.31222
# Poissons Ratio (y) = 0.04470 0.13632
# Poissons Ratio (z) = 0.15016 0.26341
#
# Static dielectric constant tensor:
#      x y z
#    x 3.612660 0.000000 -0.318750 
#    y 0.000000 4.084540 0.000000 
#    z -0.318750 0.000000 3.759980 
# 
# 
# High freq. dielectric constant tensor:
#      x y z
#    x 1.781730 0.000000 -0.026610 
#    y 0.000000 1.828230 0.000000 
#    z -0.026610 0.000000 1.827180 
# 
# From -- ./inp_files/69411.got.cif
#   From: 2010.06.25/outbox.cif.g09.slc.cpg/sg15_35_cif.got.tgz:69411.got - 2010.06.28 07:06:18.
