data_PCOD8136172
_publ_section_title
;
Structure prediction by ZEFSAII (Michael W. Deem and Ramdas Pophale) SiO2 
 PCOD8136172
Probable space group: C 2/C
;
_chemical_formula_sum "Si O2"
_cell_formula_units_Z 56
_cell_length_a 23.062331
_cell_length_b 21.010867
_cell_length_c 11.289507
_cell_angle_alpha 90.000000
_cell_angle_beta 148.784668
_cell_angle_gamma 90.000000
_cell_volume 2835.087002
_symmetry_space_group_name_H-M "C 2/C"
_symmetry_group_IT_number 15
_symmetry_cell_setting 'monoclinic'
loop_
_space_group_symop_operation_xyz
x,y,z
-x,y,1/2-z
-x,-y,-z
x,-y,1/2+z
1/2+x,1/2+y,z
1/2-x,1/2+y,1/2-z
1/2-x,1/2-y,-z
1/2+x,1/2-y,1/2+z
loop_
_atom_site_type_symbol
_atom_site_label
_atom_site_fract_x
_atom_site_fract_y
_atom_site_fract_z
Si Si1 0.448310 0.178999 0.545141
Si Si2 0.380524 0.744104 0.496705
Si Si3 0.124503 0.228923 0.267452
Si Si4 0.101426 0.915001 0.150944
Si Si5 0.271585 0.373978 0.906185
Si Si6 0.915050 0.045893 0.494265
Si Si7 0.838342 0.191788 0.924556
O O1 0.500000 0.142775 0.750000
O O2 0.544564 0.208545 0.631549
O O3 0.363532 0.132181 0.328268
O O4 0.373558 0.236042 0.465072
O O5 0.395450 0.702827 0.400333
O O6 0.332969 0.694905 0.511288
O O7 0.297530 0.804885 0.328945
O O8 0.500000 0.770373 0.750000
O O9 0.250000 0.250000 0.500000
O O10 0.112344 0.177845 0.355455
O O11 0.196550 0.908405 0.416607
O O12 0.103973 0.855203 0.067086
O O13 0.978717 0.918747 0.996948
O O14 0.130698 0.978092 0.128916
O O15 0.309469 0.414158 0.856904
O O16 0.000000 0.035043 0.750000
#
# Coordination Sequence:
#
# PCOD8136172 Si02
#       7
#     8   8   8   8   8   8   8
#     4   9  19  34  55  82 112 148 181 222 278 345
#     4  10  20  32  53  81 117 149 175 217 281 340
#     4   9  19  35  50  79 116 146 183 213 268 342
#     4  10  20  36  57  83 111 144 190 240 280 328
#     4  10  21  36  56  81 113 147 187 232 288 340
#     4   9  20  38  56  82 112 148 187 236 290 332
#     4   9  20  34  52  84 113 140 182 227 275 333
#
# _framework density 19.752479000000001
#
# number of rings (size 3 to 8) (size 9 to 14) (size 15 to 20)
#    0.000    2.571    0.000    2.143    6.000    2.857 
#    5.143    0.000    0.000    1.714    0.000    0.000 
#    0.000    0.000    0.000    0.000    0.000    0.000 
#
# Total GULP energy -346891.964989 kJ/mol
# GULP energy per Si atom -12388.998750 kJ/mol
# Density = 1.970752 g / cm^3
# Si number density = 19.752479 Si / 1000 Ang^3
#
#
#
# Elastic Constant Matrix: (Units=GPa)
#
#
# Indices 1 2 3 4 5 6 
#
# 1 90.7206 25.1404 33.9120 0.0000 -7.8284 0.0000
# 2 25.1404 54.0599 25.8568 0.0000 -1.6287 0.0000
# 3 33.9120 25.8568 114.5141 0.0000 9.5566 0.0000
# 4 0.0000 0.0000 0.0000 25.8834 0.0000 -5.8300
# 5 -7.8284 -1.6287 9.5566 0.0000 31.9031 0.0000
# 6 0.0000 0.0000 0.0000 -5.8300 0.0000 31.8537
#
#
#
# Elastic Compliance Matrix: (Units=1/GPa)
#
#
# Indices 1 2 3 4 5 6 
#
# 1 0.013978 -0.004737 -0.003421 0.000000 0.004213 0.000000
# 2 -0.004737 0.022543 -0.003781 0.000000 0.001121 0.000000
# 3 -0.003421 -0.003781 0.010960 0.000000 -0.004316 0.000000
# 4 0.000000 0.000000 0.000000 0.040296 0.000000 0.007375
# 5 0.004213 0.001121 -0.004316 0.000000 0.033729 0.000000
# 6 0.000000 0.000000 0.000000 0.007375 0.000000 0.032743
#
#
# Mechanical properties :
#
#
# Convention : Reuss Voigt Hill
#
# Bulk Modulus (GPa) = 42.36913 47.67923 45.02418
# Shear Modulus (GPa) = 26.88244 29.55372 28.21808
#
# Velocity S-wave (km/s) = 3.69313 3.87228 3.78376
# Velocity P-wave (km/s) = 6.29938 6.64706 6.47556
#
# Compressibility (1/GPa) = 0.02360209
#
# Stress axis : x y z
#
# Youngs Moduli (GPa) = 71.54053 44.35935 91.24415
#
# Poissons Ratio (x) = 0.21013 0.31218
# Poissons Ratio (y) = 0.33889 0.34498
# Poissons Ratio (z) = 0.24477 0.16772
#
# Static dielectric constant tensor:
#      x y z
#    x 5.215940 0.000000 -0.236730 
#    y 0.000000 3.168710 0.000000 
#    z -0.236730 0.000000 3.942640 
# 
# 
# High freq. dielectric constant tensor:
#      x y z
#    x 1.778900 0.000000 -0.009270 
#    y 0.000000 1.711440 0.000000 
#    z -0.009270 0.000000 1.780440 
# 
# From -- ./inp_files/119846.got.cif
#   From: 2010.06.25/outbox.cif.g09.slc.cpg/sg15_60_cif.got.tgz:119846.got - 2010.06.28 07:06:18.
