data_PCOD8136668
_publ_section_title
;
Structure prediction by ZEFSAII (Michael W. Deem and Ramdas Pophale) SiO2 
 PCOD8136668
Probable space group: C 2/C
;
_chemical_formula_sum "Si O2"
_cell_formula_units_Z 44
_cell_length_a 32.271433
_cell_length_b 8.560481
_cell_length_c 10.086472
_cell_angle_alpha 90.000000
_cell_angle_beta 49.538649
_cell_angle_gamma 90.000000
_cell_volume 2120.075155
_symmetry_space_group_name_H-M "C 2/C"
_symmetry_group_IT_number 15
_symmetry_cell_setting 'monoclinic'
loop_
_space_group_symop_operation_xyz
x,y,z
-x,y,1/2-z
-x,-y,-z
x,-y,1/2+z
1/2+x,1/2+y,z
1/2-x,1/2+y,1/2-z
1/2-x,1/2-y,-z
1/2+x,1/2-y,1/2+z
loop_
_atom_site_type_symbol
_atom_site_label
_atom_site_fract_x
_atom_site_fract_y
_atom_site_fract_z
Si Si1 0.148228 0.886821 0.526848
Si Si2 0.027523 0.073442 0.319318
Si Si3 0.201048 0.955071 0.147991
Si Si4 0.619854 0.042887 0.490354
Si Si5 0.000000 0.626595 0.750000
Si Si6 0.324769 0.887280 0.890990
O O1 0.091103 0.964695 0.684158
O O2 0.173473 0.978345 0.348712
O O3 0.139858 0.706147 0.510552
O O4 0.186309 0.904877 0.577373
O O5 0.000000 0.990778 0.250000
O O6 0.013838 0.259863 0.346475
O O7 0.000000 0.000000 0.500000
O O8 0.179482 0.796349 0.126156
O O9 0.265400 0.959725 0.035719
O O10 0.554244 0.025717 0.609588
O O11 0.645960 0.023037 0.291062
O O12 0.640691 0.908382 0.545879
#
# Coordination Sequence:
#
# PCOD8136668 Si02
#       6
#     8   8   8   8   4   8
#     4  10  20  34  59  81 116 142 186 236 284 331
#     4   9  17  31  54  81 110 148 177 231 279 331
#     4  10  21  37  55  88 112 146 188 240 279 338
#     4  10  21  39  57  80 111 156 185 237 280 336
#     4   8  20  36  58  78 116 148 188 234 282 332
#     4  10  22  37  59  79 117 150 189 231 287 336
#
# _framework density 20.753979000000001
#
# number of rings (size 3 to 8) (size 9 to 14) (size 15 to 20)
#    0.545    1.818    0.000    2.182    2.545    2.909 
#    0.000    0.000    2.000    0.000    0.000    0.000 
#    0.000    0.000    0.000    0.000    0.000    0.000 
#
# Total GULP energy -272726.634793 kJ/mol
# GULP energy per Si atom -12396.665218 kJ/mol
# Density = 2.070674 g / cm^3
# Si number density = 20.753979 Si / 1000 Ang^3
#
#
#
# Elastic Constant Matrix: (Units=GPa)
#
#
# Indices 1 2 3 4 5 6 
#
# 1 119.1871 16.4841 59.1288 0.0000 -21.8938 0.0000
# 2 16.4841 15.7907 18.8728 0.0000 -6.2990 0.0000
# 3 59.1288 18.8728 159.1953 0.0000 -18.6657 0.0000
# 4 0.0000 0.0000 0.0000 18.5210 0.0000 3.5329
# 5 -21.8938 -6.2990 -18.6657 0.0000 40.7881 0.0000
# 6 0.0000 0.0000 0.0000 3.5329 0.0000 30.6511
#
#
#
# Elastic Compliance Matrix: (Units=1/GPa)
#
#
# Indices 1 2 3 4 5 6 
#
# 1 0.011537 -0.006938 -0.003024 0.000000 0.003737 0.000000
# 2 -0.006938 0.080387 -0.006271 0.000000 0.005821 0.000000
# 3 -0.003024 -0.006271 0.008289 0.000000 0.001202 0.000000
# 4 0.000000 0.000000 0.000000 0.055207 0.000000 -0.006363
# 5 0.003737 0.005821 0.001202 0.000000 0.027972 0.000000
# 6 0.000000 0.000000 0.000000 -0.006363 0.000000 0.033359
#
#
# Mechanical properties :
#
#
# Convention : Reuss Voigt Hill
#
# Bulk Modulus (GPa) = 14.76070 53.68272 34.22171
# Shear Modulus (GPa) = 18.39603 31.30454 24.85028
#
# Velocity S-wave (km/s) = 2.98045 3.88798 3.46406
# Velocity P-wave (km/s) = 4.35566 6.78804 5.70304
#
# Compressibility (1/GPa) = 0.06774746
#
# Stress axis : x y z
#
# Youngs Moduli (GPa) = 86.68139 12.43979 120.63950
#
# Poissons Ratio (x) = 0.08630 0.36485
# Poissons Ratio (y) = 0.60138 0.75649
# Poissons Ratio (z) = 0.26215 0.07801
#
# Static dielectric constant tensor:
#      x y z
#    x 3.764590 0.000000 -0.128260 
#    y 0.000000 3.359620 0.000000 
#    z -0.128260 0.000000 3.814020 
# 
# 
# High freq. dielectric constant tensor:
#      x y z
#    x 1.820810 0.000000 -0.009350 
#    y 0.000000 1.772710 0.000000 
#    z -0.009350 0.000000 1.823210 
# 
# From -- ./inp_files/68826.got.cif
#   From: 2010.06.25/outbox.cif.g09.slc.cpg/sg15_35_cif.got.tgz:68826.got - 2010.06.28 07:06:18.
