data_PCOD8136935
_publ_section_title
;
Structure prediction by ZEFSAII (Michael W. Deem and Ramdas Pophale) SiO2 
 PCOD8136935
Probable space group: C 2/C
;
_chemical_formula_sum "Si O2"
_cell_formula_units_Z 48
_cell_length_a 27.412506
_cell_length_b 10.819881
_cell_length_c 8.364721
_cell_angle_alpha 90.000000
_cell_angle_beta 119.582777
_cell_angle_gamma 90.000000
_cell_volume 2157.564926
_symmetry_space_group_name_H-M "C 2/C"
_symmetry_group_IT_number 15
_symmetry_cell_setting 'monoclinic'
loop_
_space_group_symop_operation_xyz
x,y,z
-x,y,1/2-z
-x,-y,-z
x,-y,1/2+z
1/2+x,1/2+y,z
1/2-x,1/2+y,1/2-z
1/2-x,1/2-y,-z
1/2+x,1/2-y,1/2+z
loop_
_atom_site_type_symbol
_atom_site_label
_atom_site_fract_x
_atom_site_fract_y
_atom_site_fract_z
Si Si1 0.616809 0.035217 0.090083
Si Si2 0.191312 0.106981 0.909122
Si Si3 0.381405 0.531946 0.975619
Si Si4 0.545177 0.395536 0.626137
Si Si5 0.688664 0.874631 0.989376
Si Si6 0.453015 0.879853 0.293978
O O1 0.650910 0.114441 0.270934
O O2 0.561548 0.974690 0.085959
O O3 0.601110 0.123780 0.913724
O O4 0.657179 0.925582 0.093563
O O5 0.144536 0.128181 0.694047
O O6 0.199391 0.229151 0.028401
O O7 0.169330 0.001299 0.990403
O O8 0.250686 0.060365 0.933712
O O9 0.434897 0.585339 0.158207
O O10 0.403380 0.411170 0.914069
O O11 0.500000 0.500000 0.500000
O O12 0.527033 0.251308 0.595700
O O13 0.500000 0.932701 0.250000
#
# Coordination Sequence:
#
# PCOD8136935 Si02
#       6
#     8   8   8   8   8   8
#     4  10  22  38  58  84 115 153 194 240 286 345
#     4  10  20  35  57  83 115 150 189 235 285 343
#     4  10  21  36  55  84 114 147 186 234 288 341
#     4  11  22  38  59  85 115 150 192 240 294 348
#     4  10  20  36  57  83 113 151 191 233 285 339
#     4  11  22  39  59  83 114 150 195 240 290 345
#
# _framework density 22.247302999999999
#
# number of rings (size 3 to 8) (size 9 to 14) (size 15 to 20)
#    0.000    1.667    0.000    5.000    0.000    1.333 
#    0.000    5.000    0.000   16.000    0.000    0.000 
#    0.000    0.000    0.000    0.000    0.000    0.000 
#
# Total GULP energy -297387.671722 kJ/mol
# GULP energy per Si atom -12391.152988 kJ/mol
# Density = 2.219667 g / cm^3
# Si number density = 22.247303 Si / 1000 Ang^3
#
#
#
# Elastic Constant Matrix: (Units=GPa)
#
#
# Indices 1 2 3 4 5 6 
#
# 1 115.9067 18.1499 9.1696 0.0000 -4.6095 0.0000
# 2 18.1499 67.5493 12.4145 0.0000 2.0099 0.0000
# 3 9.1696 12.4145 63.3884 0.0000 -1.0502 0.0000
# 4 0.0000 0.0000 0.0000 26.6819 0.0000 5.4040
# 5 -4.6095 2.0099 -1.0502 0.0000 31.2093 0.0000
# 6 0.0000 0.0000 0.0000 5.4040 0.0000 20.9372
#
#
#
# Elastic Compliance Matrix: (Units=1/GPa)
#
#
# Indices 1 2 3 4 5 6 
#
# 1 0.009119 -0.002340 -0.000836 0.000000 0.001469 0.000000
# 2 -0.002340 0.015994 -0.002818 0.000000 -0.001471 0.000000
# 3 -0.000836 -0.002818 0.016459 0.000000 0.000612 0.000000
# 4 0.000000 0.000000 0.000000 0.039546 0.000000 -0.010207
# 5 0.001469 -0.001471 0.000612 0.000000 0.032374 0.000000
# 6 0.000000 0.000000 0.000000 -0.010207 0.000000 0.050396
#
#
# Mechanical properties :
#
#
# Convention : Reuss Voigt Hill
#
# Bulk Modulus (GPa) = 33.80405 36.25694 35.03049
# Shear Modulus (GPa) = 26.91953 29.57304 28.24629
#
# Velocity S-wave (km/s) = 3.48230 3.64989 3.56708
# Velocity P-wave (km/s) = 5.60323 5.83908 5.72237
#
# Compressibility (1/GPa) = 0.02958226
#
# Stress axis : x y z
#
# Youngs Moduli (GPa) = 109.66511 62.52153 60.75753
#
# Poissons Ratio (x) = 0.14631 0.05082
# Poissons Ratio (y) = 0.25663 0.17124
# Poissons Ratio (z) = 0.09173 0.17621
#
# Static dielectric constant tensor:
#      x y z
#    x 4.197260 0.000000 -0.058370 
#    y 0.000000 3.528610 0.000000 
#    z -0.058370 0.000000 4.112380 
# 
# 
# High freq. dielectric constant tensor:
#      x y z
#    x 1.890830 0.000000 -0.004660 
#    y 0.000000 1.845880 0.000000 
#    z -0.004660 0.000000 1.879510 
# 
# From -- ./inp_files/60683.got.cif
#   From: 2010.06.25/outbox.cif.g09.slc.cpg/sg15_31_cif.got.tgz:60683.got - 2010.06.28 07:06:18.
