data_PCOD8136618
_publ_section_title
;
Structure prediction by ZEFSAII (Michael W. Deem and Ramdas Pophale) SiO2 
 PCOD8136618
Probable space group: C 2/C
;
_chemical_formula_sum "Si O2"
_cell_formula_units_Z 48
_cell_length_a 19.075289
_cell_length_b 12.504535
_cell_length_c 22.885075
_cell_angle_alpha 90.000000
_cell_angle_beta 150.761636
_cell_angle_gamma 90.000000
_cell_volume 2666.280442
_symmetry_space_group_name_H-M "C 2/C"
_symmetry_group_IT_number 15
_symmetry_cell_setting 'monoclinic'
loop_
_space_group_symop_operation_xyz
x,y,z
-x,y,1/2-z
-x,-y,-z
x,-y,1/2+z
1/2+x,1/2+y,z
1/2-x,1/2+y,1/2-z
1/2-x,1/2-y,-z
1/2+x,1/2-y,1/2+z
loop_
_atom_site_type_symbol
_atom_site_label
_atom_site_fract_x
_atom_site_fract_y
_atom_site_fract_z
Si Si1 0.375559 0.644268 0.917328
Si Si2 0.601729 0.435519 0.775689
Si Si3 0.070105 0.363187 0.588334
Si Si4 0.572153 0.052282 0.964502
Si Si5 0.929189 0.690645 0.758883
Si Si6 0.630206 0.458730 0.671909
O O1 0.444910 0.735024 0.925510
O O2 0.243658 0.678602 0.862924
O O3 0.318799 0.553148 0.832797
O O4 0.497351 0.604246 0.049080
O O5 0.500000 0.489141 0.750000
O O6 0.542415 0.317175 0.715775
O O7 0.591915 0.504185 0.708786
O O8 0.758182 0.436591 0.918387
O O9 0.017990 0.402112 0.486781
O O10 0.238239 0.378893 0.722786
O O11 0.977048 0.425877 0.570351
O O12 0.501452 0.121861 0.862390
O O13 0.000000 0.647898 0.750000
#
# Coordination Sequence:
#
# PCOD8136618 Si02
#       6
#     8   8   8   8   8   8
#     4  11  21  35  55  82 112 138 180 222 260 322
#     4  10  22  34  55  81 109 143 173 221 271 325
#     4  10  20  34  58  76 106 142 179 227 257 313
#     4  10  20  35  52  79 106 142 181 210 269 319
#     4  11  22  32  53  83 113 143 166 217 279 323
#     4  10  21  35  53  81 108 144 178 218 270 307
#
# _framework density 18.002607999999999
#
# number of rings (size 3 to 8) (size 9 to 14) (size 15 to 20)
#    0.000    1.667    5.000    1.000    2.333    1.333 
#    0.000    0.000    0.000    2.000    0.000    0.000 
#    0.000    0.000    0.000    0.000    0.000    0.000 
#
# Total GULP energy -297411.609080 kJ/mol
# GULP energy per Si atom -12392.150378 kJ/mol
# Density = 1.796163 g / cm^3
# Si number density = 18.002608 Si / 1000 Ang^3
#
#
#
# Elastic Constant Matrix: (Units=GPa)
#
#
# Indices 1 2 3 4 5 6 
#
# 1 87.1989 15.5584 33.6304 0.0009 4.9902 0.0008
# 2 15.5584 38.6829 19.4565 -0.0026 7.3169 -0.0017
# 3 33.6304 19.4565 77.4304 -0.0023 -9.5281 -0.0017
# 4 0.0009 -0.0026 -0.0023 5.0249 -0.0015 5.7470
# 5 4.9902 7.3169 -9.5281 -0.0015 19.5289 -0.0011
# 6 0.0008 -0.0017 -0.0017 5.7470 -0.0011 19.9914
#
#
#
# Elastic Compliance Matrix: (Units=1/GPa)
#
#
# Indices 1 2 3 4 5 6 
#
# 1 0.014734 -0.001172 -0.006930 -0.000010 -0.006707 0.000001
# 2 -0.001172 0.034989 -0.010489 0.000010 -0.017928 -0.000002
# 3 -0.006930 -0.010489 0.020492 0.000011 0.015699 -0.000001
# 4 -0.000010 0.000010 0.000011 0.296487 0.000023 -0.085232
# 5 -0.006707 -0.017928 0.015699 0.000023 0.067296 -0.000003
# 6 0.000001 -0.000002 -0.000001 -0.085232 -0.000003 0.074524
#
#
# Mechanical properties :
#
#
# Convention : Reuss Voigt Hill
#
# Bulk Modulus (GPa) = 30.27251 37.84474 34.05862
# Shear Modulus (GPa) = 8.98124 17.88684 13.43404
#
# Velocity S-wave (km/s) = 2.23600 3.15551 2.73468
# Velocity P-wave (km/s) = 4.84957 5.86036 5.37876
#
# Compressibility (1/GPa) = 0.03303327
#
# Stress axis : x y z
#
# Youngs Moduli (GPa) = 67.87144 28.58016 48.79857
#
# Poissons Ratio (x) = 0.03348 0.33819
# Poissons Ratio (y) = 0.07952 0.51186
# Poissons Ratio (z) = 0.47037 0.29978
#
# Static dielectric constant tensor:
#      x y z
#    x 3.584340 0.000000 0.016120 
#    y 0.000000 3.332000 0.000000 
#    z 0.016120 0.000000 3.355560 
# 
# 
# High freq. dielectric constant tensor:
#      x y z
#    x 1.682810 0.000000 0.000150 
#    y 0.000000 1.674240 0.000000 
#    z 0.000150 0.000000 1.712990 
# 
# From -- ./inp_files/103753.got.cif
#   From: 2010.06.25/outbox.cif.g09.slc.cpg/sg15_52_cif.got.tgz:103753.got - 2010.06.28 07:06:18.
