data_PCOD8136351
_publ_section_title
;
Structure prediction by ZEFSAII (Michael W. Deem and Ramdas Pophale) SiO2 
 PCOD8136351
Probable space group: C 2/C
;
_chemical_formula_sum "Si O2"
_cell_formula_units_Z 56
_cell_length_a 11.951977
_cell_length_b 19.157858
_cell_length_c 22.100616
_cell_angle_alpha 90.000000
_cell_angle_beta 37.059137
_cell_angle_gamma 90.000000
_cell_volume 3049.638157
_symmetry_space_group_name_H-M "C 2/C"
_symmetry_group_IT_number 15
_symmetry_cell_setting 'monoclinic'
loop_
_space_group_symop_operation_xyz
x,y,z
-x,y,1/2-z
-x,-y,-z
x,-y,1/2+z
1/2+x,1/2+y,z
1/2-x,1/2+y,1/2-z
1/2-x,1/2-y,-z
1/2+x,1/2-y,1/2+z
loop_
_atom_site_type_symbol
_atom_site_label
_atom_site_fract_x
_atom_site_fract_y
_atom_site_fract_z
Si Si1 0.862127 0.062678 0.546392
Si Si2 0.000000 0.500247 0.750000
Si Si3 0.414652 0.689594 0.998760
Si Si4 0.974064 0.271273 0.087118
Si Si5 0.816396 0.860482 0.948014
Si Si6 0.481210 0.134316 0.324572
Si Si7 0.297610 0.762010 0.700184
Si Si8 0.000000 0.829703 0.750000
O O1 0.825427 0.073321 0.489925
O O2 0.947526 0.133092 0.533726
O O3 0.675805 0.049846 0.665091
O O4 0.000000 0.000000 0.500000
O O5 0.988658 0.449579 0.695372
O O6 0.513575 0.721723 0.897469
O O7 0.389324 0.751807 0.058369
O O8 0.222030 0.653842 0.061919
O O9 0.086018 0.206025 0.065099
O O10 0.807213 0.286524 0.205821
O O11 0.101918 0.340265 0.027461
O O12 0.922547 0.877413 0.838705
O O13 0.500000 0.169291 0.250000
O O14 0.644823 0.163367 0.295825
O O15 0.167338 0.778508 0.698826
#
# Coordination Sequence:
#
# PCOD8136351 Si02
#       8
#     8   4   8   8   8   8   8   4
#     4  11  22  37  57  86 115 153 193 245 285 341
#     4  10  22  37  58  84 111 150 194 230 294 338
#     4  11  20  35  56  87 114 146 191 235 294 339
#     4   9  17  33  48  82 119 139 177 240 287 336
#     4   9  19  32  53  80 116 143 184 236 286 340
#     4  10  20  38  55  80 113 156 189 227 280 356
#     4  11  21  32  58  82 117 149 189 237 291 343
#     4  10  20  33  56  88 107 154 182 238 300 338
#
# _framework density 18.362835
#
# number of rings (size 3 to 8) (size 9 to 14) (size 15 to 20)
#    0.429    1.429    4.286    0.429    8.000    0.000 
#    0.000    0.000    0.000    0.857    5.571    0.000 
#    0.000    0.000    0.000    0.000    0.000    0.000 
#
# Total GULP energy -347035.909673 kJ/mol
# GULP energy per Si atom -12394.139631 kJ/mol
# Density = 1.832104 g / cm^3
# Si number density = 18.362835 Si / 1000 Ang^3
#
#
#
# Elastic Constant Matrix: (Units=GPa)
#
#
# Indices 1 2 3 4 5 6 
#
# 1 60.6796 23.0281 30.8688 -0.0212 -2.8085 0.0070
# 2 23.0281 49.8019 28.0704 0.0264 5.5240 -0.0101
# 3 30.8688 28.0704 138.2654 0.0396 -4.0291 -0.0045
# 4 -0.0212 0.0264 0.0396 33.3562 -0.0022 -1.1614
# 5 -2.8085 5.5240 -4.0291 -0.0022 25.6885 -0.0022
# 6 0.0070 -0.0101 -0.0045 -1.1614 -0.0022 19.5023
#
#
#
# Elastic Compliance Matrix: (Units=1/GPa)
#
#
# Indices 1 2 3 4 5 6 
#
# 1 0.021431 -0.008685 -0.002912 0.000024 0.003754 -0.000011
# 2 -0.008685 0.027032 -0.003763 -0.000022 -0.007353 0.000014
# 3 -0.002912 -0.003763 0.008701 -0.000009 0.001856 0.000001
# 4 0.000024 -0.000022 -0.000009 0.030042 0.000009 0.001789
# 5 0.003754 -0.007353 0.001856 0.000009 0.041210 0.000000
# 6 -0.000011 0.000014 0.000001 0.001789 0.000000 0.051382
#
#
# Mechanical properties :
#
#
# Convention : Reuss Voigt Hill
#
# Bulk Modulus (GPa) = 37.81625 45.85349 41.83487
# Shear Modulus (GPa) = 22.79638 26.82804 24.81221
#
# Velocity S-wave (km/s) = 3.52723 3.82645 3.67988
# Velocity P-wave (km/s) = 6.10140 6.67437 6.39431
#
# Compressibility (1/GPa) = 0.02644366
#
# Stress axis : x y z
#
# Youngs Moduli (GPa) = 46.66135 36.99320 114.93291
#
# Poissons Ratio (x) = 0.32127 0.33470
# Poissons Ratio (y) = 0.40523 0.43253
# Poissons Ratio (z) = 0.13588 0.13922
#
# Static dielectric constant tensor:
#      x y z
#    x 3.299990 0.000030 -0.005890 
#    y 0.000030 3.369610 -0.000030 
#    z -0.005890 -0.000030 3.671540 
# 
# 
# High freq. dielectric constant tensor:
#      x y z
#    x 1.696640 0.000000 -0.009450 
#    y 0.000000 1.664300 0.000000 
#    z -0.009450 0.000000 1.731860 
# 
# From -- ./inp_files/240235.got.cif
#   From: 2010.06.25/outbox.cif.g09.slc.cpg/sg15_121_cif.got.tgz:240235.got - 2010.06.28 07:06:18.
