data_PCOD8136987
_publ_section_title
;
Structure prediction by ZEFSAII (Michael W. Deem and Ramdas Pophale) SiO2 
 PCOD8136987
Probable space group: C 2/C
;
_chemical_formula_sum "Si O2"
_cell_formula_units_Z 60
_cell_length_a 10.311865
_cell_length_b 14.220703
_cell_length_c 21.035470
_cell_angle_alpha 90.000000
_cell_angle_beta 78.851783
_cell_angle_gamma 90.000000
_cell_volume 3026.475715
_symmetry_space_group_name_H-M "C 2/C"
_symmetry_group_IT_number 15
_symmetry_cell_setting 'monoclinic'
loop_
_space_group_symop_operation_xyz
x,y,z
-x,y,1/2-z
-x,-y,-z
x,-y,1/2+z
1/2+x,1/2+y,z
1/2-x,1/2+y,1/2-z
1/2-x,1/2-y,-z
1/2+x,1/2-y,1/2+z
loop_
_atom_site_type_symbol
_atom_site_label
_atom_site_fract_x
_atom_site_fract_y
_atom_site_fract_z
Si Si1 0.336373 0.515714 0.151772
Si Si2 0.081527 0.193584 0.426045
Si Si3 0.000000 0.085440 0.250000
Si Si4 0.909896 0.596859 0.819098
Si Si5 0.072030 0.399509 0.429549
Si Si6 0.323000 0.912708 0.537861
Si Si7 0.161845 0.202579 0.145101
Si Si8 0.578147 0.410829 0.469864
O O1 0.323347 0.610828 0.109617
O O2 0.435464 0.521927 0.201488
O O3 0.187093 0.490496 0.186673
O O4 0.393222 0.426274 0.106960
O O5 0.146683 0.297767 0.417847
O O6 0.958390 0.190703 0.391044
O O7 0.021126 0.174905 0.502636
O O8 0.877716 0.147834 0.286958
O O9 0.001512 0.572752 0.870527
O O10 0.817965 0.688075 0.841155
O O11 0.000000 0.617047 0.750000
O O12 0.966554 0.389140 0.496613
O O13 0.178884 0.479688 0.435885
O O14 0.291847 0.841592 0.599320
O O15 0.218374 0.900427 0.491681
O O16 0.500000 0.500000 0.500000
#
# Coordination Sequence:
#
# PCOD8136987 Si02
#       8
#     8   8   4   8   8   8   8   8
#     4  10  20  35  58  81 114 146 188 231 274 333
#     4   8  18  34  58  84 107 145 184 233 269 334
#     4  10  20  38  54  82 108 152 194 228 274 324
#     4  11  22  36  58  88 111 147 188 230 278 335
#     4  10  21  36  57  88 117 141 190 224 290 333
#     4  10  20  35  60  85 116 148 179 240 280 331
#     4   9  19  35  59  82 108 144 195 233 267 323
#     4   9  17  34  56  84 110 141 188 225 278 325
#
# _framework density 19.825040000000001
#
# number of rings (size 3 to 8) (size 9 to 14) (size 15 to 20)
#    0.000    2.400    2.000    0.800    3.733    1.600 
#    0.000    2.667    0.000    3.200    1.733    0.000 
#    0.000    0.000    0.000    0.000    0.000    0.000 
#
# Total GULP energy -371742.411429 kJ/mol
# GULP energy per Si atom -12391.413714 kJ/mol
# Density = 1.977992 g / cm^3
# Si number density = 19.825040 Si / 1000 Ang^3
#
#
#
# Elastic Constant Matrix: (Units=GPa)
#
#
# Indices 1 2 3 4 5 6 
#
# 1 28.9660 22.6038 16.2701 0.0000 -4.7105 0.0000
# 2 22.6038 102.4316 33.1098 0.0000 -1.3062 0.0000
# 3 16.2701 33.1098 103.5904 0.0000 -3.0795 0.0000
# 4 0.0000 0.0000 0.0000 22.1144 0.0000 -8.9356
# 5 -4.7105 -1.3062 -3.0795 0.0000 26.7205 0.0000
# 6 0.0000 0.0000 0.0000 -8.9356 0.0000 28.3528
#
#
#
# Elastic Compliance Matrix: (Units=1/GPa)
#
#
# Indices 1 2 3 4 5 6 
#
# 1 0.044521 -0.008411 -0.004097 0.000000 0.006965 0.000000
# 2 -0.008411 0.012477 -0.002702 0.000000 -0.001184 0.000000
# 3 -0.004097 -0.002702 0.011173 0.000000 0.000433 0.000000
# 4 0.000000 0.000000 0.000000 0.051818 0.000000 0.016331
# 5 0.006965 -0.001184 0.000433 0.000000 0.038644 0.000000
# 6 0.000000 0.000000 0.000000 0.016331 0.000000 0.040417
#
#
# Mechanical properties :
#
#
# Convention : Reuss Voigt Hill
#
# Bulk Modulus (GPa) = 26.48960 42.10614 34.29787
# Shear Modulus (GPa) = 20.65642 26.30448 23.48045
#
# Velocity S-wave (km/s) = 3.23140 3.64652 3.44522
# Velocity P-wave (km/s) = 5.22622 6.24616 5.75881
#
# Compressibility (1/GPa) = 0.03775066
#
# Stress axis : x y z
#
# Youngs Moduli (GPa) = 22.46121 80.14694 89.49826
#
# Poissons Ratio (x) = 0.67415 0.36668
# Poissons Ratio (y) = 0.18893 0.24183
# Poissons Ratio (z) = 0.09202 0.21656
#
# Static dielectric constant tensor:
#      x y z
#    x 3.265870 0.000000 -0.283000 
#    y 0.000000 4.119110 0.000000 
#    z -0.283000 0.000000 3.970220 
# 
# 
# High freq. dielectric constant tensor:
#      x y z
#    x 1.731260 0.000000 -0.015430 
#    y 0.000000 1.775560 0.000000 
#    z -0.015430 0.000000 1.777320 
# 
# From -- ./inp_files/238359.got.cif
#   From: 2010.06.25/outbox.cif.g09.slc.cpg/sg15_120_cif.got.tgz:238359.got - 2010.06.28 07:06:18.
