data_PCOD8136151
_publ_section_title
;
Structure prediction by ZEFSAII (Michael W. Deem and Ramdas Pophale) SiO2 
 PCOD8136151
Probable space group: C 2/C
;
_chemical_formula_sum "Si O2"
_cell_formula_units_Z 64
_cell_length_a 21.442036
_cell_length_b 28.364813
_cell_length_c 17.543537
_cell_angle_alpha 90.000000
_cell_angle_beta 160.798600
_cell_angle_gamma 90.000000
_cell_volume 3509.242696
_symmetry_space_group_name_H-M "C 2/C"
_symmetry_group_IT_number 15
_symmetry_cell_setting 'monoclinic'
loop_
_space_group_symop_operation_xyz
x,y,z
-x,y,1/2-z
-x,-y,-z
x,-y,1/2+z
1/2+x,1/2+y,z
1/2-x,1/2+y,1/2-z
1/2-x,1/2-y,-z
1/2+x,1/2-y,1/2+z
loop_
_atom_site_type_symbol
_atom_site_label
_atom_site_fract_x
_atom_site_fract_y
_atom_site_fract_z
Si Si1 0.032687 0.047388 0.488563
Si Si2 0.284324 0.297966 0.128752
Si Si3 0.706184 0.455221 0.453068
Si Si4 0.059275 0.107337 0.656032
Si Si5 0.868066 0.696257 0.207066
Si Si6 0.417177 0.956108 0.363334
Si Si7 0.139689 0.456866 0.466954
Si Si8 0.660016 0.902110 0.750838
O O1 0.123240 0.086931 0.648172
O O2 0.187336 0.040680 0.599703
O O3 0.000000 0.000000 0.500000
O O4 0.836700 0.065608 0.223364
O O5 0.429420 0.335957 0.331486
O O6 0.348945 0.245890 0.230183
O O7 0.287017 0.301808 0.039836
O O8 0.077942 0.310738 0.919392
O O9 0.500000 0.469800 0.250000
O O10 0.687610 0.411429 0.373495
O O11 0.804783 0.496508 0.518042
O O12 0.845818 0.436287 0.681368
O O13 0.849524 0.086678 0.423047
O O14 0.825907 0.652875 0.213058
O O15 0.494090 0.962686 0.367942
O O16 0.488417 0.910588 0.493615
O O17 0.500000 0.000000 0.500000
O O18 0.000000 0.426070 0.250000
#
# Coordination Sequence:
#
# PCOD8136151 Si02
#       8
#     8   8   8   8   8   8   8   8
#     4  12  23  39  57  78 112 147 189 239 286 332
#     4  10  20  32  50  75 111 151 189 232 275 322
#     4  10  22  34  53  80 109 151 197 230 273 340
#     4  11  19  36  54  79 111 150 193 234 276 332
#     4  10  20  33  49  76 110 150 192 230 273 330
#     4  12  23  39  57  79 110 148 188 239 286 333
#     4  12  26  39  57  80 108 145 193 238 288 338
#     4  11  21  36  57  80 110 150 193 231 279 336
#
# _framework density 18.237553999999999
#
# number of rings (size 3 to 8) (size 9 to 14) (size 15 to 20)
#    0.000    1.000    5.000    2.250    3.500    2.000 
#    0.000    0.000    0.000    0.000    0.000    0.000 
#    0.000    1.000    0.500    0.000    0.000    0.000 
#
# Total GULP energy -396476.179193 kJ/mol
# GULP energy per Si atom -12389.880600 kJ/mol
# Density = 1.819604 g / cm^3
# Si number density = 18.237554 Si / 1000 Ang^3
#
#
#
# Elastic Constant Matrix: (Units=GPa)
#
#
# Indices 1 2 3 4 5 6 
#
# 1 101.5849 28.8437 42.1239 0.0001 7.5142 0.0001
# 2 28.8437 85.7691 6.6703 0.0000 -8.0803 0.0000
# 3 42.1239 6.6703 90.1590 0.0004 4.4198 0.0002
# 4 0.0001 0.0000 0.0004 22.5331 0.0001 -1.0461
# 5 7.5142 -8.0803 4.4198 0.0001 33.5936 0.0001
# 6 0.0001 0.0000 0.0002 -1.0461 0.0001 23.6814
#
#
#
# Elastic Compliance Matrix: (Units=1/GPa)
#
#
# Indices 1 2 3 4 5 6 
#
# 1 0.013854 -0.004515 -0.005972 0.000000 -0.003399 0.000000
# 2 -0.004515 0.013497 0.000908 0.000000 0.004137 0.000000
# 3 -0.005972 0.000908 0.013828 0.000000 -0.000265 0.000000
# 4 0.000000 0.000000 0.000000 0.044470 0.000000 0.001964
# 5 -0.003399 0.004137 -0.000265 0.000000 0.031558 0.000000
# 6 0.000000 0.000000 0.000000 0.001964 0.000000 0.042314
#
#
# Mechanical properties :
#
#
# Convention : Reuss Voigt Hill
#
# Bulk Modulus (GPa) = 45.41240 48.08763 46.75002
# Shear Modulus (GPa) = 26.87919 29.28664 28.08291
#
# Velocity S-wave (km/s) = 3.84322 4.01164 3.92834
# Velocity P-wave (km/s) = 6.68194 6.91971 6.80186
#
# Compressibility (1/GPa) = 0.02202042
#
# Stress axis : x y z
#
# Youngs Moduli (GPa) = 72.18280 74.09287 72.31916
#
# Poissons Ratio (x) = 0.33451 0.43190
# Poissons Ratio (y) = 0.32588 -0.06567
# Poissons Ratio (z) = 0.43108 -0.06728
#
# Static dielectric constant tensor:
#      x y z
#    x 3.435240 0.000000 0.112380 
#    y 0.000000 3.800260 -0.000010 
#    z 0.112380 -0.000010 3.584380 
# 
# 
# High freq. dielectric constant tensor:
#      x y z
#    x 1.702870 0.000000 0.024650 
#    y 0.000000 1.670640 0.000000 
#    z 0.024650 0.000000 1.712330 
# 
# From -- ./inp_files/217127.got.cif
#   From: 2010.06.25/outbox.cif.g09.slc.cpg/sg15_109_cif.got.tgz:217127.got - 2010.06.28 07:06:18.
