data_PCOD8136646
_publ_section_title
;
Structure prediction by ZEFSAII (Michael W. Deem and Ramdas Pophale) SiO2 
 PCOD8136646
Probable space group: C 2/C
;
_chemical_formula_sum "Si O2"
_cell_formula_units_Z 48
_cell_length_a 23.576880
_cell_length_b 21.060384
_cell_length_c 12.929571
_cell_angle_alpha 90.000000
_cell_angle_beta 157.000111
_cell_angle_gamma 90.000000
_cell_volume 2508.492249
_symmetry_space_group_name_H-M "C 2/C"
_symmetry_group_IT_number 15
_symmetry_cell_setting 'monoclinic'
loop_
_space_group_symop_operation_xyz
x,y,z
-x,y,1/2-z
-x,-y,-z
x,-y,1/2+z
1/2+x,1/2+y,z
1/2-x,1/2+y,1/2-z
1/2-x,1/2-y,-z
1/2+x,1/2-y,1/2+z
loop_
_atom_site_type_symbol
_atom_site_label
_atom_site_fract_x
_atom_site_fract_y
_atom_site_fract_z
Si Si1 0.242652 0.662619 0.696400
Si Si2 0.500000 0.739025 0.750000
Si Si3 0.426108 0.037014 0.027619
Si Si4 0.700047 0.033695 0.361879
Si Si5 0.913209 0.141195 0.776085
Si Si6 0.092795 0.943618 0.701224
Si Si7 0.500000 0.375718 0.750000
O O1 0.127948 0.719050 0.513801
O O2 0.162537 0.595744 0.575413
O O3 0.316901 0.666324 0.709146
O O4 0.363113 0.669098 0.989762
O O5 0.438600 0.697599 0.740037
O O6 0.500000 0.002354 0.250000
O O7 0.549727 0.061138 0.154704
O O8 0.320863 0.988052 0.792211
O O9 0.825114 0.086113 0.568937
O O10 0.745758 0.971536 0.508624
O O11 0.069543 0.114711 0.081289
O O12 0.030912 0.922149 0.707203
O O13 0.000000 0.000000 0.500000
#
# Coordination Sequence:
#
# PCOD8136646 Si02
#       7
#     8   4   8   8   8   8   4
#     4  11  21  41  63  84 118 170 207 240 306 366
#     4  12  24  39  64  88 121 158 214 268 282 350
#     4  11  20  34  59  87 118 160 199 238 298 366
#     4  10  20  34  58  91 122 149 194 252 302 363
#     4  10  22  39  60  92 116 155 208 247 312 360
#     4   9  19  33  57  89 118 151 191 246 307 367
#     4  10  20  37  60  82 117 164 206 238 298 376
#
# _framework density 19.135000000000002
#
# number of rings (size 3 to 8) (size 9 to 14) (size 15 to 20)
#    0.000    1.667    4.167    0.500    0.000    4.000 
#    0.000    3.333    9.167    0.000    0.000    0.000 
#    0.000    0.000    0.000    0.000    0.000    0.000 
#
# Total GULP energy -297428.112860 kJ/mol
# GULP energy per Si atom -12392.838036 kJ/mol
# Density = 1.909145 g / cm^3
# Si number density = 19.135000 Si / 1000 Ang^3
#
#
#
# Elastic Constant Matrix: (Units=GPa)
#
#
# Indices 1 2 3 4 5 6 
#
# 1 97.7092 46.6545 41.7924 0.0000 -11.7344 0.0000
# 2 46.6545 78.8370 53.5167 0.0000 -7.3450 0.0000
# 3 41.7924 53.5167 142.3878 0.0000 -20.5453 0.0000
# 4 0.0000 0.0000 0.0000 27.5324 0.0000 -1.5061
# 5 -11.7344 -7.3450 -20.5453 0.0000 35.5746 0.0000
# 6 0.0000 0.0000 0.0000 -1.5061 0.0000 29.5684
#
#
#
# Elastic Compliance Matrix: (Units=1/GPa)
#
#
# Indices 1 2 3 4 5 6 
#
# 1 0.014692 -0.007760 -0.001012 0.000000 0.002660 0.000000
# 2 -0.007760 0.021129 -0.005895 0.000000 -0.001602 0.000000
# 3 -0.001012 -0.005895 0.010158 0.000000 0.004316 0.000000
# 4 0.000000 0.000000 0.000000 0.036422 0.000000 0.001855
# 5 0.002660 -0.001602 0.004316 0.000000 0.031149 0.000000
# 6 0.000000 0.000000 0.000000 0.001855 0.000000 0.033914
#
#
# Mechanical properties :
#
#
# Convention : Reuss Voigt Hill
#
# Bulk Modulus (GPa) = 60.07415 66.98459 63.52937
# Shear Modulus (GPa) = 27.42035 30.33313 28.87674
#
# Velocity S-wave (km/s) = 3.78960 3.98580 3.88894
# Velocity P-wave (km/s) = 7.11415 7.50096 7.31011
#
# Compressibility (1/GPa) = 0.01664610
#
# Stress axis : x y z
#
# Youngs Moduli (GPa) = 68.06523 47.32882 98.44040
#
# Poissons Ratio (x) = 0.36725 0.09962
# Poissons Ratio (y) = 0.52816 0.58029
# Poissons Ratio (z) = 0.06888 0.27900
#
# Static dielectric constant tensor:
#      x y z
#    x 3.441760 0.000000 -0.205040 
#    y 0.000000 3.355800 0.000000 
#    z -0.205040 0.000000 4.185870 
# 
# 
# High freq. dielectric constant tensor:
#      x y z
#    x 1.741140 0.000000 -0.013460 
#    y 0.000000 1.711330 0.000000 
#    z -0.013460 0.000000 1.765230 
# 
# From -- ./inp_files/88380.got.cif
#   From: 2010.06.25/outbox.cif.g09.slc.cpg/sg15_45_cif.got.tgz:88380.got - 2010.06.28 07:06:18.
