data_PCOD8136999
_publ_section_title
;
Structure prediction by ZEFSAII (Michael W. Deem and Ramdas Pophale) SiO2 
 PCOD8136999
Probable space group: C 2/C
;
_chemical_formula_sum "Si O2"
_cell_formula_units_Z 48
_cell_length_a 11.416531
_cell_length_b 8.360748
_cell_length_c 24.681311
_cell_angle_alpha 90.000000
_cell_angle_beta 64.499046
_cell_angle_gamma 90.000000
_cell_volume 2126.338084
_symmetry_space_group_name_H-M "C 2/C"
_symmetry_group_IT_number 15
_symmetry_cell_setting 'monoclinic'
loop_
_space_group_symop_operation_xyz
x,y,z
-x,y,1/2-z
-x,-y,-z
x,-y,1/2+z
1/2+x,1/2+y,z
1/2-x,1/2+y,1/2-z
1/2-x,1/2-y,-z
1/2+x,1/2-y,1/2+z
loop_
_atom_site_type_symbol
_atom_site_label
_atom_site_fract_x
_atom_site_fract_y
_atom_site_fract_z
Si Si1 0.985819 0.190938 0.629743
Si Si2 0.076840 0.320244 0.313627
Si Si3 0.703475 0.516669 0.268965
Si Si4 0.172473 0.796074 0.437869
Si Si5 0.154685 0.459348 0.650898
Si Si6 0.075761 0.140484 0.070409
O O1 0.902320 0.278506 0.599228
O O2 0.091546 0.308140 0.633942
O O3 0.891957 0.129093 0.696410
O O4 0.054421 0.044808 0.585929
O O5 0.193868 0.450857 0.295733
O O6 0.122066 0.172360 0.265073
O O7 0.951977 0.405902 0.313058
O O8 0.037783 0.248777 0.380112
O O9 0.781422 0.587796 0.305144
O O10 0.072990 0.823123 0.507116
O O11 0.283516 0.673228 0.432490
O O12 0.234959 0.968150 0.410173
#
# Coordination Sequence:
#
# PCOD8136999 Si02
#       6
#     8   8   8   8   8   8
#     4  10  20  35  58  84 111 149 187 225 277 329
#     4  10  20  37  58  78 108 146 182 229 283 327
#     4  10  21  37  56  80 110 142 184 233 279 333
#     4   9  19  37  56  80 118 150 180 228 277 325
#     4  10  21  36  56  82 110 144 186 229 276 331
#     4   9  19  36  57  84 115 148 186 228 275 329
#
# _framework density 22.574021999999999
#
# number of rings (size 3 to 8) (size 9 to 14) (size 15 to 20)
#    0.000    2.333    0.000    2.000    0.000    2.000 
#    0.000   14.167    0.000    0.000    0.000    0.000 
#    0.000    0.000    0.000    0.000    0.000    0.000 
#
# Total GULP energy -297525.017739 kJ/mol
# GULP energy per Si atom -12396.875739 kJ/mol
# Density = 2.252264 g / cm^3
# Si number density = 22.574022 Si / 1000 Ang^3
#
#
#
# Elastic Constant Matrix: (Units=GPa)
#
#
# Indices 1 2 3 4 5 6 
#
# 1 65.3196 31.9773 24.4948 0.0000 -4.9639 0.0000
# 2 31.9773 69.5490 29.1696 0.0000 -6.6428 0.0000
# 3 24.4948 29.1696 79.8627 0.0000 -31.6817 0.0000
# 4 0.0000 0.0000 0.0000 22.8063 0.0000 -6.4001
# 5 -4.9639 -6.6428 -31.6817 0.0000 32.7513 0.0000
# 6 0.0000 0.0000 0.0000 -6.4001 0.0000 45.3676
#
#
#
# Elastic Compliance Matrix: (Units=1/GPa)
#
#
# Indices 1 2 3 4 5 6 
#
# 1 0.020663 -0.007833 -0.004648 0.000000 -0.002953 0.000000
# 2 -0.007833 0.020303 -0.006248 0.000000 -0.003113 0.000000
# 3 -0.004648 -0.006248 0.025066 0.000000 0.022276 0.000000
# 4 0.000000 0.000000 0.000000 0.045655 0.000000 0.006441
# 5 -0.002953 -0.003113 0.022276 0.000000 0.051002 0.000000
# 6 0.000000 0.000000 0.000000 0.006441 0.000000 0.022951
#
#
# Mechanical properties :
#
#
# Convention : Reuss Voigt Hill
#
# Bulk Modulus (GPa) = 34.99790 42.89052 38.94421
# Shear Modulus (GPa) = 21.49409 28.79102 25.14255
#
# Velocity S-wave (km/s) = 3.08906 3.57516 3.34096
# Velocity P-wave (km/s) = 5.31604 6.00696 5.67203
#
# Compressibility (1/GPa) = 0.02857314
#
# Stress axis : x y z
#
# Youngs Moduli (GPa) = 48.39685 49.25396 39.89462
#
# Poissons Ratio (x) = 0.38580 0.18543
# Poissons Ratio (y) = 0.37908 0.24927
# Poissons Ratio (z) = 0.22495 0.30775
#
# Static dielectric constant tensor:
#      x y z
#    x 4.145900 0.000000 -0.295800 
#    y 0.000000 3.994180 0.000000 
#    z -0.295800 0.000000 4.070460 
# 
# 
# High freq. dielectric constant tensor:
#      x y z
#    x 1.890520 0.000000 -0.022010 
#    y 0.000000 1.882810 0.000000 
#    z -0.022010 0.000000 1.882710 
# 
# From -- ./inp_files/267632.got.cif
#   From: 2010.06.25/outbox.cif.g09.slc.cpg/sg15_134_cif.got.tgz:267632.got - 2010.06.28 07:06:18.
