data_PCOD8136737
_publ_section_title
;
Structure prediction by ZEFSAII (Michael W. Deem and Ramdas Pophale) SiO2 
 PCOD8136737
Probable space group: C 2/C
;
_chemical_formula_sum "Si O2"
_cell_formula_units_Z 48
_cell_length_a 19.394559
_cell_length_b 12.089621
_cell_length_c 24.716878
_cell_angle_alpha 90.000000
_cell_angle_beta 157.104226
_cell_angle_gamma 90.000000
_cell_volume 2254.749668
_symmetry_space_group_name_H-M "C 2/C"
_symmetry_group_IT_number 15
_symmetry_cell_setting 'monoclinic'
loop_
_space_group_symop_operation_xyz
x,y,z
-x,y,1/2-z
-x,-y,-z
x,-y,1/2+z
1/2+x,1/2+y,z
1/2-x,1/2+y,1/2-z
1/2-x,1/2-y,-z
1/2+x,1/2-y,1/2+z
loop_
_atom_site_type_symbol
_atom_site_label
_atom_site_fract_x
_atom_site_fract_y
_atom_site_fract_z
Si Si1 0.703365 0.517157 0.281856
Si Si2 0.522411 0.843182 0.012486
Si Si3 0.340082 0.994743 0.670587
Si Si4 0.552376 0.853721 0.905996
Si Si5 0.885783 0.113033 0.582344
Si Si6 0.984456 0.897593 0.527882
O O1 0.807495 0.405214 0.338825
O O2 0.540171 0.478957 0.202299
O O3 0.627925 0.586954 0.177867
O O4 0.847408 0.599877 0.413066
O O5 0.530125 0.715046 0.031062
O O6 0.521716 0.860297 0.947451
O O7 0.500000 0.041210 0.750000
O O8 0.409430 0.933999 0.774563
O O9 0.224011 0.907657 0.552194
O O10 0.218425 0.100735 0.597205
O O11 0.523779 0.732771 0.859251
O O12 0.754827 0.891969 0.039216
O O13 0.000000 0.000000 0.500000
#
# Coordination Sequence:
#
# PCOD8136737 Si02
#       6
#     8   8   8   8   8   8
#     4  10  24  41  59  87 125 162 203 252 308 369
#     4  11  24  39  62  92 124 162 205 258 308 363
#     4   9  19  38  60  88 124 164 205 243 298 369
#     4  10  20  34  61  94 126 154 200 255 308 364
#     4   9  20  36  59  91 124 163 195 248 313 362
#     4  11  23  38  65  90 120 165 206 256 309 365
#
# _framework density 21.288394
#
# number of rings (size 3 to 8) (size 9 to 14) (size 15 to 20)
#    0.000    2.000    0.000    3.000    9.333    0.667 
#    0.000    0.000    7.333    3.000    0.000    0.000 
#    0.000    0.000    0.000    0.000    0.000    0.000 
#
# Total GULP energy -297495.829391 kJ/mol
# GULP energy per Si atom -12395.659558 kJ/mol
# Density = 2.123994 g / cm^3
# Si number density = 21.288394 Si / 1000 Ang^3
#
#
#
# Elastic Constant Matrix: (Units=GPa)
#
#
# Indices 1 2 3 4 5 6 
#
# 1 83.8713 40.5960 42.1928 -0.0101 9.9991 0.0058
# 2 40.5960 117.0027 42.5991 -0.0745 9.2029 0.0060
# 3 42.1928 42.5991 111.4573 -0.0976 19.2770 0.0145
# 4 -0.0101 -0.0745 -0.0976 26.0108 0.0096 8.6655
# 5 9.9991 9.2029 19.2770 0.0096 27.3412 0.0015
# 6 0.0058 0.0060 0.0145 8.6655 0.0015 28.2815
#
#
#
# Elastic Compliance Matrix: (Units=1/GPa)
#
#
# Indices 1 2 3 4 5 6 
#
# 1 0.016196 -0.003907 -0.004374 -0.000023 -0.001524 0.000007
# 2 -0.003907 0.010885 -0.002613 0.000022 -0.000392 -0.000007
# 3 -0.004374 -0.002613 0.012753 0.000048 -0.006512 -0.000019
# 4 -0.000023 0.000022 0.000048 0.042816 -0.000047 -0.013119
# 5 -0.001524 -0.000392 -0.006512 -0.000047 0.041856 0.000016
# 6 0.000007 -0.000007 -0.000019 -0.013119 0.000016 0.039378
#
#
# Mechanical properties :
#
#
# Convention : Reuss Voigt Hill
#
# Bulk Modulus (GPa) = 55.41727 62.56747 58.99237
# Shear Modulus (GPa) = 26.08383 28.78958 27.43670
#
# Velocity S-wave (km/s) = 3.50417 3.68143 3.59390
# Velocity P-wave (km/s) = 6.51617 6.89383 6.70766
#
# Compressibility (1/GPa) = 0.01804492
#
# Stress axis : x y z
#
# Youngs Moduli (GPa) = 61.74182 91.87152 78.41198
#
# Poissons Ratio (x) = 0.35895 0.34301
# Poissons Ratio (y) = 0.24123 0.20491
# Poissons Ratio (z) = 0.27008 0.24008
#
# Static dielectric constant tensor:
#      x y z
#    x 3.878750 -0.000090 0.449870 
#    y -0.000090 3.734860 -0.000110 
#    z 0.449870 -0.000110 4.283250 
# 
# 
# High freq. dielectric constant tensor:
#      x y z
#    x 1.820120 0.000000 0.019070 
#    y 0.000000 1.810520 -0.000010 
#    z 0.019070 -0.000010 1.858530 
# 
# From -- ./inp_files/300981.got.cif
#   From: 2010.06.25/outbox.cif.g09.slc.cpg/sg15_151_cif.got.tgz:300981.got - 2010.06.28 07:06:18.
