data_PCOD8136098
_publ_section_title
;
Structure prediction by ZEFSAII (Michael W. Deem and Ramdas Pophale) SiO2 
 PCOD8136098
Probable space group: C 2/C
;
_chemical_formula_sum "Si O2"
_cell_formula_units_Z 56
_cell_length_a 22.024754
_cell_length_b 26.416994
_cell_length_c 18.134574
_cell_angle_alpha 90.000000
_cell_angle_beta 160.514962
_cell_angle_gamma 90.000000
_cell_volume 3519.465283
_symmetry_space_group_name_H-M "C 2/C"
_symmetry_group_IT_number 15
_symmetry_cell_setting 'monoclinic'
loop_
_space_group_symop_operation_xyz
x,y,z
-x,y,1/2-z
-x,-y,-z
x,-y,1/2+z
1/2+x,1/2+y,z
1/2-x,1/2+y,1/2-z
1/2-x,1/2-y,-z
1/2+x,1/2-y,1/2+z
loop_
_atom_site_type_symbol
_atom_site_label
_atom_site_fract_x
_atom_site_fract_y
_atom_site_fract_z
Si Si1 0.110554 0.042470 0.169841
Si Si2 0.886747 0.407243 0.544786
Si Si3 0.511931 0.800082 0.850578
Si Si4 0.501694 0.000583 0.914535
Si Si5 0.524435 0.592433 0.933478
Si Si6 0.103647 0.006048 0.444559
Si Si7 0.116747 0.192767 0.957053
O O1 0.327290 0.031880 0.422800
O O2 0.016415 0.044894 0.142660
O O3 0.073905 0.092451 0.077872
O O4 0.000000 0.000000 0.000000
O O5 0.866864 0.349295 0.492212
O O6 0.681154 0.425691 0.320078
O O7 0.000000 0.408484 0.750000
O O8 0.986682 0.442824 0.600597
O O9 0.500000 0.792298 0.750000
O O10 0.322749 0.812837 0.670593
O O11 0.588735 0.746421 0.967661
O O12 0.310930 0.026162 0.669254
O O13 0.500000 0.000000 0.000000
O O14 0.638197 0.549153 0.021275
O O15 0.564451 0.648569 0.952628
O O16 0.000000 0.999872 0.250000
O O17 0.000000 0.187158 0.750000
#
# Coordination Sequence:
#
# PCOD8136098 Si02
#       7
#     8   8   8   8   8   8   8
#     4  10  20  35  45  68  96 124 163 205 244 291
#     4  11  20  31  47  69  92 125 168 203 236 281
#     4  10  20  31  43  65  90 121 161 204 242 274
#     4  12  20  33  52  66  97 133 164 200 251 289
#     4  11  19  33  47  64  95 125 161 205 241 283
#     4  11  21  33  50  73  93 126 170 206 241 288
#     4  11  19  31  46  63  90 125 162 204 241 275
#
# _framework density 15.911509000000001
#
# number of rings (size 3 to 8) (size 9 to 14) (size 15 to 20)
#    0.000    1.143    5.714    6.429    0.000    0.000 
#    0.000    0.000    0.000    0.000    0.000    0.000 
#    0.000    0.000    0.000   12.857    2.857    2.286 
#
# Total GULP energy -346994.023381 kJ/mol
# GULP energy per Si atom -12392.643692 kJ/mol
# Density = 1.587529 g / cm^3
# Si number density = 15.911509 Si / 1000 Ang^3
#
#
#
# Elastic Constant Matrix: (Units=GPa)
#
#
# Indices 1 2 3 4 5 6 
#
# 1 80.3096 45.4027 28.8887 -0.0001 7.9295 0.0000
# 2 45.4027 79.0544 18.2092 -0.0001 -6.7848 0.0001
# 3 28.8887 18.2092 99.1312 -0.0008 18.1450 -0.0002
# 4 -0.0001 -0.0001 -0.0008 9.2114 -0.0001 7.7382
# 5 7.9295 -6.7848 18.1450 -0.0001 28.2291 -0.0002
# 6 0.0000 0.0001 -0.0002 7.7382 -0.0002 16.2806
#
#
#
# Elastic Compliance Matrix: (Units=1/GPa)
#
#
# Indices 1 2 3 4 5 6 
#
# 1 0.020860 -0.011994 -0.002579 0.000000 -0.007085 0.000000
# 2 -0.011994 0.020863 -0.002121 0.000000 0.009747 0.000000
# 3 -0.002579 -0.002121 0.012682 0.000001 -0.007937 -0.000001
# 4 0.000000 0.000000 0.000001 0.180718 -0.000001 -0.085896
# 5 -0.007085 0.009747 -0.007937 -0.000001 0.044859 0.000001
# 6 0.000000 0.000000 -0.000001 -0.085896 0.000001 0.102249
#
#
# Mechanical properties :
#
#
# Convention : Reuss Voigt Hill
#
# Bulk Modulus (GPa) = 47.58276 49.27737 48.43007
# Shear Modulus (GPa) = 11.83082 21.81052 16.82067
#
# Velocity S-wave (km/s) = 2.72975 3.70637 3.25489
# Velocity P-wave (km/s) = 6.31703 7.02517 6.68049
#
# Compressibility (1/GPa) = 0.02101602
#
# Stress axis : x y z
#
# Youngs Moduli (GPa) = 47.93862 47.93122 78.85454
#
# Poissons Ratio (x) = 0.57490 0.20337
# Poissons Ratio (y) = 0.57499 0.16725
# Poissons Ratio (z) = 0.12363 0.10166
#
# Static dielectric constant tensor:
#      x y z
#    x 3.299380 0.000000 0.237830 
#    y 0.000000 3.200300 0.000000 
#    z 0.237830 0.000000 3.281340 
# 
# 
# High freq. dielectric constant tensor:
#      x y z
#    x 1.598580 0.000000 0.032430 
#    y 0.000000 1.582290 0.000000 
#    z 0.032430 0.000000 1.617770 
# 
# From -- ./inp_files/216915.got.cif
#   From: 2010.06.25/outbox.cif.g09.slc.cpg/sg15_109_cif.got.tgz:216915.got - 2010.06.28 07:06:18.
