data_PCOD8136031
_publ_section_title
;
Structure prediction by ZEFSAII (Michael W. Deem and Ramdas Pophale) SiO2 
 PCOD8136031
Probable space group: C 2/C
;
_chemical_formula_sum "Si O2"
_cell_formula_units_Z 40
_cell_length_a 20.915018
_cell_length_b 9.126045
_cell_length_c 13.827510
_cell_angle_alpha 90.000000
_cell_angle_beta 135.433211
_cell_angle_gamma 90.000000
_cell_volume 1852.086199
_symmetry_space_group_name_H-M "C 2/C"
_symmetry_group_IT_number 15
_symmetry_cell_setting 'monoclinic'
loop_
_space_group_symop_operation_xyz
x,y,z
-x,y,1/2-z
-x,-y,-z
x,-y,1/2+z
1/2+x,1/2+y,z
1/2-x,1/2+y,1/2-z
1/2-x,1/2-y,-z
1/2+x,1/2-y,1/2+z
loop_
_atom_site_type_symbol
_atom_site_label
_atom_site_fract_x
_atom_site_fract_y
_atom_site_fract_z
Si Si1 0.641761 0.818936 0.114361
Si Si2 0.383762 0.914958 0.214197
Si Si3 0.201093 0.726089 0.346999
Si Si4 0.090348 0.615423 0.970071
Si Si5 0.038304 0.158433 0.569499
O O1 0.650373 0.800987 0.240404
O O2 0.725039 0.731531 0.158703
O O3 0.545750 0.749954 0.977561
O O4 0.645197 0.989490 0.086178
O O5 0.361604 0.854735 0.082583
O O6 0.490143 0.945196 0.342489
O O7 0.336708 0.065226 0.188738
O O8 0.250000 0.750000 0.500000
O O9 0.118733 0.842726 0.237293
O O10 0.084831 0.764706 0.025718
O O11 0.000000 0.000000 0.500000
#
# Coordination Sequence:
#
# PCOD8136031 Si02
#       5
#     8   8   8   8   8
#     4  11  22  41  70  94 138 187 233 285 347 436
#     4  10  20  40  69  96 126 175 243 281 335 424
#     4  12  24  39  69 106 135 184 241 290 349 423
#     4  10  19  42  74  91 127 188 237 277 347 435
#     4  11  25  44  68 105 144 179 228 306 363 413
#
# _framework density 21.597266999999999
#
# number of rings (size 3 to 8) (size 9 to 14) (size 15 to 20)
#    0.000    1.200    6.000    1.200    2.800    0.800 
#    0.000    9.000    0.000    0.000    0.000    0.000 
#    0.000    0.000    0.000    0.000    0.000    0.000 
#
# Total GULP energy -247891.125391 kJ/mol
# GULP energy per Si atom -12394.556270 kJ/mol
# Density = 2.154811 g / cm^3
# Si number density = 21.597267 Si / 1000 Ang^3
#
#
#
# Elastic Constant Matrix: (Units=GPa)
#
#
# Indices 1 2 3 4 5 6 
#
# 1 141.9115 43.4630 56.0374 0.0000 -16.2370 0.0000
# 2 43.4630 96.5476 46.7377 0.0000 -11.5002 0.0000
# 3 56.0374 46.7377 138.1713 0.0000 -5.5924 0.0000
# 4 0.0000 0.0000 0.0000 18.8546 0.0000 -3.1909
# 5 -16.2370 -11.5002 -5.5924 0.0000 24.7237 0.0000
# 6 0.0000 0.0000 0.0000 -3.1909 0.0000 35.3682
#
#
#
# Elastic Compliance Matrix: (Units=1/GPa)
#
#
# Indices 1 2 3 4 5 6 
#
# 1 0.009388 -0.002321 -0.002843 0.000000 0.004443 0.000000
# 2 -0.002321 0.013566 -0.003486 0.000000 0.003997 0.000000
# 3 -0.002843 -0.003486 0.009515 0.000000 -0.001336 0.000000
# 4 0.000000 0.000000 0.000000 0.053860 0.000000 0.004859
# 5 0.004443 0.003997 -0.001336 0.000000 0.044922 0.000000
# 6 0.000000 0.000000 0.000000 0.004859 0.000000 0.028712
#
#
# Mechanical properties :
#
#
# Convention : Reuss Voigt Hill
#
# Bulk Modulus (GPa) = 65.91589 74.34519 70.13054
# Shear Modulus (GPa) = 27.42436 31.14879 29.28657
#
# Velocity S-wave (km/s) = 3.56730 3.80182 3.68643
# Velocity P-wave (km/s) = 6.89596 7.33280 7.11773
#
# Compressibility (1/GPa) = 0.01517085
#
# Stress axis : x y z
#
# Youngs Moduli (GPa) = 106.51491 73.71372 105.09431
#
# Poissons Ratio (x) = 0.17109 0.29875
# Poissons Ratio (y) = 0.24723 0.36633
# Poissons Ratio (z) = 0.30278 0.25694
#
# Static dielectric constant tensor:
#      x y z
#    x 4.320870 0.000000 -0.267870 
#    y 0.000000 3.436690 0.000000 
#    z -0.267870 0.000000 4.176380 
# 
# 
# High freq. dielectric constant tensor:
#      x y z
#    x 1.856120 0.000000 -0.004580 
#    y 0.000000 1.820870 0.000000 
#    z -0.004580 0.000000 1.855260 
# 
# From -- ./inp_files/166508.got.cif
#   From: 2010.06.25/outbox.cif.g09.slc.cpg/sg15_84_cif.got.tgz:166508.got - 2010.06.28 07:06:18.
