data_PCOD8136883
_publ_section_title
;
Structure prediction by ZEFSAII (Michael W. Deem and Ramdas Pophale) SiO2 
 PCOD8136883
Probable space group: C 2/C
;
_chemical_formula_sum "Si O2"
_cell_formula_units_Z 56
_cell_length_a 11.409848
_cell_length_b 21.672385
_cell_length_c 18.237155
_cell_angle_alpha 90.000000
_cell_angle_beta 136.830416
_cell_angle_gamma 90.000000
_cell_volume 3085.328091
_symmetry_space_group_name_H-M "C 2/C"
_symmetry_group_IT_number 15
_symmetry_cell_setting 'monoclinic'
loop_
_space_group_symop_operation_xyz
x,y,z
-x,y,1/2-z
-x,-y,-z
x,-y,1/2+z
1/2+x,1/2+y,z
1/2-x,1/2+y,1/2-z
1/2-x,1/2-y,-z
1/2+x,1/2-y,1/2+z
loop_
_atom_site_type_symbol
_atom_site_label
_atom_site_fract_x
_atom_site_fract_y
_atom_site_fract_z
Si Si1 0.668672 0.335023 0.367109
Si Si2 0.673217 0.445582 0.785279
Si Si3 0.011991 0.744265 0.520309
Si Si4 0.535049 0.643418 0.587776
Si Si5 0.992111 0.134796 0.409691
Si Si6 0.202767 0.577372 0.692978
Si Si7 0.345921 0.120815 0.492789
O O1 0.500000 0.308497 0.250000
O O2 0.809693 0.281684 0.429763
O O3 0.624239 0.357458 0.428711
O O4 0.736268 0.395901 0.357071
O O5 0.500000 0.461643 0.750000
O O6 0.642004 0.396818 0.705859
O O7 0.751171 0.505756 0.782838
O O8 0.812905 0.417235 0.903503
O O9 0.923882 0.784872 0.415121
O O10 0.045717 0.791229 0.604403
O O11 0.886893 0.690856 0.489505
O O12 0.477773 0.607930 0.486735
O O13 0.704717 0.613009 0.698550
O O14 0.183755 0.120941 0.471033
O O15 0.999730 0.588452 0.607708
#
# Coordination Sequence:
#
# PCOD8136883 Si02
#       7
#     8   8   8   8   8   8   8
#     4   9  17  32  55  78 105 139 180 217 260 312
#     4  10  20  36  55  76 104 142 185 222 260 315
#     4   9  19  34  54  80 110 139 174 216 265 319
#     4   9  19  33  53  82 104 140 171 214 272 312
#     4   9  21  35  53  81 109 141 171 215 274 316
#     4  10  20  35  56  77 103 140 182 222 261 312
#     4  10  20  35  56  79 106 138 179 219 261 316
#
# _framework density 18.150418999999999
#
# number of rings (size 3 to 8) (size 9 to 14) (size 15 to 20)
#    0.857    1.714    0.000    2.571    0.000    4.571 
#    0.000    1.429    0.000    3.429    0.000    0.000 
#    0.000    0.000    0.000    0.000    0.000    0.000 
#
# Total GULP energy -347019.863862 kJ/mol
# GULP energy per Si atom -12393.566566 kJ/mol
# Density = 1.810911 g / cm^3
# Si number density = 18.150419 Si / 1000 Ang^3
#
#
#
# Elastic Constant Matrix: (Units=GPa)
#
#
# Indices 1 2 3 4 5 6 
#
# 1 72.8061 20.8290 34.1859 0.0000 -9.9708 0.0000
# 2 20.8290 106.6134 41.8082 0.0000 5.6961 0.0000
# 3 34.1859 41.8082 89.8551 0.0001 -0.3937 0.0001
# 4 0.0000 0.0000 0.0001 33.1173 0.0000 1.4693
# 5 -9.9708 5.6961 -0.3937 0.0000 25.2438 0.0001
# 6 0.0000 0.0000 0.0001 1.4693 0.0001 6.4441
#
#
#
# Elastic Compliance Matrix: (Units=1/GPa)
#
#
# Indices 1 2 3 4 5 6 
#
# 1 0.018059 -0.001518 -0.006132 0.000000 0.007380 0.000000
# 2 -0.001518 0.011784 -0.004920 0.000000 -0.003335 0.000000
# 3 -0.006132 -0.004920 0.015747 0.000000 -0.001066 0.000000
# 4 0.000000 0.000000 0.000000 0.030504 0.000000 -0.006955
# 5 0.007380 -0.003335 -0.001066 0.000000 0.043265 0.000000
# 6 0.000000 0.000000 0.000000 -0.006955 0.000000 0.156766
#
#
# Mechanical properties :
#
#
# Convention : Reuss Voigt Hill
#
# Bulk Modulus (GPa) = 48.90045 51.43566 50.16805
# Shear Modulus (GPa) = 16.22947 24.45781 20.34364
#
# Velocity S-wave (km/s) = 2.99350 3.67482 3.35152
# Velocity P-wave (km/s) = 6.24086 6.81218 6.53277
#
# Compressibility (1/GPa) = 0.02044971
#
# Stress axis : x y z
#
# Youngs Moduli (GPa) = 55.37277 84.86263 63.50583
#
# Poissons Ratio (x) = 0.12881 0.38943
# Poissons Ratio (y) = 0.08405 0.31245
# Poissons Ratio (z) = 0.33956 0.41752
#
# Static dielectric constant tensor:
#      x y z
#    x 3.315170 0.000000 -0.016390 
#    y 0.000000 3.255950 0.000000 
#    z -0.016390 0.000000 3.309200 
# 
# 
# High freq. dielectric constant tensor:
#      x y z
#    x 1.698870 0.000000 -0.001620 
#    y 0.000000 1.697180 0.000000 
#    z -0.001620 0.000000 1.696110 
# 
# From -- ./inp_files/200819.got.cif
#   From: 2010.06.25/outbox.cif.g09.slc.cpg/sg15_101_cif.got.tgz:200819.got - 2010.06.28 07:06:18.
