data_PCOD8136055
_publ_section_title
;
Structure prediction by ZEFSAII (Michael W. Deem and Ramdas Pophale) SiO2 
 PCOD8136055
Probable space group: C 2/C
;
_chemical_formula_sum "Si O2"
_cell_formula_units_Z 56
_cell_length_a 8.402168
_cell_length_b 24.475836
_cell_length_c 11.981971
_cell_angle_alpha 90.000000
_cell_angle_beta 113.028236
_cell_angle_gamma 90.000000
_cell_volume 2267.735150
_symmetry_space_group_name_H-M "C 2/C"
_symmetry_group_IT_number 15
_symmetry_cell_setting 'monoclinic'
loop_
_space_group_symop_operation_xyz
x,y,z
-x,y,1/2-z
-x,-y,-z
x,-y,1/2+z
1/2+x,1/2+y,z
1/2-x,1/2+y,1/2-z
1/2-x,1/2-y,-z
1/2+x,1/2-y,1/2+z
loop_
_atom_site_type_symbol
_atom_site_label
_atom_site_fract_x
_atom_site_fract_y
_atom_site_fract_z
Si Si1 0.812561 0.159953 0.810628
Si Si2 0.713378 0.902773 0.092091
Si Si3 0.646817 0.923164 0.424047
Si Si4 0.612640 0.823810 0.889814
Si Si5 0.202017 0.972735 0.830642
Si Si6 0.500000 0.761225 0.250000
Si Si7 0.500000 0.982898 0.750000
Si Si8 0.961727 0.231284 0.475601
O O1 0.850370 0.136839 0.695162
O O2 0.664664 0.204514 0.759410
O O3 0.756593 0.105810 0.860035
O O4 0.973242 0.185453 0.919984
O O5 0.765986 0.965902 0.114197
O O6 0.530312 0.890969 0.102548
O O7 0.687642 0.881862 0.957221
O O8 0.598731 0.983477 0.371440
O O9 0.764043 0.928278 0.565103
O O10 0.500000 0.837454 0.750000
O O11 0.762078 0.781917 0.894982
O O12 0.509503 0.791086 0.959622
O O13 0.338299 0.953590 0.770400
O O14 0.000000 0.966631 0.750000
O O15 0.553213 0.727985 0.377881
#
# Coordination Sequence:
#
# PCOD8136055 Si02
#       8
#     8   8   8   8   8   4   4   8
#     4  12  21  41  74 100 136 190 244 290 359 447
#     4  11  22  45  72  99 143 195 232 291 376 443
#     4  11  21  45  71 101 138 186 243 292 357 448
#     4  11  25  46  63 105 142 181 240 302 364 438
#     4  11  26  45  74 108 141 188 248 301 369 448
#     4  12  21  46  68  98 140 190 230 294 366 435
#     4  10  19  44  70  96 142 186 232 296 362 429
#     4  11  26  40  72 102 140 187 242 300 360 427
#
# _framework density 24.694241999999999
#
# number of rings (size 3 to 8) (size 9 to 14) (size 15 to 20)
#    0.000    0.857    5.714    3.000    4.000    1.714 
#    9.000    0.000    0.000    0.000    0.000    0.000 
#    0.000    0.000    0.000    0.000    0.000    0.000 
#
# Total GULP energy -346927.182087 kJ/mol
# GULP energy per Si atom -12390.256503 kJ/mol
# Density = 2.463804 g / cm^3
# Si number density = 24.694242 Si / 1000 Ang^3
#
#
#
# Elastic Constant Matrix: (Units=GPa)
#
#
# Indices 1 2 3 4 5 6 
#
# 1 72.5624 9.3451 44.5247 0.0000 7.1645 0.0000
# 2 9.3451 30.8488 38.1233 0.0000 3.0966 0.0000
# 3 44.5247 38.1233 195.5197 0.0000 -0.2529 0.0000
# 4 0.0000 0.0000 0.0000 46.9813 0.0000 -4.5115
# 5 7.1645 3.0966 -0.2529 0.0000 40.8453 0.0000
# 6 0.0000 0.0000 0.0000 -4.5115 0.0000 10.5231
#
#
#
# Elastic Compliance Matrix: (Units=1/GPa)
#
#
# Indices 1 2 3 4 5 6 
#
# 1 0.016354 -0.000076 -0.003713 0.000000 -0.002886 0.000000
# 2 -0.000076 0.043154 -0.008401 0.000000 -0.003310 0.000000
# 3 -0.003713 -0.008401 0.007600 0.000000 0.001335 0.000000
# 4 0.000000 0.000000 0.000000 0.022199 0.000000 0.009517
# 5 -0.002886 -0.003310 0.001335 0.000000 0.025248 0.000000
# 6 0.000000 0.000000 0.000000 0.009517 0.000000 0.099109
#
#
# Mechanical properties :
#
#
# Convention : Reuss Voigt Hill
#
# Bulk Modulus (GPa) = 23.40403 53.65747 38.53075
# Shear Modulus (GPa) = 19.81860 33.46579 26.64220
#
# Velocity S-wave (km/s) = 2.83602 3.68531 3.28820
# Velocity P-wave (km/s) = 4.49690 6.31542 5.48209
#
# Compressibility (1/GPa) = 0.04272768
#
# Stress axis : x y z
#
# Youngs Moduli (GPa) = 61.14550 23.17285 131.57810
#
# Poissons Ratio (x) = 0.00175 0.48859
# Poissons Ratio (y) = 0.00463 1.10544
# Poissons Ratio (z) = 0.22705 0.19468
#
# Static dielectric constant tensor:
#      x y z
#    x 4.399400 0.000000 -0.043150 
#    y 0.000000 4.117720 0.000000 
#    z -0.043150 0.000000 4.750880 
# 
# 
# High freq. dielectric constant tensor:
#      x y z
#    x 1.970050 0.000000 -0.000660 
#    y 0.000000 1.962020 0.000000 
#    z -0.000660 0.000000 2.005630 
# 
# From -- ./inp_files/82723.got.cif
#   From: 2010.06.25/outbox.cif.g09.slc.cpg/sg15_42_cif.got.tgz:82723.got - 2010.06.28 07:06:18.
