data_PCOD8136294
_publ_section_title
;
Structure prediction by ZEFSAII (Michael W. Deem and Ramdas Pophale) SiO2 
 PCOD8136294
Probable space group: C 2/C
;
_chemical_formula_sum "Si O2"
_cell_formula_units_Z 56
_cell_length_a 15.289772
_cell_length_b 9.029883
_cell_length_c 23.428507
_cell_angle_alpha 90.000000
_cell_angle_beta 58.194045
_cell_angle_gamma 90.000000
_cell_volume 2748.931080
_symmetry_space_group_name_H-M "C 2/C"
_symmetry_group_IT_number 15
_symmetry_cell_setting 'monoclinic'
loop_
_space_group_symop_operation_xyz
x,y,z
-x,y,1/2-z
-x,-y,-z
x,-y,1/2+z
1/2+x,1/2+y,z
1/2-x,1/2+y,1/2-z
1/2-x,1/2-y,-z
1/2+x,1/2-y,1/2+z
loop_
_atom_site_type_symbol
_atom_site_label
_atom_site_fract_x
_atom_site_fract_y
_atom_site_fract_z
Si Si1 0.275110 0.939616 0.252772
Si Si2 0.766696 0.163278 0.133919
Si Si3 0.907092 0.581800 0.601715
Si Si4 0.881849 0.094175 0.789102
Si Si5 0.751294 0.897666 0.060169
Si Si6 0.882548 0.244873 0.304128
Si Si7 0.635525 0.886354 0.989324
O O1 0.364430 0.979580 0.176409
O O2 0.167658 0.902809 0.257627
O O3 0.309243 0.795545 0.277270
O O4 0.262146 0.078645 0.298346
O O5 0.874321 0.247168 0.105572
O O6 0.678911 0.286524 0.151349
O O7 0.781423 0.054985 0.075873
O O8 0.854221 0.482985 0.570886
O O9 0.029130 0.577312 0.557440
O O10 0.000000 0.143733 0.750000
O O11 0.870417 0.929932 0.818846
O O12 0.651976 0.827776 0.126309
O O13 0.849094 0.786790 0.032431
O O14 0.725608 0.927112 0.002857
O O15 0.000000 0.288657 0.250000
#
# Coordination Sequence:
#
# PCOD8136294 Si02
#       7
#     8   8   8   8   8   8   8
#     4  10  20  37  59  84 115 145 182 237 291 341
#     4  10  22  37  59  85 114 143 183 241 286 330
#     4  10  21  39  57  83 112 147 189 228 281 331
#     4  10  20  33  52  83 116 145 177 224 289 342
#     4  10  21  38  56  82 110 148 194 229 276 333
#     4  10  20  36  59  83 112 149 189 236 289 341
#     4  10  22  38  59  77 111 156 190 226 266 337
#
# _framework density 20.371554
#
# number of rings (size 3 to 8) (size 9 to 14) (size 15 to 20)
#    0.000    2.000    0.000    4.286    0.000    8.000 
#    0.000    2.857    0.000    3.429    0.000    0.000 
#    0.000    0.000    0.000    0.000    0.000    0.000 
#
# Total GULP energy -347146.788844 kJ/mol
# GULP energy per Si atom -12398.099602 kJ/mol
# Density = 2.032519 g / cm^3
# Si number density = 20.371554 Si / 1000 Ang^3
#
#
#
# Elastic Constant Matrix: (Units=GPa)
#
#
# Indices 1 2 3 4 5 6 
#
# 1 69.1876 20.4179 14.7776 0.0000 0.9798 0.0000
# 2 20.4179 96.2674 17.6851 0.0000 15.8687 -0.0001
# 3 14.7776 17.6851 71.9555 0.0000 12.1965 0.0000
# 4 0.0000 0.0000 0.0000 28.7191 0.0000 2.2023
# 5 0.9798 15.8687 12.1965 0.0000 28.9182 0.0000
# 6 0.0000 -0.0001 0.0000 2.2023 0.0000 23.9560
#
#
#
# Elastic Compliance Matrix: (Units=1/GPa)
#
#
# Indices 1 2 3 4 5 6 
#
# 1 0.016003 -0.003269 -0.002903 0.000000 0.002476 0.000000
# 2 -0.003269 0.012329 -0.001326 0.000000 -0.006096 0.000000
# 3 -0.002903 -0.001326 0.015810 0.000000 -0.005842 0.000000
# 4 0.000000 0.000000 0.000000 0.035067 0.000000 -0.003224
# 5 0.002476 -0.006096 -0.005842 0.000000 0.040305 0.000000
# 6 0.000000 0.000000 0.000000 -0.003224 0.000000 0.042040
#
#
# Mechanical properties :
#
#
# Convention : Reuss Voigt Hill
#
# Bulk Modulus (GPa) = 34.30861 38.13017 36.21939
# Shear Modulus (GPa) = 26.84343 28.62065 27.73204
#
# Velocity S-wave (km/s) = 3.63394 3.75231 3.69360
# Velocity P-wave (km/s) = 5.87242 6.12626 6.00069
#
# Compressibility (1/GPa) = 0.02914721
#
# Stress axis : x y z
#
# Youngs Moduli (GPa) = 62.48779 81.10653 63.25240
#
# Poissons Ratio (x) = 0.26514 0.18361
# Poissons Ratio (y) = 0.20428 0.08385
# Poissons Ratio (z) = 0.18139 0.10752
#
# Static dielectric constant tensor:
#      x y z
#    x 3.641200 0.000000 -0.001340 
#    y 0.000000 3.814730 0.000000 
#    z -0.001340 0.000000 3.682440 
# 
# 
# High freq. dielectric constant tensor:
#      x y z
#    x 1.787850 0.000000 0.002130 
#    y 0.000000 1.801410 0.000000 
#    z 0.002130 0.000000 1.793690 
# 
# From -- ./inp_files/273080.got.cif
#   From: 2010.06.25/outbox.cif.g09.slc.cpg/sg15_137_cif.got.tgz:273080.got - 2010.06.28 07:06:18.
