data_PCOD8136421
_publ_section_title
;
Structure prediction by ZEFSAII (Michael W. Deem and Ramdas Pophale) SiO2 
 PCOD8136421
Probable space group: C 2/C
;
_chemical_formula_sum "Si O2"
_cell_formula_units_Z 44
_cell_length_a 14.984590
_cell_length_b 33.185891
_cell_length_c 4.866291
_cell_angle_alpha 90.000000
_cell_angle_beta 63.228710
_cell_angle_gamma 90.000000
_cell_volume 2160.509914
_symmetry_space_group_name_H-M "C 2/C"
_symmetry_group_IT_number 15
_symmetry_cell_setting 'monoclinic'
loop_
_space_group_symop_operation_xyz
x,y,z
-x,y,1/2-z
-x,-y,-z
x,-y,1/2+z
1/2+x,1/2+y,z
1/2-x,1/2+y,1/2-z
1/2-x,1/2-y,-z
1/2+x,1/2-y,1/2+z
loop_
_atom_site_type_symbol
_atom_site_label
_atom_site_fract_x
_atom_site_fract_y
_atom_site_fract_z
Si Si1 0.114991 0.322751 0.560555
Si Si2 0.000000 0.912343 0.250000
Si Si3 0.174328 0.027743 0.615248
Si Si4 0.149385 0.132519 0.187588
Si Si5 0.235730 0.604333 0.978362
Si Si6 0.269600 0.206274 0.092312
O O1 0.133452 0.370888 0.578916
O O2 0.144370 0.314144 0.208474
O O3 0.000000 0.311760 0.750000
O O4 0.185148 0.295119 0.661713
O O5 0.918505 0.941680 0.222991
O O6 0.957973 0.883352 0.553807
O O7 0.272357 0.055617 0.548426
O O8 0.171624 0.010971 0.311320
O O9 0.233448 0.109440 0.247449
O O10 0.173436 0.122608 0.836021
O O11 0.165855 0.180645 0.216987
O O12 0.250000 0.250000 0.000000
#
# Coordination Sequence:
#
# PCOD8136421 Si02
#       6
#     8   4   8   8   8   8
#     4  10  20  37  63  83 105 143 193 228 270 338
#     4  10  20  34  50  76 112 144 194 216 260 340
#     4  11  21  32  50  76 108 144 181 227 275 321
#     4   9  19  33  52  73 104 149 180 220 266 329
#     4   9  19  35  52  75 105 140 182 223 273 324
#     4  10  20  37  58  84 116 143 175 234 293 330
#
# _framework density 20.365562000000001
#
# number of rings (size 3 to 8) (size 9 to 14) (size 15 to 20)
#    0.000    2.182    0.000    3.818    0.000    5.818 
#    1.636    0.000   16.000    1.091    0.000    0.000 
#    0.000    0.000    0.000    0.000    0.000    0.000 
#
# Total GULP energy -272559.057167 kJ/mol
# GULP energy per Si atom -12389.048053 kJ/mol
# Density = 2.031921 g / cm^3
# Si number density = 20.365562 Si / 1000 Ang^3
#
#
#
# Elastic Constant Matrix: (Units=GPa)
#
#
# Indices 1 2 3 4 5 6 
#
# 1 38.4304 30.2514 10.0612 0.0000 0.8429 0.0000
# 2 30.2514 131.1533 13.6072 0.0000 -7.4528 0.0000
# 3 10.0612 13.6072 61.0135 0.0000 5.1752 0.0000
# 4 0.0000 0.0000 0.0000 34.3123 0.0000 0.7143
# 5 0.8429 -7.4528 5.1752 0.0000 26.7003 0.0000
# 6 0.0000 0.0000 0.0000 0.7143 0.0000 25.4205
#
#
#
# Elastic Compliance Matrix: (Units=1/GPa)
#
#
# Indices 1 2 3 4 5 6 
#
# 1 0.032774 -0.007325 -0.003568 0.000000 -0.002388 0.000000
# 2 -0.007325 0.009618 -0.001204 0.000000 0.003149 0.000000
# 3 -0.003568 -0.001204 0.017554 0.000000 -0.003626 0.000000
# 4 0.000000 0.000000 0.000000 0.029161 0.000000 -0.000819
# 5 -0.002388 0.003149 -0.003626 0.000000 0.039110 0.000000
# 6 0.000000 0.000000 0.000000 -0.000819 0.000000 0.039361
#
#
# Mechanical properties :
#
#
# Convention : Reuss Voigt Hill
#
# Bulk Modulus (GPa) = 27.97112 37.60407 32.78760
# Shear Modulus (GPa) = 24.54706 29.06513 26.80609
#
# Velocity S-wave (km/s) = 3.47554 3.78189 3.63195
# Velocity P-wave (km/s) = 5.46536 6.12983 5.80711
#
# Compressibility (1/GPa) = 0.03575116
#
# Stress axis : x y z
#
# Youngs Moduli (GPa) = 30.51239 103.97059 56.96589
#
# Poissons Ratio (x) = 0.76157 0.20327
# Poissons Ratio (y) = 0.22350 0.06860
# Poissons Ratio (z) = 0.10888 0.12521
#
# Static dielectric constant tensor:
#      x y z
#    x 3.453530 0.000000 0.156150 
#    y 0.000000 3.929120 0.000000 
#    z 0.156150 0.000000 3.742510 
# 
# 
# High freq. dielectric constant tensor:
#      x y z
#    x 1.763200 0.000000 0.035310 
#    y 0.000000 1.797680 0.000000 
#    z 0.035310 0.000000 1.797040 
# 
# From -- ./inp_files/11911.got.cif
#   From: 2010.06.25/outbox.cif.g09.slc.cpg/sg15_6_cif.got.tgz:11911.got - 2010.06.28 07:06:18.
