data_PCOD8136199
_publ_section_title
;
Structure prediction by ZEFSAII (Michael W. Deem and Ramdas Pophale) SiO2 
 PCOD8136199
Probable space group: C 2/C
;
_chemical_formula_sum "Si O2"
_cell_formula_units_Z 56
_cell_length_a 18.224658
_cell_length_b 11.353544
_cell_length_c 19.635859
_cell_angle_alpha 90.000000
_cell_angle_beta 43.869530
_cell_angle_gamma 90.000000
_cell_volume 2815.694890
_symmetry_space_group_name_H-M "C 2/C"
_symmetry_group_IT_number 15
_symmetry_cell_setting 'monoclinic'
loop_
_space_group_symop_operation_xyz
x,y,z
-x,y,1/2-z
-x,-y,-z
x,-y,1/2+z
1/2+x,1/2+y,z
1/2-x,1/2+y,1/2-z
1/2-x,1/2-y,-z
1/2+x,1/2-y,1/2+z
loop_
_atom_site_type_symbol
_atom_site_label
_atom_site_fract_x
_atom_site_fract_y
_atom_site_fract_z
Si Si1 0.922230 0.550702 0.109273
Si Si2 0.240622 0.874798 0.227159
Si Si3 0.607452 0.499941 0.719006
Si Si4 0.984914 0.583268 0.838931
Si Si5 0.418978 0.697394 0.151247
Si Si6 0.607009 0.712526 0.928112
Si Si7 0.775341 0.650384 0.035785
O O1 0.807692 0.493989 0.172761
O O2 0.927102 0.691136 0.105149
O O3 0.952880 0.519818 0.165439
O O4 0.000000 0.500000 0.000000
O O5 0.314653 0.756614 0.184750
O O6 0.169939 0.887246 0.343787
O O7 0.163991 0.880353 0.210883
O O8 0.500000 0.531546 0.750000
O O9 0.598321 0.418761 0.792824
O O10 0.675785 0.432265 0.616654
O O11 0.000000 0.566144 0.750000
O O12 0.029715 0.709138 0.831717
O O13 0.864008 0.568521 0.942600
O O14 0.504786 0.662674 0.035675
O O15 0.687642 0.784544 0.921166
O O16 0.750000 0.750000 0.000000
#
# Coordination Sequence:
#
# PCOD8136199 Si02
#       7
#     8   8   8   8   8   8   8
#     4  11  18  38  61  86 118 162 211 248 301 367
#     4  11  21  36  62  87 120 163 204 248 309 369
#     4  12  23  39  58  92 126 162 200 257 320 371
#     4  10  20  32  57  91 118 150 201 257 303 359
#     4  10  20  37  62  87 125 157 209 256 302 368
#     4  11  21  37  61  89 114 163 208 253 298 371
#     4  11  20  33  58  86 123 152 192 252 315 356
#
# _framework density 19.888518000000001
#
# number of rings (size 3 to 8) (size 9 to 14) (size 15 to 20)
#    0.000    1.143    7.143    3.000    2.000    0.571 
#    0.000    0.714    0.000    0.857    0.000    0.000 
#    0.000    0.000    0.000    0.000    0.000    0.000 
#
# Total GULP energy -346963.998125 kJ/mol
# GULP energy per Si atom -12391.571362 kJ/mol
# Density = 1.984325 g / cm^3
# Si number density = 19.888518 Si / 1000 Ang^3
#
#
#
# Elastic Constant Matrix: (Units=GPa)
#
#
# Indices 1 2 3 4 5 6 
#
# 1 125.8058 16.7916 53.0957 0.0000 -4.2456 0.0000
# 2 16.7916 31.6280 20.8413 0.0000 2.2309 0.0000
# 3 53.0957 20.8413 132.2432 0.0000 0.9681 0.0000
# 4 0.0000 0.0000 0.0000 -39.9192 0.0000 -53.0564
# 5 -4.2456 2.2309 0.9681 0.0000 31.6458 0.0000
# 6 0.0000 0.0000 0.0000 -53.0564 0.0000 -18.7395
#
#
#
# Elastic Compliance Matrix: (Units=1/GPa)
#
#
# Indices 1 2 3 4 5 6 
#
# 1 0.009890 -0.003060 -0.003501 0.000000 0.001650 0.000000
# 2 -0.003060 0.036399 -0.004487 0.000000 -0.002839 0.000000
# 3 -0.003501 -0.004487 0.009678 0.000000 -0.000449 0.000000
# 4 0.000000 0.000000 0.000000 0.009066 0.000000 -0.025669
# 5 0.001650 -0.002839 -0.000449 0.000000 0.032035 0.000000
# 6 0.000000 0.000000 0.000000 -0.025669 0.000000 0.019313
#
#
# Mechanical properties :
#
#
# Convention : Reuss Voigt Hill
#
# Bulk Modulus (GPa) = 29.52355 52.34825 40.93590
# Shear Modulus (GPa) = 33.38477 7.86064 20.62271
#
# Velocity S-wave (km/s) = 4.10151 1.99021 3.22361
# Velocity P-wave (km/s) = 6.10791 5.62665 5.87222
#
# Compressibility (1/GPa) = 0.03387127
#
# Stress axis : x y z
#
# Youngs Moduli (GPa) = 101.10816 27.47308 103.32934
#
# Poissons Ratio (x) = 0.08408 0.36173
# Poissons Ratio (y) = 0.30944 0.46363
# Poissons Ratio (z) = 0.35396 0.12327
#
# Static dielectric constant tensor:
#      x y z
#    x 3.219400 0.000000 -0.215040 
#    y 0.000000 3.274170 0.000000 
#    z -0.215040 0.000000 3.936540 
# 
# 
# High freq. dielectric constant tensor:
#      x y z
#    x 1.775710 0.000000 -0.013340 
#    y 0.000000 1.735530 0.000000 
#    z -0.013340 0.000000 1.794020 
# 
# From -- ./inp_files/210560.got.cif
#   From: 2010.06.25/outbox.cif.g09.slc.cpg/sg15_106_cif.got.tgz:210560.got - 2010.06.28 07:06:18.
