data_PCOD8136200
_publ_section_title
;
Structure prediction by ZEFSAII (Michael W. Deem and Ramdas Pophale) SiO2 
 PCOD8136200
Probable space group: C 2/C
;
_chemical_formula_sum "Si O2"
_cell_formula_units_Z 60
_cell_length_a 26.777488
_cell_length_b 23.001777
_cell_length_c 9.518559
_cell_angle_alpha 90.000000
_cell_angle_beta 145.669936
_cell_angle_gamma 90.000000
_cell_volume 3306.361212
_symmetry_space_group_name_H-M "C 2/C"
_symmetry_group_IT_number 15
_symmetry_cell_setting 'monoclinic'
loop_
_space_group_symop_operation_xyz
x,y,z
-x,y,1/2-z
-x,-y,-z
x,-y,1/2+z
1/2+x,1/2+y,z
1/2-x,1/2+y,1/2-z
1/2-x,1/2-y,-z
1/2+x,1/2-y,1/2+z
loop_
_atom_site_type_symbol
_atom_site_label
_atom_site_fract_x
_atom_site_fract_y
_atom_site_fract_z
Si Si1 0.103570 0.748917 0.505868
Si Si2 0.354866 0.208807 0.592655
Si Si3 0.379537 0.634333 0.939174
Si Si4 0.239190 0.283696 0.120572
Si Si5 0.698486 0.370100 0.722244
Si Si6 0.099387 0.071604 0.228094
Si Si7 0.000000 0.761004 0.750000
Si Si8 0.404344 0.440246 0.237604
O O1 0.136579 0.716221 0.721415
O O2 0.139107 0.717038 0.446047
O O3 0.136044 0.814567 0.591216
O O4 0.000000 0.747723 0.250000
O O5 0.293161 0.256753 0.377118
O O6 0.302943 0.146968 0.450727
O O7 0.451533 0.216462 0.745402
O O8 0.275086 0.650448 0.685433
O O9 0.400651 0.579844 0.890750
O O10 0.408608 0.617111 0.163186
O O11 0.430020 0.694795 0.012290
O O12 0.250000 0.250000 0.000000
O O13 0.680021 0.410193 0.814597
O O14 0.668815 0.404236 0.515191
O O15 0.120758 0.007588 0.335763
O O16 0.006255 0.070537 0.925471
#
# Coordination Sequence:
#
# PCOD8136200 Si02
#       8
#     8   8   8   8   8   8   4   8
#     4  11  22  34  54  80 110 149 186 219 274 336
#     4  10  22  36  52  77 111 144 188 225 275 333
#     4  11  19  34  54  70 110 147 174 216 278 308
#     4  10  21  34  52  77 109 144 185 222 267 339
#     4  11  21  35  53  75 112 146 176 222 271 320
#     4  11  21  35  52  78 112 144 185 220 260 319
#     4  10  20  32  58  74 106 146 182 222 280 324
#     4  11  22  33  52  82 108 144 188 220 255 323
#
# _framework density 18.146839
#
# number of rings (size 3 to 8) (size 9 to 14) (size 15 to 20)
#    0.000    1.333    1.333    7.600    5.600    2.133 
#    0.000    0.000    0.000    0.000    0.000    0.933 
#    4.000    0.000    0.000    0.000    0.000    0.000 
#
# Total GULP energy -371779.950988 kJ/mol
# GULP energy per Si atom -12392.665033 kJ/mol
# Density = 1.810554 g / cm^3
# Si number density = 18.146839 Si / 1000 Ang^3
#
#
#
# Elastic Constant Matrix: (Units=GPa)
#
#
# Indices 1 2 3 4 5 6 
#
# 1 117.1628 34.3224 32.1336 0.0000 3.8281 0.0000
# 2 34.3224 77.5210 29.0840 0.0000 9.3987 0.0000
# 3 32.1336 29.0840 73.2668 0.0000 -6.5835 0.0000
# 4 0.0000 0.0000 0.0000 27.5518 0.0000 2.8120
# 5 3.8281 9.3987 -6.5835 0.0000 27.2965 0.0000
# 6 0.0000 0.0000 0.0000 2.8120 0.0000 29.0531
#
#
#
# Elastic Compliance Matrix: (Units=1/GPa)
#
#
# Indices 1 2 3 4 5 6 
#
# 1 0.010449 -0.003199 -0.003420 0.000000 -0.001189 0.000000
# 2 -0.003199 0.017489 -0.006174 0.000000 -0.007062 0.000000
# 3 -0.003420 -0.006174 0.018228 0.000000 0.007002 0.000000
# 4 0.000000 0.000000 0.000000 0.036657 0.000000 -0.003548
# 5 -0.001189 -0.007062 0.007002 0.000000 0.040922 0.000000
# 6 0.000000 0.000000 0.000000 -0.003548 0.000000 0.034763
#
#
# Mechanical properties :
#
#
# Convention : Reuss Voigt Hill
#
# Bulk Modulus (GPa) = 48.58867 51.00338 49.79603
# Shear Modulus (GPa) = 26.18435 28.27433 27.22934
#
# Velocity S-wave (km/s) = 3.80269 3.95154 3.87783
# Velocity P-wave (km/s) = 6.79073 6.99904 6.89567
#
# Compressibility (1/GPa) = 0.02058093
#
# Stress axis : x y z
#
# Youngs Moduli (GPa) = 95.70251 57.17999 54.85947
#
# Poissons Ratio (x) = 0.18293 0.18760
# Poissons Ratio (y) = 0.30618 0.33869
# Poissons Ratio (z) = 0.32726 0.35301
#
# Static dielectric constant tensor:
#      x y z
#    x 3.837540 0.000000 0.190260 
#    y 0.000000 3.263480 0.000000 
#    z 0.190260 0.000000 3.341750 
# 
# 
# High freq. dielectric constant tensor:
#      x y z
#    x 1.713430 0.000000 -0.011890 
#    y 0.000000 1.672180 0.000000 
#    z -0.011890 0.000000 1.692450 
# 
# From -- ./inp_files/70959.got.cif
#   From: 2010.06.25/outbox.cif.g09.slc.cpg/sg15_36_cif.got.tgz:70959.got - 2010.06.28 07:06:18.
