data_PCOD8136285
_publ_section_title
;
Structure prediction by ZEFSAII (Michael W. Deem and Ramdas Pophale) SiO2 
 PCOD8136285
Probable space group: C 2/C
;
_chemical_formula_sum "Si O2"
_cell_formula_units_Z 48
_cell_length_a 12.637410
_cell_length_b 21.545625
_cell_length_c 14.311955
_cell_angle_alpha 90.000000
_cell_angle_beta 38.306776
_cell_angle_gamma 90.000000
_cell_volume 2415.561173
_symmetry_space_group_name_H-M "C 2/C"
_symmetry_group_IT_number 15
_symmetry_cell_setting 'monoclinic'
loop_
_space_group_symop_operation_xyz
x,y,z
-x,y,1/2-z
-x,-y,-z
x,-y,1/2+z
1/2+x,1/2+y,z
1/2-x,1/2+y,1/2-z
1/2-x,1/2-y,-z
1/2+x,1/2-y,1/2+z
loop_
_atom_site_type_symbol
_atom_site_label
_atom_site_fract_x
_atom_site_fract_y
_atom_site_fract_z
Si Si1 0.814985 0.121463 0.413285
Si Si2 0.565367 0.330251 0.477858
Si Si3 0.099717 0.055606 0.476405
Si Si4 0.856449 0.500517 0.430323
Si Si5 0.278475 0.793684 0.685977
Si Si6 0.557479 0.892125 0.816982
O O1 0.822590 0.140366 0.516273
O O2 0.746310 0.179158 0.400890
O O3 0.000000 0.099663 0.250000
O O4 0.683153 0.064090 0.491289
O O5 0.524944 0.384297 0.429540
O O6 0.677269 0.278599 0.349037
O O7 0.394671 0.298380 0.635362
O O8 0.177020 0.029246 0.518547
O O9 0.253287 0.079043 0.304126
O O10 0.000000 0.000000 0.500000
O O11 0.000000 0.490846 0.250000
O O12 0.930980 0.554648 0.446847
O O13 0.437251 0.829303 0.626249
O O14 0.500000 0.876864 0.750000
#
# Coordination Sequence:
#
# PCOD8136285 Si02
#       6
#     8   8   8   8   8   8
#     4  10  20  33  52  77 113 140 169 220 270 313
#     4  10  20  35  54  78 107 143 178 214 262 319
#     4   9  15  31  56  75  98 135 181 212 252 310
#     4   9  18  33  54  81 104 139 179 216 262 316
#     4  10  21  36  51  76 107 145 174 215 268 315
#     4   8  18  35  54  78 107 138 174 222 271 310
#
# _framework density 19.871157
#
# number of rings (size 3 to 8) (size 9 to 14) (size 15 to 20)
#    0.000    3.000    1.667    0.500    0.000    2.000 
#    0.000    9.167    0.000    0.000    0.000    0.000 
#    0.000    0.000    0.000    0.000    0.000    0.000 
#
# Total GULP energy -297358.460703 kJ/mol
# GULP energy per Si atom -12389.935863 kJ/mol
# Density = 1.982593 g / cm^3
# Si number density = 19.871157 Si / 1000 Ang^3
#
#
#
# Elastic Constant Matrix: (Units=GPa)
#
#
# Indices 1 2 3 4 5 6 
#
# 1 59.8064 28.7741 18.5629 -0.0059 -21.7965 0.0000
# 2 28.7741 114.7292 23.5751 -0.0108 -10.1545 0.0015
# 3 18.5629 23.5751 24.1475 -0.0163 -6.1985 0.0026
# 4 -0.0059 -0.0108 -0.0163 33.5106 0.0046 -10.3151
# 5 -21.7965 -10.1545 -6.1985 0.0046 18.6122 0.0009
# 6 0.0000 0.0015 0.0026 -10.3151 0.0009 23.7582
#
#
#
# Elastic Compliance Matrix: (Units=1/GPa)
#
#
# Indices 1 2 3 4 5 6 
#
# 1 0.035686 -0.002575 -0.015912 -0.000008 0.035087 -0.000003
# 2 -0.002575 0.011208 -0.008931 -0.000001 0.000125 0.000000
# 3 -0.015912 -0.008931 0.061595 0.000026 -0.002994 0.000005
# 4 -0.000008 -0.000001 0.000026 0.034445 -0.000010 0.014955
# 5 0.035087 0.000125 -0.002994 -0.000010 0.093889 -0.000008
# 6 -0.000003 0.000000 0.000005 0.014955 -0.000008 0.048584
#
#
# Mechanical properties :
#
#
# Convention : Reuss Voigt Hill
#
# Bulk Modulus (GPa) = 18.63839 37.83416 28.23627
# Shear Modulus (GPa) = 13.96151 23.69428 18.82789
#
# Velocity S-wave (km/s) = 2.65354 3.45685 3.08149
# Velocity P-wave (km/s) = 4.33455 5.91728 5.18664
#
# Compressibility (1/GPa) = 0.05365271
#
# Stress axis : x y z
#
# Youngs Moduli (GPa) = 28.02232 89.22029 16.23502
#
# Poissons Ratio (x) = 0.22972 0.25834
# Poissons Ratio (y) = 0.07215 0.14500
# Poissons Ratio (z) = 0.44591 0.79683
#
# Static dielectric constant tensor:
#      x y z
#    x 3.851640 0.000000 -0.334170 
#    y 0.000000 3.756930 0.000010 
#    z -0.334170 0.000010 3.281110 
# 
# 
# High freq. dielectric constant tensor:
#      x y z
#    x 1.768090 0.000000 -0.031570 
#    y 0.000000 1.785970 0.000000 
#    z -0.031570 0.000000 1.736000 
# 
# From -- ./inp_files/206691.got.cif
#   From: 2010.06.25/outbox.cif.g09.slc.cpg/sg15_104_cif.got.tgz:206691.got - 2010.06.28 07:06:18.
