data_PCOD8136990
_publ_section_title
;
Structure prediction by ZEFSAII (Michael W. Deem and Ramdas Pophale) SiO2 
 PCOD8136990
Probable space group: C 2/C
;
_chemical_formula_sum "Si O2"
_cell_formula_units_Z 44
_cell_length_a 23.055077
_cell_length_b 11.274563
_cell_length_c 8.451572
_cell_angle_alpha 90.000000
_cell_angle_beta 78.673187
_cell_angle_gamma 90.000000
_cell_volume 2154.078424
_symmetry_space_group_name_H-M "C 2/C"
_symmetry_group_IT_number 15
_symmetry_cell_setting 'monoclinic'
loop_
_space_group_symop_operation_xyz
x,y,z
-x,y,1/2-z
-x,-y,-z
x,-y,1/2+z
1/2+x,1/2+y,z
1/2-x,1/2+y,1/2-z
1/2-x,1/2-y,-z
1/2+x,1/2-y,1/2+z
loop_
_atom_site_type_symbol
_atom_site_label
_atom_site_fract_x
_atom_site_fract_y
_atom_site_fract_z
Si Si1 0.168112 0.383143 0.241408
Si Si2 0.743863 0.039989 0.984477
Si Si3 0.000000 0.998735 0.250000
Si Si4 0.560704 0.640287 0.479797
Si Si5 0.463184 0.101260 0.613914
Si Si6 0.316398 0.378660 0.725810
O O1 0.206583 0.384937 0.380414
O O2 0.102792 0.440888 0.299343
O O3 0.169420 0.244965 0.194720
O O4 0.198330 0.445263 0.078139
O O5 0.798369 0.973155 0.869502
O O6 0.766319 0.124074 0.114807
O O7 0.948390 0.909645 0.337810
O O8 0.986402 0.084803 0.113300
O O9 0.549897 0.782453 0.486349
O O10 0.623409 0.588336 0.393625
O O11 0.500000 0.135675 0.750000
O O12 0.500000 0.000000 0.500000
#
# Coordination Sequence:
#
# PCOD8136990 Si02
#       6
#     8   8   4   8   8   8
#     4  10  21  37  57  81 113 147 187 231 276 332
#     4  10  20  36  57  84 111 148 181 232 279 333
#     4  10  20  38  58  82 118 144 196 232 290 334
#     4  10  21  37  59  85 114 153 186 241 281 342
#     4  11  23  39  58  83 117 153 196 235 282 340
#     4  10  20  35  58  82 114 143 186 226 283 331
#
# _framework density 20.426369000000001
#
# number of rings (size 3 to 8) (size 9 to 14) (size 15 to 20)
#    0.000    1.818    0.909    3.273    1.273    0.000 
#    0.000    0.000   12.000    0.000    0.000    0.000 
#    0.000    0.000    0.000    0.000    0.000    0.000 
#
# Total GULP energy -272614.897612 kJ/mol
# GULP energy per Si atom -12391.586255 kJ/mol
# Density = 2.037988 g / cm^3
# Si number density = 20.426369 Si / 1000 Ang^3
#
#
#
# Elastic Constant Matrix: (Units=GPa)
#
#
# Indices 1 2 3 4 5 6 
#
# 1 88.8504 26.5314 13.4734 0.0000 -29.2552 0.0000
# 2 26.5314 66.3887 24.7298 0.0000 -19.2972 0.0000
# 3 13.4734 24.7298 64.1090 0.0000 -24.2749 0.0000
# 4 0.0000 0.0000 0.0000 9.4973 0.0000 -4.7803
# 5 -29.2552 -19.2972 -24.2749 0.0000 43.6502 0.0000
# 6 0.0000 0.0000 0.0000 -4.7803 0.0000 25.1537
#
#
#
# Elastic Compliance Matrix: (Units=1/GPa)
#
#
# Indices 1 2 3 4 5 6 
#
# 1 0.015323 -0.004079 0.001975 0.000000 0.009565 0.000000
# 2 -0.004079 0.019609 -0.005649 0.000000 0.002794 0.000000
# 3 0.001975 -0.005649 0.021431 0.000000 0.010744 0.000000
# 4 0.000000 0.000000 0.000000 0.116430 0.000000 0.022127
# 5 0.009565 0.002794 0.010744 0.000000 0.036530 0.000000
# 6 0.000000 0.000000 0.000000 0.022127 0.000000 0.043961
#
#
# Mechanical properties :
#
#
# Convention : Reuss Voigt Hill
#
# Bulk Modulus (GPa) = 24.47615 38.75749 31.61682
# Shear Modulus (GPa) = 17.70482 25.96780 21.83631
#
# Velocity S-wave (km/s) = 2.94728 3.56938 3.27314
# Velocity P-wave (km/s) = 4.85701 6.00023 5.45863
#
# Compressibility (1/GPa) = 0.04085610
#
# Stress axis : x y z
#
# Youngs Moduli (GPa) = 65.26271 50.99636 46.66165
#
# Poissons Ratio (x) = 0.20801 -0.09215
# Poissons Ratio (y) = 0.26621 0.26360
# Poissons Ratio (z) = -0.12888 0.28809
#
# Static dielectric constant tensor:
#      x y z
#    x 3.768210 0.000000 -0.194600 
#    y 0.000000 3.550260 0.000000 
#    z -0.194600 0.000000 3.774670 
# 
# 
# High freq. dielectric constant tensor:
#      x y z
#    x 1.801970 0.000000 -0.010800 
#    y 0.000000 1.793750 0.000000 
#    z -0.010800 0.000000 1.799770 
# 
# From -- ./inp_files/54356.got.cif
#   From: 2010.06.25/outbox.cif.g09.slc.cpg/sg15_28_cif.got.tgz:54356.got - 2010.06.28 07:06:18.
