data_PCOD8136985
_publ_section_title
;
Structure prediction by ZEFSAII (Michael W. Deem and Ramdas Pophale) SiO2 
 PCOD8136985
Probable space group: C 2/C
;
_chemical_formula_sum "Si O2"
_cell_formula_units_Z 56
_cell_length_a 16.270415
_cell_length_b 16.938039
_cell_length_c 24.934502
_cell_angle_alpha 90.000000
_cell_angle_beta 24.890788
_cell_angle_gamma 90.000000
_cell_volume 2892.218088
_symmetry_space_group_name_H-M "C 2/C"
_symmetry_group_IT_number 15
_symmetry_cell_setting 'monoclinic'
loop_
_space_group_symop_operation_xyz
x,y,z
-x,y,1/2-z
-x,-y,-z
x,-y,1/2+z
1/2+x,1/2+y,z
1/2-x,1/2+y,1/2-z
1/2-x,1/2-y,-z
1/2+x,1/2-y,1/2+z
loop_
_atom_site_type_symbol
_atom_site_label
_atom_site_fract_x
_atom_site_fract_y
_atom_site_fract_z
Si Si1 0.227624 0.488252 0.371486
Si Si2 0.335695 0.671779 0.131478
Si Si3 0.454749 0.088522 0.335937
Si Si4 0.030213 0.890944 0.058119
Si Si5 0.858692 0.454661 0.468259
Si Si6 0.684262 0.846817 0.328885
Si Si7 0.979743 0.059829 0.133554
O O1 0.272831 0.502581 0.407442
O O2 0.271423 0.399249 0.326130
O O3 0.342981 0.550187 0.266423
O O4 0.000000 0.500000 0.500000
O O5 0.382649 0.764341 0.106517
O O6 0.403911 0.634937 0.146733
O O7 0.104052 0.659133 0.260455
O O8 0.455774 0.630937 0.012540
O O9 0.500000 0.052981 0.250000
O O10 0.235505 0.123585 0.467371
O O11 0.487531 0.019888 0.360626
O O12 0.861685 0.835000 0.182111
O O13 0.970758 0.982576 0.100827
O O14 0.701124 0.419627 0.520174
O O15 0.999769 0.387638 0.408417
#
# Coordination Sequence:
#
# PCOD8136985 Si02
#       7
#     8   8   8   8   8   8   8
#     4   9  18  35  55  77 106 143 185 220 257 314
#     4  11  21  35  56  82 113 140 173 227 283 325
#     4   9  19  36  59  80 102 141 186 226 267 319
#     4   9  20  38  55  78 106 142 186 222 264 322
#     4  10  20  36  57  79 109 145 186 222 261 323
#     4  10  22  35  54  83 112 142 176 223 277 325
#     4  10  20  35  58  81 106 146 186 221 262 319
#
# _framework density 19.362302
#
# number of rings (size 3 to 8) (size 9 to 14) (size 15 to 20)
#    0.000    2.286    0.000    3.429    0.000    6.857 
#    0.000   11.429    0.000    1.714    0.000    0.000 
#    0.000    0.000    0.000    0.000    0.000    0.000 
#
# Total GULP energy -347161.450282 kJ/mol
# GULP energy per Si atom -12398.623224 kJ/mol
# Density = 1.931823 g / cm^3
# Si number density = 19.362302 Si / 1000 Ang^3
#
#
#
# Elastic Constant Matrix: (Units=GPa)
#
#
# Indices 1 2 3 4 5 6 
#
# 1 90.8536 45.0813 33.8702 -0.0028 12.1415 0.0054
# 2 45.0813 88.4196 31.4545 0.0225 10.9590 0.0080
# 3 33.8702 31.4545 105.1367 0.0407 8.7787 0.0029
# 4 -0.0028 0.0225 0.0407 17.0823 0.0062 -1.0879
# 5 12.1415 10.9590 8.7787 0.0062 30.5862 -0.0024
# 6 0.0054 0.0080 0.0029 -1.0879 -0.0024 19.4689
#
#
#
# Elastic Compliance Matrix: (Units=1/GPa)
#
#
# Indices 1 2 3 4 5 6 
#
# 1 0.015775 -0.006655 -0.002835 0.000019 -0.003064 -0.000001
# 2 -0.006655 0.015848 -0.002401 -0.000016 -0.002347 -0.000005
# 3 -0.002835 -0.002401 0.011247 -0.000024 -0.001242 -0.000001
# 4 0.000019 -0.000016 -0.000024 0.058749 -0.000007 0.003283
# 5 -0.003064 -0.002347 -0.001242 -0.000007 0.035108 0.000006
# 6 -0.000001 -0.000005 -0.000001 0.003283 0.000006 0.051547
#
#
# Mechanical properties :
#
#
# Convention : Reuss Voigt Hill
#
# Bulk Modulus (GPa) = 52.39119 56.13577 54.26348
# Shear Modulus (GPa) = 22.89163 25.02775 23.95969
#
# Velocity S-wave (km/s) = 3.44216 3.59918 3.52154
# Velocity P-wave (km/s) = 6.55096 6.80642 6.67991
#
# Compressibility (1/GPa) = 0.01908718
#
# Stress axis : x y z
#
# Youngs Moduli (GPa) = 63.39055 63.09978 88.91243
#
# Poissons Ratio (x) = 0.41991 0.25209
# Poissons Ratio (y) = 0.42185 0.21352
# Poissons Ratio (z) = 0.17973 0.15153
#
# Static dielectric constant tensor:
#      x y z
#    x 3.798110 -0.000330 0.269100 
#    y -0.000330 3.036800 -0.000480 
#    z 0.269100 -0.000480 3.874530 
# 
# 
# High freq. dielectric constant tensor:
#      x y z
#    x 1.758470 0.000000 0.000790 
#    y 0.000000 1.714920 0.000010 
#    z 0.000790 0.000010 1.770470 
# 
# From -- ./inp_files/98392.got.cif
#   From: 2010.06.25/outbox.cif.g09.slc.cpg/sg15_50_cif.got.tgz:98392.got - 2010.06.28 07:06:18.
