data_PCOD8136354
_publ_section_title
;
Structure prediction by ZEFSAII (Michael W. Deem and Ramdas Pophale) SiO2 
 PCOD8136354
Probable space group: C 2/C
;
_chemical_formula_sum "Si O2"
_cell_formula_units_Z 56
_cell_length_a 25.718353
_cell_length_b 13.743234
_cell_length_c 20.956088
_cell_angle_alpha 90.000000
_cell_angle_beta 158.175465
_cell_angle_gamma 90.000000
_cell_volume 2753.666042
_symmetry_space_group_name_H-M "C 2/C"
_symmetry_group_IT_number 15
_symmetry_cell_setting 'monoclinic'
loop_
_space_group_symop_operation_xyz
x,y,z
-x,y,1/2-z
-x,-y,-z
x,-y,1/2+z
1/2+x,1/2+y,z
1/2-x,1/2+y,1/2-z
1/2-x,1/2-y,-z
1/2+x,1/2-y,1/2+z
loop_
_atom_site_type_symbol
_atom_site_label
_atom_site_fract_x
_atom_site_fract_y
_atom_site_fract_z
Si Si1 0.721982 0.280505 0.223044
Si Si2 0.377530 0.065704 0.833801
Si Si3 0.862371 0.925934 0.272375
Si Si4 0.889074 0.979982 0.676404
Si Si5 0.957742 0.799793 0.599991
Si Si6 0.189569 0.353840 0.368152
Si Si7 0.325601 0.430188 0.837831
O O1 0.860240 0.327838 0.347016
O O2 0.712619 0.331180 0.282258
O O3 0.732445 0.165204 0.239831
O O4 0.581854 0.292145 0.019858
O O5 0.393283 0.078233 0.776394
O O6 0.230347 0.012378 0.678073
O O7 0.500000 0.000000 0.000000
O O8 0.022169 0.902966 0.467073
O O9 0.836322 0.936559 0.166189
O O10 0.815411 0.025647 0.254569
O O11 0.751074 0.926521 0.491499
O O12 0.000000 0.021472 0.750000
O O13 0.976794 0.905478 0.818616
O O14 0.816708 0.791918 0.481750
O O15 0.071517 0.722277 0.757200
#
# Coordination Sequence:
#
# PCOD8136354 Si02
#       7
#     8   8   8   8   8   8   8
#     4  10  22  35  60  89 120 158 197 259 308 357
#     4  10  21  36  56  87 119 153 194 247 316 353
#     4  10  21  36  59  89 116 164 206 241 307 364
#     4  10  20  37  57  82 122 164 202 242 289 375
#     4  10  20  33  56  89 123 156 201 237 318 375
#     4  10  21  36  57  87 122 163 192 252 306 377
#     4  10  20  36  58  86 120 153 202 257 301 361
#
# _framework density 20.336527
#
# number of rings (size 3 to 8) (size 9 to 14) (size 15 to 20)
#    0.000    2.000    0.000    5.571   10.000    0.000 
#    0.000    0.000    0.000    3.429    0.000    0.000 
#    0.000    0.000    0.000    0.000    0.000    0.000 
#
# Total GULP energy -346956.802206 kJ/mol
# GULP energy per Si atom -12391.314364 kJ/mol
# Density = 2.029024 g / cm^3
# Si number density = 20.336527 Si / 1000 Ang^3
#
#
#
# Elastic Constant Matrix: (Units=GPa)
#
#
# Indices 1 2 3 4 5 6 
#
# 1 104.6010 34.6647 19.4137 0.0002 -15.1317 0.0002
# 2 34.6647 51.8162 13.2441 -0.0022 -8.2942 -0.0004
# 3 19.4137 13.2441 65.9965 -0.0023 -0.7703 -0.0008
# 4 0.0002 -0.0022 -0.0023 23.1473 -0.0011 0.2602
# 5 -15.1317 -8.2942 -0.7703 -0.0011 20.0715 -0.0002
# 6 0.0002 -0.0004 -0.0008 0.2602 -0.0002 25.5429
#
#
#
# Elastic Compliance Matrix: (Units=1/GPa)
#
#
# Indices 1 2 3 4 5 6 
#
# 1 0.013425 -0.007237 -0.002415 -0.000001 0.007037 0.000000
# 2 -0.007237 0.025709 -0.002971 0.000003 0.005054 0.000000
# 3 -0.002415 -0.002971 0.016431 0.000001 -0.002418 0.000000
# 4 -0.000001 0.000003 0.000001 0.043207 0.000003 -0.000440
# 5 0.007037 0.005054 -0.002418 0.000003 0.057123 0.000000
# 6 0.000000 0.000000 0.000000 -0.000440 0.000000 0.039154
#
#
# Mechanical properties :
#
#
# Convention : Reuss Voigt Hill
#
# Bulk Modulus (GPa) = 32.98370 39.67320 36.32845
# Shear Modulus (GPa) = 21.70131 24.09176 22.89653
#
# Velocity S-wave (km/s) = 3.27021 3.44562 3.35906
# Velocity P-wave (km/s) = 5.52387 5.94814 5.73993
#
# Compressibility (1/GPa) = 0.03031800
#
# Stress axis : x y z
#
# Youngs Moduli (GPa) = 74.48900 38.89658 60.86186
#
# Poissons Ratio (x) = 0.28151 0.14695
# Poissons Ratio (y) = 0.53911 0.18084
# Poissons Ratio (z) = 0.17986 0.11557
#
# Static dielectric constant tensor:
#      x y z
#    x 3.875510 0.000000 0.115510 
#    y 0.000000 3.562450 0.000000 
#    z 0.115510 0.000000 3.663830 
# 
# 
# High freq. dielectric constant tensor:
#      x y z
#    x 1.784860 0.000000 0.008480 
#    y 0.000000 1.773200 0.000000 
#    z 0.008480 0.000000 1.787620 
# 
# From -- ./inp_files/283626.got.cif
#   From: 2010.06.25/outbox.cif.g09.slc.cpg/sg15_142_cif.got.tgz:283626.got - 2010.06.28 07:06:18.
