data_PCOD8136164
_publ_section_title
;
Structure prediction by ZEFSAII (Michael W. Deem and Ramdas Pophale) SiO2 
 PCOD8136164
Probable space group: C 2/C
;
_chemical_formula_sum "Si O2"
_cell_formula_units_Z 48
_cell_length_a 10.873267
_cell_length_b 24.073972
_cell_length_c 9.160861
_cell_angle_alpha 90.000000
_cell_angle_beta 91.331774
_cell_angle_gamma 90.000000
_cell_volume 2397.324187
_symmetry_space_group_name_H-M "C 2/C"
_symmetry_group_IT_number 15
_symmetry_cell_setting 'monoclinic'
loop_
_space_group_symop_operation_xyz
x,y,z
-x,y,1/2-z
-x,-y,-z
x,-y,1/2+z
1/2+x,1/2+y,z
1/2-x,1/2+y,1/2-z
1/2-x,1/2-y,-z
1/2+x,1/2-y,1/2+z
loop_
_atom_site_type_symbol
_atom_site_label
_atom_site_fract_x
_atom_site_fract_y
_atom_site_fract_z
Si Si1 0.861490 0.472418 0.188389
Si Si2 0.938021 0.249249 0.002660
Si Si3 0.810530 0.820630 0.996624
Si Si4 0.522102 0.869675 0.416982
Si Si5 0.748280 0.751281 0.252292
Si Si6 0.715983 0.932187 0.019776
O O1 0.872179 0.417989 0.083814
O O2 0.771920 0.460535 0.322033
O O3 0.000000 0.487440 0.250000
O O4 0.792144 0.521531 0.104374
O O5 0.945342 0.315935 0.988040
O O6 0.870873 0.237532 0.154043
O O7 0.861715 0.232068 0.858044
O O8 0.061861 0.213502 0.002020
O O9 0.732423 0.803745 0.140415
O O10 0.827472 0.887793 0.995596
O O11 0.731882 0.802340 0.851566
O O12 0.500000 0.851047 0.250000
O O13 0.405399 0.895256 0.493282
#
# Coordination Sequence:
#
# PCOD8136164 Si02
#       6
#     8   8   8   8   8   8
#     4   9  18  33  51  78 112 149 194 244 291 338
#     4  11  21  36  58  88 119 150 191 233 289 359
#     4  11  21  36  55  84 120 154 187 237 294 352
#     4   9  16  30  53  80 114 147 178 237 301 347
#     4  10  22  36  55  84 117 154 190 230 293 351
#     4  10  20  32  52  77 110 149 191 239 289 334
#
# _framework density 20.022324000000001
#
# number of rings (size 3 to 8) (size 9 to 14) (size 15 to 20)
#    0.000    2.333    0.000    8.000    0.000    2.667 
#    0.000    0.000    0.000    0.000    0.000   37.333 
#    0.000    0.000    0.000    0.000    0.000    0.000 
#
# Total GULP energy -297314.608205 kJ/mol
# GULP energy per Si atom -12388.108675 kJ/mol
# Density = 1.997675 g / cm^3
# Si number density = 20.022324 Si / 1000 Ang^3
#
#
#
# Elastic Constant Matrix: (Units=GPa)
#
#
# Indices 1 2 3 4 5 6 
#
# 1 55.6373 41.2160 35.1595 0.0000 -5.6317 0.0000
# 2 41.2160 159.8900 64.3500 0.0000 -0.5500 0.0000
# 3 35.1595 64.3500 111.0252 0.0000 -10.0491 0.0000
# 4 0.0000 0.0000 0.0000 21.2690 0.0000 -2.5931
# 5 -5.6317 -0.5500 -10.0491 0.0000 15.6606 0.0000
# 6 0.0000 0.0000 0.0000 -2.5931 0.0000 27.0539
#
#
#
# Elastic Compliance Matrix: (Units=1/GPa)
#
#
# Indices 1 2 3 4 5 6 
#
# 1 0.024882 -0.004476 -0.004767 0.000000 0.005732 0.000000
# 2 -0.004476 0.009090 -0.004212 0.000000 -0.003993 0.000000
# 3 -0.004767 -0.004212 0.013578 0.000000 0.006851 0.000000
# 4 0.000000 0.000000 0.000000 0.047573 0.000000 0.004560
# 5 0.005732 -0.003993 0.006851 0.000000 0.070172 0.000000
# 6 0.000000 0.000000 0.000000 0.004560 0.000000 0.037400
#
#
# Mechanical properties :
#
#
# Convention : Reuss Voigt Hill
#
# Bulk Modulus (GPa) = 48.45011 67.55593 58.00302
# Shear Modulus (GPa) = 21.14314 25.18516 23.16415
#
# Velocity S-wave (km/s) = 3.25311 3.55047 3.40504
# Velocity P-wave (km/s) = 6.19361 7.11487 6.67017
#
# Compressibility (1/GPa) = 0.02063979
#
# Stress axis : x y z
#
# Youngs Moduli (GPa) = 40.19032 110.01495 73.64862
#
# Poissons Ratio (x) = 0.49241 0.35105
# Poissons Ratio (y) = 0.17989 0.31024
# Poissons Ratio (z) = 0.19157 0.46343
#
# Static dielectric constant tensor:
#      x y z
#    x 3.316780 0.000000 -0.154010 
#    y 0.000000 3.816560 0.000000 
#    z -0.154010 0.000000 3.752910 
# 
# 
# High freq. dielectric constant tensor:
#      x y z
#    x 1.736360 0.000000 -0.015350 
#    y 0.000000 1.777280 0.000000 
#    z -0.015350 0.000000 1.791680 
# 
# From -- ./inp_files/32020.got.cif
#   From: 2010.06.25/outbox.cif.g09.slc.cpg/sg15_17_cif.got.tgz:32020.got - 2010.06.28 07:06:18.
