data_PCOD8136874
_publ_section_title
;
Structure prediction by ZEFSAII (Michael W. Deem and Ramdas Pophale) SiO2 
 PCOD8136874
Probable space group: C 2/C
;
_chemical_formula_sum "Si O2"
_cell_formula_units_Z 56
_cell_length_a 19.482808
_cell_length_b 18.019151
_cell_length_c 14.526791
_cell_angle_alpha 90.000000
_cell_angle_beta 31.568531
_cell_angle_gamma 90.000000
_cell_volume 2669.852102
_symmetry_space_group_name_H-M "C 2/C"
_symmetry_group_IT_number 15
_symmetry_cell_setting 'monoclinic'
loop_
_space_group_symop_operation_xyz
x,y,z
-x,y,1/2-z
-x,-y,-z
x,-y,1/2+z
1/2+x,1/2+y,z
1/2-x,1/2+y,1/2-z
1/2-x,1/2-y,-z
1/2+x,1/2-y,1/2+z
loop_
_atom_site_type_symbol
_atom_site_label
_atom_site_fract_x
_atom_site_fract_y
_atom_site_fract_z
Si Si1 0.185136 0.312483 0.802495
Si Si2 0.024379 0.431114 0.402641
Si Si3 0.481774 0.813268 0.674612
Si Si4 0.274610 0.160719 0.722545
Si Si5 0.335394 0.966616 0.873493
Si Si6 0.350598 0.460504 0.243643
Si Si7 0.361735 0.437696 0.560607
O O1 0.109989 0.277755 0.798984
O O2 0.217173 0.239401 0.826711
O O3 0.321073 0.350908 0.615079
O O4 0.098646 0.374431 0.955305
O O5 0.152869 0.383445 0.280252
O O6 0.057336 0.467043 0.265348
O O7 0.000000 0.500000 0.500000
O O8 0.500000 0.767272 0.750000
O O9 0.626919 0.823415 0.472775
O O10 0.415057 0.891220 0.776614
O O11 0.160506 0.111522 0.808623
O O12 0.230279 0.975393 0.910750
O O13 0.266634 0.973106 0.050561
O O14 0.344550 0.530496 0.183124
O O15 0.487454 0.450002 0.141870
#
# Coordination Sequence:
#
# PCOD8136874 Si02
#       7
#     8   8   8   8   8   8   8
#     4  10  23  36  58  86 123 169 200 253 320 375
#     4  11  19  40  66  83 119 168 217 260 299 371
#     4  10  20  35  55  85 120 160 204 251 302 377
#     4  11  21  36  57  89 121 161 204 251 322 377
#     4  11  20  38  65  92 115 160 224 259 297 371
#     4  11  22  36  63  89 121 160 206 261 318 377
#     4  10  22  40  55  89 125 160 203 256 320 377
#
# _framework density 20.974944000000001
#
# number of rings (size 3 to 8) (size 9 to 14) (size 15 to 20)
#    0.000    1.429    7.143    0.429    4.000    0.571 
#    0.000    0.000    0.000    0.857    7.429    0.000 
#    0.000    0.000    0.000    0.000    0.000    0.000 
#
# Total GULP energy -346885.183774 kJ/mol
# GULP energy per Si atom -12388.756563 kJ/mol
# Density = 2.092720 g / cm^3
# Si number density = 20.974944 Si / 1000 Ang^3
#
#
#
# Elastic Constant Matrix: (Units=GPa)
#
#
# Indices 1 2 3 4 5 6 
#
# 1 45.2236 3.9027 2.2605 -0.0002 -19.1333 0.0001
# 2 3.9027 92.0968 30.4465 -0.0001 -5.4864 0.0000
# 3 2.2605 30.4465 83.4141 -0.0003 -7.1285 0.0003
# 4 -0.0002 -0.0001 -0.0003 20.7926 0.0002 -4.8051
# 5 -19.1333 -5.4864 -7.1285 0.0002 29.5391 -0.0001
# 6 0.0001 0.0000 0.0003 -4.8051 -0.0001 19.3383
#
#
#
# Elastic Compliance Matrix: (Units=1/GPa)
#
#
# Indices 1 2 3 4 5 6 
#
# 1 0.030539 -0.000450 0.001041 0.000000 0.019949 0.000000
# 2 -0.000450 0.012399 -0.004433 0.000000 0.000942 0.000000
# 3 0.001041 -0.004433 0.013851 0.000000 0.003194 0.000000
# 4 0.000000 0.000000 0.000000 0.051024 0.000000 0.012678
# 5 0.019949 0.000942 0.003194 0.000000 0.047720 0.000000
# 6 0.000000 0.000000 0.000000 0.012678 0.000000 0.054861
#
#
# Mechanical properties :
#
#
# Convention : Reuss Voigt Hill
#
# Bulk Modulus (GPa) = 20.36410 32.66155 26.51283
# Shear Modulus (GPa) = 21.32685 26.20899 23.76792
#
# Velocity S-wave (km/s) = 3.19215 3.53872 3.36989
# Velocity P-wave (km/s) = 4.82870 5.68350 5.27345
#
# Compressibility (1/GPa) = 0.04910603
#
# Stress axis : x y z
#
# Youngs Moduli (GPa) = 32.74487 80.65292 72.19623
#
# Poissons Ratio (x) = 0.03630 -0.07519
# Poissons Ratio (y) = 0.01474 0.32004
# Poissons Ratio (z) = -0.03410 0.35753
#
# Static dielectric constant tensor:
#      x y z
#    x 4.104450 0.000000 -0.276540 
#    y 0.000000 3.839550 0.000000 
#    z -0.276540 0.000000 3.855540 
# 
# 
# High freq. dielectric constant tensor:
#      x y z
#    x 1.815110 0.000000 -0.028340 
#    y 0.000000 1.806460 0.000000 
#    z -0.028340 0.000000 1.813230 
# 
# From -- ./inp_files/169118.got.cif
#   From: 2010.06.25/outbox.cif.g09.slc.cpg/sg15_85_cif.got.tgz:169118.got - 2010.06.28 07:06:18.
