data_PCOD8136976
_publ_section_title
;
Structure prediction by ZEFSAII (Michael W. Deem and Ramdas Pophale) SiO2 
 PCOD8136976
Probable space group: C 2/C
;
_chemical_formula_sum "Si O2"
_cell_formula_units_Z 48
_cell_length_a 6.792785
_cell_length_b 20.877711
_cell_length_c 17.982306
_cell_angle_alpha 90.000000
_cell_angle_beta 111.034643
_cell_angle_gamma 90.000000
_cell_volume 2380.274160
_symmetry_space_group_name_H-M "C 2/C"
_symmetry_group_IT_number 15
_symmetry_cell_setting 'monoclinic'
loop_
_space_group_symop_operation_xyz
x,y,z
-x,y,1/2-z
-x,-y,-z
x,-y,1/2+z
1/2+x,1/2+y,z
1/2-x,1/2+y,1/2-z
1/2-x,1/2-y,-z
1/2+x,1/2-y,1/2+z
loop_
_atom_site_type_symbol
_atom_site_label
_atom_site_fract_x
_atom_site_fract_y
_atom_site_fract_z
Si Si1 0.500000 0.083056 0.750000
Si Si2 0.617555 0.120740 0.544030
Si Si3 0.253308 0.684172 0.715015
Si Si4 0.974426 0.503680 0.388614
Si Si5 0.603014 0.431954 0.530681
Si Si6 0.500000 0.294476 0.750000
Si Si7 0.777454 0.117932 0.101720
O O1 0.701288 0.130920 0.771325
O O2 0.508770 0.038085 0.681719
O O3 0.656607 0.161903 0.622808
O O4 0.846347 0.112704 0.534699
O O5 0.429034 0.149607 0.466956
O O6 0.526082 0.048375 0.544866
O O7 0.500000 0.693784 0.750000
O O8 0.149195 0.751968 0.718171
O O9 0.767393 0.548165 0.367334
O O10 0.165884 0.552974 0.407237
O O11 0.500000 0.500000 0.500000
O O12 0.466125 0.389950 0.568176
O O13 0.650046 0.336301 0.822538
#
# Coordination Sequence:
#
# PCOD8136976 Si02
#       7
#     4   8   8   8   8   4   8
#     4   9  22  36  62  98 122 163 210 260 318 375
#     4  10  21  40  64  95 122 162 212 258 316 374
#     4  10  24  45  67  85 123 169 223 275 298 362
#     4  10  20  35  57  97 134 159 199 251 316 396
#     4  11  19  33  62  92 129 165 190 249 320 386
#     4  11  28  46  60  90 128 173 220 262 308 363
#     4  11  23  40  61  92 135 164 202 258 321 382
#
# _framework density 20.165744
#
# number of rings (size 3 to 8) (size 9 to 14) (size 15 to 20)
#    0.000    1.667    3.333    1.000    4.667    4.667 
#    1.500    1.667    0.000    0.000    0.000    0.000 
#    0.000    0.000    0.000    0.000    0.000    0.000 
#
# Total GULP energy -297397.959619 kJ/mol
# GULP energy per Si atom -12391.581651 kJ/mol
# Density = 2.011985 g / cm^3
# Si number density = 20.165744 Si / 1000 Ang^3
#
#
#
# Elastic Constant Matrix: (Units=GPa)
#
#
# Indices 1 2 3 4 5 6 
#
# 1 135.2768 46.5123 59.8665 0.0000 -8.9482 0.0000
# 2 46.5123 95.3208 65.2844 0.0000 -3.8199 0.0000
# 3 59.8665 65.2844 105.5876 0.0000 7.4258 0.0000
# 4 0.0000 0.0000 0.0000 40.6977 0.0000 -8.5189
# 5 -8.9482 -3.8199 7.4258 0.0000 29.9958 0.0000
# 6 0.0000 0.0000 0.0000 -8.5189 0.0000 27.8203
#
#
#
# Elastic Compliance Matrix: (Units=1/GPa)
#
#
# Indices 1 2 3 4 5 6 
#
# 1 0.010545 -0.001152 -0.005575 0.000000 0.004379 0.000000
# 2 -0.001152 0.019153 -0.011538 0.000000 0.004952 0.000000
# 3 -0.005575 -0.011538 0.020340 0.000000 -0.008168 0.000000
# 4 0.000000 0.000000 0.000000 0.026254 0.000000 0.008039
# 5 0.004379 0.004952 -0.008168 0.000000 0.037297 0.000000
# 6 0.000000 0.000000 0.000000 0.008039 0.000000 0.038407
#
#
# Mechanical properties :
#
#
# Convention : Reuss Voigt Hill
#
# Bulk Modulus (GPa) = 74.02084 75.50129 74.76107
# Shear Modulus (GPa) = 25.90308 30.67090 28.28699
#
# Velocity S-wave (km/s) = 3.58789 3.90415 3.74936
# Velocity P-wave (km/s) = 7.34506 7.60558 7.47646
#
# Compressibility (1/GPa) = 0.01350971
#
# Stress axis : x y z
#
# Youngs Moduli (GPa) = 94.83147 52.20990 49.16538
#
# Poissons Ratio (x) = 0.06015 0.27407
# Poissons Ratio (y) = 0.10925 0.56725
# Poissons Ratio (z) = 0.52864 0.60237
#
# Static dielectric constant tensor:
#      x y z
#    x 6.785120 0.000000 -3.358740 
#    y 0.000000 3.707200 0.000000 
#    z -3.358740 0.000000 7.198180 
# 
# 
# High freq. dielectric constant tensor:
#      x y z
#    x 1.806890 0.000000 -0.015720 
#    y 0.000000 1.775010 0.000000 
#    z -0.015720 0.000000 1.778150 
# 
# From -- ./inp_files/227758.got.cif
#   From: 2010.06.25/outbox.cif.g09.slc.cpg/sg15_114_cif.got.tgz:227758.got - 2010.06.28 07:06:18.
