data_PCOD8136292
_publ_section_title
;
Structure prediction by ZEFSAII (Michael W. Deem and Ramdas Pophale) SiO2 
 PCOD8136292
Probable space group: C 2/C
;
_chemical_formula_sum "Si O2"
_cell_formula_units_Z 56
_cell_length_a 25.205082
_cell_length_b 12.713322
_cell_length_c 9.203398
_cell_angle_alpha 90.000000
_cell_angle_beta 65.410405
_cell_angle_gamma 90.000000
_cell_volume 2681.687329
_symmetry_space_group_name_H-M "C 2/C"
_symmetry_group_IT_number 15
_symmetry_cell_setting 'monoclinic'
loop_
_space_group_symop_operation_xyz
x,y,z
-x,y,1/2-z
-x,-y,-z
x,-y,1/2+z
1/2+x,1/2+y,z
1/2-x,1/2+y,1/2-z
1/2-x,1/2-y,-z
1/2+x,1/2-y,1/2+z
loop_
_atom_site_type_symbol
_atom_site_label
_atom_site_fract_x
_atom_site_fract_y
_atom_site_fract_z
Si Si1 0.441607 0.256188 0.245751
Si Si2 0.734609 0.060535 0.459336
Si Si3 0.506450 0.343200 0.585659
Si Si4 0.926086 0.944507 0.461234
Si Si5 0.769351 0.262236 0.756720
Si Si6 0.807587 0.052135 0.654454
Si Si7 0.323697 0.854667 0.966478
O O1 0.500000 0.206941 0.250000
O O2 0.432473 0.376668 0.307479
O O3 0.389052 0.180872 0.354856
O O4 0.451987 0.268298 0.060302
O O5 0.724945 0.175933 0.402089
O O6 0.753740 0.069109 0.604368
O O7 0.789567 0.012693 0.314511
O O8 0.678999 0.981115 0.501925
O O9 0.500000 0.285493 0.750000
O O10 0.444472 0.367071 0.574644
O O11 0.533011 0.455861 0.591985
O O12 0.860848 0.987276 0.531718
O O13 0.819890 0.171841 0.694288
O O14 0.782510 0.341113 0.872802
O O15 0.705088 0.210518 0.865434
#
# Coordination Sequence:
#
# PCOD8136292 Si02
#       7
#     8   8   8   8   8   8   8
#     4  10  21  37  59  83 116 159 201 240 302 361
#     4  11  22  39  58  88 122 159 199 245 292 350
#     4  10  20  33  52  82 121 155 198 245 295 348
#     4  10  20  33  52  84 124 161 188 233 299 362
#     4  10  21  38  60  92 119 162 196 241 295 358
#     4  11  23  34  60  88 127 157 199 237 295 367
#     4  10  21  39  62  86 124 157 197 244 301 354
#
# _framework density 20.882375
#
# number of rings (size 3 to 8) (size 9 to 14) (size 15 to 20)
#    0.000    1.714    1.429    4.286    8.000    0.000 
#    0.000    0.000    3.143    0.857    0.000    4.000 
#    0.000    0.000    0.000    0.000    0.000    0.000 
#
# Total GULP energy -346902.816396 kJ/mol
# GULP energy per Si atom -12389.386300 kJ/mol
# Density = 2.083485 g / cm^3
# Si number density = 20.882375 Si / 1000 Ang^3
#
#
#
# Elastic Constant Matrix: (Units=GPa)
#
#
# Indices 1 2 3 4 5 6 
#
# 1 68.1128 16.1995 36.9506 0.0000 -22.1378 0.0000
# 2 16.1995 42.1922 21.1946 0.0000 -13.5087 0.0000
# 3 36.9506 21.1946 119.5071 0.0000 -2.2408 0.0000
# 4 0.0000 0.0000 0.0000 29.4217 0.0000 -4.9730
# 5 -22.1378 -13.5087 -2.2408 0.0000 30.3069 0.0000
# 6 0.0000 0.0000 0.0000 -4.9730 0.0000 18.8420
#
#
#
# Elastic Compliance Matrix: (Units=1/GPa)
#
#
# Indices 1 2 3 4 5 6 
#
# 1 0.024103 -0.000262 -0.007088 0.000000 0.016965 0.000000
# 2 -0.000262 0.030534 -0.005090 0.000000 0.013042 0.000000
# 3 -0.007088 -0.005090 0.011338 0.000000 -0.006608 0.000000
# 4 0.000000 0.000000 0.000000 0.035576 0.000000 0.009390
# 5 0.016965 0.013042 -0.006608 0.000000 0.050713 0.000000
# 6 0.000000 0.000000 0.000000 0.009390 0.000000 0.055551
#
#
# Mechanical properties :
#
#
# Convention : Reuss Voigt Hill
#
# Bulk Modulus (GPa) = 24.33323 42.05572 33.19448
# Shear Modulus (GPa) = 20.29283 26.07862 23.18572
#
# Velocity S-wave (km/s) = 3.12070 3.53772 3.33573
# Velocity P-wave (km/s) = 4.96617 6.07209 5.54676
#
# Compressibility (1/GPa) = 0.04109606
#
# Stress axis : x y z
#
# Youngs Moduli (GPa) = 41.48874 32.75023 88.19925
#
# Poissons Ratio (x) = 0.00858 0.62514
# Poissons Ratio (y) = 0.01087 0.44891
# Poissons Ratio (z) = 0.29407 0.16669
#
# Static dielectric constant tensor:
#      x y z
#    x 3.590980 0.000000 0.077210 
#    y 0.000000 3.598630 0.000000 
#    z 0.077210 0.000000 4.008410 
# 
# 
# High freq. dielectric constant tensor:
#      x y z
#    x 1.789320 0.000000 0.008820 
#    y 0.000000 1.791760 0.000000 
#    z 0.008820 0.000000 1.830480 
# 
# From -- ./inp_files/61491.got.cif
#   From: 2010.06.25/outbox.cif.g09.slc.cpg/sg15_31_cif.got.tgz:61491.got - 2010.06.28 07:06:18.
