data_PCOD8136839
_publ_section_title
;
Structure prediction by ZEFSAII (Michael W. Deem and Ramdas Pophale) SiO2 
 PCOD8136839
Probable space group: C 2/C
;
_chemical_formula_sum "Si O2"
_cell_formula_units_Z 60
_cell_length_a 28.704366
_cell_length_b 9.372409
_cell_length_c 10.574647
_cell_angle_alpha 90.000000
_cell_angle_beta 109.400805
_cell_angle_gamma 90.000000
_cell_volume 2683.348906
_symmetry_space_group_name_H-M "C 2/C"
_symmetry_group_IT_number 15
_symmetry_cell_setting 'monoclinic'
loop_
_space_group_symop_operation_xyz
x,y,z
-x,y,1/2-z
-x,-y,-z
x,-y,1/2+z
1/2+x,1/2+y,z
1/2-x,1/2+y,1/2-z
1/2-x,1/2-y,-z
1/2+x,1/2-y,1/2+z
loop_
_atom_site_type_symbol
_atom_site_label
_atom_site_fract_x
_atom_site_fract_y
_atom_site_fract_z
Si Si1 0.124150 0.047291 0.559907
Si Si2 0.210183 0.154355 0.821256
Si Si3 0.598013 0.970042 0.447363
Si Si4 0.930308 0.263109 0.857368
Si Si5 0.363557 0.262563 0.050994
Si Si6 0.000000 0.403275 0.750000
Si Si7 0.748913 0.354274 0.830537
Si Si8 0.166660 0.750707 0.910386
O O1 0.165294 0.098765 0.695152
O O2 0.072276 0.114337 0.565892
O O3 0.137459 0.109652 0.433603
O O4 0.119147 0.878067 0.538076
O O5 0.191029 0.195557 0.945219
O O6 0.235952 0.300475 0.795452
O O7 0.249820 0.025041 0.853117
O O8 0.630964 0.109156 0.511280
O O9 0.544939 0.998301 0.336408
O O10 0.593090 0.884974 0.574031
O O11 0.628467 0.880122 0.369312
O O12 0.899757 0.248499 0.702001
O O13 0.985038 0.306006 0.858744
O O14 0.692984 0.292948 0.802507
O O15 0.788574 0.284065 0.956546
#
# Coordination Sequence:
#
# PCOD8136839 Si02
#       8
#     8   8   8   8   8   4   8   8
#     4   9  18  38  58  83 114 159 196 240 295 356
#     4  10  21  34  54  84 121 160 202 248 289 345
#     4  10  21  38  63  88 117 156 199 245 303 357
#     4   9  20  39  63  87 118 152 191 247 305 356
#     4  10  20  38  59  87 121 158 200 245 296 352
#     4  10  20  40  66  92 120 146 194 256 302 362
#     4  10  20  35  54  82 122 158 203 246 293 343
#     4   9  19  37  57  77 118 159 196 243 296 348
#
# _framework density 22.360118
#
# number of rings (size 3 to 8) (size 9 to 14) (size 15 to 20)
#    0.000    2.400    1.333    1.200    1.867    1.067 
#    4.800    4.000    0.000   13.600    0.000    0.000 
#    0.000    0.000    0.000    0.000    0.000    0.000 
#
# Total GULP energy -371678.255973 kJ/mol
# GULP energy per Si atom -12389.275199 kJ/mol
# Density = 2.230922 g / cm^3
# Si number density = 22.360118 Si / 1000 Ang^3
#
#
#
# Elastic Constant Matrix: (Units=GPa)
#
#
# Indices 1 2 3 4 5 6 
#
# 1 108.6002 33.0898 16.2130 0.0000 -17.8968 0.0000
# 2 33.0898 100.7933 2.9736 0.0000 -19.6060 0.0000
# 3 16.2130 2.9736 29.9093 0.0000 -11.6223 0.0000
# 4 0.0000 0.0000 0.0000 31.8213 0.0000 -7.5061
# 5 -17.8968 -19.6060 -11.6223 0.0000 30.5129 0.0000
# 6 0.0000 0.0000 0.0000 -7.5061 0.0000 48.8481
#
#
#
# Elastic Compliance Matrix: (Units=1/GPa)
#
#
# Indices 1 2 3 4 5 6 
#
# 1 0.011305 -0.003007 -0.004699 0.000000 0.002909 0.000000
# 2 -0.003007 0.012241 0.003268 0.000000 0.007346 0.000000
# 3 -0.004699 0.003268 0.041552 0.000000 0.015171 0.000000
# 4 0.000000 0.000000 0.000000 0.032607 0.000000 0.005011
# 5 0.002909 0.007346 0.015171 0.000000 0.044978 0.000000
# 6 0.000000 0.000000 0.000000 0.005011 0.000000 0.021242
#
#
# Mechanical properties :
#
#
# Convention : Reuss Voigt Hill
#
# Bulk Modulus (GPa) = 17.78673 38.20617 27.99645
# Shear Modulus (GPa) = 26.10395 34.70489 30.40442
#
# Velocity S-wave (km/s) = 3.42048 3.94393 3.69149
# Velocity P-wave (km/s) = 4.85505 6.15332 5.54233
#
# Compressibility (1/GPa) = 0.05622169
#
# Stress axis : x y z
#
# Youngs Moduli (GPa) = 88.45512 81.69231 24.06636
#
# Poissons Ratio (x) = 0.24564 0.11309
# Poissons Ratio (y) = 0.26598 -0.07864
# Poissons Ratio (z) = 0.41564 -0.26694
#
# Static dielectric constant tensor:
#      x y z
#    x 4.715150 0.000000 -0.495920 
#    y 0.000000 4.321620 0.000000 
#    z -0.495920 0.000000 3.709830 
# 
# 
# High freq. dielectric constant tensor:
#      x y z
#    x 1.877840 0.000000 -0.022250 
#    y 0.000000 1.884090 0.000000 
#    z -0.022250 0.000000 1.853760 
# 
# From -- ./inp_files/125560.got.cif
#   From: 2010.06.25/outbox.cif.g09.slc.cpg/sg15_63_cif.got.tgz:125560.got - 2010.06.28 07:06:18.
