data_PCOD8136204
_publ_section_title
;
Structure prediction by ZEFSAII (Michael W. Deem and Ramdas Pophale) SiO2 
 PCOD8136204
Probable space group: C 2/C
;
_chemical_formula_sum "Si O2"
_cell_formula_units_Z 44
_cell_length_a 24.561574
_cell_length_b 21.646781
_cell_length_c 10.989584
_cell_angle_alpha 90.000000
_cell_angle_beta 155.623980
_cell_angle_gamma 90.000000
_cell_volume 2411.513518
_symmetry_space_group_name_H-M "C 2/C"
_symmetry_group_IT_number 15
_symmetry_cell_setting 'monoclinic'
loop_
_space_group_symop_operation_xyz
x,y,z
-x,y,1/2-z
-x,-y,-z
x,-y,1/2+z
1/2+x,1/2+y,z
1/2-x,1/2+y,1/2-z
1/2-x,1/2-y,-z
1/2+x,1/2-y,1/2+z
loop_
_atom_site_type_symbol
_atom_site_label
_atom_site_fract_x
_atom_site_fract_y
_atom_site_fract_z
Si Si1 0.736019 0.875240 0.552276
Si Si2 0.489282 0.315834 0.369687
Si Si3 0.727224 0.115878 0.319456
Si Si4 0.000000 0.599768 0.250000
Si Si5 0.135935 0.515768 0.708768
Si Si6 0.024711 0.319793 0.575663
O O1 0.707609 0.876567 0.636761
O O2 0.729085 0.945210 0.488542
O O3 0.877674 0.846573 0.809132
O O4 0.627311 0.833656 0.263778
O O5 0.500000 0.299707 0.250000
O O6 0.457535 0.253062 0.375479
O O7 0.371738 0.363453 0.156287
O O8 0.616611 0.158691 0.153404
O O9 0.713097 0.045327 0.330013
O O10 0.109922 0.555664 0.534115
O O11 0.066967 0.643335 0.283985
O O12 0.000000 0.500000 0.500000
#
# Coordination Sequence:
#
# PCOD8136204 Si02
#       6
#     8   8   8   4   8   8
#     4  10  22  37  60  85 112 151 187 232 283 327
#     4  10  22  39  56  84 121 148 182 230 287 340
#     4  11  22  36  60  87 111 150 188 234 281 328
#     4  10  20  32  58  84 108 142 196 228 282 306
#     4  11  20  35  60  83 112 143 192 239 267 338
#     4  11  20  37  61  83 111 151 190 232 268 343
#
# _framework density 18.245802999999999
#
# number of rings (size 3 to 8) (size 9 to 14) (size 15 to 20)
#    0.000    1.455    4.545    2.727    0.000    0.727 
#    0.000    0.000    0.000    0.000    0.000    0.000 
#    0.000    0.000    0.000    0.000    0.000    0.000 
#
# Total GULP energy -272871.084238 kJ/mol
# GULP energy per Si atom -12403.231102 kJ/mol
# Density = 1.820427 g / cm^3
# Si number density = 18.245803 Si / 1000 Ang^3
#
#
#
# Elastic Constant Matrix: (Units=GPa)
#
#
# Indices 1 2 3 4 5 6 
#
# 1 69.0566 62.2698 45.6025 0.0000 -4.1783 0.0000
# 2 62.2698 159.1690 61.5773 0.0000 1.3466 0.0000
# 3 45.6025 61.5773 114.8528 0.0000 1.8329 0.0000
# 4 0.0000 0.0000 0.0000 27.0979 0.0000 -3.7207
# 5 -4.1783 1.3466 1.8329 0.0000 22.5803 0.0000
# 6 0.0000 0.0000 0.0000 -3.7207 0.0000 21.3851
#
#
#
# Elastic Compliance Matrix: (Units=1/GPa)
#
#
# Indices 1 2 3 4 5 6 
#
# 1 0.025976 -0.007804 -0.006222 0.000000 0.005777 0.000000
# 2 -0.007804 0.010272 -0.002379 0.000000 -0.001864 0.000000
# 3 -0.006222 -0.002379 0.012485 0.000000 -0.002023 0.000000
# 4 0.000000 0.000000 0.000000 0.037806 0.000000 0.006578
# 5 0.005777 -0.001864 -0.002023 0.000000 0.045631 0.000000
# 6 0.000000 0.000000 0.000000 0.006578 0.000000 0.047906
#
#
# Mechanical properties :
#
#
# Convention : Reuss Voigt Hill
#
# Bulk Modulus (GPa) = 62.80145 75.77528 69.28837
# Shear Modulus (GPa) = 22.91538 25.78791 24.35164
#
# Velocity S-wave (km/s) = 3.54775 3.76355 3.65724
# Velocity P-wave (km/s) = 7.16076 7.77857 7.47605
#
# Compressibility (1/GPa) = 0.01592320
#
# Stress axis : x y z
#
# Youngs Moduli (GPa) = 38.49635 97.35382 80.09705
#
# Poissons Ratio (x) = 0.75977 0.49836
# Poissons Ratio (y) = 0.30044 0.19053
# Poissons Ratio (z) = 0.23952 0.23158
#
# Static dielectric constant tensor:
#      x y z
#    x 3.379540 0.000000 -0.100740 
#    y 0.000000 3.533990 0.000000 
#    z -0.100740 0.000000 3.374640 
# 
# 
# High freq. dielectric constant tensor:
#      x y z
#    x 1.706950 0.000000 -0.009870 
#    y 0.000000 1.721490 0.000000 
#    z -0.009870 0.000000 1.698850 
# 
# From -- ./inp_files/78186.got.cif
#   From: 2010.06.25/outbox.cif.g09.slc.cpg/sg15_40_cif.got.tgz:78186.got - 2010.06.28 07:06:18.
