data_PCOD8136721
_publ_section_title
;
Structure prediction by ZEFSAII (Michael W. Deem and Ramdas Pophale) SiO2 
 PCOD8136721
Probable space group: C 2/C
;
_chemical_formula_sum "Si O2"
_cell_formula_units_Z 48
_cell_length_a 16.536242
_cell_length_b 26.733288
_cell_length_c 9.897757
_cell_angle_alpha 90.000000
_cell_angle_beta 147.892680
_cell_angle_gamma 90.000000
_cell_volume 2325.598884
_symmetry_space_group_name_H-M "C 2/C"
_symmetry_group_IT_number 15
_symmetry_cell_setting 'monoclinic'
loop_
_space_group_symop_operation_xyz
x,y,z
-x,y,1/2-z
-x,-y,-z
x,-y,1/2+z
1/2+x,1/2+y,z
1/2-x,1/2+y,1/2-z
1/2-x,1/2-y,-z
1/2+x,1/2-y,1/2+z
loop_
_atom_site_type_symbol
_atom_site_label
_atom_site_fract_x
_atom_site_fract_y
_atom_site_fract_z
Si Si1 0.173051 0.523483 0.008245
Si Si2 0.847252 0.603123 0.305857
Si Si3 0.370689 0.293683 0.669541
Si Si4 0.309893 0.889959 0.178885
Si Si5 0.945413 0.154689 0.529706
Si Si6 0.790514 0.082142 0.666430
O O1 0.219329 0.561554 0.954663
O O2 0.000000 0.502947 0.750000
O O3 0.181275 0.548832 0.167610
O O4 0.293641 0.478180 0.172507
O O5 0.012742 0.624460 0.577259
O O6 0.731271 0.641163 0.210630
O O7 0.825640 0.599901 0.114544
O O8 0.500000 0.277340 0.750000
O O9 0.250000 0.250000 0.500000
O O10 0.293322 0.345696 0.521265
O O11 0.455720 0.301396 0.933714
O O12 0.267593 0.898996 0.273111
O O13 0.000000 0.176979 0.750000
O O14 0.043137 0.105065 0.629195
#
# Coordination Sequence:
#
# PCOD8136721 Si02
#       6
#     8   8   8   8   8   8
#     4  10  20  34  60  95 135 181 229 261 316 388
#     4  10  21  37  60  90 131 181 215 263 323 376
#     4  12  27  48  73  99 124 169 220 279 336 391
#     4  11  22  40  66  94 134 170 230 273 312 396
#     4  10  23  44  64  93 136 166 212 270 334 392
#     4  11  21  37  60  94 138 177 218 267 320 385
#
# _framework density 20.639845000000001
#
# number of rings (size 3 to 8) (size 9 to 14) (size 15 to 20)
#    0.000    1.333    3.333    2.500    2.333    3.333 
#    0.000    5.000    0.000    0.000    0.000    0.000 
#    0.000    0.000    0.000    0.000    0.000    0.000 
#
# Total GULP energy -297613.901469 kJ/mol
# GULP energy per Si atom -12400.579228 kJ/mol
# Density = 2.059287 g / cm^3
# Si number density = 20.639845 Si / 1000 Ang^3
#
#
#
# Elastic Constant Matrix: (Units=GPa)
#
#
# Indices 1 2 3 4 5 6 
#
# 1 143.7069 45.5979 61.2395 0.0000 -15.4489 0.0000
# 2 45.5979 80.5093 39.9660 0.0000 -6.7734 0.0000
# 3 61.2395 39.9660 101.6130 0.0000 -7.7727 0.0000
# 4 0.0000 0.0000 0.0000 27.3978 0.0000 8.1648
# 5 -15.4489 -6.7734 -7.7727 0.0000 39.6209 0.0000
# 6 0.0000 0.0000 0.0000 8.1648 0.0000 19.1019
#
#
#
# Elastic Compliance Matrix: (Units=1/GPa)
#
#
# Indices 1 2 3 4 5 6 
#
# 1 0.010276 -0.003267 -0.004715 0.000000 0.002523 0.000000
# 2 -0.003267 0.016558 -0.004492 0.000000 0.000676 0.000000
# 3 -0.004715 -0.004492 0.014467 0.000000 0.000232 0.000000
# 4 0.000000 0.000000 0.000000 0.041827 0.000000 -0.017878
# 5 0.002523 0.000676 0.000232 0.000000 0.026384 0.000000
# 6 0.000000 0.000000 0.000000 -0.017878 0.000000 0.059993
#
#
# Mechanical properties :
#
#
# Convention : Reuss Voigt Hill
#
# Bulk Modulus (GPa) = 61.14972 68.82621 64.98796
# Shear Modulus (GPa) = 25.01209 29.15918 27.08563
#
# Velocity S-wave (km/s) = 3.48492 3.76275 3.62650
# Velocity P-wave (km/s) = 6.77379 7.23162 7.00645
#
# Compressibility (1/GPa) = 0.01635330
#
# Stress axis : x y z
#
# Youngs Moduli (GPa) = 97.31703 60.39409 69.12150
#
# Poissons Ratio (x) = 0.19731 0.32590
# Poissons Ratio (y) = 0.31793 0.31049
# Poissons Ratio (z) = 0.45884 0.27128
#
# Static dielectric constant tensor:
#      x y z
#    x 4.086600 0.000000 -0.180680 
#    y 0.000000 3.506640 0.000000 
#    z -0.180680 0.000000 4.004730 
# 
# 
# High freq. dielectric constant tensor:
#      x y z
#    x 1.829120 0.000000 -0.011150 
#    y 0.000000 1.772890 0.000000 
#    z -0.011150 0.000000 1.817830 
# 
# From -- ./inp_files/43932.got.cif
#   From: 2010.06.25/outbox.cif.g09.slc.cpg/sg15_22_cif.got.tgz:43932.got - 2010.06.28 07:06:18.
