data_PCOD8136131
_publ_section_title
;
Structure prediction by ZEFSAII (Michael W. Deem and Ramdas Pophale) SiO2 
 PCOD8136131
Probable space group: C 2/C
;
_chemical_formula_sum "Si O2"
_cell_formula_units_Z 32
_cell_length_a 23.866396
_cell_length_b 8.542059
_cell_length_c 19.532326
_cell_angle_alpha 90.000000
_cell_angle_beta 162.344871
_cell_angle_gamma 90.000000
_cell_volume 1207.694301
_symmetry_space_group_name_H-M "C 2/C"
_symmetry_group_IT_number 15
_symmetry_cell_setting 'monoclinic'
loop_
_space_group_symop_operation_xyz
x,y,z
-x,y,1/2-z
-x,-y,-z
x,-y,1/2+z
1/2+x,1/2+y,z
1/2-x,1/2+y,1/2-z
1/2-x,1/2-y,-z
1/2+x,1/2-y,1/2+z
loop_
_atom_site_type_symbol
_atom_site_label
_atom_site_fract_x
_atom_site_fract_y
_atom_site_fract_z
Si Si1 0.913134 0.918098 0.076268
Si Si2 0.087364 0.285521 0.424728
Si Si3 0.853788 0.035013 0.771293
Si Si4 0.981222 0.464987 0.898727
O O1 0.895914 0.103085 0.041829
O O2 0.000000 0.870405 0.250000
O O3 0.047027 0.856831 0.171165
O O4 0.701249 0.856831 0.825388
O O5 0.288416 0.370461 0.661252
O O6 0.957257 0.370461 0.330094
O O7 0.000000 0.322179 0.250000
O O8 0.668395 0.120558 0.586789
O O9 0.000000 0.000000 0.000000
O O10 0.000000 0.500000 0.000000
#
# Coordination Sequence:
#
# PCOD8136131 Si02
#       4
#     8   8   8   8
#     4  11  19  32  52  76 103 127 156 204 250 291
#     4   9  19  32  50  76 103 127 158 200 248 293
#     4  10  20  32  45  66 103 139 164 190 231 297
#     4  10  20  32  45  66 103 139 164 190 231 297
#
# _framework density 26.496772
#
# number of rings (size 3 to 8) (size 9 to 14) (size 15 to 20)
#    1.500    0.500    2.500    3.000    0.000    4.000 
#    0.000    0.000    0.000    0.000    0.000    0.000 
#    0.000  140.000    0.000    0.000    0.000    0.000 
#
# Total GULP energy -198228.401957 kJ/mol
# GULP energy per Si atom -12389.275122 kJ/mol
# Density = 2.643646 g / cm^3
# Si number density = 26.496772 Si / 1000 Ang^3
#
#
#
# Elastic Constant Matrix: (Units=GPa)
#
#
# Indices 1 2 3 4 5 6 
#
# 1 240.0117 11.3505 110.0914 -0.0004 14.4010 -0.0004
# 2 11.3505 47.0588 7.5679 -0.0007 10.6534 -0.0009
# 3 110.0914 7.5679 230.8758 -0.0005 11.3321 -0.0007
# 4 -0.0004 -0.0007 -0.0005 -6.7446 -0.0006 37.3895
# 5 14.4010 10.6534 11.3321 -0.0006 71.0473 -0.0008
# 6 -0.0004 -0.0009 -0.0007 37.3895 -0.0008 6.5278
#
#
#
# Elastic Compliance Matrix: (Units=1/GPa)
#
#
# Indices 1 2 3 4 5 6 
#
# 1 0.005392 -0.000765 -0.002518 0.000000 -0.000577 0.000000
# 2 -0.000765 0.022178 -0.000208 0.000000 -0.003137 0.000000
# 3 -0.002518 -0.000208 0.005556 0.000000 -0.000345 0.000000
# 4 0.000000 0.000000 0.000000 -0.004527 0.000000 0.025929
# 5 -0.000577 -0.003137 -0.000345 0.000000 0.014717 0.000000
# 6 0.000000 0.000000 0.000000 0.025929 0.000000 0.004677
#
#
# Mechanical properties :
#
#
# Convention : Reuss Voigt Hill
#
# Bulk Modulus (GPa) = 38.24983 86.21843 62.23413
# Shear Modulus (GPa) = 78.50444 40.09520 59.29982
#
# Velocity S-wave (km/s) = 5.44906 3.89422 4.73588
# Velocity P-wave (km/s) = 7.35232 7.26841 7.31049
#
# Compressibility (1/GPa) = 0.02614391
#
# Stress axis : x y z
#
# Youngs Moduli (GPa) = 185.45474 45.08916 179.99621
#
# Poissons Ratio (x) = 0.03450 0.45320
# Poissons Ratio (y) = 0.14189 0.03747
# Poissons Ratio (z) = 0.46694 0.00939
#
# Static dielectric constant tensor:
#      x y z
#    x 5.169390 0.000000 0.578180 
#    y 0.000000 4.548580 0.000000 
#    z 0.578180 0.000000 4.964150 
# 
# 
# High freq. dielectric constant tensor:
#      x y z
#    x 2.084210 0.000000 0.027220 
#    y 0.000000 2.055700 0.000000 
#    z 0.027220 0.000000 2.074550 
# 
# From -- ./inp_files/28469.got.cif
#   From: 2010.06.25/outbox.cif.g09.slc.cpg/sg15_15_cif.got.tgz:28469.got - 2010.06.28 07:06:18.
