data_PCOD8136603
_publ_section_title
;
Structure prediction by ZEFSAII (Michael W. Deem and Ramdas Pophale) SiO2 
 PCOD8136603
Probable space group: C 2/C
;
_chemical_formula_sum "Si O2"
_cell_formula_units_Z 56
_cell_length_a 29.295729
_cell_length_b 11.537701
_cell_length_c 13.810912
_cell_angle_alpha 90.000000
_cell_angle_beta 143.705821
_cell_angle_gamma 90.000000
_cell_volume 2763.231369
_symmetry_space_group_name_H-M "C 2/C"
_symmetry_group_IT_number 15
_symmetry_cell_setting 'monoclinic'
loop_
_space_group_symop_operation_xyz
x,y,z
-x,y,1/2-z
-x,-y,-z
x,-y,1/2+z
1/2+x,1/2+y,z
1/2-x,1/2+y,1/2-z
1/2-x,1/2-y,-z
1/2+x,1/2-y,1/2+z
loop_
_atom_site_type_symbol
_atom_site_label
_atom_site_fract_x
_atom_site_fract_y
_atom_site_fract_z
Si Si1 0.758442 0.548358 0.325297
Si Si2 0.770842 0.693458 0.932207
Si Si3 0.964488 0.832795 0.465834
Si Si4 0.860678 0.259594 0.936893
Si Si5 0.428203 0.695225 0.685218
Si Si6 0.844562 0.969580 0.516473
Si Si7 0.624861 0.437790 0.720787
O O1 0.768820 0.445815 0.422420
O O2 0.838313 0.621580 0.455593
O O3 0.732886 0.503787 0.174950
O O4 0.684678 0.618368 0.245481
O O5 0.712692 0.743590 0.755571
O O6 0.750000 0.750000 0.000000
O O7 0.853963 0.729117 0.035953
O O8 0.936846 0.737093 0.498220
O O9 0.946659 0.789225 0.329016
O O10 0.055947 0.851304 0.632993
O O11 0.913585 0.949354 0.396992
O O12 0.874317 0.156494 0.036057
O O13 0.500000 0.747165 0.750000
O O14 0.413533 0.563478 0.623517
O O15 0.826112 0.969162 0.599418
#
# Coordination Sequence:
#
# PCOD8136603 Si02
#       7
#     8   8   8   8   8   8   8
#     4  11  22  37  61  92 123 164 209 245 307 378
#     4  11  20  39  61  88 119 164 209 253 299 363
#     4  10  20  34  57  90 122 155 198 256 308 365
#     4  11  22  36  56  90 125 160 200 248 316 369
#     4  11  21  34  63  91 118 158 210 260 305 358
#     4  10  21  35  58  91 122 156 197 259 311 351
#     4  10  20  35  57  88 125 153 200 251 311 355
#
# _framework density 20.266127000000001
#
# number of rings (size 3 to 8) (size 9 to 14) (size 15 to 20)
#    0.000    1.429    5.714    1.714    4.000    0.571 
#    0.000    0.000    3.143    0.857    0.000    0.000 
#    0.000    0.000    0.000    0.000    0.000    0.000 
#
# Total GULP energy -346960.281221 kJ/mol
# GULP energy per Si atom -12391.438615 kJ/mol
# Density = 2.022000 g / cm^3
# Si number density = 20.266127 Si / 1000 Ang^3
#
#
#
# Elastic Constant Matrix: (Units=GPa)
#
#
# Indices 1 2 3 4 5 6 
#
# 1 109.4605 51.2902 36.2845 0.0000 15.8638 0.0000
# 2 51.2902 76.3946 27.0218 0.0000 3.1552 0.0000
# 3 36.2845 27.0218 62.9944 0.0000 3.2247 0.0000
# 4 0.0000 0.0000 0.0000 24.4320 0.0000 3.7843
# 5 15.8638 3.1552 3.2247 0.0000 34.2349 0.0000
# 6 0.0000 0.0000 0.0000 3.7843 0.0000 29.6918
#
#
#
# Elastic Compliance Matrix: (Units=1/GPa)
#
#
# Indices 1 2 3 4 5 6 
#
# 1 0.015655 -0.008467 -0.005079 0.000000 -0.005996 0.000000
# 2 -0.008467 0.020032 -0.003841 0.000000 0.002439 0.000000
# 3 -0.005079 -0.003841 0.020407 0.000000 0.000785 0.000000
# 4 0.000000 0.000000 0.000000 0.041754 0.000000 -0.005322
# 5 -0.005996 0.002439 0.000785 0.000000 0.031689 0.000000
# 6 0.000000 0.000000 0.000000 -0.005322 0.000000 0.034358
#
#
# Mechanical properties :
#
#
# Convention : Reuss Voigt Hill
#
# Bulk Modulus (GPa) = 46.89995 53.11583 50.00789
# Shear Modulus (GPa) = 24.29821 26.62195 25.46008
#
# Velocity S-wave (km/s) = 3.46635 3.62832 3.54826
# Velocity P-wave (km/s) = 6.26203 6.61959 6.44329
#
# Compressibility (1/GPa) = 0.02132199
#
# Stress axis : x y z
#
# Youngs Moduli (GPa) = 63.87551 49.91938 49.00249
#
# Poissons Ratio (x) = 0.42266 0.24887
# Poissons Ratio (y) = 0.54082 0.18822
# Poissons Ratio (z) = 0.32440 0.19174
#
# Static dielectric constant tensor:
#      x y z
#    x 3.830740 0.000000 -0.021230 
#    y 0.000000 3.615500 0.000000 
#    z -0.021230 0.000000 3.700330 
# 
# 
# High freq. dielectric constant tensor:
#      x y z
#    x 1.804680 0.000000 -0.010810 
#    y 0.000000 1.742850 0.000000 
#    z -0.010810 0.000000 1.780810 
# 
# From -- ./inp_files/177597.got.cif
#   From: 2010.06.25/outbox.cif.g09.slc.cpg/sg15_89_cif.got.tgz:177597.got - 2010.06.28 07:06:18.
