data_PCOD8136905
_publ_section_title
;
Structure prediction by ZEFSAII (Michael W. Deem and Ramdas Pophale) SiO2 
 PCOD8136905
Probable space group: C 2/C
;
_chemical_formula_sum "Si O2"
_cell_formula_units_Z 52
_cell_length_a 19.285065
_cell_length_b 9.409752
_cell_length_c 15.268568
_cell_angle_alpha 90.000000
_cell_angle_beta 83.670420
_cell_angle_gamma 90.000000
_cell_volume 2753.861567
_symmetry_space_group_name_H-M "C 2/C"
_symmetry_group_IT_number 15
_symmetry_cell_setting 'monoclinic'
loop_
_space_group_symop_operation_xyz
x,y,z
-x,y,1/2-z
-x,-y,-z
x,-y,1/2+z
1/2+x,1/2+y,z
1/2-x,1/2+y,1/2-z
1/2-x,1/2-y,-z
1/2+x,1/2-y,1/2+z
loop_
_atom_site_type_symbol
_atom_site_label
_atom_site_fract_x
_atom_site_fract_y
_atom_site_fract_z
Si Si1 0.855795 0.053043 0.124055
Si Si2 0.000000 0.844269 0.250000
Si Si3 0.149092 0.165807 0.029886
Si Si4 0.241677 0.702717 0.902759
Si Si5 0.711229 0.115227 0.396041
Si Si6 0.991253 0.058384 0.404627
Si Si7 0.349614 0.712490 0.745225
O O1 0.803540 0.182296 0.142736
O O2 0.932655 0.122089 0.128622
O O3 0.838995 0.939906 0.201534
O O4 0.846596 0.975437 0.031153
O O5 0.932196 0.748654 0.236945
O O6 0.975287 0.935899 0.336717
O O7 0.208886 0.158891 0.095072
O O8 0.072935 0.170822 0.087506
O O9 0.158846 0.308807 0.972048
O O10 0.201521 0.553116 0.904218
O O11 0.317387 0.697904 0.846520
O O12 0.250000 0.750000 0.000000
O O13 0.690790 0.164855 0.301748
O O14 0.000000 0.000000 0.500000
#
# Coordination Sequence:
#
# PCOD8136905 Si02
#       7
#     8   4   8   8   8   8   8
#     4   9  19  36  57  88 110 148 197 235 287 346
#     4  10  20  36  64  88 108 152 212 246 294 344
#     4   9  17  35  59  81 115 149 189 241 284 341
#     4  12  22  35  57  86 119 150 192 237 293 349
#     4  10  20  35  56  86 116 152 190 233 301 348
#     4   9  18  33  59  87 113 145 196 249 287 338
#     4  10  22  38  61  83 113 151 197 248 290 342
#
# _framework density 18.882577000000001
#
# number of rings (size 3 to 8) (size 9 to 14) (size 15 to 20)
#    0.000    2.154    1.538    2.769    2.154    1.231 
#    0.000    0.769    0.000    0.923    0.000    0.000 
#    0.000    0.000    0.000    0.000    0.000    0.000 
#
# Total GULP energy -322295.406203 kJ/mol
# GULP energy per Si atom -12395.977162 kJ/mol
# Density = 1.883960 g / cm^3
# Si number density = 18.882577 Si / 1000 Ang^3
#
#
#
# Elastic Constant Matrix: (Units=GPa)
#
#
# Indices 1 2 3 4 5 6 
#
# 1 142.9004 51.0189 46.6096 0.0000 -6.1061 0.0000
# 2 51.0189 105.3523 31.1617 0.0000 -6.9219 0.0000
# 3 46.6096 31.1617 108.7929 0.0000 -1.2814 0.0000
# 4 0.0000 0.0000 0.0000 14.9576 0.0000 0.1257
# 5 -6.1061 -6.9219 -1.2814 0.0000 31.5840 0.0000
# 6 0.0000 0.0000 0.0000 0.1257 0.0000 29.0748
#
#
#
# Elastic Compliance Matrix: (Units=1/GPa)
#
#
# Indices 1 2 3 4 5 6 
#
# 1 0.009265 -0.003559 -0.002940 0.000000 0.000892 0.000000
# 2 -0.003559 0.011886 -0.001858 0.000000 0.001841 0.000000
# 3 -0.002940 -0.001858 0.010977 0.000000 -0.000530 0.000000
# 4 0.000000 0.000000 0.000000 0.066858 0.000000 -0.000289
# 5 0.000892 0.001841 -0.000530 0.000000 0.032216 0.000000
# 6 0.000000 0.000000 0.000000 -0.000289 0.000000 0.034395
#
#
# Mechanical properties :
#
#
# Convention : Reuss Voigt Hill
#
# Bulk Modulus (GPa) = 64.87055 68.29179 66.58117
# Shear Modulus (GPa) = 26.67380 30.34030 28.50705
#
# Velocity S-wave (km/s) = 3.76255 4.01282 3.88970
# Velocity P-wave (km/s) = 7.30103 7.59707 7.45052
#
# Compressibility (1/GPa) = 0.01541532
#
# Stress axis : x y z
#
# Youngs Moduli (GPa) = 107.92828 84.13257 91.09801
#
# Poissons Ratio (x) = 0.29941 0.26780
# Poissons Ratio (y) = 0.38410 0.16927
# Poissons Ratio (z) = 0.31727 0.15633
#
# Static dielectric constant tensor:
#      x y z
#    x 3.866140 0.000000 -0.012910 
#    y 0.000000 3.253320 0.000000 
#    z -0.012910 0.000000 3.499470 
# 
# 
# High freq. dielectric constant tensor:
#      x y z
#    x 1.745060 0.000000 0.004110 
#    y 0.000000 1.694060 0.000000 
#    z 0.004110 0.000000 1.741670 
# 
# From -- ./inp_files/166228.got.cif
#   From: 2010.06.25/outbox.cif.g09.slc.cpg/sg15_84_cif.got.tgz:166228.got - 2010.06.28 07:06:18.
