data_PCOD8136191
_publ_section_title
;
Structure prediction by ZEFSAII (Michael W. Deem and Ramdas Pophale) SiO2 
 PCOD8136191
Probable space group: C 2/C
;
_chemical_formula_sum "Si O2"
_cell_formula_units_Z 52
_cell_length_a 11.479729
_cell_length_b 22.728344
_cell_length_c 16.229885
_cell_angle_alpha 90.000000
_cell_angle_beta 42.544670
_cell_angle_gamma 90.000000
_cell_volume 2863.303858
_symmetry_space_group_name_H-M "C 2/C"
_symmetry_group_IT_number 15
_symmetry_cell_setting 'monoclinic'
loop_
_space_group_symop_operation_xyz
x,y,z
-x,y,1/2-z
-x,-y,-z
x,-y,1/2+z
1/2+x,1/2+y,z
1/2-x,1/2+y,1/2-z
1/2-x,1/2-y,-z
1/2+x,1/2-y,1/2+z
loop_
_atom_site_type_symbol
_atom_site_label
_atom_site_fract_x
_atom_site_fract_y
_atom_site_fract_z
Si Si1 0.868432 0.948341 0.594763
Si Si2 0.673721 0.515526 0.200239
Si Si3 0.119359 0.575162 0.818999
Si Si4 0.500000 0.990304 0.750000
Si Si5 0.857274 0.861455 0.066513
Si Si6 0.698002 0.745570 0.122825
Si Si7 0.706450 0.123946 0.464369
O O1 0.855344 0.950853 0.699514
O O2 0.677803 0.952569 0.654027
O O3 0.945045 0.883847 0.530235
O O4 0.000000 0.000000 0.500000
O O5 0.500000 0.491719 0.250000
O O6 0.791734 0.458022 0.150866
O O7 0.758219 0.561803 0.094948
O O8 0.997647 0.529376 0.833606
O O9 0.258053 0.598797 0.683236
O O10 0.000327 0.627849 0.915060
O O11 0.823035 0.792276 0.104809
O O12 0.795958 0.873661 0.006059
O O13 0.500000 0.761092 0.250000
O O14 0.735667 0.677556 0.126278
O O15 0.750000 0.750000 0.000000
#
# Coordination Sequence:
#
# PCOD8136191 Si02
#       7
#     8   8   8   4   8   8   8
#     4  11  20  36  55  79 111 151 182 231 271 338
#     4  11  22  32  51  81 114 145 177 227 291 321
#     4  11  20  35  55  80 109 156 180 221 274 352
#     4  10  20  32  56  82 106 146 196 208 278 330
#     4  11  19  35  57  76 111 151 184 219 280 338
#     4  10  22  34  55  82 112 150 184 230 287 342
#     4  11  20  35  51  83 121 137 179 235 286 331
#
# _framework density 18.160838999999999
#
# number of rings (size 3 to 8) (size 9 to 14) (size 15 to 20)
#    0.000    1.231    6.154    2.769    2.154    0.000 
#    0.000    0.000    0.000    0.000    2.000    5.385 
#    0.000    0.000    0.000    0.000    0.000    0.000 
#
# Total GULP energy -322125.869535 kJ/mol
# GULP energy per Si atom -12389.456521 kJ/mol
# Density = 1.811950 g / cm^3
# Si number density = 18.160839 Si / 1000 Ang^3
#
#
#
# Elastic Constant Matrix: (Units=GPa)
#
#
# Indices 1 2 3 4 5 6 
#
# 1 91.3331 35.0976 21.4206 -0.0003 -20.1287 0.0003
# 2 35.0976 90.1644 21.7764 0.0015 -15.4884 -0.0008
# 3 21.4206 21.7764 75.0797 0.0045 -18.6126 -0.0022
# 4 -0.0003 0.0015 0.0045 43.6981 -0.0018 -15.9711
# 5 -20.1287 -15.4884 -18.6126 -0.0018 35.8362 0.0008
# 6 0.0003 -0.0008 -0.0022 -15.9711 0.0008 30.1455
#
#
#
# Elastic Compliance Matrix: (Units=1/GPa)
#
#
# Indices 1 2 3 4 5 6 
#
# 1 0.014088 -0.004212 -0.001477 0.000001 0.005325 0.000000
# 2 -0.004212 0.013668 -0.002163 0.000000 0.002418 0.000000
# 3 -0.001477 -0.002163 0.015989 -0.000001 0.006540 0.000000
# 4 0.000001 0.000000 -0.000001 0.028380 0.000001 0.015035
# 5 0.005325 0.002418 0.006540 0.000001 0.035337 0.000000
# 6 0.000000 0.000000 0.000000 0.015035 0.000000 0.041138
#
#
# Mechanical properties :
#
#
# Convention : Reuss Voigt Hill
#
# Bulk Modulus (GPa) = 35.66395 45.90741 40.78568
# Shear Modulus (GPa) = 28.79305 33.82146 31.30726
#
# Velocity S-wave (km/s) = 3.98609 4.32015 4.15648
# Velocity P-wave (km/s) = 6.39263 7.08647 6.74847
#
# Compressibility (1/GPa) = 0.02803952
#
# Stress axis : x y z
#
# Youngs Moduli (GPa) = 70.98395 73.16181 62.54155
#
# Poissons Ratio (x) = 0.30818 0.09240
# Poissons Ratio (y) = 0.29900 0.13529
# Poissons Ratio (z) = 0.10488 0.15826
#
# Static dielectric constant tensor:
#      x y z
#    x 3.184800 0.000000 -0.091040 
#    y 0.000000 3.991490 -0.000010 
#    z -0.091040 -0.000010 3.536880 
# 
# 
# High freq. dielectric constant tensor:
#      x y z
#    x 1.665280 0.000000 -0.010640 
#    y 0.000000 1.690460 0.000000 
#    z -0.010640 0.000000 1.726780 
# 
# From -- ./inp_files/148352.got.cif
#   From: 2010.06.25/outbox.cif.g09.slc.cpg/sg15_75_cif.got.tgz:148352.got - 2010.06.28 07:06:18.
