data_PCOD8136796
_publ_section_title
;
Structure prediction by ZEFSAII (Michael W. Deem and Ramdas Pophale) SiO2 
 PCOD8136796
Probable space group: C 2/C
;
_chemical_formula_sum "Si O2"
_cell_formula_units_Z 48
_cell_length_a 11.177397
_cell_length_b 28.434014
_cell_length_c 15.515648
_cell_angle_alpha 90.000000
_cell_angle_beta 31.466357
_cell_angle_gamma 90.000000
_cell_volume 2574.052837
_symmetry_space_group_name_H-M "C 2/C"
_symmetry_group_IT_number 15
_symmetry_cell_setting 'monoclinic'
loop_
_space_group_symop_operation_xyz
x,y,z
-x,y,1/2-z
-x,-y,-z
x,-y,1/2+z
1/2+x,1/2+y,z
1/2-x,1/2+y,1/2-z
1/2-x,1/2-y,-z
1/2+x,1/2-y,1/2+z
loop_
_atom_site_type_symbol
_atom_site_label
_atom_site_fract_x
_atom_site_fract_y
_atom_site_fract_z
Si Si1 0.886633 0.952457 0.160560
Si Si2 0.128583 0.309516 0.496629
Si Si3 0.064205 0.408853 0.119828
Si Si4 0.765331 0.143069 0.348457
Si Si5 0.500000 0.236743 0.250000
Si Si6 0.543158 0.557558 0.376953
Si Si7 0.500000 0.612270 0.750000
O O1 0.627133 0.944957 0.291948
O O2 0.973104 0.919083 0.182354
O O3 0.048087 0.941158 0.978370
O O4 0.880348 0.005809 0.198516
O O5 0.282819 0.269400 0.355043
O O6 0.269407 0.357823 0.404982
O O7 0.872798 0.315017 0.613620
O O8 0.086571 0.296386 0.621105
O O9 0.000000 0.383799 0.250000
O O10 0.090528 0.369494 0.031853
O O11 0.293102 0.438611 0.989887
O O12 0.000000 0.160774 0.250000
O O13 0.803560 0.099317 0.258886
#
# Coordination Sequence:
#
# PCOD8136796 Si02
#       7
#     8   8   8   8   4   8   4
#     4  10  20  35  49  80 113 159 199 235 272 319
#     4  10  21  41  60  89 110 145 186 230 301 347
#     4   9  18  35  51  71 110 153 192 232 274 317
#     4  10  20  36  58  85 112 149 190 229 275 342
#     4   9  22  42  66  82 116 142 170 246 302 357
#     4   9  21  34  52  76 117 158 196 233 279 314
#     4  11  22  32  60  86 116 148 202 234 268 347
#
# _framework density 18.647635000000001
#
# number of rings (size 3 to 8) (size 9 to 14) (size 15 to 20)
#    0.000    2.333    1.667    0.000    5.833    2.000 
#    0.000    2.500    0.000    0.000    0.000    0.000 
#    0.000    0.000    0.000    0.000    0.000    0.000 
#
# Total GULP energy -297426.217440 kJ/mol
# GULP energy per Si atom -12392.759060 kJ/mol
# Density = 1.860519 g / cm^3
# Si number density = 18.647635 Si / 1000 Ang^3
#
#
#
# Elastic Constant Matrix: (Units=GPa)
#
#
# Indices 1 2 3 4 5 6 
#
# 1 93.3550 52.1992 35.8517 -0.0001 0.6496 0.0001
# 2 52.1992 75.3004 36.2661 0.0000 -4.4485 0.0000
# 3 35.8517 36.2661 90.8471 -0.0003 1.1286 0.0001
# 4 -0.0001 0.0000 -0.0003 15.9352 0.0002 1.5542
# 5 0.6496 -4.4485 1.1286 0.0002 26.7929 -0.0001
# 6 0.0001 0.0000 0.0001 1.5542 -0.0001 25.2445
#
#
#
# Elastic Compliance Matrix: (Units=1/GPa)
#
#
# Indices 1 2 3 4 5 6 
#
# 1 0.018114 -0.011464 -0.002545 0.000000 -0.002235 0.000000
# 2 -0.011464 0.023942 -0.005089 0.000000 0.004467 0.000000
# 3 -0.002545 -0.005089 0.014060 0.000000 -0.001376 0.000000
# 4 0.000000 0.000000 0.000000 0.063133 0.000000 -0.003887
# 5 -0.002235 0.004467 -0.001376 0.000000 0.038177 0.000000
# 6 0.000000 0.000000 0.000000 -0.003887 0.000000 0.039852
#
#
# Mechanical properties :
#
#
# Convention : Reuss Voigt Hill
#
# Bulk Modulus (GPa) = 55.79750 56.45960 56.12855
# Shear Modulus (GPa) = 20.70843 22.60689 21.65766
#
# Velocity S-wave (km/s) = 3.33605 3.48562 3.41165
# Velocity P-wave (km/s) = 6.69522 6.82218 6.75900
#
# Compressibility (1/GPa) = 0.01792195
#
# Stress axis : x y z
#
# Youngs Moduli (GPa) = 55.20454 41.76796 71.12211
#
# Poissons Ratio (x) = 0.47881 0.18098
# Poissons Ratio (y) = 0.63285 0.36194
# Poissons Ratio (z) = 0.14047 0.21256
#
# Static dielectric constant tensor:
#      x y z
#    x 3.595510 0.000000 0.111370 
#    y 0.000000 3.217400 0.000000 
#    z 0.111370 0.000000 3.663740 
# 
# 
# High freq. dielectric constant tensor:
#      x y z
#    x 1.729990 0.000000 0.004610 
#    y 0.000000 1.697640 0.000000 
#    z 0.004610 0.000000 1.736340 
# 
# From -- ./inp_files/201102.got.cif
#   From: 2010.06.25/outbox.cif.g09.slc.cpg/sg15_101_cif.got.tgz:201102.got - 2010.06.28 07:06:18.
