data_PCOD8136798
_publ_section_title
;
Structure prediction by ZEFSAII (Michael W. Deem and Ramdas Pophale) SiO2 
 PCOD8136798
Probable space group: C 2/C
;
_chemical_formula_sum "Si O2"
_cell_formula_units_Z 60
_cell_length_a 14.276257
_cell_length_b 26.408059
_cell_length_c 10.400200
_cell_angle_alpha 90.000000
_cell_angle_beta 54.126050
_cell_angle_gamma 90.000000
_cell_volume 3177.186732
_symmetry_space_group_name_H-M "C 2/C"
_symmetry_group_IT_number 15
_symmetry_cell_setting 'monoclinic'
loop_
_space_group_symop_operation_xyz
x,y,z
-x,y,1/2-z
-x,-y,-z
x,-y,1/2+z
1/2+x,1/2+y,z
1/2-x,1/2+y,1/2-z
1/2-x,1/2-y,-z
1/2+x,1/2-y,1/2+z
loop_
_atom_site_type_symbol
_atom_site_label
_atom_site_fract_x
_atom_site_fract_y
_atom_site_fract_z
Si Si1 0.501307 0.611786 0.105636
Si Si2 0.615445 0.935068 0.405618
Si Si3 0.884688 0.458157 0.500848
Si Si4 0.223784 0.074580 0.347995
Si Si5 0.796083 0.036681 0.566816
Si Si6 0.000000 0.727534 0.250000
Si Si7 0.806737 0.348389 0.992371
Si Si8 0.073100 0.176373 0.806723
O O1 0.500000 0.636615 0.250000
O O2 0.374710 0.593175 0.169760
O O3 0.580135 0.561851 0.050287
O O4 0.551091 0.651739 0.963062
O O5 0.512132 0.933020 0.382199
O O6 0.742411 0.944665 0.244594
O O7 0.611298 0.883466 0.487655
O O8 0.593579 0.981466 0.521023
O O9 0.838067 0.439563 0.676658
O O10 0.793917 0.442507 0.466083
O O11 0.249091 0.119887 0.424617
O O12 0.184596 0.023866 0.455763
O O13 0.032017 0.764622 0.344720
O O14 0.886738 0.695475 0.372308
O O15 0.708135 0.324971 0.162417
O O16 0.000000 0.148481 0.750000
#
# Coordination Sequence:
#
# PCOD8136798 Si02
#       8
#     8   8   8   8   8   4   8   8
#     4  12  23  40  61  87 127 173 208 254 310 375
#     4  10  21  33  56  84 121 166 200 251 299 365
#     4  10  20  35  50  83 129 167 208 239 291 358
#     4  11  22  35  57  90 126 164 212 251 297 373
#     4  11  21  36  54  84 126 171 208 244 295 363
#     4  10  24  40  70  98 114 150 206 276 328 370
#     4  12  20  40  66  94 123 155 205 263 321 369
#     4  10  23  42  65  93 120 153 208 268 319 364
#
# _framework density 18.884630999999999
#
# number of rings (size 3 to 8) (size 9 to 14) (size 15 to 20)
#    0.400    0.800    5.333    2.000    0.000    0.000 
#    2.400    0.000    0.000    6.400    0.000    0.000 
#    0.000    0.000    0.000    0.000    0.000    0.000 
#
# Total GULP energy -371920.176755 kJ/mol
# GULP energy per Si atom -12397.339225 kJ/mol
# Density = 1.884165 g / cm^3
# Si number density = 18.884631 Si / 1000 Ang^3
#
#
#
# Elastic Constant Matrix: (Units=GPa)
#
#
# Indices 1 2 3 4 5 6 
#
# 1 105.7994 45.7426 29.8931 0.0000 0.4973 0.0000
# 2 45.7426 103.9857 44.1212 0.0000 0.1073 0.0000
# 3 29.8931 44.1212 93.2364 0.0000 -2.1832 0.0000
# 4 0.0000 0.0000 0.0000 18.7726 0.0000 -2.3447
# 5 0.4973 0.1073 -2.1832 0.0000 33.1217 0.0000
# 6 0.0000 0.0000 0.0000 -2.3447 0.0000 28.6377
#
#
#
# Elastic Compliance Matrix: (Units=1/GPa)
#
#
# Indices 1 2 3 4 5 6 
#
# 1 0.011879 -0.004512 -0.001680 0.000000 -0.000274 0.000000
# 2 -0.004512 0.013753 -0.005069 0.000000 -0.000311 0.000000
# 3 -0.001680 -0.005069 0.013685 0.000000 0.000944 0.000000
# 4 0.000000 0.000000 0.000000 0.053819 0.000000 0.004406
# 5 -0.000274 -0.000311 0.000944 0.000000 0.030259 0.000000
# 6 0.000000 0.000000 0.000000 0.004406 0.000000 0.035280
#
#
# Mechanical properties :
#
#
# Convention : Reuss Voigt Hill
#
# Bulk Modulus (GPa) = 59.54220 60.28168 59.91194
# Shear Modulus (GPa) = 26.76759 28.32407 27.54583
#
# Velocity S-wave (km/s) = 3.76896 3.87699 3.82335
# Velocity P-wave (km/s) = 7.10901 7.21330 7.16134
#
# Compressibility (1/GPa) = 0.01679481
#
# Stress axis : x y z
#
# Youngs Moduli (GPa) = 84.18477 72.71369 73.07523
#
# Poissons Ratio (x) = 0.32811 0.12273
# Poissons Ratio (y) = 0.37988 0.37038
# Poissons Ratio (z) = 0.14139 0.36855
#
# Static dielectric constant tensor:
#      x y z
#    x 3.514770 0.000000 -0.111850 
#    y 0.000000 3.244590 0.000000 
#    z -0.111850 0.000000 3.461500 
# 
# 
# High freq. dielectric constant tensor:
#      x y z
#    x 1.740460 0.000000 -0.014580 
#    y 0.000000 1.705930 0.000000 
#    z -0.014580 0.000000 1.736350 
# 
# From -- ./inp_files/100671.got.cif
#   From: 2010.06.25/outbox.cif.g09.slc.cpg/sg15_51_cif.got.tgz:100671.got - 2010.06.28 07:06:18.
