data_PCOD8136180
_publ_section_title
;
Structure prediction by ZEFSAII (Michael W. Deem and Ramdas Pophale) SiO2 
 PCOD8136180
Probable space group: C 2/C
;
_chemical_formula_sum "Si O2"
_cell_formula_units_Z 44
_cell_length_a 15.176712
_cell_length_b 15.082115
_cell_length_c 11.155552
_cell_angle_alpha 90.000000
_cell_angle_beta 106.647811
_cell_angle_gamma 90.000000
_cell_volume 2446.439742
_symmetry_space_group_name_H-M "C 2/C"
_symmetry_group_IT_number 15
_symmetry_cell_setting 'monoclinic'
loop_
_space_group_symop_operation_xyz
x,y,z
-x,y,1/2-z
-x,-y,-z
x,-y,1/2+z
1/2+x,1/2+y,z
1/2-x,1/2+y,1/2-z
1/2-x,1/2-y,-z
1/2+x,1/2-y,1/2+z
loop_
_atom_site_type_symbol
_atom_site_label
_atom_site_fract_x
_atom_site_fract_y
_atom_site_fract_z
Si Si1 0.528951 0.714208 0.005492
Si Si2 0.500000 0.374795 0.250000
Si Si3 0.834226 0.184661 0.012196
Si Si4 0.314943 0.433931 0.279364
Si Si5 0.209506 0.287806 0.105822
Si Si6 0.662351 0.370828 0.724872
O O1 0.424473 0.737976 0.000861
O O2 0.597853 0.798476 0.049520
O O3 0.569555 0.635182 0.106823
O O4 0.537472 0.687147 0.870336
O O5 0.419102 0.435594 0.270923
O O6 0.861849 0.135692 0.144901
O O7 0.750000 0.250000 0.000000
O O8 0.806427 0.109944 0.906027
O O9 0.251104 0.381652 0.160005
O O10 0.284951 0.536264 0.278410
O O11 0.229824 0.211432 0.214480
O O12 0.250000 0.250000 0.000000
#
# Coordination Sequence:
#
# PCOD8136180 Si02
#       6
#     8   4   8   8   8   8
#     4   9  21  35  57  83 113 150 186 228 284 337
#     4  10  20  32  54  86 114 144 182 232 282 338
#     4  11  21  37  55  85 114 148 188 232 281 336
#     4  11  22  34  57  84 114 145 189 231 282 338
#     4  10  20  39  54  83 113 154 184 226 281 336
#     4  10  23  35  56  85 115 148 182 234 286 332
#
# _framework density 17.985317999999999
#
# number of rings (size 3 to 8) (size 9 to 14) (size 15 to 20)
#    1.091    0.727    3.636    0.545    7.636    1.455 
#    0.000    0.000    0.000    1.091    9.455    0.000 
#    0.000    0.000    0.000    0.000    0.000    0.000 
#
# Total GULP energy -272590.208908 kJ/mol
# GULP energy per Si atom -12390.464041 kJ/mol
# Density = 1.794438 g / cm^3
# Si number density = 17.985318 Si / 1000 Ang^3
#
#
#
# Elastic Constant Matrix: (Units=GPa)
#
#
# Indices 1 2 3 4 5 6 
#
# 1 70.6642 29.1499 14.8947 0.0000 -1.3879 0.0000
# 2 29.1499 71.4597 12.4718 0.0000 4.1287 0.0000
# 3 14.8947 12.4718 117.8267 0.0000 -5.4945 0.0000
# 4 0.0000 0.0000 0.0000 16.9506 0.0000 0.7593
# 5 -1.3879 4.1287 -5.4945 0.0000 31.4899 0.0000
# 6 0.0000 0.0000 0.0000 0.7593 0.0000 21.6285
#
#
#
# Elastic Compliance Matrix: (Units=1/GPa)
#
#
# Indices 1 2 3 4 5 6 
#
# 1 0.017321 -0.006905 -0.001392 0.000000 0.001426 0.000000
# 2 -0.006905 0.017156 -0.001071 0.000000 -0.002741 0.000000
# 3 -0.001392 -0.001071 0.008852 0.000000 0.001624 0.000000
# 4 0.000000 0.000000 0.000000 0.059088 0.000000 -0.002074
# 5 0.001426 -0.002741 0.001624 0.000000 0.032462 0.000000
# 6 0.000000 0.000000 0.000000 -0.002074 0.000000 0.046308
#
#
# Mechanical properties :
#
#
# Convention : Reuss Voigt Hill
#
# Bulk Modulus (GPa) = 40.66208 41.44257 41.05233
# Shear Modulus (GPa) = 24.02447 27.57608 25.80027
#
# Velocity S-wave (km/s) = 3.65880 3.91993 3.79161
# Velocity P-wave (km/s) = 6.36448 6.60153 6.48409
#
# Compressibility (1/GPa) = 0.02459294
#
# Stress axis : x y z
#
# Youngs Moduli (GPa) = 57.73224 58.28909 112.96759
#
# Poissons Ratio (x) = 0.40249 0.15728
# Poissons Ratio (y) = 0.39865 0.12097
# Poissons Ratio (z) = 0.08038 0.06242
#
# Static dielectric constant tensor:
#      x y z
#    x 3.290320 0.000000 -0.054160 
#    y 0.000000 2.981880 0.000000 
#    z -0.054160 0.000000 3.568690 
# 
# 
# High freq. dielectric constant tensor:
#      x y z
#    x 1.685520 0.000000 -0.008660 
#    y 0.000000 1.655680 0.000000 
#    z -0.008660 0.000000 1.722380 
# 
# From -- ./inp_files/104598.got.cif
#   From: 2010.06.25/outbox.cif.g09.slc.cpg/sg15_53_cif.got.tgz:104598.got - 2010.06.28 07:06:18.
