data_PCOD8136253
_publ_section_title
;
Structure prediction by ZEFSAII (Michael W. Deem and Ramdas Pophale) SiO2 
 PCOD8136253
Probable space group: C 2/C
;
_chemical_formula_sum "Si O2"
_cell_formula_units_Z 56
_cell_length_a 8.332268
_cell_length_b 14.155660
_cell_length_c 27.363124
_cell_angle_alpha 90.000000
_cell_angle_beta 61.573342
_cell_angle_gamma 90.000000
_cell_volume 2838.304055
_symmetry_space_group_name_H-M "C 2/C"
_symmetry_group_IT_number 15
_symmetry_cell_setting 'monoclinic'
loop_
_space_group_symop_operation_xyz
x,y,z
-x,y,1/2-z
-x,-y,-z
x,-y,1/2+z
1/2+x,1/2+y,z
1/2-x,1/2+y,1/2-z
1/2-x,1/2-y,-z
1/2+x,1/2-y,1/2+z
loop_
_atom_site_type_symbol
_atom_site_label
_atom_site_fract_x
_atom_site_fract_y
_atom_site_fract_z
Si Si1 0.033631 0.293837 0.799935
Si Si2 0.370999 0.264903 0.629586
Si Si3 0.053273 0.510123 0.341844
Si Si4 0.848133 0.045567 0.086871
Si Si5 0.145096 0.332527 0.270734
Si Si6 0.527114 0.907993 0.442700
Si Si7 0.218472 0.961314 0.011051
O O1 0.110869 0.382011 0.820817
O O2 0.166306 0.203426 0.780241
O O3 0.000000 0.332925 0.750000
O O4 0.845725 0.253915 0.849575
O O5 0.426102 0.371608 0.609752
O O6 0.417766 0.242328 0.678967
O O7 0.487098 0.194991 0.578759
O O8 0.163937 0.437115 0.291355
O O9 0.097905 0.484582 0.391935
O O10 0.834058 0.498304 0.363781
O O11 0.011796 0.970896 0.060224
O O12 0.794251 0.086228 0.040795
O O13 0.000000 0.334257 0.250000
O O14 0.325625 0.938108 0.490387
O O15 0.667399 0.898920 0.467478
#
# Coordination Sequence:
#
# PCOD8136253 Si02
#       7
#     8   8   8   8   8   8   8
#     4   9  18  34  51  69  95 129 166 199 243 298
#     4   9  19  34  50  70  98 130 162 200 243 292
#     4   9  18  34  52  69  98 133 161 199 246 292
#     4   9  18  33  52  72  97 131 165 196 241 293
#     4  10  20  33  50  74  98 124 164 207 244 286
#     4   9  18  32  49  73 102 127 159 203 245 283
#     4   9  18  32  50  73  98 128 163 198 241 291
#
# _framework density 19.730091000000002
#
# number of rings (size 3 to 8) (size 9 to 14) (size 15 to 20)
#    0.000    2.857    0.000    0.429    0.000    3.429 
#    0.000    3.571    0.000    0.000    0.000    0.000 
#    0.000    0.000    0.000    0.000    0.000    0.000 
#
# Total GULP energy -347014.230369 kJ/mol
# GULP energy per Si atom -12393.365370 kJ/mol
# Density = 1.968518 g / cm^3
# Si number density = 19.730091 Si / 1000 Ang^3
#
#
#
# Elastic Constant Matrix: (Units=GPa)
#
#
# Indices 1 2 3 4 5 6 
#
# 1 40.9757 -5.5182 9.6850 0.0000 7.1612 0.0000
# 2 -5.5182 51.2871 14.9440 0.0000 -6.8711 0.0000
# 3 9.6850 14.9440 47.0830 -0.0001 -9.8519 0.0001
# 4 0.0000 0.0000 -0.0001 30.4138 0.0000 0.7323
# 5 7.1612 -6.8711 -9.8519 0.0000 34.9000 0.0000
# 6 0.0000 0.0000 0.0001 0.7323 0.0000 20.5745
#
#
#
# Elastic Compliance Matrix: (Units=1/GPa)
#
#
# Indices 1 2 3 4 5 6 
#
# 1 0.028426 0.004650 -0.008877 0.000000 -0.007423 0.000000
# 2 0.004650 0.022445 -0.007817 0.000000 0.001258 0.000000
# 3 -0.008877 -0.007817 0.027213 0.000000 0.007964 0.000000
# 4 0.000000 0.000000 0.000000 0.032908 0.000000 -0.001171
# 5 -0.007423 0.001258 0.007964 0.000000 0.032672 0.000000
# 6 0.000000 0.000000 0.000000 -0.001171 0.000000 0.048646
#
#
# Mechanical properties :
#
#
# Convention : Reuss Voigt Hill
#
# Bulk Modulus (GPa) = 18.51957 19.72972 19.12464
# Shear Modulus (GPa) = 21.33147 25.19334 23.26240
#
# Velocity S-wave (km/s) = 3.29167 3.57725 3.43743
# Velocity P-wave (km/s) = 4.88402 5.20421 5.04666
#
# Compressibility (1/GPa) = 0.05399694
#
# Stress axis : x y z
#
# Youngs Moduli (GPa) = 35.17857 44.55383 36.74757
#
# Poissons Ratio (x) = -0.20720 0.32619
# Poissons Ratio (y) = -0.16360 0.28727
# Poissons Ratio (z) = 0.31227 0.34829
#
# Static dielectric constant tensor:
#      x y z
#    x 3.492840 0.000000 0.004560 
#    y 0.000000 3.333210 0.000000 
#    z 0.004560 0.000000 3.805860 
# 
# 
# High freq. dielectric constant tensor:
#      x y z
#    x 1.752510 0.000000 0.003940 
#    y 0.000000 1.738920 0.000000 
#    z 0.003940 0.000000 1.777640 
# 
# From -- ./inp_files/288659.got.cif
#   From: 2010.06.25/outbox.cif.g09.slc.cpg/sg15_145_cif.got.tgz:288659.got - 2010.06.28 07:06:18.
