data_PCOD8136926
_publ_section_title
;
Structure prediction by ZEFSAII (Michael W. Deem and Ramdas Pophale) SiO2 
 PCOD8136926
Probable space group: C 2/C
;
_chemical_formula_sum "Si O2"
_cell_formula_units_Z 48
_cell_length_a 6.358021
_cell_length_b 27.902799
_cell_length_c 15.974868
_cell_angle_alpha 90.000000
_cell_angle_beta 51.727178
_cell_angle_gamma 90.000000
_cell_volume 2224.925836
_symmetry_space_group_name_H-M "C 2/C"
_symmetry_group_IT_number 15
_symmetry_cell_setting 'monoclinic'
loop_
_space_group_symop_operation_xyz
x,y,z
-x,y,1/2-z
-x,-y,-z
x,-y,1/2+z
1/2+x,1/2+y,z
1/2-x,1/2+y,1/2-z
1/2-x,1/2-y,-z
1/2+x,1/2-y,1/2+z
loop_
_atom_site_type_symbol
_atom_site_label
_atom_site_fract_x
_atom_site_fract_y
_atom_site_fract_z
Si Si1 0.547926 0.383637 0.830217
Si Si2 0.108563 0.719112 0.963076
Si Si3 0.006356 0.221834 0.339098
Si Si4 0.118586 0.546085 0.629004
Si Si5 0.729476 0.440439 0.934431
Si Si6 0.033770 0.613752 0.974234
O O1 0.500000 0.406702 0.750000
O O2 0.661261 0.329462 0.792637
O O3 0.736678 0.418454 0.838511
O O4 0.280719 0.376666 0.949698
O O5 0.202908 0.663640 0.927669
O O6 0.177050 0.745376 0.859348
O O7 0.250000 0.750000 0.000000
O O8 0.794559 0.716865 0.055444
O O9 0.000000 0.247054 0.250000
O O10 0.111226 0.490426 0.605920
O O11 0.433042 0.558817 0.547407
O O12 0.000000 0.555587 0.750000
O O13 0.926070 0.576807 0.613448
O O14 0.903725 0.407640 0.951057
#
# Coordination Sequence:
#
# PCOD8136926 Si02
#       6
#     8   8   8   8   8   8
#     4   9  19  34  57  87 112 141 182 228 283 329
#     4  10  20  35  57  82 109 149 183 227 276 328
#     4   9  19  36  54  80 116 144 176 230 280 331
#     4  10  23  40  56  81 112 149 186 229 282 330
#     4  10  21  39  58  83 110 147 186 234 275 333
#     4  10  21  37  57  81 113 143 188 231 272 334
#
# _framework density 21.573751999999999
#
# number of rings (size 3 to 8) (size 9 to 14) (size 15 to 20)
#    0.000    2.333    0.000    1.500    2.333    3.333 
#    0.000    6.667    0.000    0.000    0.000    0.000 
#    0.000    0.000    0.000    0.000    0.000    0.000 
#
# Total GULP energy -297381.891064 kJ/mol
# GULP energy per Si atom -12390.912128 kJ/mol
# Density = 2.152465 g / cm^3
# Si number density = 21.573752 Si / 1000 Ang^3
#
#
#
# Elastic Constant Matrix: (Units=GPa)
#
#
# Indices 1 2 3 4 5 6 
#
# 1 89.1288 75.8133 31.8259 0.0000 46.6348 0.0000
# 2 75.8133 173.2309 44.7924 0.0000 43.0728 0.0000
# 3 31.8259 44.7924 96.9837 0.0000 46.8255 0.0000
# 4 0.0000 0.0000 0.0000 29.0380 0.0000 12.1400
# 5 46.6348 43.0728 46.8255 0.0000 50.4796 0.0000
# 6 0.0000 0.0000 0.0000 12.1400 0.0000 32.1370
#
#
#
# Elastic Compliance Matrix: (Units=1/GPa)
#
#
# Indices 1 2 3 4 5 6 
#
# 1 0.029840 -0.008128 0.007105 0.000000 -0.027223 0.000000
# 2 -0.008128 0.009564 -0.002599 0.000000 0.001759 0.000000
# 3 0.007105 -0.002599 0.020427 0.000000 -0.023295 0.000000
# 4 0.000000 0.000000 0.000000 0.040896 0.000000 -0.015449
# 5 -0.027223 0.001759 -0.023295 0.000000 0.065068 0.000000
# 6 0.000000 0.000000 0.000000 -0.015449 0.000000 0.036953
#
#
# Mechanical properties :
#
#
# Convention : Reuss Voigt Hill
#
# Bulk Modulus (GPa) = 19.01565 73.80072 46.40819
# Shear Modulus (GPa) = 21.97605 36.12504 29.05054
#
# Velocity S-wave (km/s) = 3.19509 4.09649 3.67354
# Velocity P-wave (km/s) = 4.73760 7.52714 6.28899
#
# Compressibility (1/GPa) = 0.05258825
#
# Stress axis : x y z
#
# Youngs Moduli (GPa) = 33.51220 104.55374 48.95506
#
# Poissons Ratio (x) = 0.84977 -0.34785
# Poissons Ratio (y) = 0.27237 0.12725
# Poissons Ratio (z) = -0.23812 0.27178
#
# Static dielectric constant tensor:
#      x y z
#    x 3.728270 0.000000 0.214980 
#    y 0.000000 4.312940 0.000000 
#    z 0.214980 0.000000 3.856360 
# 
# 
# High freq. dielectric constant tensor:
#      x y z
#    x 1.834670 0.000000 0.019990 
#    y 0.000000 1.852590 0.000000 
#    z 0.019990 0.000000 1.839450 
# 
# From -- ./inp_files/130600.got.cif
#   From: 2010.06.25/outbox.cif.g09.slc.cpg/sg15_66_cif.got.tgz:130600.got - 2010.06.28 07:06:18.
