data_PCOD8136912
_publ_section_title
;
Structure prediction by ZEFSAII (Michael W. Deem and Ramdas Pophale) SiO2 
 PCOD8136912
Probable space group: C 2/C
;
_chemical_formula_sum "Si O2"
_cell_formula_units_Z 56
_cell_length_a 27.442481
_cell_length_b 16.515231
_cell_length_c 17.991200
_cell_angle_alpha 90.000000
_cell_angle_beta 20.016094
_cell_angle_gamma 90.000000
_cell_volume 2790.968021
_symmetry_space_group_name_H-M "C 2/C"
_symmetry_group_IT_number 15
_symmetry_cell_setting 'monoclinic'
loop_
_space_group_symop_operation_xyz
x,y,z
-x,y,1/2-z
-x,-y,-z
x,-y,1/2+z
1/2+x,1/2+y,z
1/2-x,1/2+y,1/2-z
1/2-x,1/2-y,-z
1/2+x,1/2-y,1/2+z
loop_
_atom_site_type_symbol
_atom_site_label
_atom_site_fract_x
_atom_site_fract_y
_atom_site_fract_z
Si Si1 0.159323 0.755868 0.517146
Si Si2 0.169170 0.631621 0.635974
Si Si3 0.368132 0.152913 0.386149
Si Si4 0.178533 0.001871 0.163881
Si Si5 0.138736 0.341338 0.899720
Si Si6 0.909018 0.903209 0.563502
Si Si7 0.401817 0.245298 0.194388
O O1 0.184037 0.687356 0.542716
O O2 0.274456 0.825995 0.369273
O O3 0.184349 0.720081 0.399949
O O4 0.000000 0.792011 0.750000
O O5 0.269586 0.554512 0.479963
O O6 0.002797 0.606311 0.879370
O O7 0.500000 0.164704 0.250000
O O8 0.301478 0.064909 0.497268
O O9 0.424205 0.172697 0.222133
O O10 0.254130 0.220039 0.570265
O O11 0.028652 0.961052 0.356897
O O12 0.156219 0.057743 0.268257
O O13 0.278030 0.398479 0.692008
O O14 0.096905 0.291046 0.888664
O O15 0.976578 0.814280 0.478962
#
# Coordination Sequence:
#
# PCOD8136912 Si02
#       7
#     8   8   8   8   8   8   8
#     4   9  19  32  54  86 120 159 195 246 304 357
#     4  10  20  35  56  89 122 156 207 249 299 378
#     4  10  22  40  65  86 119 164 209 256 311 365
#     4  10  22  38  60  86 124 163 205 248 313 384
#     4  11  20  34  65  90 121 156 205 259 304 357
#     4  10  21  38  61  89 119 165 203 255 311 365
#     4  10  22  40  62  94 118 155 215 262 296 370
#
# _framework density 20.064723000000001
#
# number of rings (size 3 to 8) (size 9 to 14) (size 15 to 20)
#    0.000    2.000    1.429    1.714    6.000    0.000 
#    0.000    2.143    0.000    0.000    0.000    0.000 
#    0.000    0.000    0.000    0.000    0.000    0.000 
#
# Total GULP energy -347006.172772 kJ/mol
# GULP energy per Si atom -12393.077599 kJ/mol
# Density = 2.001905 g / cm^3
# Si number density = 20.064723 Si / 1000 Ang^3
#
#
#
# Elastic Constant Matrix: (Units=GPa)
#
#
# Indices 1 2 3 4 5 6 
#
# 1 95.0526 32.5601 57.5995 0.0024 -8.0737 -0.0013
# 2 32.5601 72.9360 61.2944 0.0027 -6.2109 -0.0018
# 3 57.5995 61.2944 115.4903 0.0036 -24.2505 -0.0024
# 4 0.0024 0.0027 0.0036 26.6489 -0.0026 9.5515
# 5 -8.0737 -6.2109 -24.2505 -0.0026 36.6363 0.0015
# 6 -0.0013 -0.0018 -0.0024 9.5515 0.0015 17.7795
#
#
#
# Elastic Compliance Matrix: (Units=1/GPa)
#
#
# Indices 1 2 3 4 5 6 
#
# 1 0.015202 -0.000445 -0.007733 -0.000001 -0.001844 0.000001
# 2 -0.000445 0.025655 -0.014519 -0.000002 -0.005359 0.000002
# 3 -0.007733 -0.014519 0.022470 0.000000 0.010708 0.000000
# 4 -0.000001 -0.000002 0.000000 0.046473 0.000004 -0.024966
# 5 -0.001844 -0.005359 0.010708 0.000004 0.033068 -0.000004
# 6 0.000001 0.000002 0.000000 -0.024966 -0.000004 0.069657
#
#
# Mechanical properties :
#
#
# Convention : Reuss Voigt Hill
#
# Bulk Modulus (GPa) = 55.76529 65.15412 60.45970
# Shear Modulus (GPa) = 18.94682 25.01461 21.98072
#
# Velocity S-wave (km/s) = 3.07626 3.53469 3.31341
# Velocity P-wave (km/s) = 6.36167 7.01435 6.69597
#
# Compressibility (1/GPa) = 0.01793230
#
# Stress axis : x y z
#
# Youngs Moduli (GPa) = 65.77959 38.97933 44.50434
#
# Poissons Ratio (x) = 0.01734 0.34415
# Poissons Ratio (y) = 0.02926 0.64617
# Poissons Ratio (z) = 0.50868 0.56595
#
# Static dielectric constant tensor:
#      x y z
#    x 3.601690 0.000000 -0.162900 
#    y 0.000000 3.640780 0.000000 
#    z -0.162900 0.000000 4.086600 
# 
# 
# High freq. dielectric constant tensor:
#      x y z
#    x 1.765420 0.000000 -0.012450 
#    y 0.000000 1.762750 0.000000 
#    z -0.012450 0.000000 1.808920 
# 
# From -- ./inp_files/222915.got.cif
#   From: 2010.06.25/outbox.cif.g09.slc.cpg/sg15_112_cif.got.tgz:222915.got - 2010.06.28 07:06:18.
