data_PCOD8136121
_publ_section_title
;
Structure prediction by ZEFSAII (Michael W. Deem and Ramdas Pophale) SiO2 
 PCOD8136121
Probable space group: C 2/C
;
_chemical_formula_sum "Si O2"
_cell_formula_units_Z 44
_cell_length_a 14.473111
_cell_length_b 22.648496
_cell_length_c 8.540290
_cell_angle_alpha 90.000000
_cell_angle_beta 58.223803
_cell_angle_gamma 90.000000
_cell_volume 2379.851122
_symmetry_space_group_name_H-M "C 2/C"
_symmetry_group_IT_number 15
_symmetry_cell_setting 'monoclinic'
loop_
_space_group_symop_operation_xyz
x,y,z
-x,y,1/2-z
-x,-y,-z
x,-y,1/2+z
1/2+x,1/2+y,z
1/2-x,1/2+y,1/2-z
1/2-x,1/2-y,-z
1/2+x,1/2-y,1/2+z
loop_
_atom_site_type_symbol
_atom_site_label
_atom_site_fract_x
_atom_site_fract_y
_atom_site_fract_z
Si Si1 0.993545 0.193121 0.071124
Si Si2 0.769217 0.829431 0.639938
Si Si3 0.945850 0.325042 0.131397
Si Si4 0.908826 0.580723 0.104053
Si Si5 0.000000 0.488949 0.250000
Si Si6 0.280834 0.696343 0.768509
O O1 0.892407 0.158376 0.086642
O O2 0.977980 0.261174 0.037779
O O3 0.000000 0.183378 0.250000
O O4 0.105608 0.170819 0.895270
O O5 0.702840 0.884106 0.771040
O O6 0.721800 0.767497 0.746404
O O7 0.762242 0.827383 0.459306
O O8 0.815037 0.330063 0.255208
O O9 0.000000 0.336859 0.250000
O O10 0.991301 0.372969 0.967872
O O11 0.919681 0.528910 0.219515
O O12 0.917560 0.551346 0.924317
#
# Coordination Sequence:
#
# PCOD8136121 Si02
#       6
#     8   8   8   8   4   8
#     4  10  21  32  52  85 116 153 184 210 264 357
#     4  10  21  34  56  76 118 153 181 225 274 327
#     4  10  20  31  55  80 119 150 176 224 276 329
#     4  11  20  39  53  85 106 150 180 245 273 323
#     4  10  24  34  58  78 110 138 206 230 288 310
#     4  10  20  34  51  85 116 154 182 209 267 357
#
# _framework density 18.488551000000001
#
# number of rings (size 3 to 8) (size 9 to 14) (size 15 to 20)
#    0.000    1.818    2.727    1.636    2.545    2.182 
#    0.000    0.000    0.000    0.000    0.000   31.818 
#    0.000    0.000    0.000    0.000    0.000    0.000 
#
# Total GULP energy -272765.088196 kJ/mol
# GULP energy per Si atom -12398.413100 kJ/mol
# Density = 1.844647 g / cm^3
# Si number density = 18.488551 Si / 1000 Ang^3
#
#
#
# Elastic Constant Matrix: (Units=GPa)
#
#
# Indices 1 2 3 4 5 6 
#
# 1 144.0193 46.7912 67.4032 0.0000 -20.8974 0.0000
# 2 46.7912 83.0467 53.1211 0.0000 -6.6620 0.0000
# 3 67.4032 53.1211 119.8487 0.0000 -18.8471 0.0000
# 4 0.0000 0.0000 0.0000 30.3721 0.0000 -6.6951
# 5 -20.8974 -6.6620 -18.8471 0.0000 36.9541 0.0000
# 6 0.0000 0.0000 0.0000 -6.6951 0.0000 17.1819
#
#
#
# Elastic Compliance Matrix: (Units=1/GPa)
#
#
# Indices 1 2 3 4 5 6 
#
# 1 0.010217 -0.002997 -0.003907 0.000000 0.003244 0.000000
# 2 -0.002997 0.017709 -0.006445 0.000000 -0.001789 0.000000
# 3 -0.003907 -0.006445 0.013990 0.000000 0.003764 0.000000
# 4 0.000000 0.000000 0.000000 0.036019 0.000000 0.014035
# 5 0.003244 -0.001789 0.003764 0.000000 0.030492 0.000000
# 6 0.000000 0.000000 0.000000 0.014035 0.000000 0.063670
#
#
# Mechanical properties :
#
#
# Convention : Reuss Voigt Hill
#
# Bulk Modulus (GPa) = 65.71648 75.72729 70.72189
# Shear Modulus (GPa) = 24.52571 28.87490 26.70030
#
# Velocity S-wave (km/s) = 3.64611 3.95621 3.80432
# Velocity P-wave (km/s) = 7.30391 7.86872 7.59157
#
# Compressibility (1/GPa) = 0.01521688
#
# Stress axis : x y z
#
# Youngs Moduli (GPa) = 97.87975 56.46818 71.47966
#
# Poissons Ratio (x) = 0.16922 0.27930
# Poissons Ratio (y) = 0.29332 0.46071
# Poissons Ratio (z) = 0.38245 0.36395
#
# Static dielectric constant tensor:
#      x y z
#    x 3.473070 0.000000 -0.001200 
#    y 0.000000 3.299230 0.000000 
#    z -0.001200 0.000000 3.381990 
# 
# 
# High freq. dielectric constant tensor:
#      x y z
#    x 1.718550 0.000000 0.004470 
#    y 0.000000 1.684660 0.000000 
#    z 0.004470 0.000000 1.721600 
# 
# From -- ./inp_files/32441.got.cif
#   From: 2010.06.25/outbox.cif.g09.slc.cpg/sg15_17_cif.got.tgz:32441.got - 2010.06.28 07:06:18.
