data_PCOD8136271
_publ_section_title
;
Structure prediction by ZEFSAII (Michael W. Deem and Ramdas Pophale) SiO2 
 PCOD8136271
Probable space group: C 2/C
;
_chemical_formula_sum "Si O2"
_cell_formula_units_Z 48
_cell_length_a 22.506735
_cell_length_b 13.609862
_cell_length_c 20.171727
_cell_angle_alpha 90.000000
_cell_angle_beta 22.820243
_cell_angle_gamma 90.000000
_cell_volume 2396.422085
_symmetry_space_group_name_H-M "C 2/C"
_symmetry_group_IT_number 15
_symmetry_cell_setting 'monoclinic'
loop_
_space_group_symop_operation_xyz
x,y,z
-x,y,1/2-z
-x,-y,-z
x,-y,1/2+z
1/2+x,1/2+y,z
1/2-x,1/2+y,1/2-z
1/2-x,1/2-y,-z
1/2+x,1/2-y,1/2+z
loop_
_atom_site_type_symbol
_atom_site_label
_atom_site_fract_x
_atom_site_fract_y
_atom_site_fract_z
Si Si1 0.299681 0.005162 0.094470
Si Si2 0.252479 0.633545 0.738520
Si Si3 0.898808 0.237519 0.292687
Si Si4 0.822534 0.964771 0.915234
Si Si5 0.918216 0.173127 0.134538
Si Si6 0.853544 0.437310 0.283066
O O1 0.219730 0.974005 0.107180
O O2 0.203422 0.084725 0.235521
O O3 0.315067 0.908028 0.123279
O O4 0.465773 0.047635 0.906086
O O5 0.166230 0.734909 0.812280
O O6 0.434900 0.645854 0.560791
O O7 0.220281 0.552319 0.713773
O O8 0.785172 0.150735 0.435202
O O9 0.988562 0.194425 0.135819
O O10 0.807385 0.328931 0.356696
O O11 0.000000 0.272613 0.250000
O O12 0.000000 0.975369 0.750000
O O13 0.725013 0.004754 0.078904
#
# Coordination Sequence:
#
# PCOD8136271 Si02
#       6
#     8   8   8   8   8   8
#     4  11  22  36  56  84 114 150 188 227 277 335
#     4  11  22  37  56  83 113 149 189 230 277 333
#     4   9  16  28  47  74 107 141 169 203 263 336
#     4  10  20  33  51  80 113 148 182 223 277 338
#     4  10  21  36  54  79 114 147 186 231 276 331
#     4  11  20  32  51  80 114 147 181 222 272 337
#
# _framework density 20.029859999999999
#
# number of rings (size 3 to 8) (size 9 to 14) (size 15 to 20)
#    0.000    1.667    0.000    8.000    0.000    5.333 
#    0.000    0.000    0.000    0.000    0.000   16.333 
#    0.000    0.000    0.000    0.000    0.000    0.000 
#
# Total GULP energy -297386.801012 kJ/mol
# GULP energy per Si atom -12391.116709 kJ/mol
# Density = 1.998427 g / cm^3
# Si number density = 20.029860 Si / 1000 Ang^3
#
#
#
# Elastic Constant Matrix: (Units=GPa)
#
#
# Indices 1 2 3 4 5 6 
#
# 1 111.8927 31.9882 48.8163 -0.0052 5.0853 0.0019
# 2 31.9882 35.2686 20.0984 -0.0252 0.3903 0.0179
# 3 48.8163 20.0984 109.4743 -0.0138 -6.3615 0.0123
# 4 -0.0052 -0.0252 -0.0138 9.0901 0.0091 3.3317
# 5 5.0853 0.3903 -6.3615 0.0091 30.1918 -0.0071
# 6 0.0019 0.0179 0.0123 3.3317 -0.0071 24.0550
#
#
#
# Elastic Compliance Matrix: (Units=1/GPa)
#
#
# Indices 1 2 3 4 5 6 
#
# 1 0.013930 -0.010001 -0.004560 -0.000028 -0.003178 0.000012
# 2 -0.010001 0.038928 -0.002651 0.000113 0.000623 -0.000042
# 3 -0.004560 -0.002651 0.011847 0.000006 0.003298 -0.000004
# 4 -0.000028 0.000113 0.000006 0.115894 -0.000034 -0.016052
# 5 -0.003178 0.000623 0.003298 -0.000034 0.034344 0.000013
# 6 0.000012 -0.000042 -0.000004 -0.016052 0.000013 0.043795
#
#
# Mechanical properties :
#
#
# Convention : Reuss Voigt Hill
#
# Bulk Modulus (GPa) = 33.02440 50.93794 41.98117
# Shear Modulus (GPa) = 16.48778 23.04955 19.76867
#
# Velocity S-wave (km/s) = 2.87219 3.39596 3.14500
# Velocity P-wave (km/s) = 5.24621 6.39242 5.84746
#
# Compressibility (1/GPa) = 0.03028064
#
# Stress axis : x y z
#
# Youngs Moduli (GPa) = 71.78698 25.68830 84.41310
#
# Poissons Ratio (x) = 0.25690 0.38495
# Poissons Ratio (y) = 0.71791 0.22380
# Poissons Ratio (z) = 0.32737 0.06811
#
# Static dielectric constant tensor:
#      x y z
#    x 3.891010 0.000000 0.261520 
#    y 0.000000 3.133320 0.000010 
#    z 0.261520 0.000010 3.643880 
# 
# 
# High freq. dielectric constant tensor:
#      x y z
#    x 1.791380 0.000000 0.005320 
#    y 0.000000 1.711910 0.000000 
#    z 0.005320 0.000000 1.796270 
# 
# From -- ./inp_files/70004.got.cif
#   From: 2010.06.25/outbox.cif.g09.slc.cpg/sg15_36_cif.got.tgz:70004.got - 2010.06.28 07:06:18.
