data_PCOD8136205
_publ_section_title
;
Structure prediction by ZEFSAII (Michael W. Deem and Ramdas Pophale) SiO2 
 PCOD8136205
Probable space group: C 2/C
;
_chemical_formula_sum "Si O2"
_cell_formula_units_Z 64
_cell_length_a 8.714220
_cell_length_b 19.521342
_cell_length_c 24.180709
_cell_angle_alpha 90.000000
_cell_angle_beta 54.370279
_cell_angle_gamma 90.000000
_cell_volume 3343.414443
_symmetry_space_group_name_H-M "C 2/C"
_symmetry_group_IT_number 15
_symmetry_cell_setting 'monoclinic'
loop_
_space_group_symop_operation_xyz
x,y,z
-x,y,1/2-z
-x,-y,-z
x,-y,1/2+z
1/2+x,1/2+y,z
1/2-x,1/2+y,1/2-z
1/2-x,1/2-y,-z
1/2+x,1/2-y,1/2+z
loop_
_atom_site_type_symbol
_atom_site_label
_atom_site_fract_x
_atom_site_fract_y
_atom_site_fract_z
Si Si1 0.389939 0.324706 0.216208
Si Si2 0.220913 0.490401 0.883748
Si Si3 0.904302 0.096180 0.922427
Si Si4 0.382428 0.559094 0.200674
Si Si5 0.130044 0.559201 0.792645
Si Si6 0.407066 0.831914 0.709874
Si Si7 0.883428 0.595937 0.431843
Si Si8 0.770525 0.996960 0.119707
O O1 0.500000 0.335055 0.250000
O O2 0.524563 0.351422 0.138819
O O3 0.187623 0.363010 0.264400
O O4 0.343688 0.245759 0.214043
O O5 0.282167 0.532780 0.924327
O O6 0.400858 0.445125 0.824907
O O7 0.146003 0.544811 0.854674
O O8 0.060917 0.433594 0.929465
O O9 0.081403 0.064754 0.918389
O O10 0.762660 0.133835 0.995696
O O11 0.293065 0.485054 0.230567
O O12 0.278707 0.620718 0.253910
O O13 0.351573 0.559805 0.140613
O O14 0.921787 0.538248 0.815080
O O15 0.500000 0.843438 0.750000
O O16 0.549932 0.853675 0.631170
O O17 0.773586 0.530499 0.429875
#
# Coordination Sequence:
#
# PCOD8136205 Si02
#       8
#     8   8   8   8   8   8   8   8
#     4  11  22  36  57  82 108 146 187 224 273 331
#     4  10  20  32  58  84 110 139 182 226 276 319
#     4  11  22  36  54  83 114 146 180 224 273 324
#     4  11  17  33  59  83 107 139 180 233 274 317
#     4  11  17  33  59  83 107 139 180 233 274 317
#     4  11  22  36  57  82 108 146 187 224 273 331
#     4  11  22  36  54  83 114 146 180 224 273 324
#     4  10  20  32  58  84 110 139 182 226 276 319
#
# _framework density 19.142106999999999
#
# number of rings (size 3 to 8) (size 9 to 14) (size 15 to 20)
#    0.000    1.250    7.500    1.500    0.000    0.500 
#    0.000    2.500    0.000    0.000    0.000    3.500 
#    0.000    0.000    0.000    0.000    0.000    0.000 
#
# Total GULP energy -396612.132478 kJ/mol
# GULP energy per Si atom -12394.129140 kJ/mol
# Density = 1.909854 g / cm^3
# Si number density = 19.142107 Si / 1000 Ang^3
#
#
#
# Elastic Constant Matrix: (Units=GPa)
#
#
# Indices 1 2 3 4 5 6 
#
# 1 70.1052 27.5844 22.1431 0.0001 -12.2449 -0.0003
# 2 27.5844 99.3868 38.3730 0.0000 -6.8026 -0.0001
# 3 22.1431 38.3730 119.7535 0.0002 -11.6116 -0.0002
# 4 0.0001 0.0000 0.0002 15.8716 -0.0002 -1.8919
# 5 -12.2449 -6.8026 -11.6116 -0.0002 22.2321 0.0001
# 6 -0.0003 -0.0001 -0.0002 -1.8919 0.0001 20.6566
#
#
#
# Elastic Compliance Matrix: (Units=1/GPa)
#
#
# Indices 1 2 3 4 5 6 
#
# 1 0.017542 -0.003850 -0.001251 0.000000 0.007830 0.000000
# 2 -0.003850 0.012387 -0.003261 0.000000 -0.000033 0.000000
# 3 -0.001251 -0.003261 0.009968 0.000000 0.003520 0.000000
# 4 0.000000 0.000000 0.000000 0.063701 0.000001 0.005834
# 5 0.007830 -0.000033 0.003520 0.000001 0.051121 0.000000
# 6 0.000000 0.000000 0.000000 0.005834 0.000000 0.048945
#
#
# Mechanical properties :
#
#
# Convention : Reuss Voigt Hill
#
# Bulk Modulus (GPa) = 43.15117 51.71627 47.43372
# Shear Modulus (GPa) = 21.91922 25.16173 23.54047
#
# Velocity S-wave (km/s) = 3.38757 3.62950 3.51062
# Velocity P-wave (km/s) = 6.15568 6.68132 6.42387
#
# Compressibility (1/GPa) = 0.02317434
#
# Stress axis : x y z
#
# Youngs Moduli (GPa) = 57.00667 80.73118 100.32320
#
# Poissons Ratio (x) = 0.31080 0.12548
# Poissons Ratio (y) = 0.21946 0.32710
# Poissons Ratio (z) = 0.07130 0.26322
#
# Static dielectric constant tensor:
#      x y z
#    x 3.746240 0.000000 -0.025960 
#    y 0.000000 3.229150 0.000000 
#    z -0.025960 0.000000 3.501460 
# 
# 
# High freq. dielectric constant tensor:
#      x y z
#    x 1.756220 0.000000 0.001270 
#    y 0.000000 1.702790 0.000000 
#    z 0.001270 0.000000 1.744150 
# 
# From -- ./inp_files/289968.got.cif
#   From: 2010.06.25/outbox.cif.g09.slc.cpg/sg15_145_cif.got.tgz:289968.got - 2010.06.28 07:06:18.
