data_PCOD8136965
_publ_section_title
;
Structure prediction by ZEFSAII (Michael W. Deem and Ramdas Pophale) SiO2 
 PCOD8136965
Probable space group: C 2/C
;
_chemical_formula_sum "Si O2"
_cell_formula_units_Z 48
_cell_length_a 20.110277
_cell_length_b 11.907889
_cell_length_c 18.912030
_cell_angle_alpha 90.000000
_cell_angle_beta 146.494239
_cell_angle_gamma 90.000000
_cell_volume 2500.037039
_symmetry_space_group_name_H-M "C 2/C"
_symmetry_group_IT_number 15
_symmetry_cell_setting 'monoclinic'
loop_
_space_group_symop_operation_xyz
x,y,z
-x,y,1/2-z
-x,-y,-z
x,-y,1/2+z
1/2+x,1/2+y,z
1/2-x,1/2+y,1/2-z
1/2-x,1/2-y,-z
1/2+x,1/2-y,1/2+z
loop_
_atom_site_type_symbol
_atom_site_label
_atom_site_fract_x
_atom_site_fract_y
_atom_site_fract_z
Si Si1 0.910770 0.410508 0.887338
Si Si2 0.013990 0.496280 0.183328
Si Si3 0.063376 0.158056 0.540161
Si Si4 0.753565 0.403081 0.938718
Si Si5 0.753923 0.641163 0.593358
Si Si6 0.150415 0.968486 0.707799
O O1 0.940752 0.406034 0.829765
O O2 0.927560 0.289103 0.936500
O O3 0.776450 0.452953 0.780093
O O4 0.000000 0.500000 0.000000
O O5 0.110765 0.395531 0.267707
O O6 0.000000 0.547093 0.250000
O O7 0.889365 0.444209 0.045339
O O8 0.160584 0.109231 0.571121
O O9 0.087597 0.086898 0.632964
O O10 0.931939 0.134793 0.391631
O O11 0.745860 0.273307 0.914195
O O12 0.666121 0.468152 0.806900
O O13 0.713568 0.421113 0.984567
#
# Coordination Sequence:
#
# PCOD8136965 Si02
#       6
#     8   8   8   8   8   8
#     4  12  23  38  67  88 117 167 205 247 303 367
#     4  10  21  38  59  87 117 156 207 246 291 363
#     4  11  25  39  60  90 126 156 202 256 303 357
#     4  10  21  34  59  88 118 155 195 241 309 361
#     4  10  20  35  57  90 122 150 189 254 304 355
#     4  11  24  39  58  92 121 157 201 251 305 364
#
# _framework density 19.199715000000001
#
# number of rings (size 3 to 8) (size 9 to 14) (size 15 to 20)
#    0.000    1.333    5.000    0.000    7.000    0.667 
#    0.000    0.000    7.333    3.000    0.000    0.000 
#    0.000    0.000    0.000    0.000    0.000    0.000 
#
# Total GULP energy -297560.032062 kJ/mol
# GULP energy per Si atom -12398.334669 kJ/mol
# Density = 1.915602 g / cm^3
# Si number density = 19.199715 Si / 1000 Ang^3
#
#
#
# Elastic Constant Matrix: (Units=GPa)
#
#
# Indices 1 2 3 4 5 6 
#
# 1 101.3986 31.3978 35.2353 0.0000 -18.8799 0.0000
# 2 31.3978 72.4072 40.3248 0.0000 -9.7374 0.0000
# 3 35.2353 40.3248 129.8069 0.0000 -15.6753 0.0000
# 4 0.0000 0.0000 0.0000 25.0308 0.0000 -3.3650
# 5 -18.8799 -9.7374 -15.6753 0.0000 30.2530 0.0000
# 6 0.0000 0.0000 0.0000 -3.3650 0.0000 27.5105
#
#
#
# Elastic Compliance Matrix: (Units=1/GPa)
#
#
# Indices 1 2 3 4 5 6 
#
# 1 0.012684 -0.003854 -0.001536 0.000000 0.005879 0.000000
# 2 -0.003854 0.018107 -0.004444 0.000000 0.001121 0.000000
# 3 -0.001536 -0.004444 0.009827 0.000000 0.002703 0.000000
# 4 0.000000 0.000000 0.000000 0.040619 0.000000 0.004968
# 5 0.005879 0.001121 0.002703 0.000000 0.038485 0.000000
# 6 0.000000 0.000000 0.000000 0.004968 0.000000 0.036957
#
#
# Mechanical properties :
#
#
# Convention : Reuss Voigt Hill
#
# Bulk Modulus (GPa) = 47.72843 57.50317 52.61580
# Shear Modulus (GPa) = 27.27309 29.66918 28.47113
#
# Velocity S-wave (km/s) = 3.77303 3.93529 3.85501
# Velocity P-wave (km/s) = 6.62525 7.11784 6.87596
#
# Compressibility (1/GPa) = 0.02095187
#
# Stress axis : x y z
#
# Youngs Moduli (GPa) = 78.84049 55.22580 101.75551
#
# Poissons Ratio (x) = 0.21285 0.15626
# Poissons Ratio (y) = 0.30386 0.45216
# Poissons Ratio (z) = 0.12107 0.24540
#
# Static dielectric constant tensor:
#      x y z
#    x 4.022980 0.000000 -0.169180 
#    y 0.000000 3.229250 0.000000 
#    z -0.169180 0.000000 3.713040 
# 
# 
# High freq. dielectric constant tensor:
#      x y z
#    x 1.758810 0.000000 -0.006690 
#    y 0.000000 1.712990 0.000000 
#    z -0.006690 0.000000 1.763900 
# 
# From -- ./inp_files/252628.got.cif
#   From: 2010.06.25/outbox.cif.g09.slc.cpg/sg15_127_cif.got.tgz:252628.got - 2010.06.28 07:06:18.
