data_PCOD8136878
_publ_section_title
;
Structure prediction by ZEFSAII (Michael W. Deem and Ramdas Pophale) SiO2 
 PCOD8136878
Probable space group: C 2/C
;
_chemical_formula_sum "Si O2"
_cell_formula_units_Z 52
_cell_length_a 9.956039
_cell_length_b 15.837165
_cell_length_c 21.660477
_cell_angle_alpha 90.000000
_cell_angle_beta 51.489805
_cell_angle_gamma 90.000000
_cell_volume 2672.482912
_symmetry_space_group_name_H-M "C 2/C"
_symmetry_group_IT_number 15
_symmetry_cell_setting 'monoclinic'
loop_
_space_group_symop_operation_xyz
x,y,z
-x,y,1/2-z
-x,-y,-z
x,-y,1/2+z
1/2+x,1/2+y,z
1/2-x,1/2+y,1/2-z
1/2-x,1/2-y,-z
1/2+x,1/2-y,1/2+z
loop_
_atom_site_type_symbol
_atom_site_label
_atom_site_fract_x
_atom_site_fract_y
_atom_site_fract_z
Si Si1 0.000000 0.332563 0.750000
Si Si2 0.763673 0.694611 0.692476
Si Si3 0.556409 0.898338 0.864346
Si Si4 0.304550 0.754798 0.315109
Si Si5 0.168466 0.979080 0.172664
Si Si6 0.845152 0.677703 0.935429
Si Si7 0.334853 0.000123 0.503867
O O1 0.827878 0.278157 0.806503
O O2 0.983412 0.391129 0.695709
O O3 0.754142 0.690126 0.769840
O O4 0.659876 0.618413 0.692798
O O5 0.955348 0.696047 0.612373
O O6 0.666983 0.821557 0.862063
O O7 0.371295 0.917331 0.950263
O O8 0.665122 0.983380 0.841513
O O9 0.500000 0.719397 0.250000
O O10 0.292113 0.814967 0.378504
O O11 0.000000 0.023612 0.250000
O O12 0.172620 0.989092 0.096599
O O13 0.802029 0.584615 0.973509
O O14 0.750000 0.750000 0.000000
O O15 0.500000 0.000000 0.500000
#
# Coordination Sequence:
#
# PCOD8136878 Si02
#       7
#     4   8   8   8   8   8   8
#     4  10  22  38  60  88 124 154 196 234 304 354
#     4  10  20  38  57  87 115 157 197 233 294 356
#     4  10  20  37  59  86 116 154 192 243 291 350
#     4   9  20  34  55  85 117 150 199 237 285 347
#     4  11  21  37  63  81 113 155 199 240 290 356
#     4  11  20  35  61  86 117 154 197 249 286 346
#     4  10  20  35  55  87 113 149 196 235 296 340
#
# _framework density 19.457560000000001
#
# number of rings (size 3 to 8) (size 9 to 14) (size 15 to 20)
#    0.000    1.846    3.846    2.308    0.000    3.692 
#    0.000    2.308    0.000    2.769    0.000    0.000 
#    0.000    0.000    0.000    0.000    0.000    0.000 
#
# Total GULP energy -322218.721042 kJ/mol
# GULP energy per Si atom -12393.027732 kJ/mol
# Density = 1.941327 g / cm^3
# Si number density = 19.457560 Si / 1000 Ang^3
#
#
#
# Elastic Constant Matrix: (Units=GPa)
#
#
# Indices 1 2 3 4 5 6 
#
# 1 68.6221 32.9071 52.2430 0.0000 14.2899 0.0001
# 2 32.9071 98.7111 71.3364 0.0000 18.3882 0.0000
# 3 52.2430 71.3364 163.4766 0.0001 5.7038 0.0000
# 4 0.0000 0.0000 0.0001 37.1338 0.0000 5.6353
# 5 14.2899 18.3882 5.7038 0.0000 28.8337 0.0000
# 6 0.0001 0.0000 0.0000 5.6353 0.0000 30.1303
#
#
#
# Elastic Compliance Matrix: (Units=1/GPa)
#
#
# Indices 1 2 3 4 5 6 
#
# 1 0.021586 -0.001171 -0.006082 0.000000 -0.008748 0.000000
# 2 -0.001171 0.017084 -0.006767 0.000000 -0.008976 0.000000
# 3 -0.006082 -0.006767 0.010833 0.000000 0.005187 0.000000
# 4 0.000000 0.000000 0.000000 0.027716 0.000000 -0.005184
# 5 -0.008748 -0.008976 0.005187 0.000000 0.043715 0.000000
# 6 0.000000 0.000000 0.000000 -0.005184 0.000000 0.034159
#
#
# Mechanical properties :
#
#
# Convention : Reuss Voigt Hill
#
# Bulk Modulus (GPa) = 46.59497 71.53144 59.06320
# Shear Modulus (GPa) = 26.27591 30.84110 28.55851
#
# Velocity S-wave (km/s) = 3.67880 3.98558 3.83526
# Velocity P-wave (km/s) = 6.48411 7.61724 7.07340
#
# Compressibility (1/GPa) = 0.02146155
#
# Stress axis : x y z
#
# Youngs Moduli (GPa) = 46.32559 58.53550 92.31139
#
# Poissons Ratio (x) = 0.06855 0.56146
# Poissons Ratio (y) = 0.05425 0.62471
# Poissons Ratio (z) = 0.28176 0.39613
#
# Static dielectric constant tensor:
#      x y z
#    x 3.498660 0.000000 0.019150 
#    y 0.000000 3.451130 0.000000 
#    z 0.019150 0.000000 4.319930 
# 
# 
# High freq. dielectric constant tensor:
#      x y z
#    x 1.740980 0.000000 0.005320 
#    y 0.000000 1.746520 0.000000 
#    z 0.005320 0.000000 1.773210 
# 
# From -- ./inp_files/269706.got.cif
#   From: 2010.06.25/outbox.cif.g09.slc.cpg/sg15_135_cif.got.tgz:269706.got - 2010.06.28 07:06:18.
