data_PCOD8136807
_publ_section_title
;
Structure prediction by ZEFSAII (Michael W. Deem and Ramdas Pophale) SiO2 
 PCOD8136807
Probable space group: C 2/C
;
_chemical_formula_sum "Si O2"
_cell_formula_units_Z 56
_cell_length_a 24.898756
_cell_length_b 14.914894
_cell_length_c 9.239793
_cell_angle_alpha 90.000000
_cell_angle_beta 58.750110
_cell_angle_gamma 90.000000
_cell_volume 2933.471786
_symmetry_space_group_name_H-M "C 2/C"
_symmetry_group_IT_number 15
_symmetry_cell_setting 'monoclinic'
loop_
_space_group_symop_operation_xyz
x,y,z
-x,y,1/2-z
-x,-y,-z
x,-y,1/2+z
1/2+x,1/2+y,z
1/2-x,1/2+y,1/2-z
1/2-x,1/2-y,-z
1/2+x,1/2-y,1/2+z
loop_
_atom_site_type_symbol
_atom_site_label
_atom_site_fract_x
_atom_site_fract_y
_atom_site_fract_z
Si Si1 0.923641 0.869117 0.605758
Si Si2 0.779848 0.678248 0.349211
Si Si3 0.500000 0.282955 0.250000
Si Si4 0.583796 0.753392 0.891322
Si Si5 0.783348 0.001063 0.021992
Si Si6 0.632288 0.555077 0.831849
Si Si7 0.783010 0.175609 0.360476
Si Si8 0.500000 0.281869 0.750000
O O1 0.949776 0.838664 0.413725
O O2 0.858400 0.821624 0.744152
O O3 0.969294 0.846707 0.673726
O O4 0.918037 0.975512 0.593460
O O5 0.750000 0.750000 0.500000
O O6 0.853205 0.691740 0.219246
O O7 0.773544 0.572213 0.391828
O O8 0.740180 0.696301 0.264517
O O9 0.459349 0.226613 0.189682
O O10 0.597418 0.648326 0.902900
O O11 0.547990 0.781956 0.090760
O O12 0.810447 0.962537 0.135033
O O13 0.760203 0.919823 0.953989
O O14 0.839206 0.056849 0.868687
O O15 0.750000 0.250000 0.500000
#
# Coordination Sequence:
#
# PCOD8136807 Si02
#       8
#     8   8   4   8   8   8   8   4
#     4  10  20  35  52  79 117 160 193 241 294 343
#     4  12  22  38  62  88 115 162 197 243 306 360
#     4  10  22  37  52  84 119 160 208 240 281 370
#     4  11  22  36  58  83 118 160 201 246 300 351
#     4  11  21  37  55  89 125 152 190 249 301 359
#     4  11  20  35  56  83 126 155 196 250 287 365
#     4  11  23  38  61  89 120 152 197 253 315 359
#     4  10  22  35  50  80 117 160 210 240 277 358
#
# _framework density 19.090005999999999
#
# number of rings (size 3 to 8) (size 9 to 14) (size 15 to 20)
#    0.000    1.143    4.286    5.143    0.000    3.429 
#    0.000    0.000    0.000    0.000    0.000   17.000 
#    0.000    0.000    0.000    0.000    0.000    0.000 
#
# Total GULP energy -346932.177363 kJ/mol
# GULP energy per Si atom -12390.434906 kJ/mol
# Density = 1.904656 g / cm^3
# Si number density = 19.090006 Si / 1000 Ang^3
#
#
#
# Elastic Constant Matrix: (Units=GPa)
#
#
# Indices 1 2 3 4 5 6 
#
# 1 94.2604 41.0665 37.1872 0.0000 -1.7818 0.0000
# 2 41.0665 61.3878 50.8738 0.0000 -7.2356 0.0000
# 3 37.1872 50.8738 131.1991 0.0000 -11.4735 0.0000
# 4 0.0000 0.0000 0.0000 4.7356 0.0000 20.9062
# 5 -1.7818 -7.2356 -11.4735 0.0000 43.4218 0.0000
# 6 0.0000 0.0000 0.0000 20.9062 0.0000 -4.8269
#
#
#
# Elastic Compliance Matrix: (Units=1/GPa)
#
#
# Indices 1 2 3 4 5 6 
#
# 1 0.015054 -0.009706 -0.000605 0.000000 -0.001159 0.000000
# 2 -0.009706 0.030368 -0.008820 0.000000 0.002331 0.000000
# 3 -0.000605 -0.008820 0.011345 0.000000 0.001503 0.000000
# 4 0.000000 0.000000 0.000000 0.010495 0.000000 0.045455
# 5 -0.001159 0.002331 0.001503 0.000000 0.023768 0.000000
# 6 0.000000 0.000000 0.000000 0.045455 0.000000 -0.010296
#
#
# Mechanical properties :
#
#
# Convention : Reuss Voigt Hill
#
# Bulk Modulus (GPa) = 54.04174 60.56692 57.30433
# Shear Modulus (GPa) = 39.94753 19.18075 29.56414
#
# Velocity S-wave (km/s) = 4.57944 3.17322 3.93958
# Velocity P-wave (km/s) = 7.50547 6.72471 7.12579
#
# Compressibility (1/GPa) = 0.01850421
#
# Stress axis : x y z
#
# Youngs Moduli (GPa) = 66.42589 32.92984 88.14477
#
# Poissons Ratio (x) = 0.31963 0.05330
# Poissons Ratio (y) = 0.64476 0.77746
# Poissons Ratio (z) = 0.04016 0.29045
#
# Static dielectric constant tensor:
#      x y z
#    x 3.599990 0.000000 0.004700 
#    y 0.000000 3.233150 0.000000 
#    z 0.004700 0.000000 4.714600 
# 
# 
# High freq. dielectric constant tensor:
#      x y z
#    x 1.745280 0.000000 0.010430 
#    y 0.000000 1.699710 0.000000 
#    z 0.010430 0.000000 1.772030 
# 
# From -- ./inp_files/61501.got.cif
#   From: 2010.06.25/outbox.cif.g09.slc.cpg/sg15_31_cif.got.tgz:61501.got - 2010.06.28 07:06:18.
