data_PCOD8136176
_publ_section_title
;
Structure prediction by ZEFSAII (Michael W. Deem and Ramdas Pophale) SiO2 
 PCOD8136176
Probable space group: C 2/C
;
_chemical_formula_sum "Si O2"
_cell_formula_units_Z 28
_cell_length_a 15.233321
_cell_length_b 14.603680
_cell_length_c 9.387868
_cell_angle_alpha 90.000000
_cell_angle_beta 151.114682
_cell_angle_gamma 90.000000
_cell_volume 1008.842065
_symmetry_space_group_name_H-M "C 2/C"
_symmetry_group_IT_number 15
_symmetry_cell_setting 'monoclinic'
loop_
_space_group_symop_operation_xyz
x,y,z
-x,y,1/2-z
-x,-y,-z
x,-y,1/2+z
1/2+x,1/2+y,z
1/2-x,1/2+y,1/2-z
1/2-x,1/2-y,-z
1/2+x,1/2-y,1/2+z
loop_
_atom_site_type_symbol
_atom_site_label
_atom_site_fract_x
_atom_site_fract_y
_atom_site_fract_z
Si Si1 0.878634 0.822922 0.355239
Si Si2 0.625089 0.004525 0.810857
Si Si3 0.500000 0.528184 0.250000
Si Si4 0.500000 0.755110 0.750000
Si Si5 0.000000 0.678609 0.750000
O O1 0.008786 0.809284 0.403319
O O2 0.918055 0.914924 0.500706
O O3 0.899839 0.736995 0.489433
O O4 0.674784 0.822364 0.001500
O O5 0.500000 0.952496 0.750000
O O6 0.652522 0.112342 0.893638
O O7 0.500000 0.000000 0.500000
O O8 0.831232 0.966710 0.074047
#
# Coordination Sequence:
#
# PCOD8136176 Si02
#       5
#     8   8   4   4   4
#     4  10  20  38  64 100 131 165 203 256 343 378
#     4  10  24  45  64  95 123 172 226 261 310 377
#     4  11  22  44  73  88 131 181 200 264 336 389
#     4  10  20  32  54 104 140 150 206 258 302 404
#     4   9  20  42  63  90 133 173 206 262 320 395
#
# _framework density 27.754591000000001
#
# number of rings (size 3 to 8) (size 9 to 14) (size 15 to 20)
#    0.857    1.143    0.000    3.429    0.000    5.714 
#   15.429    1.429    0.000    0.000    0.000    0.000 
#    0.000    0.000    0.000    0.000    0.000    0.000 
#
# Total GULP energy -173449.760226 kJ/mol
# GULP energy per Si atom -12389.268588 kJ/mol
# Density = 2.769142 g / cm^3
# Si number density = 27.754591 Si / 1000 Ang^3
#
#
#
# Elastic Constant Matrix: (Units=GPa)
#
#
# Indices 1 2 3 4 5 6 
#
# 1 226.6129 15.0547 90.6610 0.0000 18.4071 0.0000
# 2 15.0547 34.0793 -8.3804 0.0000 6.7630 0.0000
# 3 90.6610 -8.3804 137.2465 0.0000 18.6790 0.0000
# 4 0.0000 0.0000 0.0000 30.8678 0.0000 16.7362
# 5 18.4071 6.7630 18.6790 0.0000 73.2699 0.0000
# 6 0.0000 0.0000 0.0000 16.7362 0.0000 -17.0345
#
#
#
# Elastic Compliance Matrix: (Units=1/GPa)
#
#
# Indices 1 2 3 4 5 6 
#
# 1 0.006490 -0.003954 -0.004513 0.000000 -0.000115 0.000000
# 2 -0.003954 0.033005 0.005083 0.000000 -0.003349 0.000000
# 3 -0.004513 0.005083 0.010864 0.000000 -0.002105 0.000000
# 4 0.000000 0.000000 0.000000 0.021137 0.000000 0.020767
# 5 -0.000115 -0.003349 -0.002105 0.000000 0.014523 0.000000
# 6 0.000000 0.000000 0.000000 0.020767 0.000000 -0.038301
#
#
# Mechanical properties :
#
#
# Convention : Reuss Voigt Hill
#
# Bulk Modulus (GPa) = 22.94061 65.84548 44.39304
# Shear Modulus (GPa) = 72.44649 37.46086 54.95368
#
# Velocity S-wave (km/s) = 5.11461 3.67784 4.45453
# Velocity P-wave (km/s) = 6.56981 6.46614 6.51818
#
# Compressibility (1/GPa) = 0.04359082
#
# Stress axis : x y z
#
# Youngs Moduli (GPa) = 154.07296 30.29878 92.04449
#
# Poissons Ratio (x) = 0.11981 0.41541
# Poissons Ratio (y) = 0.60923 -0.46787
# Poissons Ratio (z) = 0.69536 -0.15401
#
# Static dielectric constant tensor:
#      x y z
#    x 5.409310 0.000000 -0.088460 
#    y 0.000000 5.100520 0.000000 
#    z -0.088460 0.000000 4.860400 
# 
# 
# High freq. dielectric constant tensor:
#      x y z
#    x 2.140610 0.000000 -0.007780 
#    y 0.000000 2.105850 0.000000 
#    z -0.007780 0.000000 2.129190 
# 
# From -- ./inp_files/21919.got.cif
#   From: 2010.06.25/outbox.cif.g09.slc.cpg/sg15_11_cif.got.tgz:21919.got - 2010.06.28 07:06:18.
