data_PCOD8136308
_publ_section_title
;
Structure prediction by ZEFSAII (Michael W. Deem and Ramdas Pophale) SiO2 
 PCOD8136308
Probable space group: C 2/C
;
_chemical_formula_sum "Si O2"
_cell_formula_units_Z 56
_cell_length_a 16.854774
_cell_length_b 11.638569
_cell_length_c 16.041340
_cell_angle_alpha 90.000000
_cell_angle_beta 65.661782
_cell_angle_gamma 90.000000
_cell_volume 2867.099953
_symmetry_space_group_name_H-M "C 2/C"
_symmetry_group_IT_number 15
_symmetry_cell_setting 'monoclinic'
loop_
_space_group_symop_operation_xyz
x,y,z
-x,y,1/2-z
-x,-y,-z
x,-y,1/2+z
1/2+x,1/2+y,z
1/2-x,1/2+y,1/2-z
1/2-x,1/2-y,-z
1/2+x,1/2-y,1/2+z
loop_
_atom_site_type_symbol
_atom_site_label
_atom_site_fract_x
_atom_site_fract_y
_atom_site_fract_z
Si Si1 0.953415 0.133816 0.089587
Si Si2 0.319274 0.289166 0.265237
Si Si3 0.770007 0.101543 0.106288
Si Si4 0.124474 0.204364 0.075881
Si Si5 0.749019 0.335697 0.374904
Si Si6 0.516515 0.609264 0.878840
Si Si7 0.166393 0.944390 0.097190
O O1 0.854930 0.168369 0.108669
O O2 0.018829 0.218784 0.113115
O O3 0.946241 0.019324 0.148882
O O4 0.008054 0.119722 0.981449
O O5 0.311875 0.174259 0.325050
O O6 0.254665 0.278076 0.214507
O O7 0.417436 0.298466 0.187965
O O8 0.293262 0.400174 0.333343
O O9 0.763423 0.970333 0.137965
O O10 0.772360 0.098904 0.004894
O O11 0.158158 0.304394 0.123184
O O12 0.152936 0.080986 0.101731
O O13 0.171792 0.215245 0.965836
O O14 0.425548 0.621888 0.870797
#
# Coordination Sequence:
#
# PCOD8136308 Si02
#       7
#     8   8   8   8   8   8   8
#     4   9  15  34  56  80 111 143 181 238 293 331
#     4  12  20  31  52  83 114 144 192 234 280 356
#     4  10  21  35  52  80 122 152 180 236 298 346
#     4   9  18  35  58  81 109 146 189 239 297 338
#     4  10  20  33  53  86 113 145 189 241 289 341
#     4   9  16  31  56  82 106 138 185 242 283 335
#     4   9  20  34  55  80 112 149 185 236 298 341
#
# _framework density 19.531932999999999
#
# number of rings (size 3 to 8) (size 9 to 14) (size 15 to 20)
#    0.000    2.286    2.857    2.571    2.000    0.000 
#    0.000    0.714    0.000    3.429    0.000    7.000 
#    0.000    0.000    0.000    0.000    0.000    0.000 
#
# Total GULP energy -346866.825779 kJ/mol
# GULP energy per Si atom -12388.100921 kJ/mol
# Density = 1.948748 g / cm^3
# Si number density = 19.531933 Si / 1000 Ang^3
#
#
#
# Elastic Constant Matrix: (Units=GPa)
#
#
# Indices 1 2 3 4 5 6 
#
# 1 83.5828 25.8169 24.1461 0.0000 6.9966 0.0000
# 2 25.8169 41.5524 38.9813 0.0000 -1.9467 0.0000
# 3 24.1461 38.9813 84.9317 0.0000 6.0173 0.0000
# 4 0.0000 0.0000 0.0000 23.8181 0.0000 -1.6464
# 5 6.9966 -1.9467 6.0173 0.0000 31.9873 0.0000
# 6 0.0000 0.0000 0.0000 -1.6464 0.0000 29.4140
#
#
#
# Elastic Compliance Matrix: (Units=1/GPa)
#
#
# Indices 1 2 3 4 5 6 
#
# 1 0.015305 -0.010348 0.000689 0.000000 -0.004107 0.000000
# 2 -0.010348 0.050554 -0.020918 0.000000 0.009275 0.000000
# 3 0.000689 -0.020918 0.021567 0.000000 -0.005481 0.000000
# 4 0.000000 0.000000 0.000000 0.042148 0.000000 0.002359
# 5 -0.004107 0.009275 -0.005481 0.000000 0.033756 0.000000
# 6 0.000000 0.000000 0.000000 0.002359 0.000000 0.034129
#
#
# Mechanical properties :
#
#
# Convention : Reuss Voigt Hill
#
# Bulk Modulus (GPa) = 38.06285 43.10617 40.58451
# Shear Modulus (GPa) = 18.70062 25.11872 21.90967
#
# Velocity S-wave (km/s) = 3.09761 3.59002 3.35287
# Velocity P-wave (km/s) = 5.68536 6.26912 5.98436
#
# Compressibility (1/GPa) = 0.02627234
#
# Stress axis : x y z
#
# Youngs Moduli (GPa) = 65.33700 19.78098 46.36678
#
# Poissons Ratio (x) = 0.20470 -0.03196
# Poissons Ratio (y) = 0.67614 0.96989
# Poissons Ratio (z) = -0.04504 0.41377
#
# Static dielectric constant tensor:
#      x y z
#    x 3.582200 0.000000 0.144290 
#    y 0.000000 3.225370 0.000000 
#    z 0.144290 0.000000 3.638180 
# 
# 
# High freq. dielectric constant tensor:
#      x y z
#    x 1.747910 0.000000 0.015300 
#    y 0.000000 1.712500 0.000000 
#    z 0.015300 0.000000 1.770180 
# 
# From -- ./inp_files/160823.got.cif
#   From: 2010.06.25/outbox.cif.g09.slc.cpg/sg15_81_cif.got.tgz:160823.got - 2010.06.28 07:06:18.
