data_PCOD8136265
_publ_section_title
;
Structure prediction by ZEFSAII (Michael W. Deem and Ramdas Pophale) SiO2 
 PCOD8136265
Probable space group: C 2/C
;
_chemical_formula_sum "Si O2"
_cell_formula_units_Z 48
_cell_length_a 14.559869
_cell_length_b 11.608453
_cell_length_c 23.645172
_cell_angle_alpha 90.000000
_cell_angle_beta 39.360055
_cell_angle_gamma 90.000000
_cell_volume 2534.514610
_symmetry_space_group_name_H-M "C 2/C"
_symmetry_group_IT_number 15
_symmetry_cell_setting 'monoclinic'
loop_
_space_group_symop_operation_xyz
x,y,z
-x,y,1/2-z
-x,-y,-z
x,-y,1/2+z
1/2+x,1/2+y,z
1/2-x,1/2+y,1/2-z
1/2-x,1/2-y,-z
1/2+x,1/2-y,1/2+z
loop_
_atom_site_type_symbol
_atom_site_label
_atom_site_fract_x
_atom_site_fract_y
_atom_site_fract_z
Si Si1 0.820306 0.539131 0.421044
Si Si2 0.827569 0.356730 0.327493
Si Si3 0.349140 0.125973 0.110603
Si Si4 0.831775 0.579444 0.538577
Si Si5 0.663141 0.049864 0.263809
Si Si6 0.829642 0.273608 0.830046
O O1 0.774582 0.421333 0.410311
O O2 0.752987 0.554982 0.515756
O O3 0.768015 0.648082 0.410016
O O4 0.991942 0.539754 0.343418
O O5 0.740146 0.239261 0.362192
O O6 0.782182 0.435923 0.295120
O O7 0.000000 0.332727 0.250000
O O8 0.351135 0.046674 0.054723
O O9 0.280799 0.061129 0.198295
O O10 0.518730 0.150338 0.042518
O O11 0.735617 0.647822 0.629721
O O12 0.717210 0.166465 0.206478
O O13 0.000000 0.262131 0.750000
#
# Coordination Sequence:
#
# PCOD8136265 Si02
#       6
#     8   8   8   8   8   8
#     4   8  16  34  54  75 100 139 172 210 259 312
#     4   9  18  35  58  75 103 141 180 210 251 309
#     4  10  21  33  51  77 108 141 167 209 265 311
#     4  10  20  33  51  76 110 136 171 210 264 310
#     4   8  17  33  53  77 101 136 175 209 261 309
#     4   9  17  32  57  76  97 134 179 218 250 301
#
# _framework density 18.938538000000001
#
# number of rings (size 3 to 8) (size 9 to 14) (size 15 to 20)
#    0.000    3.000    0.000    2.500    2.333    1.333 
#    0.000    3.333    7.333    0.000    0.000    0.000 
#    0.000    0.000    0.000    0.000    0.000    0.000 
#
# Total GULP energy -297336.009097 kJ/mol
# GULP energy per Si atom -12389.000379 kJ/mol
# Density = 1.889543 g / cm^3
# Si number density = 18.938538 Si / 1000 Ang^3
#
#
#
# Elastic Constant Matrix: (Units=GPa)
#
#
# Indices 1 2 3 4 5 6 
#
# 1 58.2201 33.8446 29.4042 0.0000 18.0622 0.0000
# 2 33.8446 104.4594 38.3908 0.0000 -2.0736 0.0000
# 3 29.4042 38.3908 72.4886 0.0000 20.0748 0.0000
# 4 0.0000 0.0000 0.0000 30.6012 0.0000 -4.4818
# 5 18.0622 -2.0736 20.0748 0.0000 23.9801 0.0000
# 6 0.0000 0.0000 0.0000 -4.4818 0.0000 26.4958
#
#
#
# Elastic Compliance Matrix: (Units=1/GPa)
#
#
# Indices 1 2 3 4 5 6 
#
# 1 0.030691 -0.010227 -0.000503 0.000000 -0.023581 0.000000
# 2 -0.010227 0.016677 -0.009395 0.000000 0.017010 0.000000
# 3 -0.000503 -0.009395 0.024858 0.000000 -0.021243 0.000000
# 4 0.000000 0.000000 0.000000 0.033509 0.000000 0.005668
# 5 -0.023581 0.017010 -0.021243 0.000000 0.078717 0.000000
# 6 0.000000 0.000000 0.000000 0.005668 0.000000 0.038701
#
#
# Mechanical properties :
#
#
# Convention : Reuss Voigt Hill
#
# Bulk Modulus (GPa) = 31.27247 48.71635 39.99441
# Shear Modulus (GPa) = 18.24420 25.11733 21.68076
#
# Velocity S-wave (km/s) = 3.10713 3.64573 3.38715
# Velocity P-wave (km/s) = 5.42410 6.59553 6.03829
#
# Compressibility (1/GPa) = 0.03197701
#
# Stress axis : x y z
#
# Youngs Moduli (GPa) = 32.58287 59.96281 40.22899
#
# Poissons Ratio (x) = 0.61325 0.02022
# Poissons Ratio (y) = 0.33323 0.37793
# Poissons Ratio (z) = 0.01638 0.56332
#
# Static dielectric constant tensor:
#      x y z
#    x 3.456930 0.000000 0.485070 
#    y 0.000000 3.344520 0.000000 
#    z 0.485070 0.000000 3.589620 
# 
# 
# High freq. dielectric constant tensor:
#      x y z
#    x 1.715450 0.000000 0.031620 
#    y 0.000000 1.730180 0.000000 
#    z 0.031620 0.000000 1.724770 
# 
# From -- ./inp_files/151923.got.cif
#   From: 2010.06.25/outbox.cif.g09.slc.cpg/sg15_76_cif.got.tgz:151923.got - 2010.06.28 07:06:18.
