data_PCOD8136662
_publ_section_title
;
Structure prediction by ZEFSAII (Michael W. Deem and Ramdas Pophale) SiO2 
 PCOD8136662
Probable space group: C 2/C
;
_chemical_formula_sum "Si O2"
_cell_formula_units_Z 36
_cell_length_a 11.678176
_cell_length_b 16.665680
_cell_length_c 15.047899
_cell_angle_alpha 90.000000
_cell_angle_beta 36.167521
_cell_angle_gamma 90.000000
_cell_volume 1728.363003
_symmetry_space_group_name_H-M "C 2/C"
_symmetry_group_IT_number 15
_symmetry_cell_setting 'monoclinic'
loop_
_space_group_symop_operation_xyz
x,y,z
-x,y,1/2-z
-x,-y,-z
x,-y,1/2+z
1/2+x,1/2+y,z
1/2-x,1/2+y,1/2-z
1/2-x,1/2-y,-z
1/2+x,1/2-y,1/2+z
loop_
_atom_site_type_symbol
_atom_site_label
_atom_site_fract_x
_atom_site_fract_y
_atom_site_fract_z
Si Si1 0.083634 0.621496 0.967973
Si Si2 0.000000 0.143892 0.750000
Si Si3 0.477518 0.695920 0.958270
Si Si4 0.336827 0.073385 0.283585
Si Si5 0.143853 0.393537 0.236261
O O1 0.303474 0.591439 0.856547
O O2 0.031342 0.595775 0.900501
O O3 0.085554 0.717755 0.969085
O O4 0.919808 0.583119 0.132195
O O5 0.037131 0.197792 0.639520
O O6 0.693138 0.674064 0.855182
O O7 0.345465 0.629635 0.087749
O O8 0.500000 0.101279 0.250000
O O9 0.272709 0.981481 0.341505
O O10 0.000000 0.362590 0.250000
#
# Coordination Sequence:
#
# PCOD8136662 Si02
#       5
#     8   4   8   8   8
#     4  11  22  37  62  91 119 154 196 247 297 348
#     4  10  20  34  58  96 122 140 186 246 312 354
#     4  11  22  37  62  91 119 154 196 247 297 348
#     4  11  21  37  62  89 123 154 189 249 301 352
#     4  10  24  42  57  80 122 165 205 233 283 349
#
# _framework density 20.828956999999999
#
# number of rings (size 3 to 8) (size 9 to 14) (size 15 to 20)
#    0.000    1.333    2.222    4.667    3.111    0.889 
#    0.000    1.111    0.000    0.000    0.000    0.000 
#    0.000    0.000    0.000    0.000    0.000    0.000 
#
# Total GULP energy -223201.472166 kJ/mol
# GULP energy per Si atom -12400.081787 kJ/mol
# Density = 2.078155 g / cm^3
# Si number density = 20.828957 Si / 1000 Ang^3
#
#
#
# Elastic Constant Matrix: (Units=GPa)
#
#
# Indices 1 2 3 4 5 6 
#
# 1 142.6111 17.3381 43.7858 0.0077 15.9339 -0.0018
# 2 17.3381 53.9861 6.6684 0.0170 -3.2438 -0.0039
# 3 43.7858 6.6684 103.1910 0.0335 9.1997 -0.0134
# 4 0.0077 0.0170 0.0335 20.0894 -0.0161 5.0775
# 5 15.9339 -3.2438 9.1997 -0.0161 26.8589 0.0008
# 6 -0.0018 -0.0039 -0.0134 5.0775 0.0008 14.0829
#
#
#
# Elastic Compliance Matrix: (Units=1/GPa)
#
#
# Indices 1 2 3 4 5 6 
#
# 1 0.008813 -0.002708 -0.003166 0.000001 -0.004471 -0.000003
# 2 -0.002708 0.019704 -0.000495 -0.000014 0.004156 0.000009
# 3 -0.003166 -0.000495 0.011247 -0.000024 -0.002034 0.000019
# 4 0.000001 -0.000014 -0.000024 0.054768 0.000039 -0.019746
# 5 -0.004471 0.004156 -0.002034 0.000039 0.041083 -0.000018
# 6 -0.000003 0.000009 0.000019 -0.019746 -0.000018 0.078128
#
#
# Mechanical properties :
#
#
# Convention : Reuss Voigt Hill
#
# Bulk Modulus (GPa) = 37.00005 48.37473 42.68739
# Shear Modulus (GPa) = 21.23244 27.67262 24.45253
#
# Velocity S-wave (km/s) = 3.19622 3.64890 3.43004
# Velocity P-wave (km/s) = 5.60566 6.40530 6.01877
#
# Compressibility (1/GPa) = 0.02702699
#
# Stress axis : x y z
#
# Youngs Moduli (GPa) = 113.47086 50.75168 88.90920
#
# Poissons Ratio (x) = 0.13743 0.28148
# Poissons Ratio (y) = 0.30727 0.04399
# Poissons Ratio (z) = 0.35923 0.02511
#
# Static dielectric constant tensor:
#      x y z
#    x 3.823300 -0.000010 0.091070 
#    y -0.000010 3.522270 0.000020 
#    z 0.091070 0.000020 3.973220 
# 
# 
# High freq. dielectric constant tensor:
#      x y z
#    x 1.810160 0.000000 0.009590 
#    y 0.000000 1.800270 0.000000 
#    z 0.009590 0.000000 1.826310 
# 
# From -- ./inp_files/28719.got.cif
#   From: 2010.06.25/outbox.cif.g09.slc.cpg/sg15_15_cif.got.tgz:28719.got - 2010.06.28 07:06:18.
