data_PCOD8136393
_publ_section_title
;
Structure prediction by ZEFSAII (Michael W. Deem and Ramdas Pophale) SiO2 
 PCOD8136393
Probable space group: C 2/C
;
_chemical_formula_sum "Si O2"
_cell_formula_units_Z 48
_cell_length_a 6.821692
_cell_length_b 21.748857
_cell_length_c 16.602988
_cell_angle_alpha 90.000000
_cell_angle_beta 108.906213
_cell_angle_gamma 90.000000
_cell_volume 2330.392070
_symmetry_space_group_name_H-M "C 2/C"
_symmetry_group_IT_number 15
_symmetry_cell_setting 'monoclinic'
loop_
_space_group_symop_operation_xyz
x,y,z
-x,y,1/2-z
-x,-y,-z
x,-y,1/2+z
1/2+x,1/2+y,z
1/2-x,1/2+y,1/2-z
1/2-x,1/2-y,-z
1/2+x,1/2-y,1/2+z
loop_
_atom_site_type_symbol
_atom_site_label
_atom_site_fract_x
_atom_site_fract_y
_atom_site_fract_z
Si Si1 0.990608 0.882503 0.450606
Si Si2 0.788875 0.155464 0.767037
Si Si3 0.500000 0.945895 0.250000
Si Si4 0.294311 0.012081 0.575654
Si Si5 0.500000 0.737802 0.250000
Si Si6 0.068625 0.599636 0.504016
Si Si7 0.301120 0.690328 0.060950
O O1 0.819112 0.853927 0.367422
O O2 0.933948 0.955483 0.457798
O O3 0.969475 0.848643 0.533483
O O4 0.214703 0.869862 0.437410
O O5 0.646841 0.099398 0.716227
O O6 0.679202 0.220116 0.735443
O O7 0.000000 0.153702 0.750000
O O8 0.636289 0.990479 0.322641
O O9 0.456854 0.055902 0.551471
O O10 0.320093 0.942140 0.550818
O O11 0.401863 0.699766 0.162671
O O12 0.911239 0.651764 0.451973
O O13 0.250000 0.750000 0.000000
#
# Coordination Sequence:
#
# PCOD8136393 Si02
#       7
#     8   8   4   8   4   8   8
#     4  10  20  37  63  88 114 154 204 244 300 361
#     4  10  20  33  60  90 110 151 198 252 291 343
#     4   9  18  34  54  84 122 144 190 249 290 354
#     4   9  19  37  58  86 121 153 190 246 302 350
#     4  11  24  42  56  82 126 150 200 251 294 352
#     4  10  21  37  62  86 117 155 197 241 300 366
#     4  11  24  42  60  85 119 162 197 250 300 351
#
# _framework density 20.597393
#
# number of rings (size 3 to 8) (size 9 to 14) (size 15 to 20)
#    0.000    2.000    1.667    1.500    4.667    2.000 
#    3.000    0.000    0.000    0.000    0.000    0.000 
#    0.000    0.000    0.000    0.000    0.000    0.000 
#
# Total GULP energy -297325.343062 kJ/mol
# GULP energy per Si atom -12388.555961 kJ/mol
# Density = 2.055051 g / cm^3
# Si number density = 20.597393 Si / 1000 Ang^3
#
#
#
# Elastic Constant Matrix: (Units=GPa)
#
#
# Indices 1 2 3 4 5 6 
#
# 1 121.8769 15.8346 -8.7314 0.0000 12.5617 0.0000
# 2 15.8346 80.0418 27.8690 0.0000 8.8609 0.0000
# 3 -8.7314 27.8690 65.5304 0.0000 8.4964 0.0000
# 4 0.0000 0.0000 0.0000 3.9631 0.0000 2.6198
# 5 12.5617 8.8609 8.4964 0.0000 23.9634 0.0000
# 6 0.0000 0.0000 0.0000 2.6198 0.0000 20.2418
#
#
#
# Elastic Compliance Matrix: (Units=1/GPa)
#
#
# Indices 1 2 3 4 5 6 
#
# 1 0.009217 -0.002257 0.002837 0.000000 -0.005003 0.000000
# 2 -0.002257 0.015482 -0.006599 0.000000 -0.002201 0.000000
# 3 0.002837 -0.006599 0.019204 0.000000 -0.005856 0.000000
# 4 0.000000 0.000000 0.000000 0.275935 0.000000 -0.035713
# 5 -0.005003 -0.002201 -0.005856 0.000000 0.047243 0.000000
# 6 0.000000 0.000000 0.000000 -0.035713 0.000000 0.054025
#
#
# Mechanical properties :
#
#
# Convention : Reuss Voigt Hill
#
# Bulk Modulus (GPa) = 31.38469 37.48818 34.43643
# Shear Modulus (GPa) = 11.26719 25.13212 18.19965
#
# Velocity S-wave (km/s) = 2.34138 3.49687 2.97575
# Velocity P-wave (km/s) = 4.75181 5.87742 5.34433
#
# Compressibility (1/GPa) = 0.03186267
#
# Stress axis : x y z
#
# Youngs Moduli (GPa) = 108.49365 64.59317 52.07281
#
# Poissons Ratio (x) = 0.14581 -0.14772
# Poissons Ratio (y) = 0.24490 0.34365
# Poissons Ratio (z) = -0.30777 0.42627
#
# Static dielectric constant tensor:
#      x y z
#    x 3.735610 0.000000 0.145370 
#    y 0.000000 3.700430 0.000000 
#    z 0.145370 0.000000 3.809860 
# 
# 
# High freq. dielectric constant tensor:
#      x y z
#    x 1.818020 0.000000 0.012930 
#    y 0.000000 1.791520 0.000000 
#    z 0.012930 0.000000 1.801090 
# 
# From -- ./inp_files/185333.got.cif
#   From: 2010.06.25/outbox.cif.g09.slc.cpg/sg15_93_cif.got.tgz:185333.got - 2010.06.28 07:06:18.
