data_PCOD8136397
_publ_section_title
;
Structure prediction by ZEFSAII (Michael W. Deem and Ramdas Pophale) SiO2 
 PCOD8136397
Probable space group: C 2/C
;
_chemical_formula_sum "Si O2"
_cell_formula_units_Z 52
_cell_length_a 7.798184
_cell_length_b 32.110175
_cell_length_c 17.852723
_cell_angle_alpha 90.000000
_cell_angle_beta 147.261122
_cell_angle_gamma 90.000000
_cell_volume 2417.610295
_symmetry_space_group_name_H-M "C 2/C"
_symmetry_group_IT_number 15
_symmetry_cell_setting 'monoclinic'
loop_
_space_group_symop_operation_xyz
x,y,z
-x,y,1/2-z
-x,-y,-z
x,-y,1/2+z
1/2+x,1/2+y,z
1/2-x,1/2+y,1/2-z
1/2-x,1/2-y,-z
1/2+x,1/2-y,1/2+z
loop_
_atom_site_type_symbol
_atom_site_label
_atom_site_fract_x
_atom_site_fract_y
_atom_site_fract_z
Si Si1 0.187040 0.207976 0.741567
Si Si2 0.185347 0.331210 0.517781
Si Si3 0.733943 0.633846 0.958585
Si Si4 0.000000 0.772134 0.750000
Si Si5 0.279690 0.115789 0.238717
Si Si6 0.648751 0.466023 0.641944
Si Si7 0.370852 0.444337 0.383645
O O1 0.255134 0.246666 0.712506
O O2 0.000000 0.220426 0.750000
O O3 0.998805 0.173634 0.623510
O O4 0.538848 0.191643 0.892143
O O5 0.261979 0.299154 0.612390
O O6 0.503160 0.354050 0.609839
O O7 0.916263 0.364454 0.445904
O O8 0.541665 0.591517 0.898462
O O9 0.024584 0.637260 0.123930
O O10 0.500000 0.106595 0.250000
O O11 0.143410 0.068834 0.207109
O O12 0.477377 0.444210 0.508872
O O13 0.510313 0.511843 0.611358
O O14 0.000000 0.479902 0.750000
O O15 0.000000 0.434664 0.250000
#
# Coordination Sequence:
#
# PCOD8136397 Si02
#       7
#     8   8   8   4   8   8   8
#     4  10  27  44  67  99 133 164 218 276 329 393
#     4  11  25  47  61  96 130 168 212 274 322 401
#     4  11  22  42  62  92 130 172 208 269 334 382
#     4  12  24  46  74  92 128 176 218 268 340 390
#     4  11  21  38  67  93 127 170 222 260 324 391
#     4   9  18  35  56  95 130 164 219 270 307 378
#     4  10  20  33  60  94 130 167 218 268 317 379
#
# _framework density 21.508842000000001
#
# number of rings (size 3 to 8) (size 9 to 14) (size 15 to 20)
#    0.000    1.538    4.615    0.462    5.385    3.077 
#    0.000    0.769    0.000    3.692    0.000    0.000 
#    0.000    0.000    0.000    0.000    0.000    0.000 
#
# Total GULP energy -322139.985520 kJ/mol
# GULP energy per Si atom -12389.999443 kJ/mol
# Density = 2.145989 g / cm^3
# Si number density = 21.508842 Si / 1000 Ang^3
#
#
#
# Elastic Constant Matrix: (Units=GPa)
#
#
# Indices 1 2 3 4 5 6 
#
# 1 54.1871 48.1883 7.3746 0.0000 10.7879 0.0000
# 2 48.1883 136.0619 34.9137 0.0000 10.4397 0.0000
# 3 7.3746 34.9137 112.7050 0.0000 15.0172 0.0000
# 4 0.0000 0.0000 0.0000 29.8236 0.0000 0.4909
# 5 10.7879 10.4397 15.0172 0.0000 21.7369 0.0000
# 6 0.0000 0.0000 0.0000 0.4909 0.0000 24.2226
#
#
#
# Elastic Compliance Matrix: (Units=1/GPa)
#
#
# Indices 1 2 3 4 5 6 
#
# 1 0.029544 -0.010289 0.002808 0.000000 -0.011661 0.000000
# 2 -0.010289 0.011677 -0.003169 0.000000 0.001687 0.000000
# 3 0.002808 -0.003169 0.010632 0.000000 -0.007217 0.000000
# 4 0.000000 0.000000 0.000000 0.033542 0.000000 -0.000680
# 5 -0.011661 0.001687 -0.007217 0.000000 0.055967 0.000000
# 6 0.000000 0.000000 0.000000 -0.000680 0.000000 0.041298
#
#
# Mechanical properties :
#
#
# Convention : Reuss Voigt Hill
#
# Bulk Modulus (GPa) = 32.72987 53.76747 43.24867
# Shear Modulus (GPa) = 23.34860 29.32176 26.33518
#
# Velocity S-wave (km/s) = 3.29832 3.69622 3.50292
# Velocity P-wave (km/s) = 5.45483 6.57785 6.04249
#
# Compressibility (1/GPa) = 0.03055313
#
# Stress axis : x y z
#
# Youngs Moduli (GPa) = 33.84770 85.63557 94.05302
#
# Poissons Ratio (x) = 0.88113 -0.26410
# Poissons Ratio (y) = 0.34827 0.29805
# Poissons Ratio (z) = -0.09504 0.27138
#
# Static dielectric constant tensor:
#      x y z
#    x 3.512720 0.000000 0.041180 
#    y 0.000000 4.146800 0.000000 
#    z 0.041180 0.000000 3.943340 
# 
# 
# High freq. dielectric constant tensor:
#      x y z
#    x 1.798950 0.000000 0.008150 
#    y 0.000000 1.858180 0.000000 
#    z 0.008150 0.000000 1.870530 
# 
# From -- ./inp_files/234899.got.cif
#   From: 2010.06.25/outbox.cif.g09.slc.cpg/sg15_118_cif.got.tgz:234899.got - 2010.06.28 07:06:18.
