data_PCOD8136242
_publ_section_title
;
Structure prediction by ZEFSAII (Michael W. Deem and Ramdas Pophale) SiO2 
 PCOD8136242
Probable space group: C 2/C
;
_chemical_formula_sum "Si O2"
_cell_formula_units_Z 48
_cell_length_a 13.443918
_cell_length_b 13.021304
_cell_length_c 16.605717
_cell_angle_alpha 90.000000
_cell_angle_beta 111.343630
_cell_angle_gamma 90.000000
_cell_volume 2707.577449
_symmetry_space_group_name_H-M "C 2/C"
_symmetry_group_IT_number 15
_symmetry_cell_setting 'monoclinic'
loop_
_space_group_symop_operation_xyz
x,y,z
-x,y,1/2-z
-x,-y,-z
x,-y,1/2+z
1/2+x,1/2+y,z
1/2-x,1/2+y,1/2-z
1/2-x,1/2-y,-z
1/2+x,1/2-y,1/2+z
loop_
_atom_site_type_symbol
_atom_site_label
_atom_site_fract_x
_atom_site_fract_y
_atom_site_fract_z
Si Si1 0.821199 0.379388 0.585841
Si Si2 0.500000 0.290809 0.750000
Si Si3 0.000000 0.553289 0.250000
Si Si4 0.646224 0.117818 0.729456
Si Si5 0.580438 0.288057 0.932861
Si Si6 0.735160 0.890657 0.421854
Si Si7 0.853259 0.276334 0.425888
O O1 0.789517 0.495500 0.555396
O O2 0.850926 0.324147 0.512855
O O3 0.724612 0.321811 0.602646
O O4 0.924264 0.375034 0.674277
O O5 0.582272 0.221916 0.725251
O O6 0.557607 0.351141 0.841089
O O7 0.930000 0.481422 0.288733
O O8 0.738374 0.109563 0.824737
O O9 0.687310 0.136219 0.650285
O O10 0.641999 0.183102 0.927666
O O11 0.474102 0.260435 0.949110
O O12 0.649714 0.358925 0.011499
#
# Coordination Sequence:
#
# PCOD8136242 Si02
#       7
#     8   4   4   8   8   8   8
#     4  10  21  34  49  74 105 132 164 204 246 294
#     4   7  12  26  46  69  94 120 158 205 244 279
#     4   9  18  34  54  71  92 126 170 217 248 283
#     4   8  15  30  50  70  93 123 164 210 247 281
#     4   9  17  31  53  74  99 133 167 207 250 293
#     4   9  18  33  53  78 100 125 169 215 247 288
#     4  10  20  33  49  71 104 139 162 196 250 302
#
# _framework density 17.728024000000001
#
# number of rings (size 3 to 8) (size 9 to 14) (size 15 to 20)
#    0.000    3.000    0.000    3.000    0.000    4.667 
#    0.000   11.667    0.000    4.000    0.000    0.000 
#    0.000    0.000    0.000    0.000    0.000    0.000 
#
# Total GULP energy -297356.198258 kJ/mol
# GULP energy per Si atom -12389.841594 kJ/mol
# Density = 1.768767 g / cm^3
# Si number density = 17.728024 Si / 1000 Ang^3
#
#
#
# Elastic Constant Matrix: (Units=GPa)
#
#
# Indices 1 2 3 4 5 6 
#
# 1 87.7475 34.6899 67.7152 0.0000 8.3337 0.0000
# 2 34.6899 64.8292 45.8925 0.0000 12.7930 0.0000
# 3 67.7152 45.8925 129.2814 0.0000 24.5890 0.0000
# 4 0.0000 0.0000 0.0000 -56.8890 0.0000 21.2560
# 5 8.3337 12.7930 24.5890 0.0000 27.9596 0.0000
# 6 0.0000 0.0000 0.0000 21.2560 0.0000 12.5828
#
#
#
# Elastic Compliance Matrix: (Units=1/GPa)
#
#
# Indices 1 2 3 4 5 6 
#
# 1 0.020554 -0.004919 -0.009946 0.000000 0.004871 0.000000
# 2 -0.004919 0.022085 -0.004348 0.000000 -0.004816 0.000000
# 3 -0.009946 -0.004348 0.016267 0.000000 -0.009352 0.000000
# 4 0.000000 0.000000 0.000000 -0.010776 0.000000 0.018204
# 5 0.004871 -0.004816 -0.009352 0.000000 0.044742 0.000000
# 6 0.000000 0.000000 0.000000 0.018204 0.000000 0.048721
#
#
# Mechanical properties :
#
#
# Convention : Reuss Voigt Hill
#
# Bulk Modulus (GPa) = 48.82653 64.27260 56.54956
# Shear Modulus (GPa) = 26.76028 5.63471 16.19750
#
# Velocity S-wave (km/s) = 3.88943 1.78475 3.02597
# Velocity P-wave (km/s) = 6.91173 6.37029 6.64653
#
# Compressibility (1/GPa) = 0.02048067
#
# Stress axis : x y z
#
# Youngs Moduli (GPa) = 48.65296 45.27957 61.47521
#
# Poissons Ratio (x) = 0.22271 0.61144
# Poissons Ratio (y) = 0.23931 0.26727
# Poissons Ratio (z) = 0.48391 0.19686
#
# Static dielectric constant tensor:
#      x y z
#    x 3.195110 0.000000 0.049940 
#    y 0.000000 3.087960 0.000000 
#    z 0.049940 0.000000 3.806690 
# 
# 
# High freq. dielectric constant tensor:
#      x y z
#    x 1.666110 0.000000 0.006060 
#    y 0.000000 1.653940 0.000000 
#    z 0.006060 0.000000 1.710240 
# 
# From -- ./inp_files/196068.got.cif
#   From: 2010.06.25/outbox.cif.g09.slc.cpg/sg15_99_cif.got.tgz:196068.got - 2010.06.28 07:06:18.
