data_PCOD8136159
_publ_section_title
;
Structure prediction by ZEFSAII (Michael W. Deem and Ramdas Pophale) SiO2 
 PCOD8136159
Probable space group: C 2/C
;
_chemical_formula_sum "Si O2"
_cell_formula_units_Z 60
_cell_length_a 26.305950
_cell_length_b 5.283788
_cell_length_c 23.328667
_cell_angle_alpha 90.000000
_cell_angle_beta 119.435368
_cell_angle_gamma 90.000000
_cell_volume 2823.988234
_symmetry_space_group_name_H-M "C 2/C"
_symmetry_group_IT_number 15
_symmetry_cell_setting 'monoclinic'
loop_
_space_group_symop_operation_xyz
x,y,z
-x,y,1/2-z
-x,-y,-z
x,-y,1/2+z
1/2+x,1/2+y,z
1/2-x,1/2+y,1/2-z
1/2-x,1/2-y,-z
1/2+x,1/2-y,1/2+z
loop_
_atom_site_type_symbol
_atom_site_label
_atom_site_fract_x
_atom_site_fract_y
_atom_site_fract_z
Si Si1 0.580693 0.789798 0.421102
Si Si2 0.255285 0.550921 0.787740
Si Si3 0.038805 0.748959 0.020873
Si Si4 0.950484 0.724966 0.807661
Si Si5 0.895144 0.775076 0.125117
Si Si6 0.646295 0.146803 0.280906
Si Si7 0.500000 0.397485 0.250000
Si Si8 0.878984 0.946961 0.343567
O O1 0.580922 0.752182 0.489325
O O2 0.515446 0.840158 0.362881
O O3 0.610718 0.543462 0.409947
O O4 0.617614 0.040515 0.424823
O O5 0.244781 0.342243 0.732487
O O6 0.204155 0.527700 0.806942
O O7 0.320863 0.490727 0.849016
O O8 0.079666 0.749789 0.099986
O O9 0.000000 0.500000 0.000000
O O10 0.000000 0.000000 0.000000
O O11 0.916008 0.495890 0.759111
O O12 0.916388 0.806729 0.846945
O O13 0.952820 0.939848 0.760001
O O14 0.850510 0.768697 0.153992
O O15 0.961761 0.734496 0.184671
O O16 0.647266 0.349857 0.231027
#
# Coordination Sequence:
#
# PCOD8136159 Si02
#       8
#     8   8   8   8   8   8   4   8
#     4  11  24  37  55  85 118 158 200 233 294 358
#     4  10  22  38  59  88 121 154 199 249 309 367
#     4  12  25  41  62  85 123 166 207 248 295 361
#     4  11  19  34  54  84 120 153 190 238 299 365
#     4  11  22  36  56  82 119 155 189 246 293 363
#     4  11  21  37  61  89 121 153 200 247 318 361
#     4  10  20  32  50  86 118 154 182 234 298 368
#     4  11  23  38  60  88 121 157 199 252 307 352
#
# _framework density 21.246549000000002
#
# number of rings (size 3 to 8) (size 9 to 14) (size 15 to 20)
#    0.000    1.067    4.000    4.000    3.733    0.533 
#    0.000    0.000    0.000    1.600    0.000    0.000 
#    0.000    0.000    0.000    0.000    0.000    0.000 
#
# Total GULP energy -371829.450680 kJ/mol
# GULP energy per Si atom -12394.315023 kJ/mol
# Density = 2.119819 g / cm^3
# Si number density = 21.246549 Si / 1000 Ang^3
#
#
#
# Elastic Constant Matrix: (Units=GPa)
#
#
# Indices 1 2 3 4 5 6 
#
# 1 94.1655 18.8941 25.1131 0.0028 -6.1472 0.0056
# 2 18.8941 102.1760 13.1012 0.0163 -7.8351 -0.0057
# 3 25.1131 13.1012 46.6332 -0.0023 -17.8028 -0.0003
# 4 0.0028 0.0163 -0.0023 21.1039 -0.0010 -8.4116
# 5 -6.1472 -7.8351 -17.8028 -0.0010 30.6511 0.0002
# 6 0.0056 -0.0057 -0.0003 -8.4116 0.0002 29.2861
#
#
#
# Elastic Compliance Matrix: (Units=1/GPa)
#
#
# Indices 1 2 3 4 5 6 
#
# 1 0.012720 -0.001587 -0.007176 -0.000003 -0.002023 -0.000004
# 2 -0.001587 0.010386 -0.001505 -0.000008 0.001462 0.000000
# 3 -0.007176 -0.001505 0.032168 0.000008 0.016860 0.000004
# 4 -0.000003 -0.000008 0.000008 0.053510 0.000004 0.015369
# 5 -0.002023 0.001462 0.016860 0.000004 0.042386 0.000002
# 6 -0.000004 0.000000 0.000004 0.015369 0.000002 0.038560
#
#
# Mechanical properties :
#
#
# Convention : Reuss Voigt Hill
#
# Bulk Modulus (GPa) = 28.78776 39.68793 34.23785
# Shear Modulus (GPa) = 22.53825 28.59931 25.56878
#
# Velocity S-wave (km/s) = 3.26052 3.67286 3.47282
# Velocity P-wave (km/s) = 5.26815 6.05861 5.67716
#
# Compressibility (1/GPa) = 0.03473698
#
# Stress axis : x y z
#
# Youngs Moduli (GPa) = 78.61733 96.28721 31.08706
#
# Poissons Ratio (x) = 0.15281 0.22309
# Poissons Ratio (y) = 0.12477 0.04678
# Poissons Ratio (z) = 0.56418 0.14489
#
# Static dielectric constant tensor:
#      x y z
#    x 4.285570 -0.000020 -0.167430 
#    y -0.000020 3.755040 0.000100 
#    z -0.167430 0.000100 3.592580 
# 
# 
# High freq. dielectric constant tensor:
#      x y z
#    x 1.837410 0.000000 -0.021510 
#    y 0.000000 1.840900 0.000000 
#    z -0.021510 0.000000 1.783100 
# 
# From -- ./inp_files/283008.got.cif
#   From: 2010.06.25/outbox.cif.g09.slc.cpg/sg15_142_cif.got.tgz:283008.got - 2010.06.28 07:06:18.
