data_PCOD8136596
_publ_section_title
;
Structure prediction by ZEFSAII (Michael W. Deem and Ramdas Pophale) SiO2 
 PCOD8136596
Probable space group: C 2/C
;
_chemical_formula_sum "Si O2"
_cell_formula_units_Z 60
_cell_length_a 23.417611
_cell_length_b 8.645407
_cell_length_c 22.670420
_cell_angle_alpha 90.000000
_cell_angle_beta 34.080824
_cell_angle_gamma 90.000000
_cell_volume 2571.912194
_symmetry_space_group_name_H-M "C 2/C"
_symmetry_group_IT_number 15
_symmetry_cell_setting 'monoclinic'
loop_
_space_group_symop_operation_xyz
x,y,z
-x,y,1/2-z
-x,-y,-z
x,-y,1/2+z
1/2+x,1/2+y,z
1/2-x,1/2+y,1/2-z
1/2-x,1/2-y,-z
1/2+x,1/2-y,1/2+z
loop_
_atom_site_type_symbol
_atom_site_label
_atom_site_fract_x
_atom_site_fract_y
_atom_site_fract_z
Si Si1 0.838632 0.912611 0.060710
Si Si2 0.221506 0.840594 0.728810
Si Si3 0.592695 0.100919 0.350829
Si Si4 0.000000 0.470831 0.250000
Si Si5 0.917624 0.798803 0.551741
Si Si6 0.675649 0.866515 0.652081
Si Si7 0.545637 0.870370 0.087638
Si Si8 0.278576 0.083683 0.593208
O O1 0.764102 0.821817 0.168758
O O2 0.914789 0.025650 0.030377
O O3 0.766946 0.008766 0.077631
O O4 0.913660 0.798154 0.962076
O O5 0.301966 0.921952 0.704736
O O6 0.112930 0.808262 0.852657
O O7 0.205089 0.961640 0.689555
O O8 0.528147 0.225807 0.444391
O O9 0.613997 0.156545 0.266388
O O10 0.530050 0.938257 0.398818
O O11 0.099399 0.580400 0.165992
O O12 0.994833 0.363768 0.195920
O O13 0.829148 0.698664 0.597271
O O14 0.715997 0.693890 0.601844
O O15 0.638193 0.990802 0.014716
#
# Coordination Sequence:
#
# PCOD8136596 Si02
#       8
#     8   8   8   4   8   8   8   8
#     4  10  21  38  58  89 126 158 205 251 304 360
#     4  11  20  37  59  89 131 175 198 234 302 361
#     4  10  21  37  59  90 130 166 208 242 289 360
#     4  10  22  42  66  86 110 156 210 256 336 364
#     4  10  20  34  57  88 127 173 202 236 283 362
#     4  10  21  41  63  84 120 158 203 268 300 366
#     4   9  21  39  62  91 115 157 206 260 307 366
#     4   9  19  36  59  88 124 155 206 241 299 360
#
# _framework density 23.328946999999999
#
# number of rings (size 3 to 8) (size 9 to 14) (size 15 to 20)
#    0.000    2.133    2.667    0.800    0.000    6.400 
#    4.800    4.000    0.000   16.000    0.000    0.000 
#    0.000    0.000    0.000    0.000    0.000    0.000 
#
# Total GULP energy -371940.770592 kJ/mol
# GULP energy per Si atom -12398.025686 kJ/mol
# Density = 2.327585 g / cm^3
# Si number density = 23.328947 Si / 1000 Ang^3
#
#
#
# Elastic Constant Matrix: (Units=GPa)
#
#
# Indices 1 2 3 4 5 6 
#
# 1 46.3737 18.7310 3.7735 0.0004 -9.3337 -0.0003
# 2 18.7310 136.8635 39.5521 0.0025 -0.8087 -0.0022
# 3 3.7735 39.5521 85.3374 0.0008 -1.1771 -0.0006
# 4 0.0004 0.0025 0.0008 30.4232 -0.0005 -2.6907
# 5 -9.3337 -0.8087 -1.1771 -0.0005 32.9126 0.0002
# 6 -0.0003 -0.0022 -0.0006 -2.6907 0.0002 8.9731
#
#
#
# Elastic Compliance Matrix: (Units=1/GPa)
#
#
# Indices 1 2 3 4 5 6 
#
# 1 0.024286 -0.003464 0.000626 0.000000 0.006824 0.000000
# 2 -0.003464 0.008931 -0.003999 0.000000 -0.000906 0.000002
# 3 0.000626 -0.003999 0.013552 0.000000 0.000564 0.000000
# 4 0.000000 0.000000 0.000000 0.033765 0.000000 0.010125
# 5 0.006824 -0.000906 0.000564 0.000000 0.032317 -0.000001
# 6 0.000000 0.000002 0.000000 0.010125 -0.000001 0.114480
#
#
# Mechanical properties :
#
#
# Convention : Reuss Voigt Hill
#
# Bulk Modulus (GPa) = 30.21671 43.63200 36.92436
# Shear Modulus (GPa) = 19.83844 28.22966 24.03405
#
# Velocity S-wave (km/s) = 2.91929 3.48238 3.21319
# Velocity P-wave (km/s) = 4.93392 5.90871 5.44318
#
# Compressibility (1/GPa) = 0.03309427
#
# Stress axis : x y z
#
# Youngs Moduli (GPa) = 41.17624 111.97131 73.79231
#
# Poissons Ratio (x) = 0.38790 -0.04618
# Poissons Ratio (y) = 0.14265 0.29506
# Poissons Ratio (z) = -0.02577 0.44773
#
# Static dielectric constant tensor:
#      x y z
#    x 3.827670 0.000000 -0.174500 
#    y 0.000000 4.391990 0.000000 
#    z -0.174500 0.000000 4.246390 
# 
# 
# High freq. dielectric constant tensor:
#      x y z
#    x 1.883900 0.000000 -0.007230 
#    y 0.000000 1.933700 0.000000 
#    z -0.007230 0.000000 1.926830 
# 
# From -- ./inp_files/303088.got.cif
#   From: 2010.06.25/outbox.cif.g09.slc.cpg/sg15_152_cif.got.tgz:303088.got - 2010.06.28 07:06:18.
