data_PCOD8136503
_publ_section_title
;
Structure prediction by ZEFSAII (Michael W. Deem and Ramdas Pophale) SiO2 
 PCOD8136503
Probable space group: C 2/C
;
_chemical_formula_sum "Si O2"
_cell_formula_units_Z 32
_cell_length_a 22.315428
_cell_length_b 10.042632
_cell_length_c 12.131455
_cell_angle_alpha 90.000000
_cell_angle_beta 23.756957
_cell_angle_gamma 90.000000
_cell_volume 1095.260603
_symmetry_space_group_name_H-M "C 2/C"
_symmetry_group_IT_number 15
_symmetry_cell_setting 'monoclinic'
loop_
_space_group_symop_operation_xyz
x,y,z
-x,y,1/2-z
-x,-y,-z
x,-y,1/2+z
1/2+x,1/2+y,z
1/2-x,1/2+y,1/2-z
1/2-x,1/2-y,-z
1/2+x,1/2-y,1/2+z
loop_
_atom_site_type_symbol
_atom_site_label
_atom_site_fract_x
_atom_site_fract_y
_atom_site_fract_z
Si Si1 0.657569 0.806735 0.490573
Si Si2 0.915573 0.865604 0.182833
Si Si3 0.749787 0.119899 0.348148
Si Si4 0.526394 0.105091 0.546666
O O1 0.500000 0.882724 0.750000
O O2 0.761006 0.923619 0.379413
O O3 0.624848 0.674804 0.624762
O O4 0.703243 0.759012 0.291332
O O5 0.900482 0.735849 0.129721
O O6 0.081484 0.933806 0.892863
O O7 0.651416 0.042965 0.419490
O O8 0.632559 0.157801 0.640443
O O9 0.500000 0.000000 0.500000
#
# Coordination Sequence:
#
# PCOD8136503 Si02
#       4
#     8   8   8   8
#     4   8  15  29  54  87 104 145 203 245 282 346
#     4   9  16  31  58  82 110 156 204 242 293 360
#     4   9  18  34  53  84 115 158 198 250 284 370
#     4  10  20  34  54  88 124 154 196 258 316 351
#
# _framework density 29.216791000000001
#
# number of rings (size 3 to 8) (size 9 to 14) (size 15 to 20)
#    0.000    3.000    0.000    0.750    0.000    0.000 
#   13.500    0.000    0.000   54.000  104.000    0.000 
#    0.000    0.000    0.000    0.000    0.000    0.000 
#
# Total GULP energy -198242.497018 kJ/mol
# GULP energy per Si atom -12390.156064 kJ/mol
# Density = 2.915029 g / cm^3
# Si number density = 29.216791 Si / 1000 Ang^3
#
#
#
# Elastic Constant Matrix: (Units=GPa)
#
#
# Indices 1 2 3 4 5 6 
#
# 1 141.7443 36.2506 74.4904 0.0000 -31.3966 0.0000
# 2 36.2506 67.1752 60.5430 0.0000 -26.4122 0.0000
# 3 74.4904 60.5430 218.0361 0.0000 -18.1311 0.0000
# 4 0.0000 0.0000 0.0000 64.0687 0.0000 -21.6076
# 5 -31.3966 -26.4122 -18.1311 0.0000 79.2369 0.0000
# 6 0.0000 0.0000 0.0000 -21.6076 0.0000 34.0045
#
#
#
# Elastic Compliance Matrix: (Units=1/GPa)
#
#
# Indices 1 2 3 4 5 6 
#
# 1 0.009394 -0.001824 -0.002492 0.000000 0.002544 0.000000
# 2 -0.001824 0.022834 -0.005244 0.000000 0.005689 0.000000
# 3 -0.002492 -0.005244 0.006796 0.000000 -0.001180 0.000000
# 4 0.000000 0.000000 0.000000 0.019866 0.000000 0.012623
# 5 0.002544 0.005689 -0.001180 0.000000 0.015255 0.000000
# 6 0.000000 0.000000 0.000000 0.012623 0.000000 0.037429
#
#
# Mechanical properties :
#
#
# Convention : Reuss Voigt Hill
#
# Bulk Modulus (GPa) = 50.23898 85.50261 67.87080
# Shear Modulus (GPa) = 36.40949 52.50677 44.45813
#
# Velocity S-wave (km/s) = 3.53396 4.24387 3.90508
# Velocity P-wave (km/s) = 5.82103 7.30359 6.60404
#
# Compressibility (1/GPa) = 0.01990486
#
# Stress axis : x y z
#
# Youngs Moduli (GPa) = 106.44759 43.79485 147.15274
#
# Poissons Ratio (x) = 0.07986 0.36664
# Poissons Ratio (y) = 0.19412 0.77171
# Poissons Ratio (z) = 0.26522 0.22967
#
# Static dielectric constant tensor:
#      x y z
#    x 5.883260 0.000000 -0.840230 
#    y 0.000000 4.224670 0.000000 
#    z -0.840230 0.000000 5.764170 
# 
# 
# High freq. dielectric constant tensor:
#      x y z
#    x 2.218710 0.000000 -0.052430 
#    y 0.000000 2.227380 0.000000 
#    z -0.052430 0.000000 2.248650 
# 
# From -- ./inp_files/132477.got.cif
#   From: 2010.06.25/outbox.cif.g09.slc.cpg/sg15_67_cif.got.tgz:132477.got - 2010.06.28 07:06:18.
