data_PCOD8136381
_publ_section_title
;
Structure prediction by ZEFSAII (Michael W. Deem and Ramdas Pophale) SiO2 
 PCOD8136381
Probable space group: C 2/C
;
_chemical_formula_sum "Si O2"
_cell_formula_units_Z 60
_cell_length_a 16.604488
_cell_length_b 14.661993
_cell_length_c 14.944559
_cell_angle_alpha 90.000000
_cell_angle_beta 55.043762
_cell_angle_gamma 90.000000
_cell_volume 2981.935169
_symmetry_space_group_name_H-M "C 2/C"
_symmetry_group_IT_number 15
_symmetry_cell_setting 'monoclinic'
loop_
_space_group_symop_operation_xyz
x,y,z
-x,y,1/2-z
-x,-y,-z
x,-y,1/2+z
1/2+x,1/2+y,z
1/2-x,1/2+y,1/2-z
1/2-x,1/2-y,-z
1/2+x,1/2-y,1/2+z
loop_
_atom_site_type_symbol
_atom_site_label
_atom_site_fract_x
_atom_site_fract_y
_atom_site_fract_z
Si Si1 0.202025 0.999085 0.870017
Si Si2 0.287845 0.480777 0.833780
Si Si3 0.707002 0.118084 0.551878
Si Si4 0.270590 0.311614 0.358579
Si Si5 0.903893 0.225547 0.435715
Si Si6 0.129829 0.826159 0.019127
Si Si7 0.587078 0.325289 0.384843
Si Si8 0.500000 0.413959 0.750000
O O1 0.231288 0.950254 0.757468
O O2 0.294565 0.045611 0.864728
O O3 0.118497 0.073836 0.899628
O O4 0.163049 0.926121 0.966014
O O5 0.245954 0.582305 0.866559
O O6 0.404626 0.474959 0.785781
O O7 0.222334 0.422699 0.942926
O O8 0.796388 0.184128 0.515673
O O9 0.606630 0.178762 0.612388
O O10 0.171772 0.250412 0.423708
O O11 0.333150 0.296458 0.407588
O O12 0.331901 0.281430 0.232032
O O13 0.936418 0.242229 0.517249
O O14 0.978876 0.153868 0.345460
O O15 0.013846 0.831432 0.104201
#
# Coordination Sequence:
#
# PCOD8136381 Si02
#       8
#     8   8   8   8   8   8   8   4
#     4  10  20  33  59  87 110 150 187 237 302 338
#     4  10  20  34  56  86 113 151 188 236 294 341
#     4   9  18  35  55  76 122 144 183 235 278 362
#     4  10  23  35  55  85 119 159 191 233 298 331
#     4   9  19  35  54  87 111 146 183 237 304 333
#     4  11  21  37  56  85 120 152 195 243 277 357
#     4  10  21  36  57  87 112 147 194 247 290 339
#     4  10  20  34  58  88 114 140 190 248 294 338
#
# _framework density 20.121162000000002
#
# number of rings (size 3 to 8) (size 9 to 14) (size 15 to 20)
#    0.000    2.133    1.333    1.600    5.600    0.000 
#    9.600    0.000    0.000    2.400    0.000    0.000 
#    0.000    0.000    0.000    0.000    0.000    0.000 
#
# Total GULP energy -371671.874893 kJ/mol
# GULP energy per Si atom -12389.062496 kJ/mol
# Density = 2.007537 g / cm^3
# Si number density = 20.121162 Si / 1000 Ang^3
#
#
#
# Elastic Constant Matrix: (Units=GPa)
#
#
# Indices 1 2 3 4 5 6 
#
# 1 36.1322 22.9232 21.4758 0.0000 15.9081 0.0000
# 2 22.9232 58.5240 17.9844 0.0000 -8.2106 0.0000
# 3 21.4758 17.9844 77.0550 0.0000 20.4399 0.0000
# 4 0.0000 0.0000 0.0000 25.8759 0.0000 0.7244
# 5 15.9081 -8.2106 20.4399 0.0000 32.3114 0.0000
# 6 0.0000 0.0000 0.0000 0.7244 0.0000 21.4978
#
#
#
# Elastic Compliance Matrix: (Units=1/GPa)
#
#
# Indices 1 2 3 4 5 6 
#
# 1 0.064877 -0.030833 -0.000402 0.000000 -0.039522 0.000000
# 2 -0.030833 0.035461 -0.007330 0.000000 0.028828 0.000000
# 3 -0.000402 -0.007330 0.018316 0.000000 -0.013251 0.000000
# 4 0.000000 0.000000 0.000000 0.038683 0.000000 -0.001303
# 5 -0.039522 0.028828 -0.013251 0.000000 0.066115 0.000000
# 6 0.000000 0.000000 0.000000 -0.001303 0.000000 0.046560
#
#
# Mechanical properties :
#
#
# Convention : Reuss Voigt Hill
#
# Bulk Modulus (GPa) = 24.08246 32.94202 28.51224
# Shear Modulus (GPa) = 13.85110 23.22551 18.53831
#
# Velocity S-wave (km/s) = 2.62656 3.40116 3.03864
# Velocity P-wave (km/s) = 4.60360 5.64192 5.14900
#
# Compressibility (1/GPa) = 0.04152399
#
# Stress axis : x y z
#
# Youngs Moduli (GPa) = 15.41384 28.20006 54.59843
#
# Poissons Ratio (x) = 0.86949 0.02192
# Poissons Ratio (y) = 0.47525 0.40021
# Poissons Ratio (z) = 0.00619 0.20671
#
# Static dielectric constant tensor:
#      x y z
#    x 3.773060 0.000000 0.397710 
#    y 0.000000 3.750280 0.000000 
#    z 0.397710 0.000000 3.828040 
# 
# 
# High freq. dielectric constant tensor:
#      x y z
#    x 1.762130 0.000000 0.035360 
#    y 0.000000 1.772990 0.000000 
#    z 0.035360 0.000000 1.784340 
# 
# From -- ./inp_files/154239.got.cif
#   From: 2010.06.25/outbox.cif.g09.slc.cpg/sg15_78_cif.got.tgz:154239.got - 2010.06.28 07:06:18.
