data_PCOD8136490
_publ_section_title
;
Structure prediction by ZEFSAII (Michael W. Deem and Ramdas Pophale) SiO2 
 PCOD8136490
Probable space group: C 2/C
;
_chemical_formula_sum "Si O2"
_cell_formula_units_Z 64
_cell_length_a 24.524600
_cell_length_b 27.758491
_cell_length_c 9.387633
_cell_angle_alpha 90.000000
_cell_angle_beta 148.705547
_cell_angle_gamma 90.000000
_cell_volume 3319.603835
_symmetry_space_group_name_H-M "C 2/C"
_symmetry_group_IT_number 15
_symmetry_cell_setting 'monoclinic'
loop_
_space_group_symop_operation_xyz
x,y,z
-x,y,1/2-z
-x,-y,-z
x,-y,1/2+z
1/2+x,1/2+y,z
1/2-x,1/2+y,1/2-z
1/2-x,1/2-y,-z
1/2+x,1/2-y,1/2+z
loop_
_atom_site_type_symbol
_atom_site_label
_atom_site_fract_x
_atom_site_fract_y
_atom_site_fract_z
Si Si1 0.385208 0.901261 0.769103
Si Si2 0.396420 0.256377 0.445878
Si Si3 0.879463 0.394131 0.164664
Si Si4 0.593420 0.646688 0.362716
Si Si5 0.464113 0.308759 0.328663
Si Si6 0.704451 0.916241 0.221368
Si Si7 0.880761 0.517400 0.466960
Si Si8 0.263515 0.833791 0.690498
O O1 0.375217 0.899578 0.578526
O O2 0.370017 0.955992 0.790605
O O3 0.296611 0.866804 0.633203
O O4 0.497589 0.882264 0.072678
O O5 0.365807 0.306026 0.460070
O O6 0.426434 0.264977 0.346619
O O7 0.297123 0.221215 0.234038
O O8 0.500000 0.233379 0.750000
O O9 0.844606 0.394907 0.247630
O O10 0.853456 0.444732 0.030461
O O11 0.817851 0.350261 0.957059
O O12 0.500000 0.624319 0.250000
O O13 0.679699 0.604981 0.542537
O O14 0.553400 0.661136 0.113871
O O15 0.500000 0.291418 0.250000
O O16 0.360771 0.340843 0.071045
O O17 0.704344 0.974509 0.222466
O O18 0.000000 0.497111 0.750000
#
# Coordination Sequence:
#
# PCOD8136490 Si02
#       8
#     8   8   8   8   8   8   8   8
#     4  10  20  34  54  84 115 143 175 215 278 342
#     4   9  19  38  58  77 108 144 176 216 277 334
#     4  10  21  34  54  87 115 138 175 226 276 327
#     4   9  21  39  55  77 109 147 185 223 269 317
#     4  10  20  36  56  79 105 143 191 229 258 303
#     4  12  20  33  56  80 107 144 185 224 264 318
#     4   9  19  35  55  79 113 148 173 211 280 345
#     4  11  20  37  60  78 109 151 181 213 273 333
#
# _framework density 19.279409000000001
#
# number of rings (size 3 to 8) (size 9 to 14) (size 15 to 20)
#    0.000    2.250    0.000    6.375    0.000    2.000 
#    0.000   10.625    0.000   15.750    0.000    0.000 
#    0.000    0.000    0.000    0.000    0.000    0.000 
#
# Total GULP energy -396644.539730 kJ/mol
# GULP energy per Si atom -12395.141867 kJ/mol
# Density = 1.923553 g / cm^3
# Si number density = 19.279409 Si / 1000 Ang^3
#
#
#
# Elastic Constant Matrix: (Units=GPa)
#
#
# Indices 1 2 3 4 5 6 
#
# 1 123.4973 42.6302 44.3006 0.0000 -24.9972 0.0000
# 2 42.6302 93.0792 48.8038 0.0000 9.2734 0.0000
# 3 44.3006 48.8038 85.0635 0.0000 -12.4292 0.0000
# 4 0.0000 0.0000 0.0000 28.2569 0.0000 9.3446
# 5 -24.9972 9.2734 -12.4292 0.0000 39.5769 0.0000
# 6 0.0000 0.0000 0.0000 9.3446 0.0000 26.9560
#
#
#
# Elastic Compliance Matrix: (Units=1/GPa)
#
#
# Indices 1 2 3 4 5 6 
#
# 1 0.012449 -0.005426 -0.002133 0.000000 0.008464 0.000000
# 2 -0.005426 0.019621 -0.010066 0.000000 -0.011186 0.000000
# 3 -0.002133 -0.010066 0.019693 0.000000 0.007196 0.000000
# 4 0.000000 0.000000 0.000000 0.039972 0.000000 -0.013857
# 5 0.008464 -0.011186 0.007196 0.000000 0.035494 0.000000
# 6 0.000000 0.000000 0.000000 -0.013857 0.000000 0.041901
#
#
# Mechanical properties :
#
#
# Convention : Reuss Voigt Hill
#
# Bulk Modulus (GPa) = 60.55938 63.67879 62.11908
# Shear Modulus (GPa) = 23.82252 30.01834 26.92043
#
# Velocity S-wave (km/s) = 3.51899 3.95018 3.74080
# Velocity P-wave (km/s) = 6.92753 7.34210 7.13782
#
# Compressibility (1/GPa) = 0.01651272
#
# Stress axis : x y z
#
# Youngs Moduli (GPa) = 80.32761 50.96595 50.77860
#
# Poissons Ratio (x) = 0.27656 0.10832
# Poissons Ratio (y) = 0.43589 0.51112
# Poissons Ratio (z) = 0.17136 0.51300
#
# Static dielectric constant tensor:
#      x y z
#    x 3.574370 0.000000 -0.153150 
#    y 0.000000 3.316900 0.000000 
#    z -0.153150 0.000000 3.657120 
# 
# 
# High freq. dielectric constant tensor:
#      x y z
#    x 1.752450 0.000000 -0.017610 
#    y 0.000000 1.728570 0.000000 
#    z -0.017610 0.000000 1.755750 
# 
# From -- ./inp_files/64210.got.cif
#   From: 2010.06.25/outbox.cif.g09.slc.cpg/sg15_33_cif.got.tgz:64210.got - 2010.06.28 07:06:18.
