data_PCOD8136088
_publ_section_title
;
Structure prediction by ZEFSAII (Michael W. Deem and Ramdas Pophale) SiO2 
 PCOD8136088
Probable space group: C 2/C
;
_chemical_formula_sum "Si O2"
_cell_formula_units_Z 60
_cell_length_a 22.678455
_cell_length_b 19.924023
_cell_length_c 11.009246
_cell_angle_alpha 90.000000
_cell_angle_beta 140.639627
_cell_angle_gamma 90.000000
_cell_volume 3154.797733
_symmetry_space_group_name_H-M "C 2/C"
_symmetry_group_IT_number 15
_symmetry_cell_setting 'monoclinic'
loop_
_space_group_symop_operation_xyz
x,y,z
-x,y,1/2-z
-x,-y,-z
x,-y,1/2+z
1/2+x,1/2+y,z
1/2-x,1/2+y,1/2-z
1/2-x,1/2-y,-z
1/2+x,1/2-y,1/2+z
loop_
_atom_site_type_symbol
_atom_site_label
_atom_site_fract_x
_atom_site_fract_y
_atom_site_fract_z
Si Si1 0.775509 0.141140 0.083742
Si Si2 0.938907 0.065995 0.908105
Si Si3 0.500000 0.547605 0.250000
Si Si4 0.883545 0.257059 0.162200
Si Si5 0.075903 0.186599 0.774259
Si Si6 0.413382 0.778286 0.940693
Si Si7 0.187923 0.998377 0.449323
Si Si8 0.251290 0.124224 0.180890
O O1 0.868175 0.184318 0.200376
O O2 0.770544 0.072562 0.998270
O O3 0.777110 0.120017 0.224932
O O4 0.690101 0.187919 0.909489
O O5 0.970327 0.121075 0.860241
O O6 0.832296 0.041313 0.711293
O O7 0.958063 0.094716 0.074852
O O8 0.000000 0.000000 0.000000
O O9 0.585284 0.499810 0.346522
O O10 0.978523 0.290783 0.359806
O O11 0.874197 0.244109 0.002108
O O12 0.099908 0.236963 0.703479
O O13 0.000000 0.215301 0.750000
O O14 0.174527 0.170598 0.993228
O O15 0.355085 0.846662 0.828667
O O16 0.255540 0.951867 0.636855
#
# Coordination Sequence:
#
# PCOD8136088 Si02
#       8
#     8   8   4   8   8   8   8   8
#     4  10  20  38  59  87 117 145 192 238 292 340
#     4   9  21  30  46  78 113 146 180 214 276 350
#     4  10  20  30  50  82 114 146 178 222 280 352
#     4   9  21  37  62  87 109 148 192 246 285 332
#     4  11  23  34  56  80 114 153 184 229 287 339
#     4  10  21  39  59  82 114 150 196 234 280 336
#     4  10  21  32  55  80 120 149 184 230 286 343
#     4  10  22  38  56  83 117 155 190 230 279 346
#
# _framework density 19.018653
#
# number of rings (size 3 to 8) (size 9 to 14) (size 15 to 20)
#    0.000    2.133    0.000    2.000   17.733    0.000 
#    0.000    0.667    0.000    0.000    0.000    0.000 
#    0.000    0.000    0.000    0.000    0.000    0.000 
#
# Total GULP energy -371653.409252 kJ/mol
# GULP energy per Si atom -12388.446975 kJ/mol
# Density = 1.897537 g / cm^3
# Si number density = 19.018653 Si / 1000 Ang^3
#
#
#
# Elastic Constant Matrix: (Units=GPa)
#
#
# Indices 1 2 3 4 5 6 
#
# 1 92.9118 61.9815 44.8774 0.0000 -1.9940 0.0000
# 2 61.9815 123.3691 54.8377 0.0000 -4.4971 0.0000
# 3 44.8774 54.8377 96.4897 0.0000 -5.0671 0.0000
# 4 0.0000 0.0000 0.0000 32.4102 0.0000 -3.7223
# 5 -1.9940 -4.4971 -5.0671 0.0000 28.7032 0.0000
# 6 0.0000 0.0000 0.0000 -3.7223 0.0000 27.8924
#
#
#
# Elastic Compliance Matrix: (Units=1/GPa)
#
#
# Indices 1 2 3 4 5 6 
#
# 1 0.017369 -0.006882 -0.004199 0.000000 -0.000613 0.000000
# 2 -0.006882 0.013583 -0.004474 0.000000 0.000860 0.000000
# 3 -0.004199 -0.004474 0.014946 0.000000 0.001646 0.000000
# 4 0.000000 0.000000 0.000000 0.031335 0.000000 0.004182
# 5 -0.000613 0.000860 0.001646 0.000000 0.035222 0.000000
# 6 0.000000 0.000000 0.000000 0.004182 0.000000 0.036410
#
#
# Mechanical properties :
#
#
# Convention : Reuss Voigt Hill
#
# Bulk Modulus (GPa) = 67.62213 70.68486 69.15350
# Shear Modulus (GPa) = 27.04094 27.87275 27.45685
#
# Velocity S-wave (km/s) = 3.77478 3.83240 3.80370
# Velocity P-wave (km/s) = 7.39131 7.53856 7.46530
#
# Compressibility (1/GPa) = 0.01478806
#
# Stress axis : x y z
#
# Youngs Moduli (GPa) = 57.57346 73.61971 66.90832
#
# Poissons Ratio (x) = 0.50666 0.28097
# Poissons Ratio (y) = 0.39623 0.29933
# Poissons Ratio (z) = 0.24177 0.32935
#
# Static dielectric constant tensor:
#      x y z
#    x 4.001410 0.000000 -0.657360 
#    y 0.000000 3.334030 0.000000 
#    z -0.657360 0.000000 4.033470 
# 
# 
# High freq. dielectric constant tensor:
#      x y z
#    x 1.730640 0.000000 -0.023170 
#    y 0.000000 1.721960 0.000000 
#    z -0.023170 0.000000 1.742590 
# 
# From -- ./inp_files/119472.got.cif
#   From: 2010.06.25/outbox.cif.g09.slc.cpg/sg15_60_cif.got.tgz:119472.got - 2010.06.28 07:06:18.
