data_PCOD8136512
_publ_section_title
;
Structure prediction by ZEFSAII (Michael W. Deem and Ramdas Pophale) SiO2 
 PCOD8136512
Probable space group: C 2/C
;
_chemical_formula_sum "Si O2"
_cell_formula_units_Z 52
_cell_length_a 21.333341
_cell_length_b 25.629901
_cell_length_c 5.230996
_cell_angle_alpha 90.000000
_cell_angle_beta 60.308041
_cell_angle_gamma 90.000000
_cell_volume 2484.623183
_symmetry_space_group_name_H-M "C 2/C"
_symmetry_group_IT_number 15
_symmetry_cell_setting 'monoclinic'
loop_
_space_group_symop_operation_xyz
x,y,z
-x,y,1/2-z
-x,-y,-z
x,-y,1/2+z
1/2+x,1/2+y,z
1/2-x,1/2+y,1/2-z
1/2-x,1/2-y,-z
1/2+x,1/2-y,1/2+z
loop_
_atom_site_type_symbol
_atom_site_label
_atom_site_fract_x
_atom_site_fract_y
_atom_site_fract_z
Si Si1 0.500000 0.586003 0.750000
Si Si2 0.641219 0.467496 0.105355
Si Si3 0.085343 0.281830 0.327340
Si Si4 0.095062 0.833100 0.789366
Si Si5 0.975711 0.620391 0.048749
Si Si6 0.156867 0.317881 0.683422
Si Si7 0.183346 0.144296 0.602119
O O1 0.442250 0.550466 0.718580
O O2 0.536770 0.621893 0.459176
O O3 0.657767 0.508920 0.293273
O O4 0.692782 0.417881 0.046105
O O5 0.054503 0.223030 0.369170
O O6 0.132869 0.284648 0.487699
O O7 0.019419 0.323353 0.457846
O O8 0.140455 0.288534 0.980250
O O9 0.130526 0.844146 0.444059
O O10 0.153918 0.832204 0.897232
O O11 0.890237 0.628667 0.222230
O O12 0.000000 0.588408 0.250000
O O13 0.000000 0.588097 0.750000
O O14 0.240298 0.330296 0.490318
#
# Coordination Sequence:
#
# PCOD8136512 Si02
#       7
#     4   8   8   8   8   8   8
#     4  10  24  40  60  88 110 146 190 248 278 322
#     4  11  23  42  64  82 107 140 187 240 304 351
#     4  10  20  34  55  78 109 160 189 222 258 318
#     4  11  24  37  54  79 117 147 191 227 273 320
#     4   8  16  30  48  74  98 137 191 215 249 299
#     4  10  20  35  54  75 114 144 191 229 266 322
#     4  11  24  40  54  84 109 142 182 238 286 340
#
# _framework density 20.928729000000001
#
# number of rings (size 3 to 8) (size 9 to 14) (size 15 to 20)
#    0.000    1.846    0.000    4.154    3.231    8.615 
#    8.308    0.000    0.000    0.000    0.000    0.000 
#    0.000   33.231    0.000    0.000    0.000    0.000 
#
# Total GULP energy -322241.177155 kJ/mol
# GULP energy per Si atom -12393.891429 kJ/mol
# Density = 2.088109 g / cm^3
# Si number density = 20.928729 Si / 1000 Ang^3
#
#
#
# Elastic Constant Matrix: (Units=GPa)
#
#
# Indices 1 2 3 4 5 6 
#
# 1 48.1461 6.9097 18.7401 0.0000 15.7110 0.0000
# 2 6.9097 46.3239 6.1714 0.0000 -0.3560 0.0000
# 3 18.7401 6.1714 101.2679 0.0000 29.3214 0.0000
# 4 0.0000 0.0000 0.0000 34.8090 0.0000 3.2182
# 5 15.7110 -0.3560 29.3214 0.0000 43.1014 0.0000
# 6 0.0000 0.0000 0.0000 3.2182 0.0000 18.6098
#
#
#
# Elastic Compliance Matrix: (Units=1/GPa)
#
#
# Indices 1 2 3 4 5 6 
#
# 1 0.024554 -0.003432 -0.002161 0.000000 -0.007509 0.000000
# 2 -0.003432 0.022307 -0.001419 0.000000 0.002401 0.000000
# 3 -0.002161 -0.001419 0.012623 0.000000 -0.007811 0.000000
# 4 0.000000 0.000000 0.000000 0.029195 0.000000 -0.005049
# 5 -0.007509 0.002401 -0.007811 0.000000 0.031272 0.000000
# 6 0.000000 0.000000 0.000000 -0.005049 0.000000 0.054608
#
#
# Mechanical properties :
#
#
# Convention : Reuss Voigt Hill
#
# Bulk Modulus (GPa) = 21.99797 28.82006 25.40901
# Shear Modulus (GPa) = 24.54155 30.23181 27.38668
#
# Velocity S-wave (km/s) = 3.42808 3.80480 3.62134
# Velocity P-wave (km/s) = 5.11885 5.75347 5.44542
#
# Compressibility (1/GPa) = 0.04545875
#
# Stress axis : x y z
#
# Youngs Moduli (GPa) = 40.72672 44.82971 79.22154
#
# Poissons Ratio (x) = 0.15387 0.17116
# Poissons Ratio (y) = 0.13979 0.11245
# Poissons Ratio (z) = 0.08799 0.06363
#
# Static dielectric constant tensor:
#      x y z
#    x 4.113730 0.000000 0.722190 
#    y 0.000000 3.479200 0.000000 
#    z 0.722190 0.000000 4.906590 
# 
# 
# High freq. dielectric constant tensor:
#      x y z
#    x 1.822710 0.000000 0.027820 
#    y 0.000000 1.778630 0.000000 
#    z 0.027820 0.000000 1.835410 
# 
# From -- ./inp_files/16207.got.cif
#   From: 2010.06.25/outbox.cif.g09.slc.cpg/sg15_9_cif.got.tgz:16207.got - 2010.06.28 07:06:18.
