data_PCOD8136452
_publ_section_title
;
Structure prediction by ZEFSAII (Michael W. Deem and Ramdas Pophale) SiO2 
 PCOD8136452
Probable space group: C 2/C
;
_chemical_formula_sum "Si O2"
_cell_formula_units_Z 32
_cell_length_a 24.452331
_cell_length_b 8.642200
_cell_length_c 5.452141
_cell_angle_alpha 90.000000
_cell_angle_beta 104.273149
_cell_angle_gamma 90.000000
_cell_volume 1116.591488
_symmetry_space_group_name_H-M "C 2/C"
_symmetry_group_IT_number 15
_symmetry_cell_setting 'monoclinic'
loop_
_space_group_symop_operation_xyz
x,y,z
-x,y,1/2-z
-x,-y,-z
x,-y,1/2+z
1/2+x,1/2+y,z
1/2-x,1/2+y,1/2-z
1/2-x,1/2-y,-z
1/2+x,1/2-y,1/2+z
loop_
_atom_site_type_symbol
_atom_site_label
_atom_site_fract_x
_atom_site_fract_y
_atom_site_fract_z
Si Si1 0.711327 0.872712 0.095080
Si Si2 0.906980 0.423429 0.709685
Si Si3 0.183755 0.066874 0.221242
Si Si4 0.934751 0.928490 0.195369
O O1 0.682187 0.753034 0.263711
O O2 0.751753 0.000872 0.269137
O O3 0.750000 0.750000 0.000000
O O4 0.661708 0.944217 0.867589
O O5 0.931055 0.491030 0.478804
O O6 0.926600 0.248730 0.756455
O O7 0.156102 0.973077 0.420552
O O8 0.000000 0.972732 0.250000
O O9 0.909348 0.035908 0.392203
#
# Coordination Sequence:
#
# PCOD8136452 Si02
#       4
#     8   8   8   8
#     4  10  22  39  58  84 123 170 219 269 319 378
#     4  12  26  43  66 100 139 176 222 278 337 400
#     4  10  20  34  53  75 106 152 205 258 309 360
#     4  10  23  46  74 103 135 172 218 272 333 406
#
# _framework density 28.658646999999998
#
# number of rings (size 3 to 8) (size 9 to 14) (size 15 to 20)
#    0.000    1.500    0.000    5.250    0.000    9.000 
#    0.000    0.000    0.000    0.000    0.000    0.000 
#    0.000    0.000    0.000    0.000    0.000    0.000 
#
# Total GULP energy -198487.815763 kJ/mol
# GULP energy per Si atom -12405.488485 kJ/mol
# Density = 2.859342 g / cm^3
# Si number density = 28.658647 Si / 1000 Ang^3
#
#
#
# Elastic Constant Matrix: (Units=GPa)
#
#
# Indices 1 2 3 4 5 6 
#
# 1 103.7989 -6.9375 35.7610 0.0000 -22.7531 0.0000
# 2 -6.9375 123.2523 33.6947 0.0000 -23.7075 0.0000
# 3 35.7610 33.6947 180.7401 0.0000 -26.2795 0.0000
# 4 0.0000 0.0000 0.0000 52.6085 0.0000 0.9272
# 5 -22.7531 -23.7075 -26.2795 0.0000 28.7298 0.0000
# 6 0.0000 0.0000 0.0000 0.9272 0.0000 34.9722
#
#
#
# Elastic Compliance Matrix: (Units=1/GPa)
#
#
# Indices 1 2 3 4 5 6 
#
# 1 0.012931 0.003380 -0.001493 0.000000 0.011664 0.000000
# 2 0.003380 0.010614 -0.001136 0.000000 0.010396 0.000000
# 3 -0.001493 -0.001136 0.006611 0.000000 0.003928 0.000000
# 4 0.000000 0.000000 0.000000 0.019017 0.000000 -0.000504
# 5 0.011664 0.010396 0.003928 0.000000 0.056217 0.000000
# 6 0.000000 0.000000 0.000000 -0.000504 0.000000 0.028607
#
#
# Mechanical properties :
#
#
# Convention : Reuss Voigt Hill
#
# Bulk Modulus (GPa) = 31.58741 59.20310 45.39526
# Shear Modulus (GPa) = 34.95345 46.28031 40.61688
#
# Velocity S-wave (km/s) = 3.49613 4.02292 3.76874
# Velocity P-wave (km/s) = 5.22907 6.50241 5.90019
#
# Compressibility (1/GPa) = 0.03165818
#
# Stress axis : x y z
#
# Youngs Moduli (GPa) = 77.33355 94.21670 151.26386
#
# Poissons Ratio (x) = -0.31841 0.22577
# Poissons Ratio (y) = -0.26135 0.17181
# Poissons Ratio (z) = 0.11542 0.10701
#
# Static dielectric constant tensor:
#      x y z
#    x 5.889350 0.000000 0.003060 
#    y 0.000000 6.180280 0.000000 
#    z 0.003060 0.000000 5.548410 
# 
# 
# High freq. dielectric constant tensor:
#      x y z
#    x 2.220630 0.000000 -0.000320 
#    y 0.000000 2.161910 0.000000 
#    z -0.000320 0.000000 2.198430 
# 
# From -- ./inp_files/17925.got.cif
#   From: 2010.06.25/outbox.cif.g09.slc.cpg/sg15_9_cif.got.tgz:17925.got - 2010.06.28 07:06:18.
