data_PCOD8136158
_publ_section_title
;
Structure prediction by ZEFSAII (Michael W. Deem and Ramdas Pophale) SiO2 
 PCOD8136158
Probable space group: C 2/C
;
_chemical_formula_sum "Si O2"
_cell_formula_units_Z 56
_cell_length_a 12.974748
_cell_length_b 13.516962
_cell_length_c 16.965931
_cell_angle_alpha 90.000000
_cell_angle_beta 69.778207
_cell_angle_gamma 90.000000
_cell_volume 2792.067774
_symmetry_space_group_name_H-M "C 2/C"
_symmetry_group_IT_number 15
_symmetry_cell_setting 'monoclinic'
loop_
_space_group_symop_operation_xyz
x,y,z
-x,y,1/2-z
-x,-y,-z
x,-y,1/2+z
1/2+x,1/2+y,z
1/2-x,1/2+y,1/2-z
1/2-x,1/2-y,-z
1/2+x,1/2-y,1/2+z
loop_
_atom_site_type_symbol
_atom_site_label
_atom_site_fract_x
_atom_site_fract_y
_atom_site_fract_z
Si Si1 0.750782 0.341325 0.744598
Si Si2 0.695178 0.381449 0.579720
Si Si3 0.914131 0.701832 0.974793
Si Si4 0.073530 0.691647 0.802048
Si Si5 0.093758 0.934376 0.168329
Si Si6 0.068644 0.788979 0.363690
Si Si7 0.736740 0.561394 0.775960
O O1 0.714239 0.353711 0.664550
O O2 0.659244 0.273856 0.810166
O O3 0.870781 0.287737 0.712903
O O4 0.746304 0.445098 0.791769
O O5 0.813633 0.376429 0.505034
O O6 0.615774 0.302825 0.561355
O O7 0.635272 0.488604 0.590396
O O8 0.007801 0.652647 0.896204
O O9 0.959473 0.731145 0.048868
O O10 0.139814 0.599899 0.747418
O O11 0.000000 0.733690 0.750000
O O12 0.196676 0.911347 0.197640
O O13 0.000000 0.983235 0.250000
O O14 0.043910 0.833956 0.142893
O O15 0.153708 0.881152 0.357679
#
# Coordination Sequence:
#
# PCOD8136158 Si02
#       7
#     8   8   8   8   8   8   8
#     4   9  18  36  56  77 107 144 181 219 264 327
#     4   9  18  31  51  79 107 139 175 218 266 319
#     4  10  20  32  50  83 116 138 173 228 280 306
#     4  11  21  35  57  81 107 145 182 222 271 326
#     4   9  18  34  57  77 102 146 188 213 260 322
#     4   9  19  34  54  84 109 139 179 231 265 312
#     4   9  20  36  56  81 104 139 189 218 261 331
#
# _framework density 20.056820999999999
#
# number of rings (size 3 to 8) (size 9 to 14) (size 15 to 20)
#    0.000    2.571    1.429    0.000    8.000    0.571 
#    0.000   10.714    0.000    0.000    0.000    0.000 
#    0.000    0.000    0.000    0.000    0.000    0.000 
#
# Total GULP energy -346939.799666 kJ/mol
# GULP energy per Si atom -12390.707131 kJ/mol
# Density = 2.001117 g / cm^3
# Si number density = 20.056821 Si / 1000 Ang^3
#
#
#
# Elastic Constant Matrix: (Units=GPa)
#
#
# Indices 1 2 3 4 5 6 
#
# 1 62.3374 23.5243 10.9706 0.0000 -9.2344 0.0000
# 2 23.5243 89.2785 6.3778 0.0000 -7.9318 0.0000
# 3 10.9706 6.3778 71.8140 0.0000 -18.7545 0.0000
# 4 0.0000 0.0000 0.0000 21.7003 0.0000 -5.0893
# 5 -9.2344 -7.9318 -18.7545 0.0000 20.9337 0.0000
# 6 0.0000 0.0000 0.0000 -5.0893 0.0000 28.8708
#
#
#
# Elastic Compliance Matrix: (Units=1/GPa)
#
#
# Indices 1 2 3 4 5 6 
#
# 1 0.018703 -0.004350 -0.000975 0.000000 0.005729 0.000000
# 2 -0.004350 0.012604 0.000380 0.000000 0.003198 0.000000
# 3 -0.000975 0.000380 0.018231 0.000000 0.016047 0.000000
# 4 0.000000 0.000000 0.000000 0.048070 0.000000 0.008474
# 5 0.005729 0.003198 0.016047 0.000000 0.065885 0.000000
# 6 0.000000 0.000000 0.000000 0.008474 0.000000 0.036131
#
#
# Mechanical properties :
#
#
# Convention : Reuss Voigt Hill
#
# Bulk Modulus (GPa) = 25.22083 33.90835 29.56459
# Shear Modulus (GPa) = 22.44885 26.47142 24.46014
#
# Velocity S-wave (km/s) = 3.34917 3.63688 3.49598
# Velocity P-wave (km/s) = 5.24956 5.88036 5.57389
#
# Compressibility (1/GPa) = 0.03964977
#
# Stress axis : x y z
#
# Youngs Moduli (GPa) = 53.46625 79.34044 54.85240
#
# Poissons Ratio (x) = 0.34510 0.05347
# Poissons Ratio (y) = 0.23256 -0.02085
# Poissons Ratio (z) = 0.05211 -0.03016
#
# Static dielectric constant tensor:
#      x y z
#    x 3.615040 0.000000 -0.230760 
#    y 0.000000 3.728520 0.000000 
#    z -0.230760 0.000000 3.576660 
# 
# 
# High freq. dielectric constant tensor:
#      x y z
#    x 1.772140 0.000000 -0.015580 
#    y 0.000000 1.765140 0.000000 
#    z -0.015580 0.000000 1.759060 
# 
# From -- ./inp_files/197742.got.cif
#   From: 2010.06.25/outbox.cif.g09.slc.cpg/sg15_99_cif.got.tgz:197742.got - 2010.06.28 07:06:18.
