data_PCOD8136400
_publ_section_title
;
Structure prediction by ZEFSAII (Michael W. Deem and Ramdas Pophale) SiO2 
 PCOD8136400
Probable space group: C 2/C
;
_chemical_formula_sum "Si O2"
_cell_formula_units_Z 36
_cell_length_a 17.277929
_cell_length_b 5.737837
_cell_length_c 22.086993
_cell_angle_alpha 90.000000
_cell_angle_beta 120.940881
_cell_angle_gamma 90.000000
_cell_volume 1878.066734
_symmetry_space_group_name_H-M "C 2/C"
_symmetry_group_IT_number 15
_symmetry_cell_setting 'monoclinic'
loop_
_space_group_symop_operation_xyz
x,y,z
-x,y,1/2-z
-x,-y,-z
x,-y,1/2+z
1/2+x,1/2+y,z
1/2-x,1/2+y,1/2-z
1/2-x,1/2-y,-z
1/2+x,1/2-y,1/2+z
loop_
_atom_site_type_symbol
_atom_site_label
_atom_site_fract_x
_atom_site_fract_y
_atom_site_fract_z
Si Si1 0.358938 0.933770 0.748702
Si Si2 0.974991 0.179497 0.350669
Si Si3 0.500000 0.377481 0.250000
Si Si4 0.675507 0.635942 0.651776
Si Si5 0.545097 0.249446 0.001346
O O1 0.406034 0.756111 0.721817
O O2 0.317341 0.827755 0.792998
O O3 0.439798 0.102145 0.799419
O O4 0.276526 0.048507 0.679072
O O5 0.051231 0.252390 0.430575
O O6 0.021806 0.016080 0.320183
O O7 0.890630 0.067683 0.352299
O O8 0.640571 0.750409 0.574921
O O9 0.500000 0.500000 0.000000
O O10 0.500000 0.000000 0.000000
#
# Coordination Sequence:
#
# PCOD8136400 Si02
#       5
#     8   8   4   8   8
#     4  11  19  36  59  86 119 154 206 256 306 364
#     4  10  20  37  57  86 120 161 201 248 309 372
#     4  10  24  36  56  84 124 166 202 248 314 376
#     4  10  20  33  61  93 113 153 207 260 304 354
#     4  10  20  36  60  92 125 156 200 259 313 362
#
# _framework density 19.168648000000001
#
# number of rings (size 3 to 8) (size 9 to 14) (size 15 to 20)
#    0.000    1.778    4.444    0.667    0.000    0.000 
#    0.000    1.111    0.000    5.333    0.000    0.000 
#    0.000    0.000    0.000    0.000    0.000    0.000 
#
# Total GULP energy -222988.491978 kJ/mol
# GULP energy per Si atom -12388.249554 kJ/mol
# Density = 1.912502 g / cm^3
# Si number density = 19.168648 Si / 1000 Ang^3
#
#
#
# Elastic Constant Matrix: (Units=GPa)
#
#
# Indices 1 2 3 4 5 6 
#
# 1 85.8735 36.0444 72.6788 0.0003 -4.0512 -0.0001
# 2 36.0444 110.7093 54.3715 0.0012 -2.5630 0.0001
# 3 72.6788 54.3715 179.8354 0.0002 2.6374 0.0000
# 4 0.0003 0.0012 0.0002 -2.3839 0.0000 6.7743
# 5 -4.0512 -2.5630 2.6374 0.0000 20.7530 0.0000
# 6 -0.0001 0.0001 0.0000 6.7743 0.0000 12.6122
#
#
#
# Elastic Compliance Matrix: (Units=1/GPa)
#
#
# Indices 1 2 3 4 5 6 
#
# 1 0.018738 -0.002647 -0.006834 0.000000 0.004200 0.000000
# 2 -0.002647 0.011043 -0.002286 0.000002 0.001138 -0.000001
# 3 -0.006834 -0.002286 0.009054 -0.000001 -0.002767 0.000000
# 4 0.000000 0.000002 -0.000001 -0.166042 0.000000 0.089185
# 5 0.004200 0.001138 -0.002767 0.000000 0.049498 0.000000
# 6 0.000000 -0.000001 0.000000 0.089185 0.000000 0.031385
#
#
# Mechanical properties :
#
#
# Convention : Reuss Voigt Hill
#
# Bulk Modulus (GPa) = 65.35134 78.06753 71.70943
# Shear Modulus (GPa) = -282.66441 20.41783 -131.12329
#
# Velocity S-wave (km/s) = -12.15656 3.26723 -8.27971
# Velocity P-wave (km/s) = 12.76228 7.41944 7.34260
#
# Compressibility (1/GPa) = 0.01530191
#
# Stress axis : x y z
#
# Youngs Moduli (GPa) = 53.36644 90.55166 110.44525
#
# Poissons Ratio (x) = 0.23970 0.75480
# Poissons Ratio (y) = 0.14127 0.25245
# Poissons Ratio (z) = 0.36472 0.20698
#
# Static dielectric constant tensor:
#      x y z
#    x 3.029610 0.000000 0.013330 
#    y 0.000000 3.808790 0.000000 
#    z 0.013330 0.000000 3.907470 
# 
# 
# High freq. dielectric constant tensor:
#      x y z
#    x 1.699180 0.000000 -0.000260 
#    y 0.000000 1.762670 0.000000 
#    z -0.000260 0.000000 1.758240 
# 
# From -- ./inp_files/207839.got.cif
#   From: 2010.06.25/outbox.cif.g09.slc.cpg/sg15_104_cif.got.tgz:207839.got - 2010.06.28 07:06:18.
