data_PCOD8136783
_publ_section_title
;
Structure prediction by ZEFSAII (Michael W. Deem and Ramdas Pophale) SiO2 
 PCOD8136783
Probable space group: C 2/C
;
_chemical_formula_sum "Si O2"
_cell_formula_units_Z 64
_cell_length_a 17.670948
_cell_length_b 16.151881
_cell_length_c 15.644882
_cell_angle_alpha 90.000000
_cell_angle_beta 135.142757
_cell_angle_gamma 90.000000
_cell_volume 3149.600490
_symmetry_space_group_name_H-M "C 2/C"
_symmetry_group_IT_number 15
_symmetry_cell_setting 'monoclinic'
loop_
_space_group_symop_operation_xyz
x,y,z
-x,y,1/2-z
-x,-y,-z
x,-y,1/2+z
1/2+x,1/2+y,z
1/2-x,1/2+y,1/2-z
1/2-x,1/2-y,-z
1/2+x,1/2-y,1/2+z
loop_
_atom_site_type_symbol
_atom_site_label
_atom_site_fract_x
_atom_site_fract_y
_atom_site_fract_z
Si Si1 0.774093 0.495472 0.846834
Si Si2 0.769681 0.686660 0.885256
Si Si3 0.466413 0.918076 0.104961
Si Si4 0.373249 0.221298 0.797837
Si Si5 0.124057 0.308902 0.850627
Si Si6 0.280287 0.869213 0.071734
Si Si7 0.889173 0.875340 0.701391
Si Si8 0.671142 0.976609 0.801912
O O1 0.756807 0.592152 0.847608
O O2 0.670849 0.452228 0.804586
O O3 0.778771 0.473480 0.751606
O O4 0.884624 0.463207 0.975852
O O5 0.816422 0.738040 0.842527
O O6 0.656634 0.727333 0.822697
O O7 0.847498 0.698305 0.027473
O O8 0.532839 0.845868 0.110370
O O9 0.400065 0.872363 0.126733
O O10 0.548905 0.988173 0.204094
O O11 0.285364 0.188044 0.659475
O O12 0.417962 0.307120 0.795975
O O13 0.180341 0.387673 0.852403
O O14 0.000000 0.321023 0.750000
O O15 0.254347 0.963360 0.080409
O O16 0.188547 0.836345 0.934315
O O17 0.000000 0.907266 0.750000
#
# Coordination Sequence:
#
# PCOD8136783 Si02
#       8
#     8   8   8   8   8   8   8   8
#     4  11  22  39  65  95 125 163 211 256 314 369
#     4  11  24  43  60  91 129 163 211 265 303 379
#     4  10  20  34  65  99 124 155 193 264 327 367
#     4  11  21  39  61  93 127 151 205 263 318 374
#     4  11  24  40  63  88 127 171 208 253 321 372
#     4  10  20  37  62  91 125 163 200 256 321 369
#     4  11  24  41  59  88 126 172 206 249 308 378
#     4  11  19  37  65  97 125 153 212 268 316 368
#
# _framework density 20.320036999999999
#
# number of rings (size 3 to 8) (size 9 to 14) (size 15 to 20)
#    0.000    1.250    2.500    6.750    1.750    1.500 
#    2.250    0.625    0.000    0.000    0.000    0.000 
#    0.000    0.000    0.000    0.000    0.000    0.000 
#
# Total GULP energy -396789.026736 kJ/mol
# GULP energy per Si atom -12399.657086 kJ/mol
# Density = 2.027379 g / cm^3
# Si number density = 20.320037 Si / 1000 Ang^3
#
#
#
# Elastic Constant Matrix: (Units=GPa)
#
#
# Indices 1 2 3 4 5 6 
#
# 1 123.0734 26.5326 44.7811 0.0000 -20.5570 0.0000
# 2 26.5326 72.3449 27.9332 0.0000 -6.3562 0.0000
# 3 44.7811 27.9332 44.2596 0.0000 -11.1274 0.0000
# 4 0.0000 0.0000 0.0000 25.6566 0.0000 -7.4649
# 5 -20.5570 -6.3562 -11.1274 0.0000 34.4900 0.0000
# 6 0.0000 0.0000 0.0000 -7.4649 0.0000 32.1240
#
#
#
# Elastic Compliance Matrix: (Units=1/GPa)
#
#
# Indices 1 2 3 4 5 6 
#
# 1 0.013334 0.000374 -0.012746 0.000000 0.003904 0.000000
# 2 0.000374 0.018292 -0.011992 0.000000 -0.000275 0.000000
# 3 -0.012746 -0.011992 0.044176 0.000000 0.004445 0.000000
# 4 0.000000 0.000000 0.000000 0.041803 0.000000 0.009714
# 5 0.003904 -0.000275 0.004445 0.000000 0.032705 0.000000
# 6 0.000000 0.000000 0.000000 0.009714 0.000000 0.033387
#
#
# Mechanical properties :
#
#
# Convention : Reuss Voigt Hill
#
# Bulk Modulus (GPa) = 36.93508 48.68576 42.81042
# Shear Modulus (GPa) = 20.70837 27.81617 24.26227
#
# Velocity S-wave (km/s) = 3.19581 3.70388 3.45919
# Velocity P-wave (km/s) = 5.64214 6.50409 6.08839
#
# Compressibility (1/GPa) = 0.02707453
#
# Stress axis : x y z
#
# Youngs Moduli (GPa) = 74.99349 54.67020 22.63673
#
# Poissons Ratio (x) = -0.02045 0.28853
# Poissons Ratio (y) = -0.02805 0.27145
# Poissons Ratio (z) = 0.95587 0.65559
#
# Static dielectric constant tensor:
#      x y z
#    x 3.784490 0.000000 -0.221900 
#    y 0.000000 3.773980 0.000000 
#    z -0.221900 0.000000 3.605420 
# 
# 
# High freq. dielectric constant tensor:
#      x y z
#    x 1.799620 0.000000 -0.021640 
#    y 0.000000 1.795630 0.000000 
#    z -0.021640 0.000000 1.780330 
# 
# From -- ./inp_files/155506.got.cif
#   From: 2010.06.25/outbox.cif.g09.slc.cpg/sg15_78_cif.got.tgz:155506.got - 2010.06.28 07:06:18.
