data_PCOD8136447
_publ_section_title
;
Structure prediction by ZEFSAII (Michael W. Deem and Ramdas Pophale) SiO2 
 PCOD8136447
Probable space group: C 2/C
;
_chemical_formula_sum "Si O2"
_cell_formula_units_Z 52
_cell_length_a 6.536899
_cell_length_b 19.459740
_cell_length_c 30.786915
_cell_angle_alpha 90.000000
_cell_angle_beta 131.721063
_cell_angle_gamma 90.000000
_cell_volume 2923.094640
_symmetry_space_group_name_H-M "C 2/C"
_symmetry_group_IT_number 15
_symmetry_cell_setting 'monoclinic'
loop_
_space_group_symop_operation_xyz
x,y,z
-x,y,1/2-z
-x,-y,-z
x,-y,1/2+z
1/2+x,1/2+y,z
1/2-x,1/2+y,1/2-z
1/2-x,1/2-y,-z
1/2+x,1/2-y,1/2+z
loop_
_atom_site_type_symbol
_atom_site_label
_atom_site_fract_x
_atom_site_fract_y
_atom_site_fract_z
Si Si1 0.548932 0.745682 0.804498
Si Si2 0.500000 0.825376 0.250000
Si Si3 0.504199 0.166958 0.983032
Si Si4 0.204073 0.609767 0.694248
Si Si5 0.617227 0.055050 0.927802
Si Si6 0.265235 0.586497 0.478396
Si Si7 0.377613 0.695645 0.424417
O O1 0.500000 0.779302 0.750000
O O2 0.267919 0.723161 0.788626
O O3 0.743386 0.679733 0.824980
O O4 0.704519 0.801474 0.855628
O O5 0.485029 0.874144 0.290469
O O6 0.508042 0.113893 0.943971
O O7 0.331029 0.234036 0.944787
O O8 0.358489 0.134115 0.002888
O O9 0.803070 0.189206 0.041548
O O10 0.500000 0.578372 0.750000
O O11 0.046654 0.556897 0.640791
O O12 0.575456 0.980377 0.943812
O O13 0.936672 0.064521 0.962626
O O14 0.276624 0.628905 0.435528
#
# Coordination Sequence:
#
# PCOD8136447 Si02
#       7
#     8   4   8   8   8   8   8
#     4   9  18  33  52  77 104 133 174 219 258 309
#     4   8  18  30  52  84  96 134 178 214 270 294
#     4  10  20  35  54  78 106 144 170 215 273 309
#     4   9  18  32  52  76 102 131 176 221 255 308
#     4  10  20  36  53  77 108 137 178 223 263 323
#     4  10  22  33  53  80 107 139 178 216 268 325
#     4  10  20  34  52  81 108 134 179 218 261 324
#
# _framework density 17.789365
#
# number of rings (size 3 to 8) (size 9 to 14) (size 15 to 20)
#    0.000    2.769    1.538    0.923    2.154    2.462 
#    0.000    0.000    6.769    0.000    0.000    0.000 
#    0.000    0.000    0.000    0.000    0.000    0.000 
#
# Total GULP energy -322370.349646 kJ/mol
# GULP energy per Si atom -12398.859602 kJ/mol
# Density = 1.774888 g / cm^3
# Si number density = 17.789365 Si / 1000 Ang^3
#
#
#
# Elastic Constant Matrix: (Units=GPa)
#
#
# Indices 1 2 3 4 5 6 
#
# 1 75.2160 5.7211 25.9331 0.0000 -2.6707 -0.0003
# 2 5.7211 69.4327 34.2175 0.0002 2.4121 -0.0002
# 3 25.9331 34.2175 134.9225 0.0008 -9.1399 -0.0001
# 4 0.0000 0.0002 0.0008 17.5435 0.0001 8.1452
# 5 -2.6707 2.4121 -9.1399 0.0001 10.3132 -0.0002
# 6 -0.0003 -0.0002 -0.0001 8.1452 -0.0002 3.7985
#
#
#
# Elastic Compliance Matrix: (Units=1/GPa)
#
#
# Indices 1 2 3 4 5 6 
#
# 1 0.014257 0.000100 -0.002678 -0.000100 0.001295 0.000216
# 2 0.000100 0.017110 -0.004923 -0.000030 -0.008339 0.000064
# 3 -0.002678 -0.004923 0.009794 -0.000122 0.009138 0.000262
# 4 -0.000100 -0.000030 -0.000122 12.916882 -0.000687-27.698210
# 5 0.001295 -0.008339 0.009138 -0.000687 0.107348 0.001478
# 6 0.000216 0.000064 0.000262-27.698210 0.001478 59.657693
#
#
# Mechanical properties :
#
#
# Convention : Reuss Voigt Hill
#
# Bulk Modulus (GPa) = 38.22878 45.70163 41.96521
# Shear Modulus (GPa) = 0.06873 20.57767 10.32320
#
# Velocity S-wave (km/s) = 0.19677 3.40478 2.41156
# Velocity P-wave (km/s) = 4.64628 6.41895 5.60316
#
# Compressibility (1/GPa) = 0.02615830
#
# Stress axis : x y z
#
# Youngs Moduli (GPa) = 70.14247 58.44451 102.10321
#
# Poissons Ratio (x) = -0.00584 0.27342
# Poissons Ratio (y) = -0.00701 0.50270
# Poissons Ratio (z) = 0.18783 0.28775
#
# Static dielectric constant tensor:
#      x y z
#    x 3.267960 0.000000 -0.010650 
#    y 0.000000 3.229360 0.000000 
#    z -0.010650 0.000000 3.282680 
# 
# 
# High freq. dielectric constant tensor:
#      x y z
#    x 1.688880 0.000000 -0.003740 
#    y 0.000000 1.665650 0.000000 
#    z -0.003740 0.000000 1.688970 
# 
# From -- ./inp_files/286153.got.cif
#   From: 2010.06.25/outbox.cif.g09.slc.cpg/sg15_144_cif.got.tgz:286153.got - 2010.06.28 07:06:18.
