data_PCOD8136956
_publ_section_title
;
Structure prediction by ZEFSAII (Michael W. Deem and Ramdas Pophale) SiO2 
 PCOD8136956
Probable space group: C 2/C
;
_chemical_formula_sum "Si O2"
_cell_formula_units_Z 56
_cell_length_a 5.109005
_cell_length_b 23.779057
_cell_length_c 21.917615
_cell_angle_alpha 90.000000
_cell_angle_beta 94.855831
_cell_angle_gamma 90.000000
_cell_volume 2653.155451
_symmetry_space_group_name_H-M "C 2/C"
_symmetry_group_IT_number 15
_symmetry_cell_setting 'monoclinic'
loop_
_space_group_symop_operation_xyz
x,y,z
-x,y,1/2-z
-x,-y,-z
x,-y,1/2+z
1/2+x,1/2+y,z
1/2-x,1/2+y,1/2-z
1/2-x,1/2-y,-z
1/2+x,1/2-y,1/2+z
loop_
_atom_site_type_symbol
_atom_site_label
_atom_site_fract_x
_atom_site_fract_y
_atom_site_fract_z
Si Si1 0.333311 0.234036 0.186738
Si Si2 0.321679 0.232376 0.623207
Si Si3 0.858347 0.951537 0.916480
Si Si4 0.806545 0.149656 0.080627
Si Si5 0.323688 0.119009 0.549541
Si Si6 0.447774 0.889251 0.679539
Si Si7 0.697969 0.547804 0.950581
O O1 0.500000 0.246665 0.250000
O O2 0.521824 0.258739 0.137990
O O3 0.267760 0.167299 0.178437
O O4 0.049758 0.265113 0.180152
O O5 0.384508 0.284752 0.579408
O O6 0.348210 0.173816 0.590653
O O7 0.669452 0.946213 0.854026
O O8 0.934779 0.886442 0.927262
O O9 0.728523 0.971958 0.978115
O O10 0.107627 0.992933 0.909607
O O11 0.698858 0.130196 0.144761
O O12 0.614123 0.135464 0.019746
O O13 0.546506 0.074719 0.575795
O O14 0.039764 0.092165 0.554167
O O15 0.500000 0.907800 0.750000
#
# Coordination Sequence:
#
# PCOD8136956 Si02
#       7
#     8   8   8   8   8   8   8
#     4  10  21  37  58  87 117 154 197 248 297 356
#     4  11  21  36  59  87 121 155 194 242 299 353
#     4  10  20  37  57  85 115 154 195 243 298 354
#     4  10  21  35  57  88 123 150 189 247 306 351
#     4  11  22  38  57  89 120 158 196 239 288 361
#     4  10  20  35  57  87 122 151 194 246 307 357
#     4  10  23  36  61  82 120 157 197 238 291 351
#
# _framework density 21.106943999999999
#
# number of rings (size 3 to 8) (size 9 to 14) (size 15 to 20)
#    0.000    1.714    2.857    1.714    2.000    2.286 
#    0.000    4.286    0.000    3.429    0.000    0.000 
#    0.000    0.000    0.000    0.000    0.000    0.000 
#
# Total GULP energy -346903.913898 kJ/mol
# GULP energy per Si atom -12389.425496 kJ/mol
# Density = 2.105890 g / cm^3
# Si number density = 21.106944 Si / 1000 Ang^3
#
#
#
# Elastic Constant Matrix: (Units=GPa)
#
#
# Indices 1 2 3 4 5 6 
#
# 1 50.7961 -0.9204 14.9366 0.0000 14.3178 0.0000
# 2 -0.9204 79.9945 35.2239 0.0000 9.4739 0.0000
# 3 14.9366 35.2239 99.3052 0.0000 11.5678 0.0000
# 4 0.0000 0.0000 0.0000 29.1973 0.0000 5.9951
# 5 14.3178 9.4739 11.5678 0.0000 22.5779 0.0000
# 6 0.0000 0.0000 0.0000 5.9951 0.0000 34.7638
#
#
#
# Elastic Compliance Matrix: (Units=1/GPa)
#
#
# Indices 1 2 3 4 5 6 
#
# 1 0.025150 0.003574 -0.003210 0.000000 -0.015804 0.000000
# 2 0.003574 0.015627 -0.005373 0.000000 -0.006071 0.000000
# 3 -0.003210 -0.005373 0.012718 0.000000 -0.002226 0.000000
# 4 0.000000 0.000000 0.000000 0.035507 0.000000 -0.006123
# 5 -0.015804 -0.006071 -0.002226 0.000000 0.058001 0.000000
# 6 0.000000 0.000000 0.000000 -0.006123 0.000000 0.029821
#
#
# Mechanical properties :
#
#
# Convention : Reuss Voigt Hill
#
# Bulk Modulus (GPa) = 23.00042 36.50846 29.75444
# Shear Modulus (GPa) = 24.83430 29.36486 27.09958
#
# Velocity S-wave (km/s) = 3.43387 3.73398 3.58707
# Velocity P-wave (km/s) = 5.16166 5.99371 5.59318
#
# Compressibility (1/GPa) = 0.04347746
#
# Stress axis : x y z
#
# Youngs Moduli (GPa) = 39.76174 63.99160 78.62878
#
# Poissons Ratio (x) = -0.22873 0.25237
# Poissons Ratio (y) = -0.14212 0.42250
# Poissons Ratio (z) = 0.12762 0.34385
#
# Static dielectric constant tensor:
#      x y z
#    x 3.698480 0.000000 0.161610 
#    y 0.000000 3.856710 0.000000 
#    z 0.161610 0.000000 3.861160 
# 
# 
# High freq. dielectric constant tensor:
#      x y z
#    x 1.825110 0.000000 0.017410 
#    y 0.000000 1.819660 0.000000 
#    z 0.017410 0.000000 1.802550 
# 
# From -- ./inp_files/261183.got.cif
#   From: 2010.06.25/outbox.cif.g09.slc.cpg/sg15_131_cif.got.tgz:261183.got - 2010.06.28 07:06:18.
