data_PCOD8136239
_publ_section_title
;
Structure prediction by ZEFSAII (Michael W. Deem and Ramdas Pophale) SiO2 
 PCOD8136239
Probable space group: C 2/C
;
_chemical_formula_sum "Si O2"
_cell_formula_units_Z 48
_cell_length_a 14.567798
_cell_length_b 25.787288
_cell_length_c 15.121956
_cell_angle_alpha 90.000000
_cell_angle_beta 152.069717
_cell_angle_gamma 90.000000
_cell_volume 2660.856905
_symmetry_space_group_name_H-M "C 2/C"
_symmetry_group_IT_number 15
_symmetry_cell_setting 'monoclinic'
loop_
_space_group_symop_operation_xyz
x,y,z
-x,y,1/2-z
-x,-y,-z
x,-y,1/2+z
1/2+x,1/2+y,z
1/2-x,1/2+y,1/2-z
1/2-x,1/2-y,-z
1/2+x,1/2-y,1/2+z
loop_
_atom_site_type_symbol
_atom_site_label
_atom_site_fract_x
_atom_site_fract_y
_atom_site_fract_z
Si Si1 0.360513 0.014890 0.514119
Si Si2 0.564327 0.879502 0.136485
Si Si3 0.729434 0.491101 0.589319
Si Si4 0.351136 0.550338 0.808998
Si Si5 0.809369 0.187882 0.968409
Si Si6 0.748627 0.300958 0.878346
O O1 0.431974 0.073371 0.559689
O O2 0.223802 0.013017 0.484597
O O3 0.549320 0.977286 0.692329
O O4 0.245068 0.995615 0.330508
O O5 0.713845 0.898359 0.185379
O O6 0.702269 0.860103 0.332880
O O7 0.420856 0.834299 0.978043
O O8 0.645949 0.534978 0.584765
O O9 0.576444 0.442284 0.467107
O O10 0.720292 0.192612 0.990233
O O11 0.041608 0.177488 0.168758
O O12 0.765804 0.239704 0.873409
#
# Coordination Sequence:
#
# PCOD8136239 Si02
#       6
#     8   8   8   8   8   8
#     4  10  21  35  53  75 107 146 181 225 263 315
#     4  11  21  31  54  73 104 143 183 214 258 321
#     4   9  19  34  52  71 105 141 173 225 265 306
#     4  10  21  35  51  76 109 139 182 231 261 310
#     4  10  20  33  48  71 102 141 177 223 256 304
#     4  10  20  33  49  70 104 138 180 221 258 303
#
# _framework density 18.039300999999998
#
# number of rings (size 3 to 8) (size 9 to 14) (size 15 to 20)
#    0.000    2.000    1.667    3.000    9.333    5.333 
#    3.000    0.000    0.000    0.000    0.000    0.000 
#    0.000    5.333    0.000    1.000    0.000    0.000 
#
# Total GULP energy -297389.917210 kJ/mol
# GULP energy per Si atom -12391.246550 kJ/mol
# Density = 1.799824 g / cm^3
# Si number density = 18.039301 Si / 1000 Ang^3
#
#
#
# Elastic Constant Matrix: (Units=GPa)
#
#
# Indices 1 2 3 4 5 6 
#
# 1 71.8406 32.8844 22.4655 -0.0002 12.2824 -0.0001
# 2 32.8844 74.8456 35.1374 -0.0001 5.3988 -0.0001
# 3 22.4655 35.1374 74.2142 -0.0002 7.4179 -0.0002
# 4 -0.0002 -0.0001 -0.0002 32.9458 -0.0002 7.6920
# 5 12.2824 5.3988 7.4179 -0.0002 27.6788 -0.0001
# 6 -0.0001 -0.0001 -0.0002 7.6920 -0.0001 22.3798
#
#
#
# Elastic Compliance Matrix: (Units=1/GPa)
#
#
# Indices 1 2 3 4 5 6 
#
# 1 0.018759 -0.006959 -0.001734 0.000000 -0.006502 0.000000
# 2 -0.006959 0.019800 -0.007388 0.000000 0.001206 0.000000
# 3 -0.001734 -0.007388 0.017752 0.000000 -0.002547 0.000000
# 4 0.000000 0.000000 0.000000 0.033001 0.000000 -0.011343
# 5 -0.006502 0.001206 -0.002547 0.000000 0.039462 0.000000
# 6 0.000000 0.000000 0.000000 -0.011343 0.000000 0.048582
#
#
# Mechanical properties :
#
#
# Convention : Reuss Voigt Hill
#
# Bulk Modulus (GPa) = 41.41054 44.65277 43.03166
# Shear Modulus (GPa) = 22.98135 25.29506 24.13821
#
# Velocity S-wave (km/s) = 3.57313 3.74868 3.66196
# Velocity P-wave (km/s) = 6.32681 6.59876 6.46422
#
# Compressibility (1/GPa) = 0.02414844
#
# Stress axis : x y z
#
# Youngs Moduli (GPa) = 53.30770 50.50501 56.33138
#
# Poissons Ratio (x) = 0.35147 0.09767
# Poissons Ratio (y) = 0.37097 0.41620
# Poissons Ratio (z) = 0.09243 0.37316
#
# Static dielectric constant tensor:
#      x y z
#    x 3.395030 0.000000 0.370450 
#    y 0.000000 3.249870 0.000000 
#    z 0.370450 0.000000 3.568710 
# 
# 
# High freq. dielectric constant tensor:
#      x y z
#    x 1.664330 0.000000 0.026910 
#    y 0.000000 1.660570 0.000000 
#    z 0.026910 0.000000 1.720320 
# 
# From -- ./inp_files/156827.got.cif
#   From: 2010.06.25/outbox.cif.g09.slc.cpg/sg15_79_cif.got.tgz:156827.got - 2010.06.28 07:06:18.
