data_PCOD8136225
_publ_section_title
;
Structure prediction by ZEFSAII (Michael W. Deem and Ramdas Pophale) SiO2 
 PCOD8136225
Probable space group: C 2/C
;
_chemical_formula_sum "Si O2"
_cell_formula_units_Z 60
_cell_length_a 13.859397
_cell_length_b 24.284696
_cell_length_c 11.437833
_cell_angle_alpha 90.000000
_cell_angle_beta 132.193168
_cell_angle_gamma 90.000000
_cell_volume 2852.143529
_symmetry_space_group_name_H-M "C 2/C"
_symmetry_group_IT_number 15
_symmetry_cell_setting 'monoclinic'
loop_
_space_group_symop_operation_xyz
x,y,z
-x,y,1/2-z
-x,-y,-z
x,-y,1/2+z
1/2+x,1/2+y,z
1/2-x,1/2+y,1/2-z
1/2-x,1/2-y,-z
1/2+x,1/2-y,1/2+z
loop_
_atom_site_type_symbol
_atom_site_label
_atom_site_fract_x
_atom_site_fract_y
_atom_site_fract_z
Si Si1 0.857577 0.564337 0.160994
Si Si2 0.981133 0.301048 0.981835
Si Si3 0.821257 0.557958 0.686531
Si Si4 0.955371 0.174483 0.952038
Si Si5 0.500000 0.152536 0.750000
Si Si6 0.867127 0.115583 0.093534
Si Si7 0.765447 0.134774 0.258281
Si Si8 0.281328 0.879163 0.374950
O O1 0.878508 0.498733 0.186567
O O2 0.796484 0.579622 0.236495
O O3 0.000000 0.589254 0.250000
O O4 0.763853 0.590305 0.985179
O O5 0.980773 0.308642 0.121900
O O6 0.106620 0.332453 0.030520
O O7 0.987976 0.237474 0.952995
O O8 0.845698 0.319379 0.811111
O O9 0.674495 0.563214 0.519638
O O10 0.829181 0.569904 0.830993
O O11 0.878870 0.611643 0.666988
O O12 0.856920 0.147816 0.775969
O O13 0.888742 0.168655 0.026163
O O14 0.097062 0.145619 0.066566
O O15 0.774230 0.129938 0.126166
O O16 0.000000 0.092513 0.250000
#
# Coordination Sequence:
#
# PCOD8136225 Si02
#       8
#     8   8   8   8   4   8   8   8
#     4  12  25  42  68  90 128 174 216 269 327 370
#     4  11  21  38  68  98 131 168 211 267 331 373
#     4  10  21  39  62  94 125 166 204 271 327 369
#     4  10  23  43  64  95 131 173 206 271 327 370
#     4  10  20  32  62 104 132 150 210 262 332 390
#     4   9  20  40  60  93 135 156 209 263 310 393
#     4  11  23  40  63  95 128 170 219 255 315 396
#     4  10  24  44  61  98 136 161 223 267 305 406
#
# _framework density 21.036809999999999
#
# number of rings (size 3 to 8) (size 9 to 14) (size 15 to 20)
#    0.000    1.600    3.333    0.800    4.667    1.600 
#    2.400    6.000    0.000    0.000    0.000    0.000 
#    0.000    0.000    0.000    0.000    0.000    0.000 
#
# Total GULP energy -371650.371438 kJ/mol
# GULP energy per Si atom -12388.345715 kJ/mol
# Density = 2.098893 g / cm^3
# Si number density = 21.036810 Si / 1000 Ang^3
#
#
#
# Elastic Constant Matrix: (Units=GPa)
#
#
# Indices 1 2 3 4 5 6 
#
# 1 64.4082 35.3205 21.5168 0.0000 14.7449 0.0000
# 2 35.3205 101.4741 39.4879 0.0000 0.5353 0.0000
# 3 21.5168 39.4879 97.0103 0.0000 18.4818 0.0000
# 4 0.0000 0.0000 0.0000 24.1085 0.0000 0.4194
# 5 14.7449 0.5353 18.4818 0.0000 30.5775 0.0000
# 6 0.0000 0.0000 0.0000 0.4194 0.0000 12.0149
#
#
#
# Elastic Compliance Matrix: (Units=1/GPa)
#
#
# Indices 1 2 3 4 5 6 
#
# 1 0.022139 -0.007763 0.000291 0.000000 -0.010716 0.000000
# 2 -0.007763 0.014684 -0.005560 0.000000 0.006847 0.000000
# 3 0.000291 -0.005560 0.014144 0.000000 -0.008592 0.000000
# 4 0.000000 0.000000 0.000000 0.041504 0.000000 -0.001449
# 5 -0.010716 0.006847 -0.008592 0.000000 0.042944 0.000000
# 6 0.000000 0.000000 0.000000 -0.001449 0.000000 0.083280
#
#
# Mechanical properties :
#
#
# Convention : Reuss Voigt Hill
#
# Bulk Modulus (GPa) = 40.15511 50.61591 45.38551
# Shear Modulus (GPa) = 19.75818 24.44467 22.10142
#
# Velocity S-wave (km/s) = 3.06799 3.41250 3.24482
# Velocity P-wave (km/s) = 5.62846 6.29601 5.97157
#
# Compressibility (1/GPa) = 0.02490343
#
# Stress axis : x y z
#
# Youngs Moduli (GPa) = 45.16958 68.10072 70.70325
#
# Poissons Ratio (x) = 0.52864 -0.02056
# Poissons Ratio (y) = 0.35063 0.39310
# Poissons Ratio (z) = -0.01314 0.37863
#
# Static dielectric constant tensor:
#      x y z
#    x 3.875190 0.000000 0.177030 
#    y 0.000000 3.462670 0.000000 
#    z 0.177030 0.000000 4.130000 
# 
# 
# High freq. dielectric constant tensor:
#      x y z
#    x 1.818820 0.000000 0.012710 
#    y 0.000000 1.798900 0.000000 
#    z 0.012710 0.000000 1.841220 
# 
# From -- ./inp_files/100694.got.cif
#   From: 2010.06.25/outbox.cif.g09.slc.cpg/sg15_51_cif.got.tgz:100694.got - 2010.06.28 07:06:18.
