data_PCOD8136469
_publ_section_title
;
Structure prediction by ZEFSAII (Michael W. Deem and Ramdas Pophale) SiO2 
 PCOD8136469
Probable space group: C 2/C
;
_chemical_formula_sum "Si O2"
_cell_formula_units_Z 44
_cell_length_a 21.147095
_cell_length_b 10.947034
_cell_length_c 9.230420
_cell_angle_alpha 90.000000
_cell_angle_beta 97.177050
_cell_angle_gamma 90.000000
_cell_volume 2120.081086
_symmetry_space_group_name_H-M "C 2/C"
_symmetry_group_IT_number 15
_symmetry_cell_setting 'monoclinic'
loop_
_space_group_symop_operation_xyz
x,y,z
-x,y,1/2-z
-x,-y,-z
x,-y,1/2+z
1/2+x,1/2+y,z
1/2-x,1/2+y,1/2-z
1/2-x,1/2-y,-z
1/2+x,1/2-y,1/2+z
loop_
_atom_site_type_symbol
_atom_site_label
_atom_site_fract_x
_atom_site_fract_y
_atom_site_fract_z
Si Si1 0.198806 0.081267 0.503094
Si Si2 0.000000 0.035946 0.750000
Si Si3 0.650301 0.160754 0.638352
Si Si4 0.829302 0.523734 0.127236
Si Si5 0.733276 0.214305 0.217691
Si Si6 0.082162 0.905030 0.533321
O O1 0.215783 0.120934 0.343062
O O2 0.193498 0.206807 0.590932
O O3 0.255248 0.002167 0.583339
O O4 0.135124 0.001955 0.496047
O O5 0.955129 0.952765 0.837535
O O6 0.960386 0.117729 0.623375
O O7 0.637301 0.056906 0.513862
O O8 0.724927 0.202054 0.660740
O O9 0.606241 0.274893 0.594756
O O10 0.635147 0.091454 0.786669
O O11 0.825476 0.645459 0.223413
#
# Coordination Sequence:
#
# PCOD8136469 Si02
#       6
#     8   4   8   8   8   8
#     4  10  21  34  59  91 133 156 197 232 316 348
#     4  10  26  44  64  92 114 140 238 262 308 342
#     4  11  23  36  61  85 133 163 199 235 311 351
#     4  11  21  36  54  98 129 163 193 229 285 418
#     4  10  20  34  53  94 131 168 186 234 276 411
#     4  11  23  43  65  90 113 166 197 277 300 347
#
# _framework density 20.753921999999999
#
# number of rings (size 3 to 8) (size 9 to 14) (size 15 to 20)
#    0.000    1.455    3.636    1.636    2.545    0.000 
#    0.000    0.000    0.000    3.273    0.000    0.000 
#    0.000    0.000    0.000    0.000    0.000    0.000 
#
# Total GULP energy -272619.525482 kJ/mol
# GULP energy per Si atom -12391.796613 kJ/mol
# Density = 2.070669 g / cm^3
# Si number density = 20.753922 Si / 1000 Ang^3
#
#
#
# Elastic Constant Matrix: (Units=GPa)
#
#
# Indices 1 2 3 4 5 6 
#
# 1 54.6009 24.9715 33.4227 0.0000 4.3330 0.0000
# 2 24.9715 98.0525 54.3282 0.0000 11.0260 0.0000
# 3 33.4227 54.3282 130.0304 0.0000 4.6857 0.0000
# 4 0.0000 0.0000 0.0000 40.9863 0.0000 0.9534
# 5 4.3330 11.0260 4.6857 0.0000 25.7239 0.0000
# 6 0.0000 0.0000 0.0000 0.9534 0.0000 13.7943
#
#
#
# Elastic Compliance Matrix: (Units=1/GPa)
#
#
# Indices 1 2 3 4 5 6 
#
# 1 0.022589 -0.003099 -0.004451 0.000000 -0.001666 0.000000
# 2 -0.003099 0.014288 -0.005004 0.000000 -0.004691 0.000000
# 3 -0.004451 -0.005004 0.010893 0.000000 0.000911 0.000000
# 4 0.000000 0.000000 0.000000 0.024438 0.000000 -0.001689
# 5 -0.001666 -0.004691 0.000911 0.000000 0.041000 0.000000
# 6 0.000000 0.000000 0.000000 -0.001689 0.000000 0.072610
#
#
# Mechanical properties :
#
#
# Convention : Reuss Voigt Hill
#
# Bulk Modulus (GPa) = 44.12959 56.45874 50.29417
# Shear Modulus (GPa) = 22.88538 27.43166 25.15852
#
# Velocity S-wave (km/s) = 3.32430 3.63954 3.48549
# Velocity P-wave (km/s) = 6.00367 6.70259 6.36273
#
# Compressibility (1/GPa) = 0.02266053
#
# Stress axis : x y z
#
# Youngs Moduli (GPa) = 44.26912 69.98892 91.80534
#
# Poissons Ratio (x) = 0.21691 0.40866
# Poissons Ratio (y) = 0.13720 0.45940
# Poissons Ratio (z) = 0.19706 0.35023
#
# Static dielectric constant tensor:
#      x y z
#    x 3.312230 0.000000 -0.017780 
#    y 0.000000 3.887640 0.000000 
#    z -0.017780 0.000000 4.146670 
# 
# 
# High freq. dielectric constant tensor:
#      x y z
#    x 1.750260 0.000000 -0.007090 
#    y 0.000000 1.820510 0.000000 
#    z -0.007090 0.000000 1.837940 
# 
# From -- ./inp_files/60716.got.cif
#   From: 2010.06.25/outbox.cif.g09.slc.cpg/sg15_31_cif.got.tgz:60716.got - 2010.06.28 07:06:18.
