data_PCOD8136620
_publ_section_title
;
Structure prediction by ZEFSAII (Michael W. Deem and Ramdas Pophale) SiO2 
 PCOD8136620
Probable space group: C 2/C
;
_chemical_formula_sum "Si O2"
_cell_formula_units_Z 56
_cell_length_a 19.431042
_cell_length_b 11.378300
_cell_length_c 15.855735
_cell_angle_alpha 90.000000
_cell_angle_beta 121.782976
_cell_angle_gamma 90.000000
_cell_volume 2979.915343
_symmetry_space_group_name_H-M "C 2/C"
_symmetry_group_IT_number 15
_symmetry_cell_setting 'monoclinic'
loop_
_space_group_symop_operation_xyz
x,y,z
-x,y,1/2-z
-x,-y,-z
x,-y,1/2+z
1/2+x,1/2+y,z
1/2-x,1/2+y,1/2-z
1/2-x,1/2-y,-z
1/2+x,1/2-y,1/2+z
loop_
_atom_site_type_symbol
_atom_site_label
_atom_site_fract_x
_atom_site_fract_y
_atom_site_fract_z
Si Si1 0.189542 0.827412 0.407029
Si Si2 0.074276 0.515901 0.901852
Si Si3 0.896571 0.465080 0.275199
Si Si4 0.532866 0.233930 0.362434
Si Si5 0.240302 0.305182 0.357400
Si Si6 0.253947 0.082854 0.465089
Si Si7 0.862890 0.274749 0.800216
O O1 0.250000 0.750000 0.500000
O O2 0.101824 0.832453 0.397091
O O3 0.184066 0.766368 0.313152
O O4 0.217943 0.959620 0.414107
O O5 0.096365 0.508179 0.818279
O O6 0.071115 0.381026 0.932279
O O7 0.986596 0.575117 0.865345
O O8 0.148870 0.584976 0.993223
O O9 0.832189 0.359339 0.246651
O O10 0.866436 0.582505 0.304201
O O11 0.500000 0.191152 0.250000
O O12 0.454310 0.278988 0.363049
O O13 0.210909 0.183519 0.381698
O O14 0.264281 0.395463 0.447616
O O15 0.317823 0.279251 0.350822
#
# Coordination Sequence:
#
# PCOD8136620 Si02
#       7
#     8   8   8   8   8   8   8
#     4  11  18  33  60  87 106 139 184 224 277 324
#     4   9  13  31  57  80  99 134 184 224 269 301
#     4   9  16  32  58  78 102 141 184 228 259 318
#     4   9  15  31  54  84 106 135 181 231 267 313
#     4  10  22  37  51  78 115 146 181 221 274 330
#     4  10  21  35  56  80 114 147 172 227 282 327
#     4  10  20  34  58  80 107 143 185 228 269 323
#
# _framework density 18.792480000000001
#
# number of rings (size 3 to 8) (size 9 to 14) (size 15 to 20)
#    0.000    2.286    5.714    0.857    2.000    0.000 
#    0.000    5.000   28.286    0.000    0.000    0.000 
#    0.000    0.000    0.000    0.000    0.000    0.000 
#
# Total GULP energy -346950.681412 kJ/mol
# GULP energy per Si atom -12391.095765 kJ/mol
# Density = 1.874971 g / cm^3
# Si number density = 18.792480 Si / 1000 Ang^3
#
#
#
# Elastic Constant Matrix: (Units=GPa)
#
#
# Indices 1 2 3 4 5 6 
#
# 1 136.9272 45.3406 39.0362 0.0000 14.8635 0.0000
# 2 45.3406 86.7265 31.0537 0.0000 19.6169 0.0000
# 3 39.0362 31.0537 49.3269 0.0000 14.6879 0.0000
# 4 0.0000 0.0000 0.0000 11.7971 0.0000 3.5790
# 5 14.8635 19.6169 14.6879 0.0000 24.6636 0.0000
# 6 0.0000 0.0000 0.0000 3.5790 0.0000 30.1626
#
#
#
# Elastic Compliance Matrix: (Units=1/GPa)
#
#
# Indices 1 2 3 4 5 6 
#
# 1 0.010039 -0.003100 -0.005987 0.000000 -0.000018 0.000000
# 2 -0.003100 0.017119 -0.005866 0.000000 -0.008254 0.000000
# 3 -0.005987 -0.005866 0.031896 0.000000 -0.010722 0.000000
# 4 0.000000 0.000000 0.000000 0.087932 0.000000 -0.010434
# 5 -0.000018 -0.008254 -0.010722 0.000000 0.053507 0.000000
# 6 0.000000 0.000000 0.000000 -0.010434 0.000000 0.034392
#
#
# Mechanical properties :
#
#
# Convention : Reuss Voigt Hill
#
# Bulk Modulus (GPa) = 34.30843 55.98240 45.14541
# Shear Modulus (GPa) = 18.21454 23.82800 21.02127
#
# Velocity S-wave (km/s) = 3.11665 3.56470 3.34818
# Velocity P-wave (km/s) = 5.58994 6.84085 6.24679
#
# Compressibility (1/GPa) = 0.02914735
#
# Stress axis : x y z
#
# Youngs Moduli (GPa) = 99.61595 58.41578 31.35165
#
# Poissons Ratio (x) = 0.18110 0.18770
# Poissons Ratio (y) = 0.30883 0.18390
# Poissons Ratio (z) = 0.59640 0.34265
#
# Static dielectric constant tensor:
#      x y z
#    x 3.813500 0.000000 0.367040 
#    y 0.000000 3.369300 0.000000 
#    z 0.367040 0.000000 3.424690 
# 
# 
# High freq. dielectric constant tensor:
#      x y z
#    x 1.733490 0.000000 0.013950 
#    y 0.000000 1.706970 0.000000 
#    z 0.013950 0.000000 1.708130 
# 
# From -- ./inp_files/214618.got.cif
#   From: 2010.06.25/outbox.cif.g09.slc.cpg/sg15_108_cif.got.tgz:214618.got - 2010.06.28 07:06:18.
