data_PCOD8136007
_publ_section_title
;
Structure prediction by ZEFSAII (Michael W. Deem and Ramdas Pophale) SiO2 
 PCOD8136007
Probable space group: C 2/C
;
_chemical_formula_sum "Si O2"
_cell_formula_units_Z 64
_cell_length_a 11.695271
_cell_length_b 15.407512
_cell_length_c 17.568111
_cell_angle_alpha 90.000000
_cell_angle_beta 93.075928
_cell_angle_gamma 90.000000
_cell_volume 3161.125463
_symmetry_space_group_name_H-M "C 2/C"
_symmetry_group_IT_number 15
_symmetry_cell_setting 'monoclinic'
loop_
_space_group_symop_operation_xyz
x,y,z
-x,y,1/2-z
-x,-y,-z
x,-y,1/2+z
1/2+x,1/2+y,z
1/2-x,1/2+y,1/2-z
1/2-x,1/2-y,-z
1/2+x,1/2-y,1/2+z
loop_
_atom_site_type_symbol
_atom_site_label
_atom_site_fract_x
_atom_site_fract_y
_atom_site_fract_z
Si Si1 0.692208 0.797092 0.638953
Si Si2 0.899031 0.873107 0.584295
Si Si3 0.770011 0.817921 0.808107
Si Si4 0.535904 0.127152 0.338189
Si Si5 0.023250 0.709645 0.660116
Si Si6 0.944161 0.541361 0.573223
Si Si7 0.695612 0.388844 0.076939
Si Si8 0.430718 0.517207 0.321295
O O1 0.766682 0.876597 0.607049
O O2 0.716713 0.785686 0.728065
O O3 0.559057 0.819688 0.617097
O O4 0.729113 0.708038 0.600809
O O5 0.898419 0.881227 0.493189
O O6 0.942182 0.783128 0.622207
O O7 0.975044 0.952857 0.614505
O O8 0.662034 0.833762 0.859859
O O9 0.846170 0.741378 0.846098
O O10 0.845621 0.904283 0.796967
O O11 0.500000 0.131793 0.250000
O O12 0.541370 0.027029 0.359247
O O13 0.000000 0.695682 0.750000
O O14 0.010588 0.624976 0.607812
O O15 0.810515 0.562168 0.553988
O O16 0.000000 0.500000 0.500000
O O17 0.639844 0.437295 0.147028
O O18 0.500000 0.484822 0.250000
#
# Coordination Sequence:
#
# PCOD8136007 Si02
#       8
#     8   8   8   8   8   8   8   8
#     4  11  21  40  66  95 126 170 216 262 325 390
#     4  11  21  39  67  96 124 168 216 265 324 383
#     4  10  19  42  65  95 124 168 220 272 320 377
#     4  10  23  39  65  91 132 169 210 271 331 374
#     4  11  21  41  71  95 122 170 230 265 309 393
#     4  12  25  42  62  98 135 171 216 267 326 388
#     4  12  25  40  64  98 136 164 217 271 328 389
#     4  11  22  42  68  93 129 170 219 270 321 389
#
# _framework density 20.245954000000001
#
# number of rings (size 3 to 8) (size 9 to 14) (size 15 to 20)
#    0.000    1.000    5.000    2.625    1.750    1.500 
#    0.000    4.375    0.000    0.000    0.000    0.000 
#    0.000    0.000    0.000    0.000    0.000    0.000 
#
# Total GULP energy -396691.979705 kJ/mol
# GULP energy per Si atom -12396.624366 kJ/mol
# Density = 2.019987 g / cm^3
# Si number density = 20.245954 Si / 1000 Ang^3
#
#
#
# Elastic Constant Matrix: (Units=GPa)
#
#
# Indices 1 2 3 4 5 6 
#
# 1 140.2781 36.2111 34.2504 0.0000 -10.1697 0.0000
# 2 36.2111 69.2339 25.0665 0.0000 2.3519 0.0000
# 3 34.2504 25.0665 75.3870 0.0000 8.7708 0.0000
# 4 0.0000 0.0000 0.0000 30.7275 0.0000 0.5951
# 5 -10.1697 2.3519 8.7708 0.0000 28.2838 0.0000
# 6 0.0000 0.0000 0.0000 0.5951 0.0000 31.3860
#
#
#
# Elastic Compliance Matrix: (Units=1/GPa)
#
#
# Indices 1 2 3 4 5 6 
#
# 1 0.009304 -0.003748 -0.003534 0.000000 0.004753 0.000000
# 2 -0.003748 0.017934 -0.004077 0.000000 -0.001575 0.000000
# 3 -0.003534 -0.004077 0.016946 0.000000 -0.006186 0.000000
# 4 0.000000 0.000000 0.000000 0.032556 0.000000 -0.000617
# 5 0.004753 -0.001575 -0.006186 0.000000 0.039114 0.000000
# 6 0.000000 0.000000 0.000000 -0.000617 0.000000 0.031873
#
#
# Mechanical properties :
#
#
# Convention : Reuss Voigt Hill
#
# Bulk Modulus (GPa) = 46.58598 52.88388 49.73493
# Shear Modulus (GPa) = 28.15339 30.70419 29.42879
#
# Velocity S-wave (km/s) = 3.73308 3.89853 3.81670
# Velocity P-wave (km/s) = 6.45299 6.81484 6.63639
#
# Compressibility (1/GPa) = 0.02146569
#
# Stress axis : x y z
#
# Youngs Moduli (GPa) = 107.48617 55.76089 59.01228
#
# Poissons Ratio (x) = 0.20900 0.20852
# Poissons Ratio (y) = 0.40287 0.24059
# Poissons Ratio (z) = 0.37981 0.22734
#
# Static dielectric constant tensor:
#      x y z
#    x 4.238380 0.000000 0.057990 
#    y 0.000000 3.557220 0.000000 
#    z 0.057990 0.000000 3.640170 
# 
# 
# High freq. dielectric constant tensor:
#      x y z
#    x 1.807840 0.000000 0.007180 
#    y 0.000000 1.778560 0.000000 
#    z 0.007180 0.000000 1.785480 
# 
# From -- ./inp_files/198318.got.cif
#   From: 2010.06.25/outbox.cif.g09.slc.cpg/sg15_100_cif.got.tgz:198318.got - 2010.06.28 07:06:18.
