data_PCOD8136518
_publ_section_title
;
Structure prediction by ZEFSAII (Michael W. Deem and Ramdas Pophale) SiO2 
 PCOD8136518
Probable space group: C 2/C
;
_chemical_formula_sum "Si O2"
_cell_formula_units_Z 52
_cell_length_a 12.009021
_cell_length_b 18.069454
_cell_length_c 22.059114
_cell_angle_alpha 90.000000
_cell_angle_beta 36.668246
_cell_angle_gamma 90.000000
_cell_volume 2858.554416
_symmetry_space_group_name_H-M "C 2/C"
_symmetry_group_IT_number 15
_symmetry_cell_setting 'monoclinic'
loop_
_space_group_symop_operation_xyz
x,y,z
-x,y,1/2-z
-x,-y,-z
x,-y,1/2+z
1/2+x,1/2+y,z
1/2-x,1/2+y,1/2-z
1/2-x,1/2-y,-z
1/2+x,1/2-y,1/2+z
loop_
_atom_site_type_symbol
_atom_site_label
_atom_site_fract_x
_atom_site_fract_y
_atom_site_fract_z
Si Si1 0.991726 0.045038 0.565948
Si Si2 0.706182 0.596102 0.172147
Si Si3 0.652418 0.003999 0.285052
Si Si4 0.500000 0.105070 0.250000
Si Si5 0.686789 0.001110 0.988805
Si Si6 0.067843 0.666402 0.033986
Si Si7 0.216436 0.814345 0.940974
O O1 0.048468 0.130711 0.533089
O O2 0.781798 0.047600 0.686020
O O3 0.130936 0.001391 0.549211
O O4 0.000000 0.000000 0.500000
O O5 0.500000 0.627024 0.250000
O O6 0.704719 0.546961 0.233576
O O7 0.844140 0.665273 0.123074
O O8 0.779704 0.547856 0.084219
O O9 0.491666 0.965977 0.396827
O O10 0.526684 0.057418 0.298601
O O11 0.685273 0.154688 0.162153
O O12 0.645471 0.085017 0.984200
O O13 0.123246 0.689539 0.077763
O O14 0.144003 0.731845 0.957377
#
# Coordination Sequence:
#
# PCOD8136518 Si02
#       7
#     8   8   8   4   8   8   8
#     4  11  19  32  57  83 111 145 189 232 271 331
#     4  11  20  35  61  80 112 149 183 231 287 340
#     4  11  19  33  55  83 112 142 190 228 276 328
#     4  12  18  34  58  82 106 152 184 228 286 326
#     4  10  20  36  56  84 110 145 186 235 282 328
#     4   9  19  37  51  77 113 145 180 230 278 333
#     4  10  20  34  55  81 112 147 182 232 280 329
#
# _framework density 18.191013000000002
#
# number of rings (size 3 to 8) (size 9 to 14) (size 15 to 20)
#    0.000    1.538    7.692    1.846    0.000    0.000 
#    1.385    3.077    5.077    1.846    0.000    0.000 
#    0.000    0.000    0.000    0.000    0.000    0.000 
#
# Total GULP energy -322195.072959 kJ/mol
# GULP energy per Si atom -12392.118191 kJ/mol
# Density = 1.814961 g / cm^3
# Si number density = 18.191013 Si / 1000 Ang^3
#
#
#
# Elastic Constant Matrix: (Units=GPa)
#
#
# Indices 1 2 3 4 5 6 
#
# 1 90.7582 27.2835 30.2121 0.0003 -7.8776 0.0014
# 2 27.2835 72.3732 54.7521 0.0088 -8.8788 0.0016
# 3 30.2121 54.7521 123.4727 0.0339 -13.7377 0.0043
# 4 0.0003 0.0088 0.0339 12.4366 0.0063 -3.8473
# 5 -7.8776 -8.8788 -13.7377 0.0063 32.2783 -0.0046
# 6 0.0014 0.0016 0.0043 -3.8473 -0.0046 14.7828
#
#
#
# Elastic Compliance Matrix: (Units=1/GPa)
#
#
# Indices 1 2 3 4 5 6 
#
# 1 0.012673 -0.003570 -0.001347 0.000006 0.001538 0.000001
# 2 -0.003570 0.021908 -0.008679 0.000008 0.001461 0.000003
# 3 -0.001347 -0.008679 0.012570 -0.000033 0.002634 -0.000010
# 4 0.000006 0.000008 -0.000033 0.087448 -0.000024 0.022759
# 5 0.001538 0.001461 0.002634 -0.000024 0.032879 0.000003
# 6 0.000001 0.000003 -0.000010 0.022759 0.000003 0.073569
#
#
# Mechanical properties :
#
#
# Convention : Reuss Voigt Hill
#
# Bulk Modulus (GPa) = 50.09961 56.78883 53.44422
# Shear Modulus (GPa) = 18.18897 23.52330 20.85613
#
# Velocity S-wave (km/s) = 3.16553 3.59991 3.38969
# Velocity P-wave (km/s) = 6.40011 6.96886 6.69053
#
# Compressibility (1/GPa) = 0.01996023
#
# Stress axis : x y z
#
# Youngs Moduli (GPa) = 78.90588 45.64538 79.55464
#
# Poissons Ratio (x) = 0.16296 0.10714
# Poissons Ratio (y) = 0.28170 0.69043
# Poissons Ratio (z) = 0.10627 0.39614
#
# Static dielectric constant tensor:
#      x y z
#    x 3.617830 0.000000 -0.125620 
#    y 0.000000 3.158720 0.000000 
#    z -0.125620 0.000000 3.469890 
# 
# 
# High freq. dielectric constant tensor:
#      x y z
#    x 1.713000 0.000000 -0.004240 
#    y 0.000000 1.662360 0.000000 
#    z -0.004240 0.000000 1.712560 
# 
# From -- ./inp_files/239731.got.cif
#   From: 2010.06.25/outbox.cif.g09.slc.cpg/sg15_120_cif.got.tgz:239731.got - 2010.06.28 07:06:18.
