data_PCOD8136073
_publ_section_title
;
Structure prediction by ZEFSAII (Michael W. Deem and Ramdas Pophale) SiO2 
 PCOD8136073
Probable space group: C 2/C
;
_chemical_formula_sum "Si O2"
_cell_formula_units_Z 44
_cell_length_a 24.756629
_cell_length_b 14.270798
_cell_length_c 18.205396
_cell_angle_alpha 90.000000
_cell_angle_beta 20.763736
_cell_angle_gamma 90.000000
_cell_volume 2280.209638
_symmetry_space_group_name_H-M "C 2/C"
_symmetry_group_IT_number 15
_symmetry_cell_setting 'monoclinic'
loop_
_space_group_symop_operation_xyz
x,y,z
-x,y,1/2-z
-x,-y,-z
x,-y,1/2+z
1/2+x,1/2+y,z
1/2-x,1/2+y,1/2-z
1/2-x,1/2-y,-z
1/2+x,1/2-y,1/2+z
loop_
_atom_site_type_symbol
_atom_site_label
_atom_site_fract_x
_atom_site_fract_y
_atom_site_fract_z
Si Si1 0.213836 0.827317 0.456785
Si Si2 0.106318 0.441396 0.466062
Si Si3 0.000000 0.511758 0.250000
Si Si4 0.464382 0.137011 0.002452
Si Si5 0.397178 0.343790 0.060871
Si Si6 0.716872 0.622775 0.108788
O O1 0.141014 0.865037 0.475333
O O2 0.187458 0.716387 0.496428
O O3 0.145745 0.876019 0.616374
O O4 0.392143 0.851767 0.233463
O O5 0.129663 0.549452 0.410473
O O6 0.276636 0.401468 0.263104
O O7 0.002760 0.428650 0.671207
O O8 0.015386 0.381486 0.521129
O O9 0.838883 0.458549 0.463953
O O10 0.372526 0.234683 0.114554
O O11 0.571438 0.380866 0.849863
#
# Coordination Sequence:
#
# PCOD8136073 Si02
#       6
#     8   8   4   8   8   8
#     4   9  17  30  53  84 113 136 167 224 294 343
#     4  10  21  36  58  78 111 151 185 225 280 324
#     4  12  22  36  52  80 116 152 188 228 266 334
#     4   9  18  37  56  83 112 148 183 223 277 341
#     4  10  20  35  56  83 110 143 187 230 274 330
#     4  10  20  29  51  83 114 139 172 225 287 337
#
# _framework density 19.296471
#
# number of rings (size 3 to 8) (size 9 to 14) (size 15 to 20)
#    0.000    2.182    1.818    1.636    5.091    0.727 
#    0.000    0.909    0.000    0.000    0.000    0.000 
#    0.000    0.000    0.000    0.000    0.000    0.000 
#
# Total GULP energy -272616.607597 kJ/mol
# GULP energy per Si atom -12391.663982 kJ/mol
# Density = 1.925255 g / cm^3
# Si number density = 19.296471 Si / 1000 Ang^3
#
#
#
# Elastic Constant Matrix: (Units=GPa)
#
#
# Indices 1 2 3 4 5 6 
#
# 1 53.3306 12.6460 30.3252 0.0005 16.3444 -0.0004
# 2 12.6460 80.9385 57.0709 0.0004 0.8902 -0.0002
# 3 30.3252 57.0709 107.4273 -0.0002 6.0091 -0.0002
# 4 0.0005 0.0004 -0.0002 34.8492 -0.0003 0.6135
# 5 16.3444 0.8902 6.0091 -0.0003 26.5187 0.0003
# 6 -0.0004 -0.0002 -0.0002 0.6135 0.0003 20.1539
#
#
#
# Elastic Compliance Matrix: (Units=1/GPa)
#
#
# Indices 1 2 3 4 5 6 
#
# 1 0.027411 0.001183 -0.007514 -0.000001 -0.015232 0.000001
# 2 0.001183 0.019886 -0.010959 0.000000 0.001086 0.000000
# 3 -0.007514 -0.010959 0.017190 0.000000 0.001104 0.000000
# 4 -0.000001 0.000000 0.000000 0.028710 0.000001 -0.000874
# 5 -0.015232 0.001086 0.001104 0.000001 0.046810 -0.000001
# 6 0.000001 0.000000 0.000000 -0.000874 -0.000001 0.049645
#
#
# Mechanical properties :
#
#
# Convention : Reuss Voigt Hill
#
# Bulk Modulus (GPa) = 33.43743 49.08673 41.26208
# Shear Modulus (GPa) = 21.34908 25.74797 23.54853
#
# Velocity S-wave (km/s) = 3.32983 3.65682 3.49715
# Velocity P-wave (km/s) = 5.67006 6.58203 6.14299
#
# Compressibility (1/GPa) = 0.02990660
#
# Stress axis : x y z
#
# Youngs Moduli (GPa) = 36.48121 50.28755 58.17301
#
# Poissons Ratio (x) = -0.05950 0.43714
# Poissons Ratio (y) = -0.04317 0.63752
# Poissons Ratio (z) = 0.27414 0.55110
#
# Static dielectric constant tensor:
#      x y z
#    x 3.584800 0.000000 0.075680 
#    y 0.000000 3.357900 0.000000 
#    z 0.075680 0.000000 3.637150 
# 
# 
# High freq. dielectric constant tensor:
#      x y z
#    x 1.751170 0.000000 -0.002620 
#    y 0.000000 1.715800 0.000000 
#    z -0.002620 0.000000 1.746110 
# 
# From -- ./inp_files/95679.got.cif
#   From: 2010.06.25/outbox.cif.g09.slc.cpg/sg15_48_cif.got.tgz:95679.got - 2010.06.28 07:06:18.
