data_PCOD8136731
_publ_section_title
;
Structure prediction by ZEFSAII (Michael W. Deem and Ramdas Pophale) SiO2 
 PCOD8136731
Probable space group: C 2/C
;
_chemical_formula_sum "Si O2"
_cell_formula_units_Z 32
_cell_length_a 13.039899
_cell_length_b 17.449677
_cell_length_c 8.958835
_cell_angle_alpha 90.000000
_cell_angle_beta 51.266707
_cell_angle_gamma 90.000000
_cell_volume 1590.175449
_symmetry_space_group_name_H-M "C 2/C"
_symmetry_group_IT_number 15
_symmetry_cell_setting 'monoclinic'
loop_
_space_group_symop_operation_xyz
x,y,z
-x,y,1/2-z
-x,-y,-z
x,-y,1/2+z
1/2+x,1/2+y,z
1/2-x,1/2+y,1/2-z
1/2-x,1/2-y,-z
1/2+x,1/2-y,1/2+z
loop_
_atom_site_type_symbol
_atom_site_label
_atom_site_fract_x
_atom_site_fract_y
_atom_site_fract_z
Si Si1 0.321654 0.507355 0.909226
Si Si2 0.557973 0.601356 0.437894
Si Si3 0.253136 0.601731 0.716958
Si Si4 0.867389 0.747720 0.778416
O O1 0.427830 0.464971 0.702007
O O2 0.219299 0.551506 0.894007
O O3 0.391594 0.570223 0.950198
O O4 0.235179 0.447234 0.081463
O O5 0.406391 0.626212 0.586559
O O6 0.638912 0.676727 0.318097
O O7 0.154774 0.673614 0.806053
O O8 0.000000 0.741269 0.750000
O O9 0.750000 0.750000 0.000000
#
# Coordination Sequence:
#
# PCOD8136731 Si02
#       4
#     8   8   8   8
#     4  10  20  34  61  91 115 148 197 244 278 336
#     4  11  19  35  60  89 114 149 197 239 284 335
#     4  11  20  36  60  86 116 151 195 239 285 337
#     4  12  23  39  59  86 117 156 192 235 290 347
#
# _framework density 20.123564999999999
#
# number of rings (size 3 to 8) (size 9 to 14) (size 15 to 20)
#    0.000    1.000    5.000    6.000    0.000    1.000 
#    0.000    1.250    0.000    0.000    0.000    0.000 
#    0.000    0.000    0.000    0.000    0.000    0.000 
#
# Total GULP energy -198378.265550 kJ/mol
# GULP energy per Si atom -12398.641597 kJ/mol
# Density = 2.007776 g / cm^3
# Si number density = 20.123565 Si / 1000 Ang^3
#
#
#
# Elastic Constant Matrix: (Units=GPa)
#
#
# Indices 1 2 3 4 5 6 
#
# 1 68.5630 40.1838 32.7358 0.0000 13.3621 0.0000
# 2 40.1838 122.0314 37.1702 0.0000 8.9324 0.0000
# 3 32.7358 37.1702 74.7483 0.0000 21.5992 0.0000
# 4 0.0000 0.0000 0.0000 33.1922 0.0000 8.0776
# 5 13.3621 8.9324 21.5992 0.0000 35.4385 0.0000
# 6 0.0000 0.0000 0.0000 8.0776 0.0000 39.9852
#
#
#
# Elastic Compliance Matrix: (Units=1/GPa)
#
#
# Indices 1 2 3 4 5 6 
#
# 1 0.020804 -0.004857 -0.005805 0.000000 -0.003082 0.000000
# 2 -0.004857 0.010802 -0.003625 0.000000 0.001318 0.000000
# 3 -0.005805 -0.003625 0.020424 0.000000 -0.009345 0.000000
# 4 0.000000 0.000000 0.000000 0.031685 0.000000 -0.006401
# 5 -0.003082 0.001318 -0.009345 0.000000 0.034743 0.000000
# 6 0.000000 0.000000 0.000000 -0.006401 0.000000 0.026302
#
#
# Mechanical properties :
#
#
# Convention : Reuss Voigt Hill
#
# Bulk Modulus (GPa) = 42.63550 53.94692 48.29121
# Shear Modulus (GPa) = 27.60088 32.07336 29.83712
#
# Velocity S-wave (km/s) = 3.70749 3.99660 3.85476
# Velocity P-wave (km/s) = 6.28969 6.93997 6.62281
#
# Compressibility (1/GPa) = 0.02345463
#
# Stress axis : x y z
#
# Youngs Moduli (GPa) = 48.06767 92.57870 48.96231
#
# Poissons Ratio (x) = 0.44962 0.28425
# Poissons Ratio (y) = 0.23345 0.17750
# Poissons Ratio (z) = 0.27906 0.33562
#
# Static dielectric constant tensor:
#      x y z
#    x 3.502790 0.000000 0.461970 
#    y 0.000000 4.219900 0.000000 
#    z 0.461970 0.000000 3.653760 
# 
# 
# High freq. dielectric constant tensor:
#      x y z
#    x 1.764680 0.000000 0.032320 
#    y 0.000000 1.796500 0.000000 
#    z 0.032320 0.000000 1.772740 
# 
# From -- ./inp_files/28633.got.cif
#   From: 2010.06.25/outbox.cif.g09.slc.cpg/sg15_15_cif.got.tgz:28633.got - 2010.06.28 07:06:18.
