data_PCOD8136287
_publ_section_title
;
Structure prediction by ZEFSAII (Michael W. Deem and Ramdas Pophale) SiO2 
 PCOD8136287
Probable space group: C 2/C
;
_chemical_formula_sum "Si O2"
_cell_formula_units_Z 48
_cell_length_a 30.547370
_cell_length_b 14.599121
_cell_length_c 12.050766
_cell_angle_alpha 90.000000
_cell_angle_beta 151.066352
_cell_angle_gamma 90.000000
_cell_volume 2600.026943
_symmetry_space_group_name_H-M "C 2/C"
_symmetry_group_IT_number 15
_symmetry_cell_setting 'monoclinic'
loop_
_space_group_symop_operation_xyz
x,y,z
-x,y,1/2-z
-x,-y,-z
x,-y,1/2+z
1/2+x,1/2+y,z
1/2-x,1/2+y,1/2-z
1/2-x,1/2-y,-z
1/2+x,1/2-y,1/2+z
loop_
_atom_site_type_symbol
_atom_site_label
_atom_site_fract_x
_atom_site_fract_y
_atom_site_fract_z
Si Si1 0.766572 0.619954 0.624330
Si Si2 0.875379 0.281156 0.191266
Si Si3 0.215258 0.074281 0.959321
Si Si4 0.573107 0.268607 0.145501
Si Si5 0.201274 0.346871 0.065518
Si Si6 0.157736 0.308966 0.622560
O O1 0.846996 0.638627 0.714249
O O2 0.701778 0.706174 0.484514
O O3 0.702728 0.533719 0.450957
O O4 0.813425 0.603896 0.848689
O O5 0.966112 0.227507 0.430072
O O6 0.888657 0.328929 0.099554
O O7 0.123638 0.133525 0.779539
O O8 0.245068 0.086186 0.898030
O O9 0.298840 0.101455 0.224893
O O10 0.608380 0.188223 0.304799
O O11 0.587344 0.238952 0.049563
O O12 0.258599 0.256675 0.212889
#
# Coordination Sequence:
#
# PCOD8136287 Si02
#       6
#     8   8   8   8   8   8
#     4  10  21  33  50  78 110 140 167 213 267 315
#     4  10  20  33  52  78 110 138 166 212 274 314
#     4   9  18  33  57  77  97 137 182 214 247 308
#     4   9  17  34  58  76  97 137 181 215 248 308
#     4   8  17  34  52  72 101 138 174 206 258 316
#     4   8  16  33  55  75  98 136 174 207 256 316
#
# _framework density 18.461345999999999
#
# number of rings (size 3 to 8) (size 9 to 14) (size 15 to 20)
#    0.000    3.000    0.000    2.500    2.333    1.333 
#    0.000    3.333    7.333    0.000    0.000    0.000 
#    0.000    0.000    0.000    0.000    0.000    0.000 
#
# Total GULP energy -297354.921846 kJ/mol
# GULP energy per Si atom -12389.788410 kJ/mol
# Density = 1.841933 g / cm^3
# Si number density = 18.461346 Si / 1000 Ang^3
#
#
#
# Elastic Constant Matrix: (Units=GPa)
#
#
# Indices 1 2 3 4 5 6 
#
# 1 95.9003 30.5224 51.4404 0.0000 -19.6073 0.0000
# 2 30.5224 53.1783 14.9637 0.0000 -7.0851 0.0000
# 3 51.4404 14.9637 79.7251 0.0000 -6.0673 0.0000
# 4 0.0000 0.0000 0.0000 19.7933 0.0000 -0.5649
# 5 -19.6073 -7.0851 -6.0673 0.0000 32.4428 0.0000
# 6 0.0000 0.0000 0.0000 -0.5649 0.0000 17.0879
#
#
#
# Elastic Compliance Matrix: (Units=1/GPa)
#
#
# Indices 1 2 3 4 5 6 
#
# 1 0.020631 -0.007517 -0.011237 0.000000 0.008726 0.000000
# 2 -0.007517 0.023038 0.000572 0.000000 0.000595 0.000000
# 3 -0.011237 0.000572 0.019456 0.000000 -0.003028 0.000000
# 4 0.000000 0.000000 0.000000 0.050570 0.000000 0.001672
# 5 0.008726 0.000595 -0.003028 0.000000 0.035661 0.000000
# 6 0.000000 0.000000 0.000000 0.001672 0.000000 0.058576
#
#
# Mechanical properties :
#
#
# Convention : Reuss Voigt Hill
#
# Bulk Modulus (GPa) = 37.36954 46.96185 42.16569
# Shear Modulus (GPa) = 19.74594 22.65661 21.20128
#
# Velocity S-wave (km/s) = 3.27400 3.50701 3.39250
# Velocity P-wave (km/s) = 5.88031 6.47240 6.18345
#
# Compressibility (1/GPa) = 0.02675976
#
# Stress axis : x y z
#
# Youngs Moduli (GPa) = 48.46973 43.40711 51.39890
#
# Poissons Ratio (x) = 0.32630 0.57756
# Poissons Ratio (y) = 0.36436 -0.02938
# Poissons Ratio (z) = 0.54465 -0.02481
#
# Static dielectric constant tensor:
#      x y z
#    x 3.751820 0.000000 -0.488830 
#    y 0.000000 3.087010 0.000000 
#    z -0.488830 0.000000 3.436970 
# 
# 
# High freq. dielectric constant tensor:
#      x y z
#    x 1.714820 0.000000 -0.020290 
#    y 0.000000 1.689940 0.000000 
#    z -0.020290 0.000000 1.704000 
# 
# From -- ./inp_files/96309.got.cif
#   From: 2010.06.25/outbox.cif.g09.slc.cpg/sg15_49_cif.got.tgz:96309.got - 2010.06.28 07:06:18.
