data_PCOD8136125
_publ_section_title
;
Structure prediction by ZEFSAII (Michael W. Deem and Ramdas Pophale) SiO2 
 PCOD8136125
Probable space group: C 2/C
;
_chemical_formula_sum "Si O2"
_cell_formula_units_Z 64
_cell_length_a 11.945380
_cell_length_b 16.185927
_cell_length_c 19.052347
_cell_angle_alpha 90.000000
_cell_angle_beta 98.190387
_cell_angle_gamma 90.000000
_cell_volume 3646.141711
_symmetry_space_group_name_H-M "C 2/C"
_symmetry_group_IT_number 15
_symmetry_cell_setting 'monoclinic'
loop_
_space_group_symop_operation_xyz
x,y,z
-x,y,1/2-z
-x,-y,-z
x,-y,1/2+z
1/2+x,1/2+y,z
1/2-x,1/2+y,1/2-z
1/2-x,1/2-y,-z
1/2+x,1/2-y,1/2+z
loop_
_atom_site_type_symbol
_atom_site_label
_atom_site_fract_x
_atom_site_fract_y
_atom_site_fract_z
Si Si1 0.813852 0.319190 0.092251
Si Si2 0.545770 0.769190 0.177007
Si Si3 0.323374 0.929600 0.309710
Si Si4 0.687981 0.989751 0.343101
Si Si5 0.299137 0.153738 0.427166
Si Si6 0.606001 0.410301 0.677128
Si Si7 0.481701 0.970042 0.919442
Si Si8 0.864196 0.039937 0.168040
O O1 0.771949 0.399219 0.129740
O O2 0.734783 0.242295 0.109258
O O3 0.946283 0.304246 0.119254
O O4 0.799306 0.338133 0.009926
O O5 0.500000 0.752060 0.250000
O O6 0.652418 0.831824 0.192391
O O7 0.586763 0.682716 0.147626
O O8 0.356435 0.977527 0.240584
O O9 0.402300 0.962261 0.377937
O O10 0.192757 0.950381 0.319240
O O11 0.795046 0.049521 0.359236
O O12 0.596736 0.032596 0.385443
O O13 0.421511 0.120488 0.411734
O O14 0.204489 0.086659 0.398513
O O15 0.640727 0.404902 0.761896
O O16 0.494566 0.468006 0.656236
O O17 0.500000 0.000000 0.000000
#
# Coordination Sequence:
#
# PCOD8136125 Si02
#       8
#     8   8   8   8   8   8   8   8
#     4  11  20  33  55  83 106 139 185 228 264 324
#     4  12  17  32  56  83 104 139 188 229 267 322
#     4  10  20  31  58  83 109 135 192 234 265 322
#     4  11  21  35  54  87 111 142 183 234 272 324
#     4  10  20  33  56  81 109 138 186 222 275 325
#     4  10  20  34  55  78 113 142 180 221 275 330
#     4  11  19  35  56  83 112 146 178 230 283 326
#     4   9  18  35  52  79 106 148 173 220 278 329
#
# _framework density 17.552800000000001
#
# number of rings (size 3 to 8) (size 9 to 14) (size 15 to 20)
#    0.000    1.500    6.250    0.375    0.000    0.000 
#    0.000    1.875    0.000    3.000    0.000    0.000 
#    0.000    0.000    0.000    0.000    0.000    0.000 
#
# Total GULP energy -396634.241560 kJ/mol
# GULP energy per Si atom -12394.820049 kJ/mol
# Density = 1.751285 g / cm^3
# Si number density = 17.552800 Si / 1000 Ang^3
#
#
#
# Elastic Constant Matrix: (Units=GPa)
#
#
# Indices 1 2 3 4 5 6 
#
# 1 132.4395 71.8720 36.2849 0.0000 -3.5753 0.0000
# 2 71.8720 123.1275 19.4987 0.0000 -1.2834 0.0000
# 3 36.2849 19.4987 75.4171 0.0000 10.8440 0.0000
# 4 0.0000 0.0000 0.0000 15.9443 0.0000 -0.4122
# 5 -3.5753 -1.2834 10.8440 0.0000 16.4384 0.0000
# 6 0.0000 0.0000 0.0000 -0.4122 0.0000 39.6737
#
#
#
# Elastic Compliance Matrix: (Units=1/GPa)
#
#
# Indices 1 2 3 4 5 6 
#
# 1 0.012669 -0.006507 -0.005233 0.000000 0.005699 0.000000
# 2 -0.006507 0.011892 0.000139 0.000000 -0.000579 0.000000
# 3 -0.005233 0.000139 0.017570 0.000000 -0.012717 0.000000
# 4 0.000000 0.000000 0.000000 0.062735 0.000000 0.000652
# 5 0.005699 -0.000579 -0.012717 0.000000 0.070417 0.000000
# 6 0.000000 0.000000 0.000000 0.000652 0.000000 0.025212
#
#
# Mechanical properties :
#
#
# Convention : Reuss Voigt Hill
#
# Bulk Modulus (GPa) = 52.82591 65.14394 58.98492
# Shear Modulus (GPa) = 21.73848 27.96650 24.85249
#
# Velocity S-wave (km/s) = 3.52300 3.99592 3.76689
# Velocity P-wave (km/s) = 6.83443 7.64745 7.25234
#
# Compressibility (1/GPa) = 0.01893010
#
# Stress axis : x y z
#
# Youngs Moduli (GPa) = 78.92977 84.08993 56.91623
#
# Poissons Ratio (x) = 0.54720 0.29782
# Poissons Ratio (y) = 0.51363 -0.00794
# Poissons Ratio (z) = 0.41301 -0.01173
#
# Static dielectric constant tensor:
#      x y z
#    x 3.599070 0.000000 0.196000 
#    y 0.000000 4.025750 0.000000 
#    z 0.196000 0.000000 3.296300 
# 
# 
# High freq. dielectric constant tensor:
#      x y z
#    x 1.665310 0.000000 0.021400 
#    y 0.000000 1.671340 0.000000 
#    z 0.021400 0.000000 1.679890 
# 
# From -- ./inp_files/239322.got.cif
#   From: 2010.06.25/outbox.cif.g09.slc.cpg/sg15_120_cif.got.tgz:239322.got - 2010.06.28 07:06:18.
