data_PCOD8136025
_publ_section_title
;
Structure prediction by ZEFSAII (Michael W. Deem and Ramdas Pophale) SiO2 
 PCOD8136025
Probable space group: C 2/C
;
_chemical_formula_sum "Si O2"
_cell_formula_units_Z 60
_cell_length_a 20.633388
_cell_length_b 8.494887
_cell_length_c 25.548682
_cell_angle_alpha 90.000000
_cell_angle_beta 143.794865
_cell_angle_gamma 90.000000
_cell_volume 2645.132540
_symmetry_space_group_name_H-M "C 2/C"
_symmetry_group_IT_number 15
_symmetry_cell_setting 'monoclinic'
loop_
_space_group_symop_operation_xyz
x,y,z
-x,y,1/2-z
-x,-y,-z
x,-y,1/2+z
1/2+x,1/2+y,z
1/2-x,1/2+y,1/2-z
1/2-x,1/2-y,-z
1/2+x,1/2-y,1/2+z
loop_
_atom_site_type_symbol
_atom_site_label
_atom_site_fract_x
_atom_site_fract_y
_atom_site_fract_z
Si Si1 0.695859 0.865191 0.402304
Si Si2 0.161717 0.346097 0.682288
Si Si3 0.107093 0.278325 0.531086
Si Si4 0.362106 0.203260 0.860733
Si Si5 0.840512 0.029651 0.085674
Si Si6 0.023383 0.230368 0.867757
Si Si7 0.178722 0.615774 0.551003
Si Si8 0.000000 0.566074 0.250000
O O1 0.806047 0.830203 0.441819
O O2 0.735320 0.965358 0.478147
O O3 0.632115 0.707268 0.379261
O O4 0.608858 0.961024 0.311030
O O5 0.133306 0.266643 0.608993
O O6 0.289385 0.320434 0.778513
O O7 0.135919 0.530965 0.664510
O O8 0.093680 0.248622 0.681170
O O9 0.109043 0.456951 0.512185
O O10 0.983292 0.220361 0.440026
O O11 0.312830 0.199960 0.887403
O O12 0.949041 0.949570 0.131681
O O13 0.800993 0.925217 0.109890
O O14 0.024050 0.335759 0.816928
O O15 0.118953 0.274526 0.970443
#
# Coordination Sequence:
#
# PCOD8136025 Si02
#       8
#     8   8   8   8   8   8   8   4
#     4  10  24  45  70  98 136 181 232 280 354 421
#     4  11  25  43  68 104 134 182 238 287 352 409
#     4  10  21  45  72  95 135 190 224 285 348 420
#     4  11  23  44  70  95 138 181 233 292 346 418
#     4  10  23  43  68  97 131 184 227 274 354 420
#     4  12  24  42  69 100 141 173 231 295 349 408
#     4  10  19  42  70  91 128 183 226 274 348 411
#     4  12  28  42  68 106 140 174 232 304 342 422
#
# _framework density 22.683173
#
# number of rings (size 3 to 8) (size 9 to 14) (size 15 to 20)
#    0.000    1.333    4.000    1.200    3.733    1.600 
#    4.800    1.333    0.000    0.000    0.000    0.000 
#    0.000    0.000    0.000    0.000    0.000    0.000 
#
# Total GULP energy -372031.160970 kJ/mol
# GULP energy per Si atom -12401.038699 kJ/mol
# Density = 2.263155 g / cm^3
# Si number density = 22.683173 Si / 1000 Ang^3
#
#
#
# Elastic Constant Matrix: (Units=GPa)
#
#
# Indices 1 2 3 4 5 6 
#
# 1 123.7162 46.6224 42.7526 0.0000 -2.3978 -0.0001
# 2 46.6224 74.2083 43.8320 0.0000 1.8800 -0.0002
# 3 42.7526 43.8320 126.2481 0.0000 10.1475 0.0000
# 4 0.0000 0.0000 0.0000 23.7230 0.0000 6.1366
# 5 -2.3978 1.8800 10.1475 0.0000 17.8807 0.0000
# 6 -0.0001 -0.0002 0.0000 6.1366 0.0000 19.1818
#
#
#
# Elastic Compliance Matrix: (Units=1/GPa)
#
#
# Indices 1 2 3 4 5 6 
#
# 1 0.011028 -0.005852 -0.001961 0.000000 0.003207 0.000000
# 2 -0.005852 0.020103 -0.004993 0.000000 -0.000065 0.000000
# 3 -0.001961 -0.004993 0.010789 0.000000 -0.005861 0.000000
# 4 0.000000 0.000000 0.000000 0.045956 0.000000 -0.014702
# 5 0.003207 -0.000065 -0.005861 0.000000 0.059689 0.000000
# 6 0.000000 0.000000 0.000000 -0.014702 0.000000 0.056836
#
#
# Mechanical properties :
#
#
# Convention : Reuss Voigt Hill
#
# Bulk Modulus (GPa) = 61.31160 65.62073 63.46617
# Shear Modulus (GPa) = 21.23612 24.88814 23.06213
#
# Velocity S-wave (km/s) = 3.06307 3.31601 3.19204
# Velocity P-wave (km/s) = 6.29270 6.60706 6.45180
#
# Compressibility (1/GPa) = 0.01631013
#
# Stress axis : x y z
#
# Youngs Moduli (GPa) = 90.67927 49.74503 92.68425
#
# Poissons Ratio (x) = 0.29109 0.18172
# Poissons Ratio (y) = 0.53062 0.46273
# Poissons Ratio (z) = 0.17779 0.24836
#
# Static dielectric constant tensor:
#      x y z
#    x 4.318610 0.000000 -0.136520 
#    y 0.000000 3.859870 0.000000 
#    z -0.136520 0.000000 4.055140 
# 
# 
# High freq. dielectric constant tensor:
#      x y z
#    x 1.901440 0.000000 -0.006520 
#    y 0.000000 1.878490 0.000000 
#    z -0.006520 0.000000 1.895300 
# 
# From -- ./inp_files/279716.got.cif
#   From: 2010.06.25/outbox.cif.g09.slc.cpg/sg15_140_cif.got.tgz:279716.got - 2010.06.28 07:06:18.
