data_PCOD8136116
_publ_section_title
;
Structure prediction by ZEFSAII (Michael W. Deem and Ramdas Pophale) SiO2 
 PCOD8136116
Probable space group: C 2/C
;
_chemical_formula_sum "Si O2"
_cell_formula_units_Z 52
_cell_length_a 6.542970
_cell_length_b 19.428971
_cell_length_c 25.271956
_cell_angle_alpha 90.000000
_cell_angle_beta 114.564324
_cell_angle_gamma 90.000000
_cell_volume 2921.890702
_symmetry_space_group_name_H-M "C 2/C"
_symmetry_group_IT_number 15
_symmetry_cell_setting 'monoclinic'
loop_
_space_group_symop_operation_xyz
x,y,z
-x,y,1/2-z
-x,-y,-z
x,-y,1/2+z
1/2+x,1/2+y,z
1/2-x,1/2+y,1/2-z
1/2-x,1/2-y,-z
1/2+x,1/2-y,1/2+z
loop_
_atom_site_type_symbol
_atom_site_label
_atom_site_fract_x
_atom_site_fract_y
_atom_site_fract_z
Si Si1 0.086645 0.709482 0.519905
Si Si2 0.500000 0.054702 0.250000
Si Si3 0.860897 0.569845 0.925961
Si Si4 0.711001 0.487829 0.305160
Si Si5 0.111661 0.179926 0.426040
Si Si6 0.466929 0.375888 0.804952
Si Si7 0.166701 0.041207 0.482054
O O1 0.250000 0.750000 0.500000
O O2 0.214377 0.642509 0.556762
O O3 0.014479 0.756270 0.561374
O O4 0.878475 0.687366 0.460953
O O5 0.291193 0.103179 0.211000
O O6 0.421924 0.005790 0.289988
O O7 0.791504 0.567473 0.856978
O O8 0.746967 0.506146 0.942840
O O9 0.129377 0.565091 0.958784
O O10 0.500000 0.456024 0.250000
O O11 0.625827 0.557057 0.324876
O O12 0.038027 0.107793 0.444967
O O13 0.047280 0.178973 0.357186
O O14 0.500000 0.342539 0.750000
O O15 0.000000 0.000000 0.500000
#
# Coordination Sequence:
#
# PCOD8136116 Si02
#       7
#     8   4   8   8   8   8   8
#     4  10  22  37  54  75 108 148 178 221 279 325
#     4   8  18  30  52  84 102 144 166 206 284 312
#     4  10  20  34  52  79 107 136 179 220 264 326
#     4   9  18  32  51  78 110 132 169 219 260 314
#     4  10  20  36  53  79 109 138 180 226 268 330
#     4   9  18  33  53  79 108 134 177 224 261 316
#     4  10  20  31  53  83 105 134 173 220 275 319
#
# _framework density 17.796693999999999
#
# number of rings (size 3 to 8) (size 9 to 14) (size 15 to 20)
#    0.000    2.769    1.538    0.923    2.154    2.462 
#    0.000    0.000    6.769    0.000    0.000    0.000 
#    0.000    0.000    0.000    0.000    0.000    0.000 
#
# Total GULP energy -322362.185829 kJ/mol
# GULP energy per Si atom -12398.545609 kJ/mol
# Density = 1.775619 g / cm^3
# Si number density = 17.796694 Si / 1000 Ang^3
#
#
#
# Elastic Constant Matrix: (Units=GPa)
#
#
# Indices 1 2 3 4 5 6 
#
# 1 86.0497 15.0188 38.6347 0.0000 -3.4405 0.0000
# 2 15.0188 77.8583 46.4881 0.0000 2.8832 0.0000
# 3 38.6347 46.4881 153.9217 0.0000 -4.1630 0.0000
# 4 0.0000 0.0000 0.0000 34.5276 0.0000 -5.6558
# 5 -3.4405 2.8832 -4.1630 0.0000 10.0775 0.0000
# 6 0.0000 0.0000 0.0000 -5.6558 0.0000 19.5877
#
#
#
# Elastic Compliance Matrix: (Units=1/GPa)
#
#
# Indices 1 2 3 4 5 6 
#
# 1 0.013250 -0.000927 -0.002949 0.000000 0.003571 0.000000
# 2 -0.000927 0.016169 -0.004838 0.000000 -0.006941 0.000000
# 3 -0.002949 -0.004838 0.008807 0.000000 0.004016 0.000000
# 4 0.000000 0.000000 0.000000 0.030400 0.000000 0.008778
# 5 0.003571 -0.006941 0.004016 0.000000 0.104094 0.000000
# 6 0.000000 0.000000 0.000000 0.008778 0.000000 0.053587
#
#
# Mechanical properties :
#
#
# Convention : Reuss Voigt Hill
#
# Bulk Modulus (GPa) = 48.08591 57.56809 52.82700
# Shear Modulus (GPa) = 19.94669 27.35112 23.64890
#
# Velocity S-wave (km/s) = 3.35148 3.92454 3.64928
# Velocity P-wave (km/s) = 6.48497 7.27694 6.89234
#
# Compressibility (1/GPa) = 0.02079611
#
# Stress axis : x y z
#
# Youngs Moduli (GPa) = 75.47225 61.84818 113.54684
#
# Poissons Ratio (x) = 0.05735 0.33487
# Poissons Ratio (y) = 0.06998 0.54937
# Poissons Ratio (z) = 0.22258 0.29924
#
# Static dielectric constant tensor:
#      x y z
#    x 3.294530 0.000000 0.023050 
#    y 0.000000 3.273360 0.000000 
#    z 0.023050 0.000000 3.311140 
# 
# 
# High freq. dielectric constant tensor:
#      x y z
#    x 1.688530 0.000000 -0.002450 
#    y 0.000000 1.665960 0.000000 
#    z -0.002450 0.000000 1.690220 
# 
# From -- ./inp_files/261597.got.cif
#   From: 2010.06.25/outbox.cif.g09.slc.cpg/sg15_131_cif.got.tgz:261597.got - 2010.06.28 07:06:18.
