data_PCOD8136876
_publ_section_title
;
Structure prediction by ZEFSAII (Michael W. Deem and Ramdas Pophale) SiO2 
 PCOD8136876
Probable space group: C 2/C
;
_chemical_formula_sum "Si O2"
_cell_formula_units_Z 56
_cell_length_a 9.172877
_cell_length_b 20.890993
_cell_length_c 13.521206
_cell_angle_alpha 90.000000
_cell_angle_beta 111.220162
_cell_angle_gamma 90.000000
_cell_volume 2415.391572
_symmetry_space_group_name_H-M "C 2/C"
_symmetry_group_IT_number 15
_symmetry_cell_setting 'monoclinic'
loop_
_space_group_symop_operation_xyz
x,y,z
-x,y,1/2-z
-x,-y,-z
x,-y,1/2+z
1/2+x,1/2+y,z
1/2-x,1/2+y,1/2-z
1/2-x,1/2-y,-z
1/2+x,1/2-y,1/2+z
loop_
_atom_site_type_symbol
_atom_site_label
_atom_site_fract_x
_atom_site_fract_y
_atom_site_fract_z
Si Si1 0.138529 0.908061 0.515705
Si Si2 0.073142 0.004298 0.668852
Si Si3 0.414921 0.184220 0.071907
Si Si4 0.249584 0.799156 0.846985
Si Si5 0.136701 0.172578 0.518456
Si Si6 0.314772 0.107532 0.720227
Si Si7 0.208247 0.729154 0.652221
O O1 0.313606 0.881407 0.540491
O O2 0.065552 0.952127 0.412090
O O3 0.043191 0.841604 0.499574
O O4 0.128275 0.945806 0.615490
O O5 0.230838 0.043041 0.736169
O O6 0.000000 0.974556 0.750000
O O7 0.590984 0.163533 0.145536
O O8 0.358203 0.238835 0.135396
O O9 0.422850 0.215922 0.962837
O O10 0.312829 0.738420 0.922274
O O11 0.151180 0.778600 0.724890
O O12 0.147695 0.836707 0.901945
O O13 0.247054 0.118445 0.593524
O O14 0.500000 0.101106 0.750000
O O15 0.257792 0.162301 0.783375
#
# Coordination Sequence:
#
# PCOD8136876 Si02
#       7
#     8   8   8   8   8   8   8
#     4  10  22  39  58  83 113 150 195 242 291 342
#     4  10  22  41  62  80 107 151 199 244 290 341
#     4  11  21  35  57  86 118 153 195 235 282 346
#     4  10  20  35  55  86 122 156 188 227 286 352
#     4   9  19  35  56  83 120 150 182 235 288 346
#     4  10  20  37  61  85 109 146 196 239 284 343
#     4  10  21  33  55  86 118 151 185 228 287 347
#
# _framework density 23.184645
#
# number of rings (size 3 to 8) (size 9 to 14) (size 15 to 20)
#    0.000    2.000    0.000    3.857    0.000    8.000 
#    0.000    2.857    0.000    6.000    0.000    0.000 
#    0.000    0.000    0.000    0.000    0.000    0.000 
#
# Total GULP energy -346880.651597 kJ/mol
# GULP energy per Si atom -12388.594700 kJ/mol
# Density = 2.313188 g / cm^3
# Si number density = 23.184645 Si / 1000 Ang^3
#
#
#
# Elastic Constant Matrix: (Units=GPa)
#
#
# Indices 1 2 3 4 5 6 
#
# 1 62.7353 15.1500 24.3512 0.0000 0.7978 0.0000
# 2 15.1500 48.2830 20.2127 0.0000 -1.9644 0.0000
# 3 24.3512 20.2127 114.5400 0.0000 -30.3815 0.0000
# 4 0.0000 0.0000 0.0000 29.0629 0.0000 -2.0735
# 5 0.7978 -1.9644 -30.3815 0.0000 34.2919 0.0000
# 6 0.0000 0.0000 0.0000 -2.0735 0.0000 11.5302
#
#
#
# Elastic Compliance Matrix: (Units=1/GPa)
#
#
# Indices 1 2 3 4 5 6 
#
# 1 0.018751 -0.004198 -0.004477 0.000000 -0.004643 0.000000
# 2 -0.004198 0.023525 -0.003759 0.000000 -0.001885 0.000000
# 3 -0.004477 -0.003759 0.013485 0.000000 0.011836 0.000000
# 4 0.000000 0.000000 0.000000 0.034855 0.000000 0.006268
# 5 -0.004643 -0.001885 0.011836 0.000000 0.039648 0.000000
# 6 0.000000 0.000000 0.000000 0.006268 0.000000 0.087856
#
#
# Mechanical properties :
#
#
# Convention : Reuss Voigt Hill
#
# Bulk Modulus (GPa) = 32.36994 38.33180 35.35087
# Shear Modulus (GPa) = 19.74041 26.03328 22.88684
#
# Velocity S-wave (km/s) = 2.92112 3.35456 3.14531
# Velocity P-wave (km/s) = 5.03680 5.61901 5.33585
#
# Compressibility (1/GPa) = 0.03089286
#
# Stress axis : x y z
#
# Youngs Moduli (GPa) = 53.33123 42.50716 74.15441
#
# Poissons Ratio (x) = 0.17845 0.33201
# Poissons Ratio (y) = 0.22389 0.27875
# Poissons Ratio (z) = 0.23878 0.15978
#
# Static dielectric constant tensor:
#      x y z
#    x 4.147320 0.000000 -0.256430 
#    y 0.000000 3.862320 0.000000 
#    z -0.256430 0.000000 4.599280 
# 
# 
# High freq. dielectric constant tensor:
#      x y z
#    x 1.908040 0.000000 -0.008980 
#    y 0.000000 1.885850 0.000000 
#    z -0.008980 0.000000 1.931230 
# 
# From -- ./inp_files/137434.got.cif
#   From: 2010.06.25/outbox.cif.g09.slc.cpg/sg15_69_cif.got.tgz:137434.got - 2010.06.28 07:06:18.
