data_PCOD8136080
_publ_section_title
;
Structure prediction by ZEFSAII (Michael W. Deem and Ramdas Pophale) SiO2 
 PCOD8136080
Probable space group: C 2/C
;
_chemical_formula_sum "Si O2"
_cell_formula_units_Z 64
_cell_length_a 16.885098
_cell_length_b 31.480979
_cell_length_c 8.353975
_cell_angle_alpha 90.000000
_cell_angle_beta 47.596996
_cell_angle_gamma 90.000000
_cell_volume 3279.052947
_symmetry_space_group_name_H-M "C 2/C"
_symmetry_group_IT_number 15
_symmetry_cell_setting 'monoclinic'
loop_
_space_group_symop_operation_xyz
x,y,z
-x,y,1/2-z
-x,-y,-z
x,-y,1/2+z
1/2+x,1/2+y,z
1/2-x,1/2+y,1/2-z
1/2-x,1/2-y,-z
1/2+x,1/2-y,1/2+z
loop_
_atom_site_type_symbol
_atom_site_label
_atom_site_fract_x
_atom_site_fract_y
_atom_site_fract_z
Si Si1 0.371889 0.223636 0.091361
Si Si2 0.154191 0.494298 0.032643
Si Si3 0.125936 0.231526 0.588273
Si Si4 0.118069 0.724365 0.779112
Si Si5 0.954096 0.444690 0.049626
Si Si6 0.397943 0.855648 0.000151
Si Si7 0.704789 0.939876 0.705124
Si Si8 0.243694 0.347208 0.596711
O O1 0.321878 0.247714 0.318990
O O2 0.346185 0.173978 0.163362
O O3 0.494641 0.237416 0.926007
O O4 0.326798 0.233401 0.971077
O O5 0.101535 0.457535 0.210350
O O6 0.222055 0.531703 0.023262
O O7 0.059521 0.514742 0.050352
O O8 0.240619 0.469055 0.805502
O O9 0.173656 0.250537 0.353232
O O10 0.148279 0.181124 0.549594
O O11 0.000000 0.241029 0.750000
O O12 0.114885 0.674279 0.827306
O O13 0.894361 0.404218 0.058261
O O14 0.077351 0.431261 0.896787
O O15 0.500000 0.843651 0.750000
O O16 0.294078 0.848603 0.033939
O O17 0.768268 0.895478 0.619044
#
# Coordination Sequence:
#
# PCOD8136080 Si02
#       8
#     8   8   8   8   8   8   8   8
#     4  10  20  35  56  81 104 141 177 205 263 322
#     4  10  20  30  47  68 106 147 175 199 245 314
#     4  10  22  42  57  72 104 139 179 231 269 303
#     4  10  20  35  56  77 108 143 171 212 260 315
#     4  11  18  30  45  69 106 148 172 201 245 302
#     4  12  19  33  48  75 113 144 170 214 259 305
#     4  11  19  31  46  72 102 140 177 205 247 308
#     4  12  22  34  54  79 106 139 180 218 260 311
#
# _framework density 19.517831000000001
#
# number of rings (size 3 to 8) (size 9 to 14) (size 15 to 20)
#    0.000    1.250    5.000    3.750    1.750    0.500 
#    0.000    0.000    0.000    0.000    0.000    0.875 
#    0.000    0.000    0.000    0.000    0.000    0.250 
#
# Total GULP energy -396455.475079 kJ/mol
# GULP energy per Si atom -12389.233596 kJ/mol
# Density = 1.947341 g / cm^3
# Si number density = 19.517831 Si / 1000 Ang^3
#
#
#
# Elastic Constant Matrix: (Units=GPa)
#
#
# Indices 1 2 3 4 5 6 
#
# 1 62.3164 32.0905 35.4785 0.0000 34.5232 0.0000
# 2 32.0905 130.0724 44.7593 0.0000 24.6375 0.0000
# 3 35.4785 44.7593 104.9518 0.0000 36.6524 0.0000
# 4 0.0000 0.0000 0.0000 28.6438 0.0000 3.8114
# 5 34.5232 24.6375 36.6524 0.0000 25.5097 0.0000
# 6 0.0000 0.0000 0.0000 3.8114 0.0000 29.1143
#
#
#
# Elastic Compliance Matrix: (Units=1/GPa)
#
#
# Indices 1 2 3 4 5 6 
#
# 1 0.085005 -0.001037 0.023147 0.000000 -0.147296 0.000000
# 2 -0.001037 0.009573 -0.001994 0.000000 -0.004978 0.000000
# 3 0.023147 -0.001994 0.025734 0.000000 -0.066374 0.000000
# 4 0.000000 0.000000 0.000000 0.035531 0.000000 -0.004651
# 5 -0.147296 -0.004978 -0.066374 0.000000 0.338716 0.000000
# 6 0.000000 0.000000 0.000000 -0.004651 0.000000 0.034956
#
#
# Mechanical properties :
#
#
# Convention : Reuss Voigt Hill
#
# Bulk Modulus (GPa) = 6.22882 57.99968 32.11425
# Shear Modulus (GPa) = 9.21158 28.98770 19.09964
#
# Velocity S-wave (km/s) = 2.17481 3.85800 3.13161
# Velocity P-wave (km/s) = 3.08297 7.04459 5.43742
#
# Compressibility (1/GPa) = 0.16054396
#
# Stress axis : x y z
#
# Youngs Moduli (GPa) = 11.76404 104.46347 38.85976
#
# Poissons Ratio (x) = 0.10832 -0.89949
# Poissons Ratio (y) = 0.01220 0.07747
# Poissons Ratio (z) = -0.27230 0.20826
#
# Static dielectric constant tensor:
#      x y z
#    x 3.482310 0.000000 0.624930 
#    y 0.000000 3.750830 0.000000 
#    z 0.624930 0.000000 3.773290 
# 
# 
# High freq. dielectric constant tensor:
#      x y z
#    x 1.737300 0.000000 0.046930 
#    y 0.000000 1.760870 0.000000 
#    z 0.046930 0.000000 1.750190 
# 
# From -- ./inp_files/59018.got.cif
#   From: 2010.06.25/outbox.cif.g09.slc.cpg/sg15_30_cif.got.tgz:59018.got - 2010.06.28 07:06:18.
