data_PCOD8136820
_publ_section_title
;
Structure prediction by ZEFSAII (Michael W. Deem and Ramdas Pophale) SiO2 
 PCOD8136820
Probable space group: C 2/C
;
_chemical_formula_sum "Si O2"
_cell_formula_units_Z 40
_cell_length_a 11.905835
_cell_length_b 31.108314
_cell_length_c 8.344938
_cell_angle_alpha 90.000000
_cell_angle_beta 40.288475
_cell_angle_gamma 90.000000
_cell_volume 1998.570931
_symmetry_space_group_name_H-M "C 2/C"
_symmetry_group_IT_number 15
_symmetry_cell_setting 'monoclinic'
loop_
_space_group_symop_operation_xyz
x,y,z
-x,y,1/2-z
-x,-y,-z
x,-y,1/2+z
1/2+x,1/2+y,z
1/2-x,1/2+y,1/2-z
1/2-x,1/2-y,-z
1/2+x,1/2-y,1/2+z
loop_
_atom_site_type_symbol
_atom_site_label
_atom_site_fract_x
_atom_site_fract_y
_atom_site_fract_z
Si Si1 0.860171 0.227086 0.013358
Si Si2 0.702584 0.453146 0.853146
Si Si3 0.463699 0.801620 0.474252
Si Si4 0.314663 0.454205 0.249543
Si Si5 0.013736 0.393449 0.544911
O O1 0.742351 0.196865 0.255194
O O2 0.949159 0.262856 0.026180
O O3 0.750000 0.250000 0.000000
O O4 0.000000 0.200581 0.750000
O O5 0.755778 0.500087 0.734551
O O6 0.846266 0.417462 0.649095
O O7 0.512976 0.442870 0.982370
O O8 0.695728 0.454576 0.049961
O O9 0.500000 0.792634 0.250000
O O10 0.543027 0.847227 0.434709
O O11 0.187556 0.419227 0.310402
O O12 0.000000 0.388219 0.750000
#
# Coordination Sequence:
#
# PCOD8136820 Si02
#       5
#     8   8   8   8   8
#     4   9  19  39  63  83 108 155 192 226 286 362
#     4   9  18  33  52  78 106 148 193 233 290 340
#     4  11  22  38  59  89 120 146 191 246 298 343
#     4   9  18  33  53  76 109 147 190 241 282 346
#     4  10  20  35  53  80 113 152 194 235 285 354
#
# _framework density 20.014301
#
# number of rings (size 3 to 8) (size 9 to 14) (size 15 to 20)
#    0.000    2.400    0.000    3.000    0.000    1.600 
#   14.400    0.000    0.000    0.000    0.000    0.000 
#    0.000    0.000    0.000    0.000    0.000    0.000 
#
# Total GULP energy -247835.897911 kJ/mol
# GULP energy per Si atom -12391.794896 kJ/mol
# Density = 1.996875 g / cm^3
# Si number density = 20.014301 Si / 1000 Ang^3
#
#
#
# Elastic Constant Matrix: (Units=GPa)
#
#
# Indices 1 2 3 4 5 6 
#
# 1 71.9980 32.0995 41.2597 0.0000 -6.9328 0.0000
# 2 32.0995 92.9810 37.9743 0.0000 -6.1540 0.0000
# 3 41.2597 37.9743 122.7033 0.0000 -5.6829 0.0000
# 4 0.0000 0.0000 0.0000 27.7667 0.0000 0.1790
# 5 -6.9328 -6.1540 -5.6829 0.0000 22.7738 0.0000
# 6 0.0000 0.0000 0.0000 0.1790 0.0000 28.0639
#
#
#
# Elastic Compliance Matrix: (Units=1/GPa)
#
#
# Indices 1 2 3 4 5 6 
#
# 1 0.018934 -0.004323 -0.004872 0.000000 0.003380 0.000000
# 2 -0.004323 0.013429 -0.002626 0.000000 0.001658 0.000000
# 3 -0.004872 -0.002626 0.010622 0.000000 0.000458 0.000000
# 4 0.000000 0.000000 0.000000 0.036016 0.000000 -0.000230
# 5 0.003380 0.001658 0.000458 0.000000 0.045501 0.000000
# 6 0.000000 0.000000 0.000000 -0.000230 0.000000 0.035634
#
#
# Mechanical properties :
#
#
# Convention : Reuss Voigt Hill
#
# Bulk Modulus (GPa) = 51.69712 56.70548 54.20130
# Shear Modulus (GPa) = 26.28439 27.47746 26.88092
#
# Velocity S-wave (km/s) = 3.62785 3.70927 3.66879
# Velocity P-wave (km/s) = 6.59049 6.83659 6.71467
#
# Compressibility (1/GPa) = 0.01934344
#
# Stress axis : x y z
#
# Youngs Moduli (GPa) = 52.81431 74.46355 94.14504
#
# Poissons Ratio (x) = 0.32191 0.45871
# Poissons Ratio (y) = 0.22832 0.24720
# Poissons Ratio (z) = 0.25733 0.19552
#
# Static dielectric constant tensor:
#      x y z
#    x 3.796910 0.000000 -0.448240 
#    y 0.000000 3.433530 0.000000 
#    z -0.448240 0.000000 4.407880 
# 
# 
# High freq. dielectric constant tensor:
#      x y z
#    x 1.781370 0.000000 -0.011780 
#    y 0.000000 1.762430 0.000000 
#    z -0.011780 0.000000 1.788310 
# 
# From -- ./inp_files/34985.got.cif
#   From: 2010.06.25/outbox.cif.g09.slc.cpg/sg15_18_cif.got.tgz:34985.got - 2010.06.28 07:06:18.
