data_PCOD8136269
_publ_section_title
;
Structure prediction by ZEFSAII (Michael W. Deem and Ramdas Pophale) SiO2 
 PCOD8136269
Probable space group: C 2/C
;
_chemical_formula_sum "Si O2"
_cell_formula_units_Z 60
_cell_length_a 25.521020
_cell_length_b 16.850592
_cell_length_c 9.255920
_cell_angle_alpha 90.000000
_cell_angle_beta 54.914276
_cell_angle_gamma 90.000000
_cell_volume 3257.178800
_symmetry_space_group_name_H-M "C 2/C"
_symmetry_group_IT_number 15
_symmetry_cell_setting 'monoclinic'
loop_
_space_group_symop_operation_xyz
x,y,z
-x,y,1/2-z
-x,-y,-z
x,-y,1/2+z
1/2+x,1/2+y,z
1/2-x,1/2+y,1/2-z
1/2-x,1/2-y,-z
1/2+x,1/2-y,1/2+z
loop_
_atom_site_type_symbol
_atom_site_label
_atom_site_fract_x
_atom_site_fract_y
_atom_site_fract_z
Si Si1 0.918786 0.439245 0.007420
Si Si2 0.229800 0.585183 0.759850
Si Si3 0.796891 0.741191 0.557262
Si Si4 0.134254 0.100941 0.469981
Si Si5 0.000000 0.171502 0.750000
Si Si6 0.070799 0.313219 0.744311
Si Si7 0.306382 0.493033 0.882317
Si Si8 0.015834 0.402505 0.082942
O O1 0.842680 0.444566 0.138228
O O2 0.948387 0.425165 0.118106
O O3 0.947245 0.367828 0.864856
O O4 0.946363 0.522363 0.908696
O O5 0.231797 0.680846 0.776869
O O6 0.259948 0.544943 0.854902
O O7 0.266155 0.563366 0.554053
O O8 0.750000 0.750000 0.500000
O O9 0.819683 0.821984 0.598644
O O10 0.855026 0.701106 0.383895
O O11 0.148267 0.057958 0.295774
O O12 0.057927 0.120011 0.590642
O O13 0.148953 0.048484 0.588479
O O14 0.969076 0.231176 0.681243
O O15 0.064339 0.358165 0.903613
O O16 0.000000 0.349542 0.250000
#
# Coordination Sequence:
#
# PCOD8136269 Si02
#       8
#     8   8   8   8   4   8   8   8
#     4  10  20  33  51  77 112 160 190 228 278 340
#     4  10  22  36  59  85 123 153 195 235 290 344
#     4  10  20  38  61  86 112 161 192 231 294 356
#     4  10  22  40  66  86 115 148 195 244 301 348
#     4  10  20  40  64  78 110 156 192 234 298 352
#     4  10  20  37  56  77 114 153 195 231 284 350
#     4  10  22  40  59  91 117 146 195 252 286 346
#     4  11  21  31  49  80 115 150 197 236 269 330
#
# _framework density 18.420849
#
# number of rings (size 3 to 8) (size 9 to 14) (size 15 to 20)
#    0.000    1.867    2.667    1.600    5.600    1.067 
#    0.000    1.333    0.000    0.000    0.000    0.000 
#    0.000    0.000    0.000    0.000    0.000    0.000 
#
# Total GULP energy -371733.473495 kJ/mol
# GULP energy per Si atom -12391.115783 kJ/mol
# Density = 1.837892 g / cm^3
# Si number density = 18.420849 Si / 1000 Ang^3
#
#
#
# Elastic Constant Matrix: (Units=GPa)
#
#
# Indices 1 2 3 4 5 6 
#
# 1 83.9376 50.5562 58.5802 0.0000 -10.8706 0.0000
# 2 50.5562 110.3417 68.8798 0.0000 -2.5419 0.0000
# 3 58.5802 68.8798 138.7466 0.0000 7.0683 0.0000
# 4 0.0000 0.0000 0.0000 26.0269 0.0000 -11.2338
# 5 -10.8706 -2.5419 7.0683 0.0000 29.2285 0.0000
# 6 0.0000 0.0000 0.0000 -11.2338 0.0000 21.0501
#
#
#
# Elastic Compliance Matrix: (Units=1/GPa)
#
#
# Indices 1 2 3 4 5 6 
#
# 1 0.020855 -0.005172 -0.006692 0.000000 0.008925 0.000000
# 2 -0.005172 0.014638 -0.005113 0.000000 0.000586 0.000000
# 3 -0.006692 -0.005113 0.012879 0.000000 -0.006048 0.000000
# 4 0.000000 0.000000 0.000000 0.049921 0.000000 0.026641
# 5 0.008925 0.000586 -0.006048 0.000000 0.039046 0.000000
# 6 0.000000 0.000000 0.000000 0.026641 0.000000 0.061723
#
#
# Mechanical properties :
#
#
# Convention : Reuss Voigt Hill
#
# Bulk Modulus (GPa) = 69.35991 76.56204 72.96097
# Shear Modulus (GPa) = 21.02403 25.59507 23.30955
#
# Velocity S-wave (km/s) = 3.38200 3.73159 3.56109
# Velocity P-wave (km/s) = 7.27910 7.76011 7.52345
#
# Compressibility (1/GPa) = 0.01441755
#
# Stress axis : x y z
#
# Youngs Moduli (GPa) = 47.94935 68.31651 77.64401
#
# Poissons Ratio (x) = 0.35335 0.51961
# Poissons Ratio (y) = 0.24801 0.39698
# Poissons Ratio (z) = 0.32089 0.34929
#
# Static dielectric constant tensor:
#      x y z
#    x 3.463130 0.000000 -0.001390 
#    y 0.000000 3.751340 0.000000 
#    z -0.001390 0.000000 3.393210 
# 
# 
# High freq. dielectric constant tensor:
#      x y z
#    x 1.723440 0.000000 -0.005640 
#    y 0.000000 1.709500 0.000000 
#    z -0.005640 0.000000 1.710890 
# 
# From -- ./inp_files/66867.got.cif
#   From: 2010.06.25/outbox.cif.g09.slc.cpg/sg15_34_cif.got.tgz:66867.got - 2010.06.28 07:06:18.
