data_PCOD8136211
_publ_section_title
;
Structure prediction by ZEFSAII (Michael W. Deem and Ramdas Pophale) SiO2 
 PCOD8136211
Probable space group: C 2/C
;
_chemical_formula_sum "Si O2"
_cell_formula_units_Z 52
_cell_length_a 10.382175
_cell_length_b 28.113565
_cell_length_c 15.689121
_cell_angle_alpha 90.000000
_cell_angle_beta 31.940466
_cell_angle_gamma 90.000000
_cell_volume 2422.643904
_symmetry_space_group_name_H-M "C 2/C"
_symmetry_group_IT_number 15
_symmetry_cell_setting 'monoclinic'
loop_
_space_group_symop_operation_xyz
x,y,z
-x,y,1/2-z
-x,-y,-z
x,-y,1/2+z
1/2+x,1/2+y,z
1/2-x,1/2+y,1/2-z
1/2-x,1/2-y,-z
1/2+x,1/2-y,1/2+z
loop_
_atom_site_type_symbol
_atom_site_label
_atom_site_fract_x
_atom_site_fract_y
_atom_site_fract_z
Si Si1 0.621335 0.075825 0.799675
Si Si2 0.668450 0.412447 0.959727
Si Si3 0.500000 0.005095 0.250000
Si Si4 0.000000 0.671388 0.250000
Si Si5 0.000000 0.346674 0.250000
Si Si6 0.409622 0.723097 0.479542
Si Si7 0.576341 0.797203 0.882825
Si Si8 0.274515 0.113652 0.584998
O O1 0.489706 0.028165 0.840267
O O2 0.470603 0.121492 0.851821
O O3 0.655367 0.074964 0.882179
O O4 0.882785 0.083909 0.608466
O O5 0.767751 0.363410 0.860699
O O6 0.767985 0.461284 0.864302
O O7 0.778724 0.413152 0.993333
O O8 0.948161 0.705328 0.360822
O O9 0.753915 0.316328 0.382996
O O10 0.250000 0.750000 0.500000
O O11 0.499567 0.756127 0.508006
O O12 0.635369 0.702502 0.298810
O O13 0.479561 0.845934 0.978502
O O14 0.000000 0.134881 0.750000
#
# Coordination Sequence:
#
# PCOD8136211 Si02
#       8
#     8   8   4   4   4   8   8   8
#     4  10  20  35  58  85 114 155 197 244 295 360
#     4   9  18  37  59  82 120 152 193 243 298 360
#     4  10  20  32  58  92 118 150 194 240 296 362
#     4   9  20  39  58  86 112 160 198 251 312 353
#     4  11  22  37  60  82 118 158 204 245 308 357
#     4  12  23  40  59  85 119 161 203 259 306 361
#     4  11  23  40  61  86 120 157 210 256 309 359
#     4   9  20  39  62  83 117 161 198 246 302 358
#
# _framework density 21.464154000000001
#
# number of rings (size 3 to 8) (size 9 to 14) (size 15 to 20)
#    0.000    1.846    1.538    2.308    0.000    1.231 
#    1.385    0.000    0.000    0.000    0.000    0.000 
#    0.000    0.000    0.000    0.000    0.000    0.000 
#
# Total GULP energy -322157.412251 kJ/mol
# GULP energy per Si atom -12390.669702 kJ/mol
# Density = 2.141530 g / cm^3
# Si number density = 21.464154 Si / 1000 Ang^3
#
#
#
# Elastic Constant Matrix: (Units=GPa)
#
#
# Indices 1 2 3 4 5 6 
#
# 1 94.4377 39.9529 4.8257 0.0000 14.7348 0.0000
# 2 39.9529 91.1594 19.0577 0.0000 2.8706 0.0000
# 3 4.8257 19.0577 79.2215 0.0000 -4.3043 0.0000
# 4 0.0000 0.0000 0.0000 22.0693 0.0000 -1.9464
# 5 14.7348 2.8706 -4.3043 0.0000 36.9583 0.0000
# 6 0.0000 0.0000 0.0000 -1.9464 0.0000 23.2765
#
#
#
# Elastic Compliance Matrix: (Units=1/GPa)
#
#
# Indices 1 2 3 4 5 6 
#
# 1 0.013896 -0.005999 0.000323 0.000000 -0.005037 0.000000
# 2 -0.005999 0.014196 -0.002999 0.000000 0.000940 0.000000
# 3 0.000323 -0.002999 0.013415 0.000000 0.001666 0.000000
# 4 0.000000 0.000000 0.000000 0.045649 0.000000 0.003817
# 5 -0.005037 0.000940 0.001666 0.000000 0.029187 0.000000
# 6 0.000000 0.000000 0.000000 0.003817 0.000000 0.043281
#
#
# Mechanical properties :
#
#
# Convention : Reuss Voigt Hill
#
# Bulk Modulus (GPa) = 41.39400 43.61014 42.50207
# Shear Modulus (GPa) = 27.02309 29.85961 28.44135
#
# Velocity S-wave (km/s) = 3.55207 3.73384 3.64409
# Velocity P-wave (km/s) = 6.01249 6.24104 6.12783
#
# Compressibility (1/GPa) = 0.02415809
#
# Stress axis : x y z
#
# Youngs Moduli (GPa) = 71.96074 70.43997 74.54317
#
# Poissons Ratio (x) = 0.42260 -0.02408
# Poissons Ratio (y) = 0.43172 0.22353
# Poissons Ratio (z) = -0.02325 0.21122
#
# Static dielectric constant tensor:
#      x y z
#    x 3.891880 0.000000 0.034220 
#    y 0.000000 3.760750 0.000000 
#    z 0.034220 0.000000 3.977550 
# 
# 
# High freq. dielectric constant tensor:
#      x y z
#    x 1.845680 0.000000 0.000190 
#    y 0.000000 1.829980 0.000000 
#    z 0.000190 0.000000 1.837930 
# 
# From -- ./inp_files/201188.got.cif
#   From: 2010.06.25/outbox.cif.g09.slc.cpg/sg15_101_cif.got.tgz:201188.got - 2010.06.28 07:06:18.
