data_PCOD8136514
_publ_section_title
;
Structure prediction by ZEFSAII (Michael W. Deem and Ramdas Pophale) SiO2 
 PCOD8136514
Probable space group: C 2/C
;
_chemical_formula_sum "Si O2"
_cell_formula_units_Z 36
_cell_length_a 21.717449
_cell_length_b 20.666169
_cell_length_c 8.357580
_cell_angle_alpha 90.000000
_cell_angle_beta 149.568114
_cell_angle_gamma 90.000000
_cell_volume 1899.942754
_symmetry_space_group_name_H-M "C 2/C"
_symmetry_group_IT_number 15
_symmetry_cell_setting 'monoclinic'
loop_
_space_group_symop_operation_xyz
x,y,z
-x,y,1/2-z
-x,-y,-z
x,-y,1/2+z
1/2+x,1/2+y,z
1/2-x,1/2+y,1/2-z
1/2-x,1/2-y,-z
1/2+x,1/2-y,1/2+z
loop_
_atom_site_type_symbol
_atom_site_label
_atom_site_fract_x
_atom_site_fract_y
_atom_site_fract_z
Si Si1 0.000000 0.768467 0.750000
Si Si2 0.623156 0.068157 0.816585
Si Si3 0.852405 0.434866 0.751966
Si Si4 0.814898 0.816153 0.103870
Si Si5 0.282754 0.198937 0.439804
O O1 0.944582 0.814592 0.485858
O O2 0.900715 0.721188 0.604688
O O3 0.481177 0.072758 0.447481
O O4 0.694000 0.006516 0.901335
O O5 0.631091 0.066673 0.023652
O O6 0.688962 0.132916 0.901116
O O7 0.759182 0.378155 0.493251
O O8 0.750000 0.750000 0.000000
O O9 0.824852 0.815917 0.931380
O O10 0.250000 0.250000 0.500000
#
# Coordination Sequence:
#
# PCOD8136514 Si02
#       5
#     4   8   8   8   8
#     4  10  20  36  54  76 110 142 176 222 270 316
#     4   9  17  31  50  77 106 130 169 216 265 316
#     4   9  17  30  51  76 104 136 166 214 270 315
#     4   9  18  33  52  74 105 141 174 214 265 316
#     4  10  20  34  55  79 105 138 178 220 263 316
#
# _framework density 18.947939999999999
#
# number of rings (size 3 to 8) (size 9 to 14) (size 15 to 20)
#    0.000    2.667    0.000    4.000    0.000    4.444 
#    0.000    4.444    0.000   12.000    0.000    0.000 
#    0.000    0.000    0.000    0.000    0.000    0.000 
#
# Total GULP energy -223028.214790 kJ/mol
# GULP energy per Si atom -12390.456377 kJ/mol
# Density = 1.890481 g / cm^3
# Si number density = 18.947940 Si / 1000 Ang^3
#
#
#
# Elastic Constant Matrix: (Units=GPa)
#
#
# Indices 1 2 3 4 5 6 
#
# 1 50.0881 38.6403 16.4589 0.0000 -1.9302 0.0000
# 2 38.6403 178.7606 48.7234 0.0000 -5.4427 0.0000
# 3 16.4589 48.7234 102.1264 0.0000 -21.3015 0.0000
# 4 0.0000 0.0000 0.0000 30.1380 0.0000 3.2028
# 5 -1.9302 -5.4427 -21.3015 0.0000 13.4091 0.0000
# 6 0.0000 0.0000 0.0000 3.2028 0.0000 39.2701
#
#
#
# Elastic Compliance Matrix: (Units=1/GPa)
#
#
# Indices 1 2 3 4 5 6 
#
# 1 0.024211 -0.004746 -0.001963 0.000000 -0.001560 0.000000
# 2 -0.004746 0.007465 -0.003450 0.000000 -0.003134 0.000000
# 3 -0.001963 -0.003450 0.017054 0.000000 0.025409 0.000000
# 4 0.000000 0.000000 0.000000 0.033471 0.000000 -0.002730
# 5 -0.001560 -0.003134 0.025409 0.000000 0.113443 0.000000
# 6 0.000000 0.000000 0.000000 -0.002730 0.000000 0.025687
#
#
# Mechanical properties :
#
#
# Convention : Reuss Voigt Hill
#
# Bulk Modulus (GPa) = 35.19703 59.84670 47.52186
# Shear Modulus (GPa) = 19.91084 31.70694 25.80889
#
# Velocity S-wave (km/s) = 3.24515 4.09512 3.69466
# Velocity P-wave (km/s) = 5.71466 7.34938 6.58296
#
# Compressibility (1/GPa) = 0.02841149
#
# Stress axis : x y z
#
# Youngs Moduli (GPa) = 41.30374 133.96016 58.63740
#
# Poissons Ratio (x) = 0.63575 0.11511
# Poissons Ratio (y) = 0.19602 0.20232
# Poissons Ratio (z) = 0.08108 0.46221
#
# Static dielectric constant tensor:
#      x y z
#    x 3.314960 0.000000 -0.405440 
#    y 0.000000 3.932750 0.000000 
#    z -0.405440 0.000000 3.966220 
# 
# 
# High freq. dielectric constant tensor:
#      x y z
#    x 1.705800 0.000000 -0.026550 
#    y 0.000000 1.749980 0.000000 
#    z -0.026550 0.000000 1.717400 
# 
# From -- ./inp_files/28740.got.cif
#   From: 2010.06.25/outbox.cif.g09.slc.cpg/sg15_15_cif.got.tgz:28740.got - 2010.06.28 07:06:18.
