data_PCOD8136523
_publ_section_title
;
Structure prediction by ZEFSAII (Michael W. Deem and Ramdas Pophale) SiO2 
 PCOD8136523
Probable space group: C 2/C
;
_chemical_formula_sum "Si O2"
_cell_formula_units_Z 56
_cell_length_a 22.946400
_cell_length_b 8.659855
_cell_length_c 15.475234
_cell_angle_alpha 90.000000
_cell_angle_beta 73.677982
_cell_angle_gamma 90.000000
_cell_volume 2951.186850
_symmetry_space_group_name_H-M "C 2/C"
_symmetry_group_IT_number 15
_symmetry_cell_setting 'monoclinic'
loop_
_space_group_symop_operation_xyz
x,y,z
-x,y,1/2-z
-x,-y,-z
x,-y,1/2+z
1/2+x,1/2+y,z
1/2-x,1/2+y,1/2-z
1/2-x,1/2-y,-z
1/2+x,1/2-y,1/2+z
loop_
_atom_site_type_symbol
_atom_site_label
_atom_site_fract_x
_atom_site_fract_y
_atom_site_fract_z
Si Si1 0.156528 0.090236 0.847635
Si Si2 0.614862 0.163353 0.251009
Si Si3 0.283458 0.976099 0.207800
Si Si4 0.518210 0.921700 0.338381
Si Si5 0.117243 0.751534 0.890813
Si Si6 0.200363 0.669279 0.461263
Si Si7 0.895761 0.558983 0.434346
O O1 0.114008 0.162974 0.789703
O O2 0.223241 0.067389 0.782297
O O3 0.159946 0.203330 0.928750
O O4 0.125955 0.933819 0.892593
O O5 0.606094 0.158598 0.152316
O O6 0.680681 0.096403 0.247514
O O7 0.561731 0.070410 0.320524
O O8 0.324403 0.822639 0.180611
O O9 0.268421 0.054486 0.121445
O O10 0.500000 0.869354 0.250000
O O11 0.554632 0.780734 0.366026
O O12 0.458971 0.966871 0.417960
O O13 0.111473 0.683584 0.988370
O O14 0.250000 0.750000 0.500000
O O15 0.157115 0.568957 0.541563
#
# Coordination Sequence:
#
# PCOD8136523 Si02
#       7
#     8   8   8   8   8   8   8
#     4  11  21  35  53  81 113 139 174 226 272 313
#     4   9  19  36  56  77 101 141 183 216 258 320
#     4   9  19  35  54  74 109 152 179 205 265 336
#     4   9  19  38  59  75 101 146 186 211 257 333
#     4  10  20  34  55  83 108 138 179 224 270 315
#     4  10  21  35  55  83 110 141 182 226 264 313
#     4  10  20  37  58  77 105 145 183 218 266 326
#
# _framework density 18.975417
#
# number of rings (size 3 to 8) (size 9 to 14) (size 15 to 20)
#    0.000    2.286    0.000    3.857    0.000    3.429 
#    0.000    8.571    0.000    0.000    0.000    0.000 
#    0.000    0.000    0.000    0.000    0.000    0.000 
#
# Total GULP energy -347220.884250 kJ/mol
# GULP energy per Si atom -12400.745866 kJ/mol
# Density = 1.893223 g / cm^3
# Si number density = 18.975417 Si / 1000 Ang^3
#
#
#
# Elastic Constant Matrix: (Units=GPa)
#
#
# Indices 1 2 3 4 5 6 
#
# 1 94.5932 35.5600 35.3115 0.0000 8.3206 0.0000
# 2 35.5600 114.4022 37.4487 0.0000 9.3317 0.0000
# 3 35.3115 37.4487 67.8319 0.0000 -1.9856 0.0000
# 4 0.0000 0.0000 0.0000 20.7263 0.0000 7.6467
# 5 8.3206 9.3317 -1.9856 0.0000 29.9717 0.0000
# 6 0.0000 0.0000 0.0000 7.6467 0.0000 15.8082
#
#
#
# Elastic Compliance Matrix: (Units=1/GPa)
#
#
# Indices 1 2 3 4 5 6 
#
# 1 0.013993 -0.001989 -0.006294 0.000000 -0.003682 0.000000
# 2 -0.001989 0.011382 -0.005347 0.000000 -0.003346 0.000000
# 3 -0.006294 -0.005347 0.021111 0.000000 0.004811 0.000000
# 4 0.000000 0.000000 0.000000 0.058729 0.000000 -0.028408
# 5 -0.003682 -0.003346 0.004811 0.000000 0.035748 0.000000
# 6 0.000000 0.000000 0.000000 -0.028408 0.000000 0.077000
#
#
# Mechanical properties :
#
#
# Convention : Reuss Voigt Hill
#
# Bulk Modulus (GPa) = 52.00856 54.82976 53.41916
# Shear Modulus (GPa) = 19.87038 24.53504 22.20271
#
# Velocity S-wave (km/s) = 3.23950 3.59972 3.42435
# Velocity P-wave (km/s) = 6.43897 6.79965 6.62177
#
# Compressibility (1/GPa) = 0.01922760
#
# Stress axis : x y z
#
# Youngs Moduli (GPa) = 71.46595 87.85513 47.36763
#
# Poissons Ratio (x) = 0.17472 0.29814
# Poissons Ratio (y) = 0.14212 0.25326
# Poissons Ratio (z) = 0.44981 0.46973
#
# Static dielectric constant tensor:
#      x y z
#    x 3.571050 0.000000 0.075180 
#    y 0.000000 3.521250 0.000000 
#    z 0.075180 0.000000 3.470320 
# 
# 
# High freq. dielectric constant tensor:
#      x y z
#    x 1.737880 0.000000 0.003810 
#    y 0.000000 1.727000 0.000000 
#    z 0.003810 0.000000 1.740940 
# 
# From -- ./inp_files/171821.got.cif
#   From: 2010.06.25/outbox.cif.g09.slc.cpg/sg15_86_cif.got.tgz:171821.got - 2010.06.28 07:06:18.
