data_PCOD8136243
_publ_section_title
;
Structure prediction by ZEFSAII (Michael W. Deem and Ramdas Pophale) SiO2 
 PCOD8136243
Probable space group: C 2/C
;
_chemical_formula_sum "Si O2"
_cell_formula_units_Z 64
_cell_length_a 18.064834
_cell_length_b 21.864946
_cell_length_c 9.593278
_cell_angle_alpha 90.000000
_cell_angle_beta 90.000000
_cell_angle_gamma 90.000000
_cell_volume 3789.216451
_symmetry_space_group_name_H-M "C 2/C"
_symmetry_group_IT_number 15
_symmetry_cell_setting 'monoclinic'
loop_
_space_group_symop_operation_xyz
x,y,z
-x,y,1/2-z
-x,-y,-z
x,-y,1/2+z
1/2+x,1/2+y,z
1/2-x,1/2+y,1/2-z
1/2-x,1/2-y,-z
1/2+x,1/2-y,1/2+z
loop_
_atom_site_type_symbol
_atom_site_label
_atom_site_fract_x
_atom_site_fract_y
_atom_site_fract_z
Si Si1 0.710938 0.303351 0.586123
Si Si2 0.584578 0.732984 0.593471
Si Si3 0.789062 0.196649 0.086123
Si Si4 0.587120 0.043524 0.250000
Si Si5 0.411691 0.097078 0.750000
Si Si6 0.084578 0.232984 0.906529
Si Si7 0.647304 0.135696 0.037155
Si Si8 0.352696 0.135696 0.037155
O O1 0.750000 0.250000 0.500000
O O2 0.702617 0.288044 0.750000
O O3 0.630136 0.309729 0.515272
O O4 0.763478 0.362460 0.562230
O O5 0.630136 0.690272 0.484728
O O6 0.593779 0.706599 0.750000
O O7 0.500000 0.730506 0.543973
O O8 0.611081 0.803222 0.599147
O O9 0.736522 0.137540 0.062229
O O10 0.750000 0.250000 0.000000
O O11 0.500000 0.048858 0.250000
O O12 0.617306 0.075399 0.111741
O O13 0.617306 0.075400 0.388259
O O14 0.612350 0.973476 0.250001
O O15 0.500000 0.105026 0.750000
O O16 0.374660 0.132043 0.622651
O O17 0.374660 0.132043 0.877349
O O18 0.111081 0.303222 0.900854
#
# Coordination Sequence:
#
# PCOD8136243 Si02
#       8
#     8   8   8   8   8   8   8   8
#     4  10  20  33  49  71  97 131 166 202 243 292
#     4  10  20  33  52  75 101 131 162 199 247 300
#     4  10  20  33  49  71  97 131 166 202 243 292
#     4  11  20  36  51  66  97 133 172 209 242 278
#     4  11  24  32  47  74  97 129 174 213 238 276
#     4  10  20  33  52  75 101 131 162 199 247 300
#     4  11  20  34  50  69  99 136 166 200 244 288
#     4  11  20  34  50  69  99 136 166 200 244 288
#
# _framework density 16.890035000000001
#
# number of rings (size 3 to 8) (size 9 to 14) (size 15 to 20)
#    0.000    1.500    2.500    5.250    8.750    2.500 
#    0.000    0.000    0.000    0.000    0.000    0.000 
#    0.000    6.000    0.000    0.000    0.000    0.000 
#
# Total GULP energy -396685.590352 kJ/mol
# GULP energy per Si atom -12396.424698 kJ/mol
# Density = 1.685159 g / cm^3
# Si number density = 16.890035 Si / 1000 Ang^3
#
#
#
# Elastic Constant Matrix: (Units=GPa)
#
#
# Indices 1 2 3 4 5 6 
#
# 1 125.5240 26.9395 47.9510 0.0000 -0.0001 0.0000
# 2 26.9395 33.5638 14.4670 0.0000 -0.0001 0.0000
# 3 47.9510 14.4670 134.5576 0.0000 -0.0001 0.0000
# 4 0.0000 0.0000 0.0000 23.0093 0.0000 0.0000
# 5 -0.0001 -0.0001 -0.0001 0.0000 34.4505 0.0000
# 6 0.0000 0.0000 0.0000 0.0000 0.0000 19.3074
#
#
#
# Elastic Compliance Matrix: (Units=1/GPa)
#
#
# Indices 1 2 3 4 5 6 
#
# 1 0.010683 -0.007270 -0.003025 0.000000 0.000000 0.000000
# 2 -0.007270 0.036190 -0.001300 0.000000 0.000000 0.000000
# 3 -0.003025 -0.001300 0.008650 0.000000 0.000000 0.000000
# 4 0.000000 0.000000 0.000000 0.043461 0.000000 0.000000
# 5 0.000000 0.000000 0.000000 0.000000 0.029027 0.000000
# 6 0.000000 0.000000 0.000000 0.000000 0.000000 0.051794
#
#
# Mechanical properties :
#
#
# Convention : Reuss Voigt Hill
#
# Bulk Modulus (GPa) = 30.93021 52.48448 41.70735
# Shear Modulus (GPa) = 23.38947 28.97264 26.18105
#
# Velocity S-wave (km/s) = 3.72534 4.14619 3.94139
# Velocity P-wave (km/s) = 6.07097 7.35275 6.74239
#
# Compressibility (1/GPa) = 0.03233085
#
# Stress axis : x y z
#
# Youngs Moduli (GPa) = 93.61054 27.63208 115.61227
#
# Poissons Ratio (x) = 0.20089 0.34975
# Poissons Ratio (y) = 0.68057 0.15031
# Poissons Ratio (z) = 0.28319 0.03593
#
# Static dielectric constant tensor:
#      x y z
#    x 3.745460 0.000000 0.000000 
#    y 0.000000 2.995650 0.000000 
#    z 0.000000 0.000000 3.402620 
# 
# 
# High freq. dielectric constant tensor:
#      x y z
#    x 1.652880 0.000000 0.000000 
#    y 0.000000 1.600260 0.000000 
#    z 0.000000 0.000000 1.675160 
# 
# From -- ./inp_files/50231.got.cif
#   From: 2010.06.25/outbox.cif.g09.slc.cpg/sg15_26_cif.got.tgz:50231.got - 2010.06.28 07:06:18.
