data_PCOD8136232
_publ_section_title
;
Structure prediction by ZEFSAII (Michael W. Deem and Ramdas Pophale) SiO2 
 PCOD8136232
Probable space group: C 2/C
;
_chemical_formula_sum "Si O2"
_cell_formula_units_Z 44
_cell_length_a 17.744058
_cell_length_b 31.139266
_cell_length_c 5.370284
_cell_angle_alpha 90.000000
_cell_angle_beta 113.996237
_cell_angle_gamma 90.000000
_cell_volume 2710.824698
_symmetry_space_group_name_H-M "C 2/C"
_symmetry_group_IT_number 15
_symmetry_cell_setting 'monoclinic'
loop_
_space_group_symop_operation_xyz
x,y,z
-x,y,1/2-z
-x,-y,-z
x,-y,1/2+z
1/2+x,1/2+y,z
1/2-x,1/2+y,1/2-z
1/2-x,1/2-y,-z
1/2+x,1/2-y,1/2+z
loop_
_atom_site_type_symbol
_atom_site_label
_atom_site_fract_x
_atom_site_fract_y
_atom_site_fract_z
Si Si1 0.917225 0.384806 0.794612
Si Si2 0.578836 0.754553 0.002885
Si Si3 0.708348 0.180831 0.500788
Si Si4 0.906646 0.517767 0.375574
Si Si5 0.710815 0.704313 0.400852
Si Si6 0.500000 0.822529 0.250000
O O1 0.843319 0.363557 0.537023
O O2 0.896853 0.431227 0.876618
O O3 0.000000 0.389169 0.750000
O O4 0.929845 0.351918 0.036639
O O5 0.650669 0.775896 0.926721
O O6 0.614137 0.714730 0.213177
O O7 0.549749 0.794382 0.124754
O O8 0.500000 0.736187 0.750000
O O9 0.753495 0.180271 0.294283
O O10 0.773649 0.178649 0.819937
O O11 0.862385 0.499192 0.564006
O O12 0.000000 0.500000 0.500000
O O13 0.750000 0.750000 0.500000
#
# Coordination Sequence:
#
# PCOD8136232 Si02
#       6
#     8   8   8   8   8   4
#     4  12  21  30  50  66  94 122 161 205 226 267
#     4  11  21  31  48  67  87 120 159 206 239 276
#     4  11  21  35  45  68  88 121 154 194 243 274
#     4  10  20  33  45  66  91 120 147 194 228 268
#     4  10  22  34  47  61  93 118 149 197 247 281
#     4  12  20  30  46  72  90 112 170 204 240 258
#
# _framework density 16.231221999999999
#
# number of rings (size 3 to 8) (size 9 to 14) (size 15 to 20)
#    0.000    1.091    5.455    5.455    2.545    0.000 
#    0.000    0.000    0.000    0.000    0.000    0.000 
#    0.000    0.000    0.000    0.000    0.000   18.182 
#
# Total GULP energy -272610.908550 kJ/mol
# GULP energy per Si atom -12391.404934 kJ/mol
# Density = 1.619428 g / cm^3
# Si number density = 16.231222 Si / 1000 Ang^3
#
#
#
# Elastic Constant Matrix: (Units=GPa)
#
#
# Indices 1 2 3 4 5 6 
#
# 1 33.7257 25.6055 43.5996 0.0000 7.6129 0.0000
# 2 25.6055 73.0153 38.8542 0.0000 5.2699 0.0000
# 3 43.5996 38.8542 132.4516 0.0000 -3.0650 0.0000
# 4 0.0000 0.0000 0.0000 27.2461 0.0000 -5.2025
# 5 7.6129 5.2699 -3.0650 0.0000 31.4257 0.0000
# 6 0.0000 0.0000 0.0000 -5.2025 0.0000 14.7525
#
#
#
# Elastic Compliance Matrix: (Units=1/GPa)
#
#
# Indices 1 2 3 4 5 6 
#
# 1 0.066862 -0.012308 -0.018768 0.000000 -0.015964 0.000000
# 2 -0.012308 0.018821 -0.001477 0.000000 -0.000319 0.000000
# 3 -0.018768 -0.001477 0.014304 0.000000 0.006189 0.000000
# 4 0.000000 0.000000 0.000000 0.039352 0.000000 0.013878
# 5 -0.015964 -0.000319 0.006189 0.000000 0.036345 0.000000
# 6 0.000000 0.000000 0.000000 0.013878 0.000000 0.072679
#
#
# Mechanical properties :
#
#
# Convention : Reuss Voigt Hill
#
# Bulk Modulus (GPa) = 28.66889 50.59012 39.62950
# Shear Modulus (GPa) = 15.38001 23.42709 19.40355
#
# Velocity S-wave (km/s) = 3.08158 3.80325 3.46127
# Velocity P-wave (km/s) = 5.51023 7.10790 6.35944
#
# Compressibility (1/GPa) = 0.03488102
#
# Stress axis : x y z
#
# Youngs Moduli (GPa) = 14.95617 53.13213 69.90884
#
# Poissons Ratio (x) = 0.65396 1.31205
# Poissons Ratio (y) = 0.18408 0.10325
# Poissons Ratio (z) = 0.28070 0.07847
#
# Static dielectric constant tensor:
#      x y z
#    x 3.199260 0.000000 0.151570 
#    y 0.000000 3.004140 0.000000 
#    z 0.151570 0.000000 4.308400 
# 
# 
# High freq. dielectric constant tensor:
#      x y z
#    x 1.577610 0.000000 -0.018990 
#    y 0.000000 1.586680 0.000000 
#    z -0.018990 0.000000 1.649960 
# 
# From -- ./inp_files/11142.got.cif
#   From: 2010.06.25/outbox.cif.g09.slc.cpg/sg15_6_cif.got.tgz:11142.got - 2010.06.28 07:06:18.
