data_PCOD8136477
_publ_section_title
;
Structure prediction by ZEFSAII (Michael W. Deem and Ramdas Pophale) SiO2 
 PCOD8136477
Probable space group: C 2/C
;
_chemical_formula_sum "Si O2"
_cell_formula_units_Z 52
_cell_length_a 8.331419
_cell_length_b 10.742402
_cell_length_c 27.852777
_cell_angle_alpha 90.000000
_cell_angle_beta 87.468546
_cell_angle_gamma 90.000000
_cell_volume 2490.375613
_symmetry_space_group_name_H-M "C 2/C"
_symmetry_group_IT_number 15
_symmetry_cell_setting 'monoclinic'
loop_
_space_group_symop_operation_xyz
x,y,z
-x,y,1/2-z
-x,-y,-z
x,-y,1/2+z
1/2+x,1/2+y,z
1/2-x,1/2+y,1/2-z
1/2-x,1/2-y,-z
1/2+x,1/2-y,1/2+z
loop_
_atom_site_type_symbol
_atom_site_label
_atom_site_fract_x
_atom_site_fract_y
_atom_site_fract_z
Si Si1 0.705842 0.666332 0.331553
Si Si2 0.500000 0.585301 0.250000
Si Si3 0.543160 0.749820 0.094401
Si Si4 0.298716 0.131596 0.031205
Si Si5 0.737482 0.895278 0.279279
Si Si6 0.872450 0.639225 0.506296
Si Si7 0.609157 0.915719 0.180791
O O1 0.570315 0.670043 0.291284
O O2 0.615477 0.680685 0.383409
O O3 0.809527 0.786009 0.312747
O O4 0.812842 0.546839 0.332832
O O5 0.366353 0.503546 0.278016
O O6 0.678801 0.646935 0.078033
O O7 0.479462 0.839200 0.052768
O O8 0.628991 0.831189 0.133929
O O9 0.274338 0.991782 0.009325
O O10 0.250000 0.250000 0.000000
O O11 0.492628 0.138957 0.038411
O O12 0.702087 0.853126 0.224585
O O13 0.575117 0.946752 0.305449
O O14 0.750000 0.750000 0.500000
#
# Coordination Sequence:
#
# PCOD8136477 Si02
#       7
#     8   4   8   8   8   8   8
#     4  10  20  35  55  79 112 147 182 229 277 325
#     4  10  20  34  54  78 106 146 192 224 264 324
#     4  10  21  36  56  85 114 142 184 231 282 338
#     4   9  21  40  61  82 110 147 184 230 287 344
#     4   9  19  36  54  78 109 149 191 224 267 323
#     4  10  22  40  61  85 112 146 188 234 285 346
#     4   9  19  36  55  78 114 149 182 230 277 322
#
# _framework density 20.880383999999999
#
# number of rings (size 3 to 8) (size 9 to 14) (size 15 to 20)
#    0.000    2.462    0.000    1.846    0.000   12.308 
#    0.000    7.692    0.000    0.000    0.000    0.000 
#    0.000    0.000    0.000    0.000    0.000    0.000 
#
# Total GULP energy -322125.219459 kJ/mol
# GULP energy per Si atom -12389.431518 kJ/mol
# Density = 2.083286 g / cm^3
# Si number density = 20.880384 Si / 1000 Ang^3
#
#
#
# Elastic Constant Matrix: (Units=GPa)
#
#
# Indices 1 2 3 4 5 6 
#
# 1 59.2319 37.5233 21.9420 0.0000 -17.2412 0.0000
# 2 37.5233 114.3121 28.8754 0.0000 -14.4088 0.0000
# 3 21.9420 28.8754 65.8243 0.0000 -18.8114 0.0000
# 4 0.0000 0.0000 0.0000 27.2951 0.0000 -0.4169
# 5 -17.2412 -14.4088 -18.8114 0.0000 28.6538 0.0000
# 6 0.0000 0.0000 0.0000 -0.4169 0.0000 30.4687
#
#
#
# Elastic Compliance Matrix: (Units=1/GPa)
#
#
# Indices 1 2 3 4 5 6 
#
# 1 0.024691 -0.006171 -0.002664 0.000000 0.010005 0.000000
# 2 -0.006171 0.011541 -0.002964 0.000000 0.000144 0.000000
# 3 -0.002664 -0.002964 0.020306 0.000000 0.010237 0.000000
# 4 0.000000 0.000000 0.000000 0.036644 0.000000 0.000501
# 5 0.010005 0.000144 0.010237 0.000000 0.047712 0.000000
# 6 0.000000 0.000000 0.000000 0.000501 0.000000 0.032827
#
#
# Mechanical properties :
#
#
# Convention : Reuss Voigt Hill
#
# Bulk Modulus (GPa) = 30.35967 46.22775 38.29371
# Shear Modulus (GPa) = 24.00375 27.35204 25.67789
#
# Velocity S-wave (km/s) = 3.39423 3.62323 3.51060
# Velocity P-wave (km/s) = 5.47105 6.30009 5.90015
#
# Compressibility (1/GPa) = 0.03293844
#
# Stress axis : x y z
#
# Youngs Moduli (GPa) = 40.50031 86.65104 49.24621
#
# Poissons Ratio (x) = 0.53471 0.13122
# Poissons Ratio (y) = 0.24992 0.14598
# Poissons Ratio (z) = 0.10791 0.25687
#
# Static dielectric constant tensor:
#      x y z
#    x 3.927530 0.000000 -0.384510 
#    y 0.000000 3.843540 0.000000 
#    z -0.384510 0.000000 3.932430 
# 
# 
# High freq. dielectric constant tensor:
#      x y z
#    x 1.812970 0.000000 -0.024050 
#    y 0.000000 1.827180 0.000000 
#    z -0.024050 0.000000 1.805000 
# 
# From -- ./inp_files/287599.got.cif
#   From: 2010.06.25/outbox.cif.g09.slc.cpg/sg15_144_cif.got.tgz:287599.got - 2010.06.28 07:06:18.
