data_PCOD8136364
_publ_section_title
;
Structure prediction by ZEFSAII (Michael W. Deem and Ramdas Pophale) SiO2 
 PCOD8136364
Probable space group: C 2/C
;
_chemical_formula_sum "Si O2"
_cell_formula_units_Z 40
_cell_length_a 27.534788
_cell_length_b 10.099869
_cell_length_c 8.455045
_cell_angle_alpha 90.000000
_cell_angle_beta 121.827112
_cell_angle_gamma 90.000000
_cell_volume 1997.790808
_symmetry_space_group_name_H-M "C 2/C"
_symmetry_group_IT_number 15
_symmetry_cell_setting 'monoclinic'
loop_
_space_group_symop_operation_xyz
x,y,z
-x,y,1/2-z
-x,-y,-z
x,-y,1/2+z
1/2+x,1/2+y,z
1/2-x,1/2+y,1/2-z
1/2-x,1/2-y,-z
1/2+x,1/2-y,1/2+z
loop_
_atom_site_type_symbol
_atom_site_label
_atom_site_fract_x
_atom_site_fract_y
_atom_site_fract_z
Si Si1 0.897876 0.809207 0.381727
Si Si2 0.883523 0.076467 0.206573
Si Si3 0.256477 0.608817 0.086441
Si Si4 0.288367 0.859004 0.647591
Si Si5 0.508948 0.352181 0.452404
O O1 0.884190 0.876972 0.526215
O O2 0.853693 0.690606 0.274253
O O3 0.963814 0.758133 0.473851
O O4 0.898721 0.920499 0.243383
O O5 0.821671 0.071676 0.177713
O O6 0.925297 0.174913 0.379803
O O7 0.242199 0.615577 0.242444
O O8 0.250000 0.750000 0.000000
O O9 0.212812 0.499315 0.943071
O O10 0.250000 0.750000 0.500000
O O11 0.500000 0.335408 0.250000
O O12 0.500000 0.500000 0.500000
#
# Coordination Sequence:
#
# PCOD8136364 Si02
#       5
#     8   8   8   8   8
#     4  11  21  37  60  94 128 167 206 263 317 374
#     4  11  20  37  61  89 132 160 211 255 315 372
#     4  12  24  42  62  95 126 171 209 253 320 378
#     4  12  25  41  64  94 131 164 212 264 317 385
#     4  10  20  33  57  91 125 164 208 262 316 367
#
# _framework density 20.022117000000001
#
# number of rings (size 3 to 8) (size 9 to 14) (size 15 to 20)
#    0.000    0.800    4.000    7.800    2.800    0.000 
#    0.000    0.000    0.000    1.200    0.000    0.000 
#    0.000    0.000    0.000    0.000    0.000    0.000 
#
# Total GULP energy -247762.033670 kJ/mol
# GULP energy per Si atom -12388.101684 kJ/mol
# Density = 1.997655 g / cm^3
# Si number density = 20.022117 Si / 1000 Ang^3
#
#
#
# Elastic Constant Matrix: (Units=GPa)
#
#
# Indices 1 2 3 4 5 6 
#
# 1 146.3083 24.9776 50.5569 0.0000 5.0777 0.0000
# 2 24.9776 94.7983 47.0767 0.0000 -1.3995 0.0000
# 3 50.5569 47.0767 112.7582 0.0000 -8.4252 0.0000
# 4 0.0000 0.0000 0.0000 34.5949 0.0000 0.5576
# 5 5.0777 -1.3995 -8.4252 0.0000 46.9936 0.0000
# 6 0.0000 0.0000 0.0000 0.5576 0.0000 22.8713
#
#
#
# Elastic Compliance Matrix: (Units=1/GPa)
#
#
# Indices 1 2 3 4 5 6 
#
# 1 0.008211 -0.000379 -0.003639 0.000000 -0.001551 0.000000
# 2 -0.000379 0.013342 -0.005441 0.000000 -0.000537 0.000000
# 3 -0.003639 -0.005441 0.012963 0.000000 0.002555 0.000000
# 4 0.000000 0.000000 0.000000 0.028917 0.000000 -0.000705
# 5 -0.001551 -0.000537 0.002555 0.000000 0.021889 0.000000
# 6 0.000000 0.000000 0.000000 -0.000705 0.000000 0.043740
#
#
# Mechanical properties :
#
#
# Convention : Reuss Voigt Hill
#
# Bulk Modulus (GPa) = 64.10984 66.56524 65.33754
# Shear Modulus (GPa) = 32.64140 36.30887 34.47514
#
# Velocity S-wave (km/s) = 4.04204 4.26307 4.15402
# Velocity P-wave (km/s) = 7.33983 7.58615 7.46401
#
# Compressibility (1/GPa) = 0.01559823
#
# Stress axis : x y z
#
# Youngs Moduli (GPa) = 121.78900 74.94849 77.14529
#
# Poissons Ratio (x) = 0.02842 0.28074
# Poissons Ratio (y) = 0.04618 0.41972
# Poissons Ratio (z) = 0.44320 0.40777
#
# Static dielectric constant tensor:
#      x y z
#    x 6.391240 0.000000 1.939040 
#    y 0.000000 3.419830 0.000000 
#    z 1.939040 0.000000 5.181090 
# 
# 
# High freq. dielectric constant tensor:
#      x y z
#    x 1.810940 0.000000 0.002080 
#    y 0.000000 1.728150 0.000000 
#    z 0.002080 0.000000 1.796800 
# 
# From -- ./inp_files/68447.got.cif
#   From: 2010.06.25/outbox.cif.g09.slc.cpg/sg15_35_cif.got.tgz:68447.got - 2010.06.28 07:06:18.
