data_PCOD8136547
_publ_section_title
;
Structure prediction by ZEFSAII (Michael W. Deem and Ramdas Pophale) SiO2 
 PCOD8136547
Probable space group: C 2/C
;
_chemical_formula_sum "Si O2"
_cell_formula_units_Z 48
_cell_length_a 11.363759
_cell_length_b 11.366331
_cell_length_c 18.527470
_cell_angle_alpha 90.000000
_cell_angle_beta 79.817106
_cell_angle_gamma 90.000000
_cell_volume 2355.391833
_symmetry_space_group_name_H-M "C 2/C"
_symmetry_group_IT_number 15
_symmetry_cell_setting 'monoclinic'
loop_
_space_group_symop_operation_xyz
x,y,z
-x,y,1/2-z
-x,-y,-z
x,-y,1/2+z
1/2+x,1/2+y,z
1/2-x,1/2+y,1/2-z
1/2-x,1/2-y,-z
1/2+x,1/2-y,1/2+z
loop_
_atom_site_type_symbol
_atom_site_label
_atom_site_fract_x
_atom_site_fract_y
_atom_site_fract_z
Si Si1 0.101478 0.751485 0.336356
Si Si2 0.211555 0.429206 0.200284
Si Si3 0.159442 0.683993 0.175823
Si Si4 0.833834 0.617777 0.631160
Si Si5 0.099336 0.693524 0.589922
Si Si6 0.768311 0.610221 0.057303
O O1 0.160408 0.686201 0.262178
O O2 0.142667 0.691816 0.405567
O O3 0.959495 0.738001 0.346715
O O4 0.149050 0.887435 0.324099
O O5 0.186326 0.547736 0.157414
O O6 0.169545 0.436258 0.287895
O O7 0.129811 0.331349 0.170290
O O8 0.264040 0.761028 0.131538
O O9 0.772016 0.523054 0.585035
O O10 0.964215 0.655216 0.589532
O O11 0.183375 0.613868 0.529420
O O12 0.133940 0.832326 0.573927
#
# Coordination Sequence:
#
# PCOD8136547 Si02
#       6
#     8   8   8   8   8   8
#     4   9  19  35  55  78 109 149 181 231 288 333
#     4  10  20  36  56  83 111 143 193 233 281 343
#     4  10  20  34  56  82 111 145 185 237 286 332
#     4  11  21  35  58  86 111 147 193 234 286 343
#     4  10  22  36  59  84 111 153 189 234 287 337
#     4  10  20  39  57  81 116 147 191 237 281 342
#
# _framework density 20.378775999999998
#
# number of rings (size 3 to 8) (size 9 to 14) (size 15 to 20)
#    0.000    2.000    1.667    2.000    2.333    1.333 
#    0.000    3.333    0.000    6.000    0.000    0.000 
#    0.000    0.000    0.000    0.000    0.000    0.000 
#
# Total GULP energy -297390.817258 kJ/mol
# GULP energy per Si atom -12391.284052 kJ/mol
# Density = 2.033239 g / cm^3
# Si number density = 20.378776 Si / 1000 Ang^3
#
#
#
# Elastic Constant Matrix: (Units=GPa)
#
#
# Indices 1 2 3 4 5 6 
#
# 1 71.6063 59.2427 8.7769 0.0000 -12.1011 0.0000
# 2 59.2427 97.9276 13.0023 0.0000 -29.5213 0.0000
# 3 8.7769 13.0023 45.3532 0.0000 -0.0944 0.0000
# 4 0.0000 0.0000 0.0000 23.3230 0.0000 9.0669
# 5 -12.1011 -29.5213 -0.0944 0.0000 21.3395 0.0000
# 6 0.0000 0.0000 0.0000 9.0669 0.0000 38.9373
#
#
#
# Elastic Compliance Matrix: (Units=1/GPa)
#
#
# Indices 1 2 3 4 5 6 
#
# 1 0.030226 -0.022642 0.000612 0.000000 -0.014179 0.000000
# 2 -0.022642 0.035675 -0.005770 0.000000 0.036488 0.000000
# 3 0.000612 -0.005770 0.023569 0.000000 -0.007531 0.000000
# 4 0.000000 0.000000 0.000000 0.047144 0.000000 -0.010978
# 5 -0.014179 0.036488 -0.007531 0.000000 0.089265 0.000000
# 6 0.000000 0.000000 0.000000 -0.010978 0.000000 0.028239
#
#
# Mechanical properties :
#
#
# Convention : Reuss Voigt Hill
#
# Bulk Modulus (GPa) = 29.52353 41.88122 35.70237
# Shear Modulus (GPa) = 15.57600 25.64430 20.61015
#
# Velocity S-wave (km/s) = 2.76764 3.55122 3.18363
# Velocity P-wave (km/s) = 4.97312 6.11644 5.57417
#
# Compressibility (1/GPa) = 0.03387129
#
# Stress axis : x y z
#
# Youngs Moduli (GPa) = 33.08378 28.03108 42.42825
#
# Poissons Ratio (x) = 0.63467 -0.02597
# Poissons Ratio (y) = 0.74907 0.24481
# Poissons Ratio (z) = -0.02025 0.16174
#
# Static dielectric constant tensor:
#      x y z
#    x 3.651250 0.000000 0.068360 
#    y 0.000000 3.717400 0.000000 
#    z 0.068360 0.000000 3.575190 
# 
# 
# High freq. dielectric constant tensor:
#      x y z
#    x 1.783710 0.000000 0.008140 
#    y 0.000000 1.789110 0.000000 
#    z 0.008140 0.000000 1.793690 
# 
# From -- ./inp_files/196024.got.cif
#   From: 2010.06.25/outbox.cif.g09.slc.cpg/sg15_99_cif.got.tgz:196024.got - 2010.06.28 07:06:18.
