data_PCOD8136500
_publ_section_title
;
Structure prediction by ZEFSAII (Michael W. Deem and Ramdas Pophale) SiO2 
 PCOD8136500
Probable space group: C 2/C
;
_chemical_formula_sum "Si O2"
_cell_formula_units_Z 56
_cell_length_a 13.388006
_cell_length_b 23.938593
_cell_length_c 16.677612
_cell_angle_alpha 90.000000
_cell_angle_beta 145.784344
_cell_angle_gamma 90.000000
_cell_volume 3005.548182
_symmetry_space_group_name_H-M "C 2/C"
_symmetry_group_IT_number 15
_symmetry_cell_setting 'monoclinic'
loop_
_space_group_symop_operation_xyz
x,y,z
-x,y,1/2-z
-x,-y,-z
x,-y,1/2+z
1/2+x,1/2+y,z
1/2-x,1/2+y,1/2-z
1/2-x,1/2-y,-z
1/2+x,1/2-y,1/2+z
loop_
_atom_site_type_symbol
_atom_site_label
_atom_site_fract_x
_atom_site_fract_y
_atom_site_fract_z
Si Si1 0.753420 0.338270 0.289635
Si Si2 0.460874 0.443451 0.930071
Si Si3 0.339158 0.909925 0.203738
Si Si4 0.882294 0.484052 0.846355
Si Si5 0.132984 0.863624 0.494703
Si Si6 0.570385 0.875419 0.934035
Si Si7 0.145308 0.274949 0.784755
O O1 0.832608 0.354318 0.255124
O O2 0.562564 0.367077 0.171630
O O3 0.878751 0.363518 0.440716
O O4 0.727720 0.271602 0.280977
O O5 0.318434 0.460534 0.765170
O O6 0.500000 0.500000 0.000000
O O7 0.650890 0.416459 0.029719
O O8 0.355138 0.402486 0.919513
O O9 0.500000 0.901461 0.250000
O O10 0.371432 0.963248 0.280789
O O11 0.975280 0.434185 0.860991
O O12 0.000000 0.500000 0.000000
O O13 0.260840 0.883953 0.509862
O O14 0.188016 0.800259 0.555415
O O15 0.445741 0.824920 0.823831
O O16 0.000000 0.248262 0.750000
#
# Coordination Sequence:
#
# PCOD8136500 Si02
#       7
#     8   8   8   8   8   8   8
#     4  11  21  37  54  82 119 148 193 238 279 333
#     4   9  20  36  57  80 115 151 190 226 278 344
#     4  10  23  40  60  80 112 160 199 232 276 340
#     4  11  21  38  58  88 118 148 188 238 287 335
#     4  10  20  34  54  87 116 151 181 223 294 356
#     4  11  21  33  57  89 120 144 183 232 293 349
#     4  10  20  34  58  86 117 151 181 229 298 360
#
# _framework density 18.632207999999999
#
# number of rings (size 3 to 8) (size 9 to 14) (size 15 to 20)
#    0.000    1.714    2.857    2.143    4.000    2.286 
#    0.000    0.714    0.000    7.714    0.000    0.000 
#    0.000    0.000    0.000    0.000    0.000    0.000 
#
# Total GULP energy -346942.414331 kJ/mol
# GULP energy per Si atom -12390.800512 kJ/mol
# Density = 1.858980 g / cm^3
# Si number density = 18.632208 Si / 1000 Ang^3
#
#
#
# Elastic Constant Matrix: (Units=GPa)
#
#
# Indices 1 2 3 4 5 6 
#
# 1 113.2098 42.7683 40.1750 -0.0002 15.8539 -0.0001
# 2 42.7683 93.4914 6.3426 -0.0001 -0.0788 0.0000
# 3 40.1750 6.3426 95.3066 -0.0003 -2.9838 -0.0001
# 4 -0.0002 -0.0001 -0.0003 21.5299 -0.0001 -0.9219
# 5 15.8539 -0.0788 -2.9838 -0.0001 13.7358 -0.0001
# 6 -0.0001 0.0000 -0.0001 -0.9219 -0.0001 20.6393
#
#
#
# Elastic Compliance Matrix: (Units=1/GPa)
#
#
# Indices 1 2 3 4 5 6 
#
# 1 0.017341 -0.007443 -0.007493 0.000000 -0.021685 0.000000
# 2 -0.007443 0.013939 0.002498 0.000000 0.009213 0.000000
# 3 -0.007493 0.002498 0.013850 0.000000 0.011672 0.000000
# 4 0.000000 0.000000 0.000000 0.046536 0.000001 0.002079
# 5 -0.021685 0.009213 0.011672 0.000001 0.100420 0.000000
# 6 0.000000 0.000000 0.000000 0.002079 0.000000 0.048544
#
#
# Mechanical properties :
#
#
# Convention : Reuss Voigt Hill
#
# Bulk Modulus (GPa) = 49.37160 53.39775 51.38468
# Shear Modulus (GPa) = 18.36495 25.36245 21.86370
#
# Velocity S-wave (km/s) = 3.14292 3.69347 3.42926
# Velocity P-wave (km/s) = 6.30287 6.84909 6.58165
#
# Compressibility (1/GPa) = 0.02025456
#
# Stress axis : x y z
#
# Youngs Moduli (GPa) = 57.66739 71.74050 72.20042
#
# Poissons Ratio (x) = 0.53394 0.54102
# Poissons Ratio (y) = 0.42920 -0.18036
# Poissons Ratio (z) = 0.43212 -0.17921
#
# Static dielectric constant tensor:
#      x y z
#    x 3.202780 0.000000 0.236360 
#    y 0.000000 3.523420 0.000000 
#    z 0.236360 0.000000 3.983390 
# 
# 
# High freq. dielectric constant tensor:
#      x y z
#    x 1.678860 0.000000 0.017750 
#    y 0.000000 1.729890 0.000000 
#    z 0.017750 0.000000 1.748030 
# 
# From -- ./inp_files/148575.got.cif
#   From: 2010.06.25/outbox.cif.g09.slc.cpg/sg15_75_cif.got.tgz:148575.got - 2010.06.28 07:06:18.
