data_PCOD8136379
_publ_section_title
;
Structure prediction by ZEFSAII (Michael W. Deem and Ramdas Pophale) SiO2 
 PCOD8136379
Probable space group: C 2/C
;
_chemical_formula_sum "Si O2"
_cell_formula_units_Z 44
_cell_length_a 11.078532
_cell_length_b 23.361938
_cell_length_c 9.267652
_cell_angle_alpha 90.000000
_cell_angle_beta 117.980531
_cell_angle_gamma 90.000000
_cell_volume 2118.235107
_symmetry_space_group_name_H-M "C 2/C"
_symmetry_group_IT_number 15
_symmetry_cell_setting 'monoclinic'
loop_
_space_group_symop_operation_xyz
x,y,z
-x,y,1/2-z
-x,-y,-z
x,-y,1/2+z
1/2+x,1/2+y,z
1/2-x,1/2+y,1/2-z
1/2-x,1/2-y,-z
1/2+x,1/2-y,1/2+z
loop_
_atom_site_type_symbol
_atom_site_label
_atom_site_fract_x
_atom_site_fract_y
_atom_site_fract_z
Si Si1 0.377873 0.600932 0.502551
Si Si2 0.348938 0.799402 0.112443
Si Si3 0.000000 0.546916 0.250000
Si Si4 0.261271 0.480775 0.452813
Si Si5 0.686938 0.381425 0.218062
Si Si6 0.308370 0.107133 0.356367
O O1 0.374728 0.531044 0.503479
O O2 0.302040 0.622597 0.603895
O O3 0.530571 0.624081 0.578223
O O4 0.299609 0.628914 0.323465
O O5 0.500000 0.778363 0.250000
O O6 0.275070 0.829546 0.205263
O O7 0.250000 0.750000 0.000000
O O8 0.365650 0.843468 0.990342
O O9 0.113772 0.508470 0.387298
O O10 0.059647 0.584036 0.152541
O O11 0.260502 0.443072 0.306666
O O12 0.277797 0.440312 0.601702
#
# Coordination Sequence:
#
# PCOD8136379 Si02
#       6
#     8   8   4   8   8   8
#     4  10  20  38  62  96 136 169 204 249 308 370
#     4  11  28  48  72  90 118 161 216 274 330 382
#     4  10  20  34  58  92 138 164 210 242 310 372
#     4  10  20  33  58  93 136 178 207 239 299 377
#     4  10  23  39  64  92 134 166 213 257 309 371
#     4  10  23  37  65  91 130 168 213 257 306 377
#
# _framework density 20.772010000000002
#
# number of rings (size 3 to 8) (size 9 to 14) (size 15 to 20)
#    0.000    1.818    0.000    3.273   12.727    3.636 
#    0.000    2.727    0.000    0.000    0.000    0.000 
#    0.000    0.000    0.000    0.000    0.000    0.000 
#
# Total GULP energy -272741.320222 kJ/mol
# GULP energy per Si atom -12397.332737 kJ/mol
# Density = 2.072473 g / cm^3
# Si number density = 20.772010 Si / 1000 Ang^3
#
#
#
# Elastic Constant Matrix: (Units=GPa)
#
#
# Indices 1 2 3 4 5 6 
#
# 1 103.2869 29.3188 42.8173 0.0000 3.5620 0.0000
# 2 29.3188 72.0269 31.7696 0.0000 0.6629 0.0000
# 3 42.8173 31.7696 133.7198 0.0000 7.8268 0.0000
# 4 0.0000 0.0000 0.0000 20.5076 0.0000 8.1815
# 5 3.5620 0.6629 7.8268 0.0000 33.9017 0.0000
# 6 0.0000 0.0000 0.0000 8.1815 0.0000 23.2290
#
#
#
# Elastic Compliance Matrix: (Units=1/GPa)
#
#
# Indices 1 2 3 4 5 6 
#
# 1 0.011929 -0.003551 -0.002946 0.000000 -0.000504 0.000000
# 2 -0.003551 0.016577 -0.002842 0.000000 0.000705 0.000000
# 3 -0.002946 -0.002842 0.009200 0.000000 -0.001759 0.000000
# 4 0.000000 0.000000 0.000000 0.056734 0.000000 -0.019982
# 5 -0.000504 0.000705 -0.001759 0.000000 0.029942 0.000000
# 6 0.000000 0.000000 0.000000 -0.019982 0.000000 0.050088
#
#
# Mechanical properties :
#
#
# Convention : Reuss Voigt Hill
#
# Bulk Modulus (GPa) = 52.56275 57.42723 54.99499
# Shear Modulus (GPa) = 25.06373 29.20286 27.13330
#
# Velocity S-wave (km/s) = 3.47740 3.75357 3.61812
# Velocity P-wave (km/s) = 6.44070 6.81852 6.63230
#
# Compressibility (1/GPa) = 0.01902488
#
# Stress axis : x y z
#
# Youngs Moduli (GPa) = 83.83196 60.32616 108.69558
#
# Poissons Ratio (x) = 0.21424 0.32025
# Poissons Ratio (y) = 0.29772 0.30896
# Poissons Ratio (z) = 0.24700 0.17147
#
# Static dielectric constant tensor:
#      x y z
#    x 3.906820 0.000000 -0.121980 
#    y 0.000000 3.502110 0.000000 
#    z -0.121980 0.000000 3.841510 
# 
# 
# High freq. dielectric constant tensor:
#      x y z
#    x 1.827160 0.000000 -0.008350 
#    y 0.000000 1.776030 0.000000 
#    z -0.008350 0.000000 1.825720 
# 
# From -- ./inp_files/32447.got.cif
#   From: 2010.06.25/outbox.cif.g09.slc.cpg/sg15_17_cif.got.tgz:32447.got - 2010.06.28 07:06:18.
