data_PCOD8136402
_publ_section_title
;
Structure prediction by ZEFSAII (Michael W. Deem and Ramdas Pophale) SiO2 
 PCOD8136402
Probable space group: C 2/C
;
_chemical_formula_sum "Si O2"
_cell_formula_units_Z 60
_cell_length_a 17.700735
_cell_length_b 19.981466
_cell_length_c 10.192242
_cell_angle_alpha 90.000000
_cell_angle_beta 125.098871
_cell_angle_gamma 90.000000
_cell_volume 2949.355847
_symmetry_space_group_name_H-M "C 2/C"
_symmetry_group_IT_number 15
_symmetry_cell_setting 'monoclinic'
loop_
_space_group_symop_operation_xyz
x,y,z
-x,y,1/2-z
-x,-y,-z
x,-y,1/2+z
1/2+x,1/2+y,z
1/2-x,1/2+y,1/2-z
1/2-x,1/2-y,-z
1/2+x,1/2-y,1/2+z
loop_
_atom_site_type_symbol
_atom_site_label
_atom_site_fract_x
_atom_site_fract_y
_atom_site_fract_z
Si Si1 0.565324 0.008656 0.440945
Si Si2 0.188691 0.208983 0.835413
Si Si3 0.714918 0.094914 0.994414
Si Si4 0.000000 0.773120 0.250000
Si Si5 0.816431 0.617947 0.823212
Si Si6 0.401518 0.350804 0.704152
Si Si7 0.443867 0.765383 0.421803
Si Si8 0.636336 0.769911 0.517088
O O1 0.500000 0.009216 0.250000
O O2 0.647107 0.953342 0.509503
O O3 0.500000 0.000000 0.500000
O O4 0.615012 0.079194 0.511593
O O5 0.231089 0.138778 0.829866
O O6 0.176751 0.259771 0.702510
O O7 0.089915 0.184897 0.795342
O O8 0.250000 0.250000 0.000000
O O9 0.824381 0.090161 0.145288
O O10 0.688452 0.171389 0.995573
O O11 0.709394 0.076126 0.833474
O O12 0.031733 0.726753 0.401344
O O13 0.859508 0.686127 0.808570
O O14 0.500000 0.379874 0.750000
O O15 0.417618 0.311139 0.857245
O O16 0.356440 0.299394 0.554796
O O17 0.528533 0.790103 0.417055
#
# Coordination Sequence:
#
# PCOD8136402 Si02
#       8
#     8   8   8   4   8   8   8   8
#     4  12  28  47  67  94 128 177 226 271 322 385
#     4  11  22  37  59  92 131 171 207 260 333 397
#     4  12  23  41  66  90 129 167 220 277 320 383
#     4  10  22  36  50  92 136 160 196 254 322 394
#     4  12  23  40  64  89 129 171 219 265 326 383
#     4  10  20  36  64  97 123 158 205 263 327 385
#     4  10  20  34  57  92 129 163 197 252 318 390
#     4  10  20  33  61  97 124 161 205 255 330 389
#
# _framework density 20.343426000000001
#
# number of rings (size 3 to 8) (size 9 to 14) (size 15 to 20)
#    0.000    1.067    5.333    2.000    0.933    1.067 
#    0.000    0.000    1.467    0.800    0.000    0.000 
#    0.000    0.000    0.000    0.000    0.000    0.000 
#
# Total GULP energy -371769.546490 kJ/mol
# GULP energy per Si atom -12392.318216 kJ/mol
# Density = 2.029712 g / cm^3
# Si number density = 20.343426 Si / 1000 Ang^3
#
#
#
# Elastic Constant Matrix: (Units=GPa)
#
#
# Indices 1 2 3 4 5 6 
#
# 1 175.4440 51.8202 44.0541 0.0000 14.9148 0.0000
# 2 51.8202 50.3231 19.9602 0.0000 5.8740 0.0000
# 3 44.0541 19.9602 122.5896 0.0000 -6.1399 0.0000
# 4 0.0000 0.0000 0.0000 23.5195 0.0000 5.9911
# 5 14.9148 5.8740 -6.1399 0.0000 35.3012 0.0000
# 6 0.0000 0.0000 0.0000 5.9911 0.0000 36.8825
#
#
#
# Elastic Compliance Matrix: (Units=1/GPa)
#
#
# Indices 1 2 3 4 5 6 
#
# 1 0.008775 -0.007923 -0.002000 0.000000 -0.002737 0.000000
# 2 -0.007923 0.029025 -0.001970 0.000000 -0.001825 0.000000
# 3 -0.002000 -0.001970 0.009337 0.000000 0.002797 0.000000
# 4 0.000000 0.000000 0.000000 0.044353 0.000000 -0.007205
# 5 -0.002737 -0.001825 0.002797 0.000000 0.030274 0.000000
# 6 0.000000 0.000000 0.000000 -0.007205 0.000000 0.028283
#
#
# Mechanical properties :
#
#
# Convention : Reuss Voigt Hill
#
# Bulk Modulus (GPa) = 42.82705 64.44729 53.63717
# Shear Modulus (GPa) = 27.53030 34.64212 31.08621
#
# Velocity S-wave (km/s) = 3.68268 4.13106 3.91330
# Velocity P-wave (km/s) = 6.25944 7.38259 6.84409
#
# Compressibility (1/GPa) = 0.02334973
#
# Stress axis : x y z
#
# Youngs Moduli (GPa) = 113.95951 34.45329 107.10053
#
# Poissons Ratio (x) = 0.27298 0.21425
# Poissons Ratio (y) = 0.90292 0.21099
# Poissons Ratio (z) = 0.22797 0.06787
#
# Static dielectric constant tensor:
#      x y z
#    x 4.262040 0.000000 0.037930 
#    y 0.000000 3.155410 0.000000 
#    z 0.037930 0.000000 3.451240 
# 
# 
# High freq. dielectric constant tensor:
#      x y z
#    x 1.823440 0.000000 0.002990 
#    y 0.000000 1.726070 0.000000 
#    z 0.002990 0.000000 1.811610 
# 
# From -- ./inp_files/50668.got.cif
#   From: 2010.06.25/outbox.cif.g09.slc.cpg/sg15_26_cif.got.tgz:50668.got - 2010.06.28 07:06:18.
