data_PCOD8136936
_publ_section_title
;
Structure prediction by ZEFSAII (Michael W. Deem and Ramdas Pophale) SiO2 
 PCOD8136936
Probable space group: C 2/C
;
_chemical_formula_sum "Si O2"
_cell_formula_units_Z 48
_cell_length_a 17.444393
_cell_length_b 8.823866
_cell_length_c 31.055997
_cell_angle_alpha 90.000000
_cell_angle_beta 29.418097
_cell_angle_gamma 90.000000
_cell_volume 2348.010032
_symmetry_space_group_name_H-M "C 2/C"
_symmetry_group_IT_number 15
_symmetry_cell_setting 'monoclinic'
loop_
_space_group_symop_operation_xyz
x,y,z
-x,y,1/2-z
-x,-y,-z
x,-y,1/2+z
1/2+x,1/2+y,z
1/2-x,1/2+y,1/2-z
1/2-x,1/2-y,-z
1/2+x,1/2-y,1/2+z
loop_
_atom_site_type_symbol
_atom_site_label
_atom_site_fract_x
_atom_site_fract_y
_atom_site_fract_z
Si Si1 0.174130 0.424862 0.988259
Si Si2 0.317006 0.527138 0.591036
Si Si3 0.144697 0.929961 0.519042
Si Si4 0.292628 0.621419 0.187000
Si Si5 0.318825 0.647650 0.331938
Si Si6 0.829756 0.475695 0.171208
O O1 0.275129 0.498287 0.977556
O O2 0.258907 0.453237 0.901356
O O3 0.162166 0.249164 0.005100
O O4 0.004669 0.501955 0.068188
O O5 0.500000 0.500000 0.500000
O O6 0.267123 0.495187 0.565708
O O7 0.236526 0.415807 0.665365
O O8 0.278731 0.698275 0.623677
O O9 0.959842 0.960934 0.612071
O O10 0.176585 0.548213 0.278311
O O11 0.291914 0.799632 0.193892
O O12 0.500000 0.685833 0.250000
O O13 0.293410 0.554670 0.300464
#
# Coordination Sequence:
#
# PCOD8136936 Si02
#       6
#     8   8   8   8   8   8
#     4   9  18  33  56  84 112 149 194 240 288 346
#     4   9  19  36  60  87 115 151 196 247 300 359
#     4   8  16  33  55  80 109 143 190 238 287 349
#     4  10  20  35  57  83 115 154 196 246 298 353
#     4  11  22  38  62  87 117 160 204 245 296 359
#     4  11  22  37  58  86 121 159 201 249 301 353
#
# _framework density 20.442844000000001
#
# number of rings (size 3 to 8) (size 9 to 14) (size 15 to 20)
#    0.000    2.333    0.000    3.500    0.000    5.333 
#    0.000    2.500    0.000   13.000    0.000    0.000 
#    0.000    0.000    0.000    0.000    0.000    0.000 
#
# Total GULP energy -297485.420347 kJ/mol
# GULP energy per Si atom -12395.225848 kJ/mol
# Density = 2.039632 g / cm^3
# Si number density = 20.442844 Si / 1000 Ang^3
#
#
#
# Elastic Constant Matrix: (Units=GPa)
#
#
# Indices 1 2 3 4 5 6 
#
# 1 90.1849 27.9970 37.1355 0.0108 8.8343 0.0554
# 2 27.9970 70.1598 38.5516 0.0019 2.1119 0.0219
# 3 37.1355 38.5516 114.8192 0.0004 16.2869 -0.0019
# 4 0.0108 0.0019 0.0004 30.0645 0.0001 4.8909
# 5 8.8343 2.1119 16.2869 0.0001 38.6861 0.0066
# 6 0.0554 0.0219 -0.0019 4.8909 0.0066 23.9835
#
#
#
# Elastic Compliance Matrix: (Units=1/GPa)
#
#
# Indices 1 2 3 4 5 6 
#
# 1 0.013623 -0.003796 -0.002892 0.000000 -0.001686 -0.000028
# 2 -0.003796 0.018631 -0.005324 0.000002 0.002091 -0.000010
# 3 -0.002892 -0.005324 0.012015 -0.000001 -0.004107 0.000014
# 4 0.000000 0.000002 -0.000001 0.034403 0.000001 -0.007016
# 5 -0.001686 0.002091 -0.004107 0.000001 0.027849 -0.000006
# 6 -0.000028 -0.000010 0.000014 -0.007016 -0.000006 0.043126
#
#
# Mechanical properties :
#
#
# Convention : Reuss Voigt Hill
#
# Bulk Modulus (GPa) = 49.39924 53.61467 51.50696
# Shear Modulus (GPa) = 27.71309 29.97882 28.84596
#
# Velocity S-wave (km/s) = 3.68589 3.83361 3.76048
# Velocity P-wave (km/s) = 6.50626 6.77340 6.64117
#
# Compressibility (1/GPa) = 0.02024323
#
# Stress axis : x y z
#
# Youngs Moduli (GPa) = 73.40566 53.67492 83.22890
#
# Poissons Ratio (x) = 0.20376 0.24072
# Poissons Ratio (y) = 0.27866 0.44314
# Poissons Ratio (z) = 0.21231 0.28578
#
# Static dielectric constant tensor:
#      x y z
#    x 4.098620 -0.000080 0.310780 
#    y -0.000080 3.342700 0.000010 
#    z 0.310780 0.000010 3.846980 
# 
# 
# High freq. dielectric constant tensor:
#      x y z
#    x 1.804580 0.000000 0.022250 
#    y 0.000000 1.762100 0.000000 
#    z 0.022250 0.000000 1.805010 
# 
# From -- ./inp_files/315634.got.cif
#   From: 2010.06.25/outbox.cif.g09.slc.cpg/sg15_158_cif.got.tgz:315634.got - 2010.06.28 07:06:18.
