data_PCOD8136856
_publ_section_title
;
Structure prediction by ZEFSAII (Michael W. Deem and Ramdas Pophale) SiO2 
 PCOD8136856
Probable space group: C 2/C
;
_chemical_formula_sum "Si O2"
_cell_formula_units_Z 40
_cell_length_a 20.888220
_cell_length_b 19.761177
_cell_length_c 5.195373
_cell_angle_alpha 90.000000
_cell_angle_beta 120.222565
_cell_angle_gamma 90.000000
_cell_volume 1853.033338
_symmetry_space_group_name_H-M "C 2/C"
_symmetry_group_IT_number 15
_symmetry_cell_setting 'monoclinic'
loop_
_space_group_symop_operation_xyz
x,y,z
-x,y,1/2-z
-x,-y,-z
x,-y,1/2+z
1/2+x,1/2+y,z
1/2-x,1/2+y,1/2-z
1/2-x,1/2-y,-z
1/2+x,1/2-y,1/2+z
loop_
_atom_site_type_symbol
_atom_site_label
_atom_site_fract_x
_atom_site_fract_y
_atom_site_fract_z
Si Si1 0.728152 0.816689 0.299554
Si Si2 0.906651 0.967129 0.700194
Si Si3 0.886396 0.178972 0.979549
Si Si4 0.580357 0.243563 0.439922
Si Si5 0.734634 0.034467 0.933505
O O1 0.750000 0.750000 0.500000
O O2 0.797525 0.828055 0.246394
O O3 0.721219 0.885262 0.453470
O O4 0.648905 0.805465 0.997728
O O5 0.921450 0.889773 0.655507
O O6 0.820649 0.983317 0.574965
O O7 0.943469 0.011804 0.545671
O O8 0.921912 0.195763 0.774607
O O9 0.905750 0.234089 0.237700
O O10 0.500000 0.207005 0.250000
O O11 0.697558 0.006545 0.594934
#
# Coordination Sequence:
#
# PCOD8136856 Si02
#       5
#     8   8   8   8   8
#     4   9  20  36  59  86 110 142 188 229 266 321
#     4   9  16  28  49  75 101 133 173 216 261 314
#     4  10  20  35  55  79 107 138 178 224 270 321
#     4  11  22  36  54  77 108 141 176 226 279 320
#     4   9  18  31  50  79 112 139 170 220 275 319
#
# _framework density 21.586227999999998
#
# number of rings (size 3 to 8) (size 9 to 14) (size 15 to 20)
#    0.000    2.400    0.000    2.400    0.000   12.800 
#    0.000    0.000    0.000   13.200    0.000    0.000 
#    0.000    0.000    0.000    0.000    0.000    0.000 
#
# Total GULP energy -247768.681132 kJ/mol
# GULP energy per Si atom -12388.434057 kJ/mol
# Density = 2.153710 g / cm^3
# Si number density = 21.586228 Si / 1000 Ang^3
#
#
#
# Elastic Constant Matrix: (Units=GPa)
#
#
# Indices 1 2 3 4 5 6 
#
# 1 76.6800 22.8382 52.2887 0.0000 21.2596 0.0000
# 2 22.8382 113.0558 35.0326 0.0000 -12.0951 0.0000
# 3 52.2887 35.0326 111.6099 0.0000 -6.8683 0.0000
# 4 0.0000 0.0000 0.0000 16.4474 0.0000 -15.5141
# 5 21.2596 -12.0951 -6.8683 0.0000 46.7194 0.0000
# 6 0.0000 0.0000 0.0000 -15.5141 0.0000 -5.3831
#
#
#
# Elastic Compliance Matrix: (Units=1/GPa)
#
#
# Indices 1 2 3 4 5 6 
#
# 1 0.026402 -0.003086 -0.012300 0.000000 -0.014621 0.000000
# 2 -0.003086 0.010368 -0.001571 0.000000 0.003858 0.000000
# 3 -0.012300 -0.001571 0.015677 0.000000 0.007495 0.000000
# 4 0.000000 0.000000 0.000000 0.016351 0.000000 -0.047123
# 5 -0.014621 0.003858 0.007495 0.000000 0.030158 0.000000
# 6 0.000000 0.000000 0.000000 -0.047123 0.000000 -0.049958
#
#
# Mechanical properties :
#
#
# Convention : Reuss Voigt Hill
#
# Bulk Modulus (GPa) = 53.96163 57.96274 55.96218
# Shear Modulus (GPa) = 56.12301 24.30249 40.21275
#
# Velocity S-wave (km/s) = 5.10450 3.35898 4.32080
# Velocity P-wave (km/s) = 7.73263 6.47717 7.13258
#
# Compressibility (1/GPa) = 0.01853169
#
# Stress axis : x y z
#
# Youngs Moduli (GPa) = 37.87621 96.44903 63.78868
#
# Poissons Ratio (x) = 0.29766 0.78461
# Poissons Ratio (y) = 0.11689 0.10022
# Poissons Ratio (z) = 0.46588 0.15154
#
# Static dielectric constant tensor:
#      x y z
#    x 4.165460 0.000000 0.069080 
#    y 0.000000 3.725840 0.000000 
#    z 0.069080 0.000000 4.094700 
# 
# 
# High freq. dielectric constant tensor:
#      x y z
#    x 1.838020 0.000000 -0.008490 
#    y 0.000000 1.820390 0.000000 
#    z -0.008490 0.000000 1.841570 
# 
# From -- ./inp_files/9805.got.cif
#   From: 2010.06.25/outbox.cif.g09.slc.cpg/sg15_5_cif.got.tgz:9805.got - 2010.06.28 07:06:18.
