data_PCOD8136456
_publ_section_title
;
Structure prediction by ZEFSAII (Michael W. Deem and Ramdas Pophale) SiO2 
 PCOD8136456
Probable space group: C 2/C
;
_chemical_formula_sum "Si O2"
_cell_formula_units_Z 64
_cell_length_a 19.161566
_cell_length_b 20.281885
_cell_length_c 8.972120
_cell_angle_alpha 90.000000
_cell_angle_beta 90.199215
_cell_angle_gamma 90.000000
_cell_volume 3486.837947
_symmetry_space_group_name_H-M "C 2/C"
_symmetry_group_IT_number 15
_symmetry_cell_setting 'monoclinic'
loop_
_space_group_symop_operation_xyz
x,y,z
-x,y,1/2-z
-x,-y,-z
x,-y,1/2+z
1/2+x,1/2+y,z
1/2-x,1/2+y,1/2-z
1/2-x,1/2-y,-z
1/2+x,1/2-y,1/2+z
loop_
_atom_site_type_symbol
_atom_site_label
_atom_site_fract_x
_atom_site_fract_y
_atom_site_fract_z
Si Si1 0.667286 0.308122 0.088577
Si Si2 0.914757 0.437772 0.911996
Si Si3 0.328502 0.174478 0.568249
Si Si4 0.575858 0.926859 0.934388
Si Si5 0.824478 0.818298 0.066294
Si Si6 0.664337 0.816222 0.086749
Si Si7 0.917268 0.061516 0.580763
Si Si8 0.423654 0.429694 0.429293
O O1 0.745424 0.329960 0.049596
O O2 0.657718 0.297613 0.264729
O O3 0.616471 0.363917 0.022808
O O4 0.644370 0.240733 0.009889
O O5 0.902906 0.438255 0.735775
O O6 0.993222 0.416719 0.954068
O O7 0.861356 0.388127 0.988147
O O8 0.898033 0.510885 0.970359
O O9 0.351945 0.175163 0.739605
O O10 0.612325 0.861278 0.993091
O O11 0.743339 0.836095 0.047424
O O12 0.866963 0.882376 0.015873
O O13 0.847822 0.759597 0.957950
O O14 0.911777 0.056481 0.756743
O O15 0.995314 0.079116 0.528710
O O16 0.891958 0.991660 0.516849
#
# Coordination Sequence:
#
# PCOD8136456 Si02
#       8
#     8   8   8   8   8   8   8   8
#     4   9  19  35  52  74 105 139 174 210 252 303
#     4  10  21  37  56  77 103 135 171 213 260 312
#     4  10  20  34  53  77 105 136 171 213 257 303
#     4  10  21  37  56  77 103 135 171 213 260 312
#     4   9  19  35  52  74 105 139 174 210 252 303
#     4  10  20  34  53  77 105 136 171 213 257 303
#     4   9  18  33  52  73  99 131 167 207 249 295
#     4   9  18  33  52  73  99 131 167 207 249 295
#
# _framework density 18.354738999999999
#
# number of rings (size 3 to 8) (size 9 to 14) (size 15 to 20)
#    0.000    2.500    0.000    1.500    0.000    5.500 
#    0.000    5.000    0.000    0.000    0.000    0.000 
#    0.000    0.000    0.000    0.000    0.000    0.000 
#
# Total GULP energy -396922.169177 kJ/mol
# GULP energy per Si atom -12403.817787 kJ/mol
# Density = 1.831296 g / cm^3
# Si number density = 18.354739 Si / 1000 Ang^3
#
#
#
# Elastic Constant Matrix: (Units=GPa)
#
#
# Indices 1 2 3 4 5 6 
#
# 1 37.9123 20.7033 8.7252 0.0000 0.9664 0.0000
# 2 20.7033 57.9009 8.4527 0.0000 -2.9080 0.0000
# 3 8.7252 8.4527 52.2425 0.0000 -3.8958 0.0000
# 4 0.0000 0.0000 0.0000 38.5701 0.0000 0.8667
# 5 0.9664 -2.9080 -3.8958 0.0000 25.5942 0.0000
# 6 0.0000 0.0000 0.0000 0.8667 0.0000 39.7691
#
#
#
# Elastic Compliance Matrix: (Units=1/GPa)
#
#
# Indices 1 2 3 4 5 6 
#
# 1 0.033733 -0.011640 -0.003989 0.000000 -0.003204 0.000000
# 2 -0.011640 0.021770 -0.001377 0.000000 0.002703 0.000000
# 3 -0.003989 -0.001377 0.020260 0.000000 0.003078 0.000000
# 4 0.000000 0.000000 0.000000 0.025940 0.000000 -0.000565
# 5 -0.003204 0.002703 0.003078 0.000000 0.039968 0.000000
# 6 0.000000 0.000000 0.000000 -0.000565 0.000000 0.025157
#
#
# Mechanical properties :
#
#
# Convention : Reuss Voigt Hill
#
# Bulk Modulus (GPa) = 23.95188 24.86867 24.41027
# Shear Modulus (GPa) = 23.28212 28.13165 25.70688
#
# Velocity S-wave (km/s) = 3.56540 3.91917 3.74646
# Velocity P-wave (km/s) = 5.47971 5.83594 5.66063
#
# Compressibility (1/GPa) = 0.04175037
#
# Stress axis : x y z
#
# Youngs Moduli (GPa) = 29.64454 45.93524 49.35820
#
# Poissons Ratio (x) = 0.53470 0.19691
# Poissons Ratio (y) = 0.34507 0.06795
# Poissons Ratio (z) = 0.11826 0.06324
#
# Static dielectric constant tensor:
#      x y z
#    x 3.362930 0.000000 -0.007630 
#    y 0.000000 3.425250 0.000000 
#    z -0.007630 0.000000 3.414210 
# 
# 
# High freq. dielectric constant tensor:
#      x y z
#    x 1.705440 0.000000 -0.000520 
#    y 0.000000 1.718630 0.000000 
#    z -0.000520 0.000000 1.715600 
# 
# From -- ./inp_files/56631.got.cif
#   From: 2010.06.25/outbox.cif.g09.slc.cpg/sg15_29_cif.got.tgz:56631.got - 2010.06.28 07:06:18.
