data_PCOD8136485
_publ_section_title
;
Structure prediction by ZEFSAII (Michael W. Deem and Ramdas Pophale) SiO2 
 PCOD8136485
Probable space group: C 2/C
;
_chemical_formula_sum "Si O2"
_cell_formula_units_Z 40
_cell_length_a 13.950267
_cell_length_b 9.762170
_cell_length_c 16.361544
_cell_angle_alpha 90.000000
_cell_angle_beta 112.521699
_cell_angle_gamma 90.000000
_cell_volume 2058.260559
_symmetry_space_group_name_H-M "C 2/C"
_symmetry_group_IT_number 15
_symmetry_cell_setting 'monoclinic'
loop_
_space_group_symop_operation_xyz
x,y,z
-x,y,1/2-z
-x,-y,-z
x,-y,1/2+z
1/2+x,1/2+y,z
1/2-x,1/2+y,1/2-z
1/2-x,1/2-y,-z
1/2+x,1/2-y,1/2+z
loop_
_atom_site_type_symbol
_atom_site_label
_atom_site_fract_x
_atom_site_fract_y
_atom_site_fract_z
Si Si1 0.862112 0.248091 0.869837
Si Si2 0.617457 0.308038 0.300613
Si Si3 0.749092 0.522380 0.420712
Si Si4 0.598482 0.200676 0.471384
Si Si5 0.377931 0.488393 0.964885
O O1 0.850567 0.278119 0.769450
O O2 0.777826 0.332666 0.892022
O O3 0.838414 0.085390 0.877955
O O4 0.974597 0.296255 0.939757
O O5 0.500000 0.360584 0.250000
O O6 0.690941 0.439318 0.330791
O O7 0.629307 0.217587 0.386178
O O8 0.852961 0.441457 0.483005
O O9 0.668795 0.552234 0.467430
O O10 0.649454 0.325443 0.542495
O O11 0.500000 0.500000 0.000000
#
# Coordination Sequence:
#
# PCOD8136485 Si02
#       5
#     8   8   8   8   8
#     4  10  20  34  54  81 107 130 171 227 262 293
#     4   9  19  34  50  72 106 144 174 205 258 323
#     4  11  20  33  56  81 101 137 179 218 258 305
#     4   9  19  36  56  76 103 140 175 206 259 326
#     4   9  18  33  52  74 103 137 168 204 255 313
#
# _framework density 19.433885
#
# number of rings (size 3 to 8) (size 9 to 14) (size 15 to 20)
#    0.000    2.400    0.000    4.800    0.000    3.200 
#    0.000    0.000    0.000    0.000    0.000    5.600 
#    0.000    0.000    0.000    0.000    0.000    0.000 
#
# Total GULP energy -247801.333619 kJ/mol
# GULP energy per Si atom -12390.066681 kJ/mol
# Density = 1.938965 g / cm^3
# Si number density = 19.433885 Si / 1000 Ang^3
#
#
#
# Elastic Constant Matrix: (Units=GPa)
#
#
# Indices 1 2 3 4 5 6 
#
# 1 97.9749 20.4182 18.2564 0.0000 -17.3645 0.0000
# 2 20.4182 68.1129 29.4177 0.0000 -12.7378 0.0000
# 3 18.2564 29.4177 64.5606 0.0000 -0.6619 0.0000
# 4 0.0000 0.0000 0.0000 18.0622 0.0000 -1.0512
# 5 -17.3645 -12.7378 -0.6619 0.0000 24.3021 0.0000
# 6 0.0000 0.0000 0.0000 -1.0512 0.0000 32.5754
#
#
#
# Elastic Compliance Matrix: (Units=1/GPa)
#
#
# Indices 1 2 3 4 5 6 
#
# 1 0.012431 -0.000850 -0.003042 0.000000 0.008354 0.000000
# 2 -0.000850 0.020744 -0.009109 0.000000 0.010017 0.000000
# 3 -0.003042 -0.009109 0.020435 0.000000 -0.006392 0.000000
# 4 0.000000 0.000000 0.000000 0.055469 0.000000 0.001790
# 5 0.008354 0.010017 -0.006392 0.000000 0.052194 0.000000
# 6 0.000000 0.000000 0.000000 0.001790 0.000000 0.030756
#
#
# Mechanical properties :
#
#
# Convention : Reuss Voigt Hill
#
# Bulk Modulus (GPa) = 36.22298 40.75921 38.49109
# Shear Modulus (GPa) = 22.00378 25.82500 23.91439
#
# Velocity S-wave (km/s) = 3.36852 3.64931 3.51173
# Velocity P-wave (km/s) = 5.81454 6.22699 6.02430
#
# Compressibility (1/GPa) = 0.02760679
#
# Stress axis : x y z
#
# Youngs Moduli (GPa) = 80.44147 48.20715 48.93647
#
# Poissons Ratio (x) = 0.04099 0.14887
# Poissons Ratio (y) = 0.06841 0.44576
# Poissons Ratio (z) = 0.24472 0.43912
#
# Static dielectric constant tensor:
#      x y z
#    x 3.654570 0.000000 -0.086620 
#    y 0.000000 3.486880 0.000000 
#    z -0.086620 0.000000 3.570220 
# 
# 
# High freq. dielectric constant tensor:
#      x y z
#    x 1.772330 0.000000 -0.004700 
#    y 0.000000 1.735770 0.000000 
#    z -0.004700 0.000000 1.738960 
# 
# From -- ./inp_files/150953.got.cif
#   From: 2010.06.25/outbox.cif.g09.slc.cpg/sg15_76_cif.got.tgz:150953.got - 2010.06.28 07:06:18.
