data_PCOD8136601
_publ_section_title
;
Structure prediction by ZEFSAII (Michael W. Deem and Ramdas Pophale) SiO2 
 PCOD8136601
Probable space group: C 2/C
;
_chemical_formula_sum "Si O2"
_cell_formula_units_Z 48
_cell_length_a 21.193083
_cell_length_b 11.880230
_cell_length_c 13.669579
_cell_angle_alpha 90.000000
_cell_angle_beta 48.688831
_cell_angle_gamma 90.000000
_cell_volume 2585.189554
_symmetry_space_group_name_H-M "C 2/C"
_symmetry_group_IT_number 15
_symmetry_cell_setting 'monoclinic'
loop_
_space_group_symop_operation_xyz
x,y,z
-x,y,1/2-z
-x,-y,-z
x,-y,1/2+z
1/2+x,1/2+y,z
1/2-x,1/2+y,1/2-z
1/2-x,1/2-y,-z
1/2+x,1/2-y,1/2+z
loop_
_atom_site_type_symbol
_atom_site_label
_atom_site_fract_x
_atom_site_fract_y
_atom_site_fract_z
Si Si1 0.885378 0.152285 0.656111
Si Si2 0.816484 0.849650 0.429014
Si Si3 0.014754 0.454872 0.620093
Si Si4 0.694979 0.458600 0.869236
Si Si5 0.435881 0.290986 0.460020
Si Si6 0.126471 0.411531 0.876147
O O1 0.826810 0.113202 0.806706
O O2 0.865827 0.277919 0.641223
O O3 0.981372 0.141406 0.592237
O O4 0.861987 0.068400 0.592172
O O5 0.750000 0.750000 0.500000
O O6 0.785459 0.950927 0.532979
O O7 0.908819 0.807334 0.373211
O O8 0.054892 0.341679 0.532826
O O9 0.078478 0.555759 0.526158
O O10 0.000000 0.451172 0.750000
O O11 0.924196 0.468478 0.661880
O O12 0.640718 0.345615 0.897840
O O13 0.780137 0.462619 0.719848
#
# Coordination Sequence:
#
# PCOD8136601 Si02
#       6
#     8   8   8   8   8   8
#     4  11  19  39  58  82 128 153 199 252 299 367
#     4  10  20  34  57  90 112 153 203 243 287 354
#     4  10  21  37  64  84 117 152 199 250 294 356
#     4  10  23  32  59  90 119 154 197 248 305 349
#     4   9  20  35  59  91 112 156 198 244 301 346
#     4  10  22  36  57  91 112 156 199 243 303 353
#
# _framework density 18.567305000000001
#
# number of rings (size 3 to 8) (size 9 to 14) (size 15 to 20)
#    1.000    1.000    1.667    3.000    4.667    0.000 
#    0.000    0.000   14.667    2.000    0.000    0.000 
#    0.000    0.000    0.000    0.000    0.000    0.000 
#
# Total GULP energy -297321.343902 kJ/mol
# GULP energy per Si atom -12388.389329 kJ/mol
# Density = 1.852504 g / cm^3
# Si number density = 18.567305 Si / 1000 Ang^3
#
#
#
# Elastic Constant Matrix: (Units=GPa)
#
#
# Indices 1 2 3 4 5 6 
#
# 1 80.1468 51.9734 45.5437 0.0000 -9.0466 0.0000
# 2 51.9734 79.1667 49.5978 0.0000 2.8609 0.0000
# 3 45.5437 49.5978 103.6036 0.0000 -6.7623 0.0000
# 4 0.0000 0.0000 0.0000 25.4608 0.0000 0.5072
# 5 -9.0466 2.8609 -6.7623 0.0000 28.1626 0.0000
# 6 0.0000 0.0000 0.0000 0.5072 0.0000 33.7025
#
#
#
# Elastic Compliance Matrix: (Units=1/GPa)
#
#
# Indices 1 2 3 4 5 6 
#
# 1 0.024728 -0.014406 -0.003413 0.000000 0.008587 0.000000
# 2 -0.014406 0.026883 -0.007129 0.000000 -0.009070 0.000000
# 3 -0.003413 -0.007129 0.014773 0.000000 0.003175 0.000000
# 4 0.000000 0.000000 0.000000 0.039288 0.000000 -0.000591
# 5 0.008587 -0.009070 0.003175 0.000000 0.039950 0.000000
# 6 0.000000 0.000000 0.000000 -0.000591 0.000000 0.029680
#
#
# Mechanical properties :
#
#
# Convention : Reuss Voigt Hill
#
# Bulk Modulus (GPa) = 60.65209 61.90521 61.27865
# Shear Modulus (GPa) = 21.67369 25.18533 23.42951
#
# Velocity S-wave (km/s) = 3.42029 3.68698 3.55613
# Velocity P-wave (km/s) = 6.95233 7.17903 7.06658
#
# Compressibility (1/GPa) = 0.01648748
#
# Stress axis : x y z
#
# Youngs Moduli (GPa) = 40.44006 37.19792 67.69252
#
# Poissons Ratio (x) = 0.53587 0.23106
# Poissons Ratio (y) = 0.58258 0.48258
# Poissons Ratio (z) = 0.13803 0.26518
#
# Static dielectric constant tensor:
#      x y z
#    x 3.512630 0.000000 -0.146710 
#    y 0.000000 3.176570 0.000000 
#    z -0.146710 0.000000 3.309120 
# 
# 
# High freq. dielectric constant tensor:
#      x y z
#    x 1.725590 0.000000 -0.021020 
#    y 0.000000 1.696560 0.000000 
#    z -0.021020 0.000000 1.708990 
# 
# From -- ./inp_files/167144.got.cif
#   From: 2010.06.25/outbox.cif.g09.slc.cpg/sg15_84_cif.got.tgz:167144.got - 2010.06.28 07:06:18.
