data_PCOD8136569
_publ_section_title
;
Structure prediction by ZEFSAII (Michael W. Deem and Ramdas Pophale) SiO2 
 PCOD8136569
Probable space group: C 2/C
;
_chemical_formula_sum "Si O2"
_cell_formula_units_Z 56
_cell_length_a 8.957710
_cell_length_b 21.888392
_cell_length_c 14.922838
_cell_angle_alpha 90.000000
_cell_angle_beta 102.804564
_cell_angle_gamma 90.000000
_cell_volume 2853.156257
_symmetry_space_group_name_H-M "C 2/C"
_symmetry_group_IT_number 15
_symmetry_cell_setting 'monoclinic'
loop_
_space_group_symop_operation_xyz
x,y,z
-x,y,1/2-z
-x,-y,-z
x,-y,1/2+z
1/2+x,1/2+y,z
1/2-x,1/2+y,1/2-z
1/2-x,1/2-y,-z
1/2+x,1/2-y,1/2+z
loop_
_atom_site_type_symbol
_atom_site_label
_atom_site_fract_x
_atom_site_fract_y
_atom_site_fract_z
Si Si1 0.390841 0.280448 0.903782
Si Si2 0.830729 0.112071 0.715575
Si Si3 0.801072 0.659829 0.978505
Si Si4 0.415597 0.079945 0.483188
Si Si5 0.338056 0.741439 0.772648
Si Si6 0.937626 0.516433 0.838121
Si Si7 0.769939 0.196563 0.070567
O O1 0.403941 0.219398 0.967271
O O2 0.301278 0.265100 0.803377
O O3 0.549004 0.308533 0.889424
O O4 0.301581 0.331607 0.947812
O O5 0.816885 0.143834 0.616552
O O6 0.816138 0.168113 0.785570
O O7 0.697247 0.062807 0.708837
O O8 0.000000 0.082024 0.750000
O O9 0.915038 0.604798 0.015285
O O10 0.428123 0.047376 0.582856
O O11 0.288216 0.131909 0.474496
O O12 0.369015 0.036705 0.392961
O O13 0.500000 0.755619 0.750000
O O14 0.331695 0.782506 0.859557
O O15 0.000000 0.492187 0.750000
O O16 0.750000 0.250000 0.000000
#
# Coordination Sequence:
#
# PCOD8136569 Si02
#       7
#     8   8   8   8   8   8   8
#     4  10  20  34  56  88 125 160 195 235 314 364
#     4   9  20  35  60  87 114 152 209 250 301 367
#     4   9  18  35  58  84 123 159 190 250 298 375
#     4  10  22  42  58  90 123 156 214 250 312 374
#     4  10  22  37  57  88 125 163 202 246 314 381
#     4  10  23  41  65  83 113 169 212 260 297 366
#     4  12  24  35  61  96 127 158 191 262 312 368
#
# _framework density 19.627386000000001
#
# number of rings (size 3 to 8) (size 9 to 14) (size 15 to 20)
#    0.000    2.000    1.429    1.286    8.000    1.714 
#    0.000    2.857    0.000    5.143    0.000    0.000 
#    0.000    0.000    0.000    0.000    0.000    0.000 
#
# Total GULP energy -347045.792321 kJ/mol
# GULP energy per Si atom -12394.492583 kJ/mol
# Density = 1.958271 g / cm^3
# Si number density = 19.627386 Si / 1000 Ang^3
#
#
#
# Elastic Constant Matrix: (Units=GPa)
#
#
# Indices 1 2 3 4 5 6 
#
# 1 100.9757 29.0332 33.4207 0.0000 6.4674 0.0000
# 2 29.0332 74.3528 25.4616 0.0000 1.8871 0.0000
# 3 33.4207 25.4616 71.7456 0.0000 -6.9048 0.0000
# 4 0.0000 0.0000 0.0000 -44.9060 0.0000 11.5025
# 5 6.4674 1.8871 -6.9048 0.0000 34.6574 0.0000
# 6 0.0000 0.0000 0.0000 11.5025 0.0000 30.1733
#
#
#
# Elastic Compliance Matrix: (Units=1/GPa)
#
#
# Indices 1 2 3 4 5 6 
#
# 1 0.012702 -0.003126 -0.005118 0.000000 -0.003220 0.000000
# 2 -0.003126 0.016210 -0.004410 0.000000 -0.001178 0.000000
# 3 -0.005118 -0.004410 0.018354 0.000000 0.004852 0.000000
# 4 0.000000 0.000000 0.000000 -0.020288 0.000000 0.007734
# 5 -0.003220 -0.001178 0.004852 0.000000 0.030485 0.000000
# 6 0.000000 0.000000 0.000000 0.007734 0.000000 0.030194
#
#
# Mechanical properties :
#
#
# Convention : Reuss Voigt Hill
#
# Bulk Modulus (GPa) = 45.53835 46.98946 46.26391
# Shear Modulus (GPa) = 41.56831 14.59549 28.08190
#
# Velocity S-wave (km/s) = 4.60703 2.72991 3.78663
# Velocity P-wave (km/s) = 7.17993 5.82489 6.53761
#
# Compressibility (1/GPa) = 0.02195951
#
# Stress axis : x y z
#
# Youngs Moduli (GPa) = 78.72708 61.69024 54.48406
#
# Poissons Ratio (x) = 0.19283 0.27882
# Poissons Ratio (y) = 0.24608 0.24028
# Poissons Ratio (z) = 0.40289 0.27206
#
# Static dielectric constant tensor:
#      x y z
#    x 12.128500 0.000000 -1.094830 
#    y 0.000000 3.555380 0.000000 
#    z -1.094830 0.000000 3.775370 
# 
# 
# High freq. dielectric constant tensor:
#      x y z
#    x 1.756680 0.000000 0.012430 
#    y 0.000000 1.747530 0.000000 
#    z 0.012430 0.000000 1.770870 
# 
# From -- ./inp_files/137472.got.cif
#   From: 2010.06.25/outbox.cif.g09.slc.cpg/sg15_69_cif.got.tgz:137472.got - 2010.06.28 07:06:18.
