data_PCOD8136321
_publ_section_title
;
Structure prediction by ZEFSAII (Michael W. Deem and Ramdas Pophale) SiO2 
 PCOD8136321
Probable space group: C 2/C
;
_chemical_formula_sum "Si O2"
_cell_formula_units_Z 56
_cell_length_a 14.928515
_cell_length_b 25.057539
_cell_length_c 8.298920
_cell_angle_alpha 90.000000
_cell_angle_beta 118.258385
_cell_angle_gamma 90.000000
_cell_volume 2734.415387
_symmetry_space_group_name_H-M "C 2/C"
_symmetry_group_IT_number 15
_symmetry_cell_setting 'monoclinic'
loop_
_space_group_symop_operation_xyz
x,y,z
-x,y,1/2-z
-x,-y,-z
x,-y,1/2+z
1/2+x,1/2+y,z
1/2-x,1/2+y,1/2-z
1/2-x,1/2-y,-z
1/2+x,1/2-y,1/2+z
loop_
_atom_site_type_symbol
_atom_site_label
_atom_site_fract_x
_atom_site_fract_y
_atom_site_fract_z
Si Si1 0.741324 0.598022 0.875449
Si Si2 0.616851 0.974784 0.812400
Si Si3 0.797288 0.672713 0.645211
Si Si4 0.114166 0.782937 0.805022
Si Si5 0.364336 0.378829 0.883103
Si Si6 0.039483 0.054188 0.606022
Si Si7 0.691837 0.928057 0.548576
O O1 0.785547 0.646167 0.809281
O O2 0.661641 0.562591 0.700452
O O3 0.838495 0.564524 0.014524
O O4 0.680813 0.620115 0.976829
O O5 0.500000 0.986358 0.750000
O O6 0.623270 0.949695 0.638792
O O7 0.681069 0.030105 0.890367
O O8 0.878867 0.720147 0.727603
O O9 0.688430 0.699247 0.512362
O O10 0.839246 0.630102 0.548402
O O11 0.146591 0.817518 0.677554
O O12 0.000000 0.797678 0.750000
O O13 0.305806 0.420700 0.714480
O O14 0.482146 0.396340 0.971267
O O15 0.000000 0.052962 0.750000
O O16 0.000000 0.000000 0.500000
#
# Coordination Sequence:
#
# PCOD8136321 Si02
#       7
#     8   8   8   8   8   8   8
#     4  10  21  37  56  82 115 147 186 232 278 335
#     4  11  22  36  56  81 113 152 188 226 276 330
#     4  10  22  38  59  83 111 146 186 234 282 330
#     4  10  21  38  59  82 109 146 187 231 283 334
#     4   9  20  37  57  82 112 145 185 234 284 338
#     4  10  20  33  54  84 115 146 181 224 281 339
#     4  10  21  37  55  80 113 145 186 230 275 333
#
# _framework density 20.479697999999999
#
# number of rings (size 3 to 8) (size 9 to 14) (size 15 to 20)
#    0.000    2.000    0.000    3.000    0.000    7.429 
#    0.000    0.000    0.000    2.571    0.000    0.000 
#    0.000    0.000    0.000    0.000    0.000    0.000 
#
# Total GULP energy -347046.583042 kJ/mol
# GULP energy per Si atom -12394.520823 kJ/mol
# Density = 2.043309 g / cm^3
# Si number density = 20.479698 Si / 1000 Ang^3
#
#
#
# Elastic Constant Matrix: (Units=GPa)
#
#
# Indices 1 2 3 4 5 6 
#
# 1 67.8334 36.6237 33.0516 0.0000 7.0978 0.0000
# 2 36.6237 143.4611 53.7557 0.0000 -10.1999 0.0000
# 3 33.0516 53.7557 85.5939 0.0000 4.2387 0.0000
# 4 0.0000 0.0000 0.0000 33.2342 0.0000 -2.3584
# 5 7.0978 -10.1999 4.2387 0.0000 14.9910 0.0000
# 6 0.0000 0.0000 0.0000 -2.3584 0.0000 26.1977
#
#
#
# Elastic Compliance Matrix: (Units=1/GPa)
#
#
# Indices 1 2 3 4 5 6 
#
# 1 0.020518 -0.004294 -0.004665 0.000000 -0.011317 0.000000
# 2 -0.004294 0.011050 -0.005836 0.000000 0.011202 0.000000
# 3 -0.004665 -0.005836 0.017482 0.000000 -0.006705 0.000000
# 4 0.000000 0.000000 0.000000 0.030283 0.000000 0.002726
# 5 -0.011317 0.011202 -0.006705 0.000000 0.081583 0.000000
# 6 0.000000 0.000000 0.000000 0.002726 0.000000 0.038417
#
#
# Mechanical properties :
#
#
# Convention : Reuss Voigt Hill
#
# Bulk Modulus (GPa) = 51.39312 60.41673 55.90492
# Shear Modulus (GPa) = 21.23942 26.44842 23.84392
#
# Velocity S-wave (km/s) = 3.22389 3.59757 3.41584
# Velocity P-wave (km/s) = 6.24557 6.84262 6.55090
#
# Compressibility (1/GPa) = 0.01945786
#
# Stress axis : x y z
#
# Youngs Moduli (GPa) = 48.73770 90.49585 57.20154
#
# Poissons Ratio (x) = 0.38863 0.26687
# Poissons Ratio (y) = 0.20930 0.33385
# Poissons Ratio (z) = 0.22738 0.52817
#
# Static dielectric constant tensor:
#      x y z
#    x 3.456980 0.000000 -0.172670 
#    y 0.000000 3.740180 0.000000 
#    z -0.172670 0.000000 3.163290 
# 
# 
# High freq. dielectric constant tensor:
#      x y z
#    x 1.785090 0.000000 0.003000 
#    y 0.000000 1.799210 0.000000 
#    z 0.003000 0.000000 1.812050 
# 
# From -- ./inp_files/43615.got.cif
#   From: 2010.06.25/outbox.cif.g09.slc.cpg/sg15_22_cif.got.tgz:43615.got - 2010.06.28 07:06:18.
