data_PCOD8136772
_publ_section_title
;
Structure prediction by ZEFSAII (Michael W. Deem and Ramdas Pophale) SiO2 
 PCOD8136772
Probable space group: C 2/C
;
_chemical_formula_sum "Si O2"
_cell_formula_units_Z 52
_cell_length_a 16.809861
_cell_length_b 9.418268
_cell_length_c 16.967465
_cell_angle_alpha 90.000000
_cell_angle_beta 119.403331
_cell_angle_gamma 90.000000
_cell_volume 2340.252147
_symmetry_space_group_name_H-M "C 2/C"
_symmetry_group_IT_number 15
_symmetry_cell_setting 'monoclinic'
loop_
_space_group_symop_operation_xyz
x,y,z
-x,y,1/2-z
-x,-y,-z
x,-y,1/2+z
1/2+x,1/2+y,z
1/2-x,1/2+y,1/2-z
1/2-x,1/2-y,-z
1/2+x,1/2-y,1/2+z
loop_
_atom_site_type_symbol
_atom_site_label
_atom_site_fract_x
_atom_site_fract_y
_atom_site_fract_z
Si Si1 0.887473 0.253527 0.314969
Si Si2 0.356215 0.363895 0.205081
Si Si3 0.500000 0.396170 0.750000
Si Si4 0.151973 0.467696 0.084302
Si Si5 0.309055 0.721672 0.851184
Si Si6 0.855994 0.270529 0.553337
Si Si7 0.896292 0.039861 0.454623
O O1 0.980422 0.209851 0.314071
O O2 0.908075 0.398307 0.373886
O O3 0.799675 0.269581 0.214677
O O4 0.860513 0.130499 0.363172
O O5 0.411279 0.503999 0.205918
O O6 0.251397 0.402589 0.144105
O O7 0.368678 0.311250 0.300919
O O8 0.386530 0.234806 0.160469
O O9 0.150347 0.636129 0.090007
O O10 0.113953 0.412802 0.980237
O O11 0.330636 0.598180 0.924861
O O12 0.750000 0.250000 0.500000
O O13 0.893983 0.126987 0.533601
O O14 0.000000 0.000000 0.500000
#
# Coordination Sequence:
#
# PCOD8136772 Si02
#       7
#     8   8   4   8   8   8   8
#     4  10  20  36  63  92 126 167 211 267 313 385
#     4  10  20  34  64  90 121 163 217 258 308 385
#     4  12  18  34  62  98 120 152 220 278 292 366
#     4   9  19  38  60  88 123 169 205 256 326 383
#     4  11  20  40  67  94 121 177 221 251 323 405
#     4   9  20  37  60  87 129 165 204 262 327 375
#     4  11  22  40  67  94 124 173 216 260 322 393
#
# _framework density 22.219828
#
# number of rings (size 3 to 8) (size 9 to 14) (size 15 to 20)
#    0.000    1.846    3.077    2.769    0.000    0.000 
#    0.000    6.923   10.154    0.000    0.000    0.000 
#    0.000    0.000    0.000    0.000    0.000    0.000 
#
# Total GULP energy -322109.370729 kJ/mol
# GULP energy per Si atom -12388.821951 kJ/mol
# Density = 2.216925 g / cm^3
# Si number density = 22.219828 Si / 1000 Ang^3
#
#
#
# Elastic Constant Matrix: (Units=GPa)
#
#
# Indices 1 2 3 4 5 6 
#
# 1 80.7671 3.7468 -0.0001 0.0000 -12.5764 0.0000
# 2 3.7468 91.0496 -0.8998 0.0000 -3.5359 0.0000
# 3 -0.0001 -0.8998 34.8169 0.0000 -5.1450 0.0000
# 4 0.0000 0.0000 0.0000 9.4352 0.0000 4.4671
# 5 -12.5764 -3.5359 -5.1450 0.0000 32.6066 0.0000
# 6 0.0000 0.0000 0.0000 4.4671 0.0000 41.4266
#
#
#
# Elastic Compliance Matrix: (Units=1/GPa)
#
#
# Indices 1 2 3 4 5 6 
#
# 1 0.013203 -0.000335 0.000756 0.000000 0.005175 0.000000
# 2 -0.000335 0.011046 0.000454 0.000000 0.001140 0.000000
# 3 0.000756 0.000454 0.029471 0.000000 0.004991 0.000000
# 4 0.000000 0.000000 0.000000 0.111689 0.000000 -0.012044
# 5 0.005175 0.001140 0.004991 0.000000 0.033576 0.000000
# 6 0.000000 0.000000 0.000000 -0.012044 0.000000 0.025438
#
#
# Mechanical properties :
#
#
# Convention : Reuss Voigt Hill
#
# Bulk Modulus (GPa) = 18.02787 23.59193 20.80990
# Shear Modulus (GPa) = 20.73305 30.27947 25.50626
#
# Velocity S-wave (km/s) = 3.05796 3.69551 3.39175
# Velocity P-wave (km/s) = 4.53863 5.37119 4.97237
#
# Compressibility (1/GPa) = 0.05546968
#
# Stress axis : x y z
#
# Youngs Moduli (GPa) = 75.74231 90.53396 33.93176
#
# Poissons Ratio (x) = 0.03032 -0.02566
# Poissons Ratio (y) = 0.02536 -0.01540
# Poissons Ratio (z) = -0.05727 -0.04110
#
# Static dielectric constant tensor:
#      x y z
#    x 4.367010 0.000000 -0.555970 
#    y 0.000000 4.759420 0.000000 
#    z -0.555970 0.000000 4.277900 
# 
# 
# High freq. dielectric constant tensor:
#      x y z
#    x 1.869480 0.000000 -0.013400 
#    y 0.000000 1.868740 0.000000 
#    z -0.013400 0.000000 1.857920 
# 
# From -- ./inp_files/209225.got.cif
#   From: 2010.06.25/outbox.cif.g09.slc.cpg/sg15_105_cif.got.tgz:209225.got - 2010.06.28 07:06:18.
