data_PCOD8136679
_publ_section_title
;
Structure prediction by ZEFSAII (Michael W. Deem and Ramdas Pophale) SiO2 
 PCOD8136679
Probable space group: C 2/C
;
_chemical_formula_sum "Si O2"
_cell_formula_units_Z 56
_cell_length_a 17.396277
_cell_length_b 18.412039
_cell_length_c 16.751817
_cell_angle_alpha 90.000000
_cell_angle_beta 31.794908
_cell_angle_gamma 90.000000
_cell_volume 2827.040625
_symmetry_space_group_name_H-M "C 2/C"
_symmetry_group_IT_number 15
_symmetry_cell_setting 'monoclinic'
loop_
_space_group_symop_operation_xyz
x,y,z
-x,y,1/2-z
-x,-y,-z
x,-y,1/2+z
1/2+x,1/2+y,z
1/2-x,1/2+y,1/2-z
1/2-x,1/2-y,-z
1/2+x,1/2-y,1/2+z
loop_
_atom_site_type_symbol
_atom_site_label
_atom_site_fract_x
_atom_site_fract_y
_atom_site_fract_z
Si Si1 0.327368 0.816097 0.384138
Si Si2 0.152404 0.660673 0.126133
Si Si3 0.717704 0.272070 0.313000
Si Si4 0.093048 0.929631 0.593862
Si Si5 0.061499 0.841027 0.895951
Si Si6 0.913153 0.915159 0.469128
Si Si7 0.164879 0.184160 0.687352
O O1 0.500000 0.819243 0.250000
O O2 0.250000 0.750000 0.500000
O O3 0.306864 0.810172 0.306372
O O4 0.248228 0.892114 0.479358
O O5 0.109785 0.738265 0.203348
O O6 0.000000 0.618097 0.250000
O O7 0.256876 0.621195 0.095248
O O8 0.217645 0.658149 0.979901
O O9 0.774585 0.189283 0.256962
O O10 0.544459 0.274021 0.483900
O O11 0.743093 0.311009 0.204968
O O12 0.000000 0.957086 0.750000
O O13 0.993257 0.869208 0.640083
O O14 0.109226 0.000027 0.525028
O O15 0.048390 0.905335 0.971824
O O16 0.031209 0.873560 0.309227
#
# Coordination Sequence:
#
# PCOD8136679 Si02
#       7
#     8   8   8   8   8   8   8
#     4  11  22  40  63  91 119 152 203 254 299 350
#     4  11  21  33  55  84 118 150 192 239 288 352
#     4  10  20  34  59  87 114 148 190 245 299 343
#     4  11  23  39  60  84 119 163 200 247 304 351
#     4  10  21  37  60  88 115 150 201 250 293 359
#     4  11  22  39  58  84 120 160 198 239 300 366
#     4  10  20  35  55  83 116 150 193 238 288 357
#
# _framework density 19.808700999999999
#
# number of rings (size 3 to 8) (size 9 to 14) (size 15 to 20)
#    0.000    1.429    1.429    6.429    2.000    0.571 
#    0.000    0.000    0.000    0.000    0.000   15.000 
#    0.000    0.000    0.000    0.000    0.000    0.000 
#
# Total GULP energy -346980.458534 kJ/mol
# GULP energy per Si atom -12392.159233 kJ/mol
# Density = 1.976362 g / cm^3
# Si number density = 19.808701 Si / 1000 Ang^3
#
#
#
# Elastic Constant Matrix: (Units=GPa)
#
#
# Indices 1 2 3 4 5 6 
#
# 1 103.4314 10.4177 40.0202 -0.0021 -8.5830 0.0004
# 2 10.4177 94.3284 35.1759 -0.0056 -16.5713 0.0026
# 3 40.0202 35.1759 80.9932 -0.0076 -20.6361 0.0028
# 4 -0.0021 -0.0056 -0.0076 22.2135 0.0036 1.0965
# 5 -8.5830 -16.5713 -20.6361 0.0036 34.7239 -0.0018
# 6 0.0004 0.0026 0.0028 1.0965 -0.0018 22.8489
#
#
#
# Elastic Compliance Matrix: (Units=1/GPa)
#
#
# Indices 1 2 3 4 5 6 
#
# 1 0.012046 0.001023 -0.006497 -0.000001 -0.000396 0.000000
# 2 0.001023 0.013059 -0.005332 0.000001 0.003316 -0.000001
# 3 -0.006497 -0.005332 0.019816 0.000004 0.007626 -0.000001
# 4 -0.000001 0.000001 0.000004 0.045125 -0.000002 -0.002165
# 5 -0.000396 0.003316 0.007626 -0.000002 0.034815 0.000002
# 6 0.000000 -0.000001 -0.000001 -0.002165 0.000002 0.043870
#
#
# Mechanical properties :
#
#
# Convention : Reuss Voigt Hill
#
# Bulk Modulus (GPa) = 42.90311 49.99785 46.45048
# Shear Modulus (GPa) = 25.23795 28.83320 27.03558
#
# Velocity S-wave (km/s) = 3.57330 3.81935 3.69837
# Velocity P-wave (km/s) = 6.22338 6.68917 6.46047
#
# Compressibility (1/GPa) = 0.02330833
#
# Stress axis : x y z
#
# Youngs Moduli (GPa) = 83.01238 76.57359 50.46424
#
# Poissons Ratio (x) = -0.07834 0.32789
# Poissons Ratio (y) = -0.08493 0.26909
# Poissons Ratio (z) = 0.53937 0.40832
#
# Static dielectric constant tensor:
#      x y z
#    x 3.839200 0.000000 0.007230 
#    y 0.000000 3.355180 0.000010 
#    z 0.007230 0.000010 3.689180 
# 
# 
# High freq. dielectric constant tensor:
#      x y z
#    x 1.793270 0.000000 0.006340 
#    y 0.000000 1.739130 0.000000 
#    z 0.006340 0.000000 1.771880 
# 
# From -- ./inp_files/211871.got.cif
#   From: 2010.06.25/outbox.cif.g09.slc.cpg/sg15_106_cif.got.tgz:211871.got - 2010.06.28 07:06:18.
