data_PCOD8136123
_publ_section_title
;
Structure prediction by ZEFSAII (Michael W. Deem and Ramdas Pophale) SiO2 
 PCOD8136123
Probable space group: C 2/C
;
_chemical_formula_sum "Si O2"
_cell_formula_units_Z 60
_cell_length_a 18.553241
_cell_length_b 9.166822
_cell_length_c 21.147842
_cell_angle_alpha 90.000000
_cell_angle_beta 51.161901
_cell_angle_gamma 90.000000
_cell_volume 2801.548381
_symmetry_space_group_name_H-M "C 2/C"
_symmetry_group_IT_number 15
_symmetry_cell_setting 'monoclinic'
loop_
_space_group_symop_operation_xyz
x,y,z
-x,y,1/2-z
-x,-y,-z
x,-y,1/2+z
1/2+x,1/2+y,z
1/2-x,1/2+y,1/2-z
1/2-x,1/2-y,-z
1/2+x,1/2-y,1/2+z
loop_
_atom_site_type_symbol
_atom_site_label
_atom_site_fract_x
_atom_site_fract_y
_atom_site_fract_z
Si Si1 0.647612 0.032656 0.707912
Si Si2 0.709746 0.953167 0.809477
Si Si3 0.000000 0.697103 0.250000
Si Si4 0.539327 0.569087 0.628645
Si Si5 0.827401 0.014954 0.047810
Si Si6 0.907080 0.827851 0.715813
Si Si7 0.102950 0.285950 0.418088
Si Si8 0.073265 0.790975 0.419174
O O1 0.719220 0.028733 0.609694
O O2 0.597786 0.189938 0.734048
O O3 0.706724 0.014507 0.739824
O O4 0.573856 0.903468 0.744648
O O5 0.815062 0.926827 0.771615
O O6 0.655625 0.801033 0.843426
O O7 0.663622 0.067108 0.883335
O O8 0.948402 0.797311 0.329858
O O9 0.639800 0.533265 0.543121
O O10 0.494883 0.427559 0.687396
O O11 0.467880 0.605684 0.611987
O O12 0.890836 0.891464 0.044118
O O13 0.835682 0.166535 0.080352
O O14 0.922487 0.765456 0.637701
O O15 0.007628 0.313523 0.508798
#
# Coordination Sequence:
#
# PCOD8136123 Si02
#       8
#     8   8   4   8   8   8   8   8
#     4  11  24  40  62  88 127 166 210 252 300 371
#     4  11  21  33  61  99 125 157 194 259 321 370
#     4  12  28  44  64  84 118 176 222 250 288 370
#     4  11  23  41  63  90 125 165 209 250 305 374
#     4  11  20  39  65  93 127 158 198 262 323 367
#     4  11  21  37  64  94 125 157 198 264 316 366
#     4  10  20  31  56  97 129 154 187 245 329 376
#     4  11  18  38  60  96 128 157 194 257 328 366
#
# _framework density 21.416729
#
# number of rings (size 3 to 8) (size 9 to 14) (size 15 to 20)
#    0.000    1.067    6.667    1.200    3.733    1.067 
#    0.000    0.000    0.000    1.600    0.000    0.000 
#    0.000    0.000    0.000    0.000    0.000    0.000 
#
# Total GULP energy -372098.787823 kJ/mol
# GULP energy per Si atom -12403.292927 kJ/mol
# Density = 2.136798 g / cm^3
# Si number density = 21.416729 Si / 1000 Ang^3
#
#
#
# Elastic Constant Matrix: (Units=GPa)
#
#
# Indices 1 2 3 4 5 6 
#
# 1 19.7385 20.4182 21.4283 0.0000 -0.2108 0.0001
# 2 20.4182 119.7637 49.0898 0.0000 -5.5479 0.0002
# 3 21.4283 49.0898 122.8033 0.0000 -20.8621 0.0000
# 4 0.0000 0.0000 0.0000 39.7145 0.0000 -5.1950
# 5 -0.2108 -5.5479 -20.8621 0.0000 16.4783 0.0000
# 6 0.0001 0.0002 0.0000 -5.1950 0.0000 19.2375
#
#
#
# Elastic Compliance Matrix: (Units=1/GPa)
#
#
# Indices 1 2 3 4 5 6 
#
# 1 0.072205 -0.008061 -0.012334 0.000000 -0.017405 0.000000
# 2 -0.008061 0.010946 -0.003007 0.000000 -0.000225 0.000000
# 3 -0.012334 -0.003007 0.014395 0.000000 0.017054 0.000000
# 4 0.000000 0.000000 0.000000 0.026102 0.000000 0.007049
# 5 -0.017405 -0.000225 0.017054 0.000000 0.081978 0.000000
# 6 0.000000 0.000000 0.000000 0.007049 0.000000 0.053885
#
#
# Mechanical properties :
#
#
# Convention : Reuss Voigt Hill
#
# Bulk Modulus (GPa) = 19.70773 49.35312 34.53043
# Shear Modulus (GPa) = 15.46893 26.51066 20.98979
#
# Velocity S-wave (km/s) = 2.69045 3.52212 3.13400
# Velocity P-wave (km/s) = 4.34435 6.29561 5.40870
#
# Compressibility (1/GPa) = 0.05074151
#
# Stress axis : x y z
#
# Youngs Moduli (GPa) = 13.84955 91.35504 69.47049
#
# Poissons Ratio (x) = 0.73639 0.85683
# Poissons Ratio (y) = 0.11164 0.20893
# Poissons Ratio (z) = 0.17082 0.27474
#
# Static dielectric constant tensor:
#      x y z
#    x 3.321920 0.000000 -0.203740 
#    y 0.000000 4.035050 0.000000 
#    z -0.203740 0.000000 4.137040 
# 
# 
# High freq. dielectric constant tensor:
#      x y z
#    x 1.794060 0.000000 -0.019730 
#    y 0.000000 1.852080 0.000000 
#    z -0.019730 0.000000 1.853140 
# 
# From -- ./inp_files/252105.got.cif
#   From: 2010.06.25/outbox.cif.g09.slc.cpg/sg15_127_cif.got.tgz:252105.got - 2010.06.28 07:06:18.
