data_PCOD8136767
_publ_section_title
;
Structure prediction by ZEFSAII (Michael W. Deem and Ramdas Pophale) SiO2 
 PCOD8136767
Probable space group: C 2/C
;
_chemical_formula_sum "Si O2"
_cell_formula_units_Z 40
_cell_length_a 9.722090
_cell_length_b 22.505156
_cell_length_c 8.363420
_cell_angle_alpha 90.000000
_cell_angle_beta 94.649383
_cell_angle_gamma 90.000000
_cell_volume 1823.871006
_symmetry_space_group_name_H-M "C 2/C"
_symmetry_group_IT_number 15
_symmetry_cell_setting 'monoclinic'
loop_
_space_group_symop_operation_xyz
x,y,z
-x,y,1/2-z
-x,-y,-z
x,-y,1/2+z
1/2+x,1/2+y,z
1/2-x,1/2+y,1/2-z
1/2-x,1/2-y,-z
1/2+x,1/2-y,1/2+z
loop_
_atom_site_type_symbol
_atom_site_label
_atom_site_fract_x
_atom_site_fract_y
_atom_site_fract_z
Si Si1 0.781620 0.266356 0.181780
Si Si2 0.500000 0.133535 0.750000
Si Si3 0.000000 0.728563 0.250000
Si Si4 0.000000 0.980530 0.250000
Si Si5 0.931874 0.614501 0.084641
Si Si6 0.000000 0.170349 0.250000
Si Si7 0.119249 0.079065 0.049411
O O1 0.861509 0.327332 0.220633
O O2 0.632778 0.270956 0.252426
O O3 0.864910 0.210057 0.254761
O O4 0.750000 0.250000 0.000000
O O5 0.514851 0.093627 0.587888
O O6 0.025314 0.684855 0.405738
O O7 0.095301 0.937419 0.364084
O O8 0.104027 0.019526 0.153582
O O9 0.770207 0.605450 0.087504
O O10 0.000000 0.582897 0.250000
O O11 0.995342 0.127520 0.405372
#
# Coordination Sequence:
#
# PCOD8136767 Si02
#       7
#     8   4   4   4   8   4   8
#     4  11  21  36  56  89 127 169 216 256 292 358
#     4  11  24  37  62  91 126 172 225 245 302 369
#     4  10  20  38  57  81 123 173 199 259 306 340
#     4   9  22  41  67  94 116 154 202 274 316 409
#     4  10  21  41  61  89 126 167 202 263 309 378
#     4  10  20  34  64  84 121 169 198 258 306 360
#     4  10  20  42  65  92 122 154 209 259 333 378
#
# _framework density 21.931377000000001
#
# number of rings (size 3 to 8) (size 9 to 14) (size 15 to 20)
#    0.600    1.200    4.000    0.000    0.000    4.000 
#    7.200    1.000    6.600    0.000    0.000    0.000 
#    0.000    0.000    0.000    0.000    0.000    0.000 
#
# Total GULP energy -247791.372887 kJ/mol
# GULP energy per Si atom -12389.568644 kJ/mol
# Density = 2.188146 g / cm^3
# Si number density = 21.931377 Si / 1000 Ang^3
#
#
#
# Elastic Constant Matrix: (Units=GPa)
#
#
# Indices 1 2 3 4 5 6 
#
# 1 146.1853 22.8776 31.8096 0.0000 0.5893 0.0000
# 2 22.8776 39.8908 16.7774 0.0000 6.3034 0.0000
# 3 31.8096 16.7774 151.0798 0.0000 3.2801 0.0000
# 4 0.0000 0.0000 0.0000 8.0614 0.0000 -1.6834
# 5 0.5893 6.3034 3.2801 0.0000 32.1491 0.0000
# 6 0.0000 0.0000 0.0000 -1.6834 0.0000 15.2765
#
#
#
# Elastic Compliance Matrix: (Units=1/GPa)
#
#
# Indices 1 2 3 4 5 6 
#
# 1 0.007732 -0.004054 -0.001195 0.000000 0.000775 0.000000
# 2 -0.004054 0.029206 -0.002272 0.000000 -0.005420 0.000000
# 3 -0.001195 -0.002272 0.007128 0.000000 -0.000260 0.000000
# 4 0.000000 0.000000 0.000000 0.126970 0.000000 0.013992
# 5 0.000775 -0.005420 -0.000260 0.000000 0.032180 0.000000
# 6 0.000000 0.000000 0.000000 0.013992 0.000000 0.067002
#
#
# Mechanical properties :
#
#
# Convention : Reuss Voigt Hill
#
# Bulk Modulus (GPa) = 34.45388 53.34278 43.89833
# Shear Modulus (GPa) = 16.95290 28.81015 22.88153
#
# Velocity S-wave (km/s) = 2.78330 3.62836 3.23356
# Velocity P-wave (km/s) = 5.10617 6.47524 5.83103
#
# Compressibility (1/GPa) = 0.02902430
#
# Stress axis : x y z
#
# Youngs Moduli (GPa) = 129.33370 34.23994 140.28258
#
# Poissons Ratio (x) = 0.13882 0.16757
# Poissons Ratio (y) = 0.52437 0.31872
# Poissons Ratio (z) = 0.15449 0.07779
#
# Static dielectric constant tensor:
#      x y z
#    x 0.943120 0.000000 2.416780 
#    y 0.000000 3.581820 0.000000 
#    z 2.416780 0.000000 2.272490 
# 
# 
# High freq. dielectric constant tensor:
#      x y z
#    x 1.863720 0.000000 -0.001430 
#    y 0.000000 1.821270 0.000000 
#    z -0.001430 0.000000 1.874210 
# 
# From -- ./inp_files/23716.got.cif
#   From: 2010.06.25/outbox.cif.g09.slc.cpg/sg15_12_cif.got.tgz:23716.got - 2010.06.28 07:06:18.
