data_PCOD8136530
_publ_section_title
;
Structure prediction by ZEFSAII (Michael W. Deem and Ramdas Pophale) SiO2 
 PCOD8136530
Probable space group: C 2/C
;
_chemical_formula_sum "Si O2"
_cell_formula_units_Z 64
_cell_length_a 27.379913
_cell_length_b 12.336055
_cell_length_c 9.381943
_cell_angle_alpha 90.000000
_cell_angle_beta 70.863269
_cell_angle_gamma 90.000000
_cell_volume 2993.732348
_symmetry_space_group_name_H-M "C 2/C"
_symmetry_group_IT_number 15
_symmetry_cell_setting 'monoclinic'
loop_
_space_group_symop_operation_xyz
x,y,z
-x,y,1/2-z
-x,-y,-z
x,-y,1/2+z
1/2+x,1/2+y,z
1/2-x,1/2+y,1/2-z
1/2-x,1/2-y,-z
1/2+x,1/2-y,1/2+z
loop_
_atom_site_type_symbol
_atom_site_label
_atom_site_fract_x
_atom_site_fract_y
_atom_site_fract_z
Si Si1 0.626454 0.658050 0.672402
Si Si2 0.378183 0.842615 0.331114
Si Si3 0.295159 0.030805 0.762586
Si Si4 0.057260 0.552875 0.206865
Si Si5 0.260254 0.377912 0.459824
Si Si6 0.519829 0.595944 0.885128
Si Si7 0.124276 0.648275 0.360441
Si Si8 0.065654 0.254578 0.485953
O O1 0.678804 0.589893 0.606870
O O2 0.582404 0.608644 0.821204
O O3 0.646882 0.771654 0.718777
O O4 0.602065 0.672173 0.538728
O O5 0.321465 0.868799 0.323116
O O6 0.377259 0.785911 0.487805
O O7 0.411934 0.768421 0.193920
O O8 0.403742 0.956013 0.348890
O O9 0.263594 0.088159 0.667981
O O10 0.339476 0.956014 0.652267
O O11 0.260299 0.955394 0.895773
O O12 0.068303 0.611203 0.349106
O O13 0.000000 0.506388 0.250000
O O14 0.065921 0.631340 0.064874
O O15 0.250000 0.250000 0.500000
O O16 0.500000 0.565322 0.750000
O O17 0.500000 0.500000 0.000000
O O18 0.492800 0.707813 0.963977
#
# Coordination Sequence:
#
# PCOD8136530 Si02
#       8
#     8   8   8   8   8   8   8   8
#     4  10  22  42  67  92 128 180 226 273 346 405
#     4  11  22  35  62  94 132 171 215 277 334 398
#     4  11  23  42  64  99 135 175 234 281 344 411
#     4  10  20  34  55  87 130 173 213 259 329 408
#     4  12  24  43  71  97 134 186 230 290 356 409
#     4  10  23  43  68  94 132 176 221 276 330 394
#     4  10  20  38  60  89 127 171 219 276 328 402
#     4  10  21  40  63  94 129 175 220 268 342 405
#
# _framework density 21.377997000000001
#
# number of rings (size 3 to 8) (size 9 to 14) (size 15 to 20)
#    0.000    1.500    2.500    4.125    1.750    6.000 
#    0.000    3.750    0.000    0.000    0.000    0.000 
#    0.000    0.000    0.000    0.000    0.000    0.000 
#
# Total GULP energy -396578.944862 kJ/mol
# GULP energy per Si atom -12393.092027 kJ/mol
# Density = 2.132934 g / cm^3
# Si number density = 21.377997 Si / 1000 Ang^3
#
#
#
# Elastic Constant Matrix: (Units=GPa)
#
#
# Indices 1 2 3 4 5 6 
#
# 1 131.5085 28.4545 53.1190 0.0000 -16.7743 0.0000
# 2 28.4545 61.1742 35.5104 0.0000 -4.9447 0.0000
# 3 53.1190 35.5104 130.3468 0.0000 0.3094 0.0000
# 4 0.0000 0.0000 0.0000 38.6572 0.0000 -2.9171
# 5 -16.7743 -4.9447 0.3094 0.0000 32.5337 0.0000
# 6 0.0000 0.0000 0.0000 -2.9171 0.0000 27.4095
#
#
#
# Elastic Compliance Matrix: (Units=1/GPa)
#
#
# Indices 1 2 3 4 5 6 
#
# 1 0.010149 -0.002275 -0.003528 0.000000 0.004920 0.000000
# 2 -0.002275 0.020225 -0.004587 0.000000 0.001945 0.000000
# 3 -0.003528 -0.004587 0.010365 0.000000 -0.002615 0.000000
# 4 0.000000 0.000000 0.000000 0.026078 0.000000 0.002775
# 5 0.004920 0.001945 -0.002615 0.000000 0.033595 0.000000
# 6 0.000000 0.000000 0.000000 0.002775 0.000000 0.036779
#
#
# Mechanical properties :
#
#
# Convention : Reuss Voigt Hill
#
# Bulk Modulus (GPa) = 50.10301 61.91080 56.00691
# Shear Modulus (GPa) = 30.37214 33.44977 31.91095
#
# Velocity S-wave (km/s) = 3.77333 3.95990 3.86774
# Velocity P-wave (km/s) = 6.51703 7.06616 6.79714
#
# Compressibility (1/GPa) = 0.01995888
#
# Stress axis : x y z
#
# Youngs Moduli (GPa) = 98.53284 49.44360 96.47465
#
# Poissons Ratio (x) = 0.11249 0.34034
# Poissons Ratio (y) = 0.22418 0.44256
# Poissons Ratio (z) = 0.34760 0.22682
#
# Static dielectric constant tensor:
#      x y z
#    x 4.176820 0.000000 0.058110 
#    y 0.000000 3.537010 0.000000 
#    z 0.058110 0.000000 3.949240 
# 
# 
# High freq. dielectric constant tensor:
#      x y z
#    x 1.845230 0.000000 0.004310 
#    y 0.000000 1.808560 0.000000 
#    z 0.004310 0.000000 1.843460 
# 
# From -- ./inp_files/66197.got.cif
#   From: 2010.06.25/outbox.cif.g09.slc.cpg/sg15_34_cif.got.tgz:66197.got - 2010.06.28 07:06:18.
