data_PCOD8136434
_publ_section_title
;
Structure prediction by ZEFSAII (Michael W. Deem and Ramdas Pophale) SiO2 
 PCOD8136434
Probable space group: C 2/C
;
_chemical_formula_sum "Si O2"
_cell_formula_units_Z 60
_cell_length_a 21.394305
_cell_length_b 14.681584
_cell_length_c 8.646872
_cell_angle_alpha 90.000000
_cell_angle_beta 86.251040
_cell_angle_gamma 90.000000
_cell_volume 2710.190316
_symmetry_space_group_name_H-M "C 2/C"
_symmetry_group_IT_number 15
_symmetry_cell_setting 'monoclinic'
loop_
_space_group_symop_operation_xyz
x,y,z
-x,y,1/2-z
-x,-y,-z
x,-y,1/2+z
1/2+x,1/2+y,z
1/2-x,1/2+y,1/2-z
1/2-x,1/2-y,-z
1/2+x,1/2-y,1/2+z
loop_
_atom_site_type_symbol
_atom_site_label
_atom_site_fract_x
_atom_site_fract_y
_atom_site_fract_z
Si Si1 0.500000 0.021231 0.250000
Si Si2 0.106837 0.951196 0.716745
Si Si3 0.302115 0.268528 0.362280
Si Si4 0.571377 0.097910 0.960386
Si Si5 0.195387 0.428447 0.616734
Si Si6 0.234260 0.951192 0.189953
Si Si7 0.039061 0.081056 0.928884
Si Si8 0.426408 0.305018 0.518356
O O1 0.521663 0.084788 0.106334
O O2 0.555463 0.957789 0.307764
O O3 0.094467 0.909535 0.548370
O O4 0.087331 0.874579 0.841499
O O5 0.179729 0.974952 0.721952
O O6 0.067911 0.046445 0.758943
O O7 0.250000 0.250000 0.500000
O O8 0.310698 0.167705 0.287390
O O9 0.279819 0.347549 0.245803
O O10 0.368904 0.307195 0.408819
O O11 0.636731 0.060405 0.013590
O O12 0.570586 0.203529 0.912663
O O13 0.255987 0.436164 0.495064
O O14 0.203178 0.509963 0.738351
O O15 0.993528 0.169706 0.925606
O O16 0.000000 0.000000 0.000000
#
# Coordination Sequence:
#
# PCOD8136434 Si02
#       8
#     4   8   8   8   8   8   8   8
#     4  10  22  42  66  90 120 156 212 266 322 364
#     4  11  21  35  56  88 125 164 201 241 301 377
#     4   9  19  36  56  84 113 155 205 247 297 369
#     4  10  22  41  65  91 120 156 211 264 312 371
#     4  10  21  38  63  89 118 162 207 252 315 365
#     4  11  20  37  63  85 123 164 204 253 306 366
#     4  10  20  34  51  81 121 159 197 238 295 364
#     4  10  20  36  58  86 121 160 197 247 310 368
#
# _framework density 22.138667000000002
#
# number of rings (size 3 to 8) (size 9 to 14) (size 15 to 20)
#    0.000    1.867    0.000    6.400    1.867    0.000 
#    9.600    0.667    0.000    0.000    0.000    0.000 
#    0.000    0.000    0.000    0.000    0.000    0.000 
#
# Total GULP energy -371642.005265 kJ/mol
# GULP energy per Si atom -12388.066842 kJ/mol
# Density = 2.208828 g / cm^3
# Si number density = 22.138667 Si / 1000 Ang^3
#
#
#
# Elastic Constant Matrix: (Units=GPa)
#
#
# Indices 1 2 3 4 5 6 
#
# 1 95.6326 47.1926 17.9203 0.0000 17.7807 0.0000
# 2 47.1926 131.8074 47.4037 0.0000 29.7932 0.0000
# 3 17.9203 47.4037 65.2422 0.0000 13.4253 0.0000
# 4 0.0000 0.0000 0.0000 29.7337 0.0000 7.9086
# 5 17.7807 29.7932 13.4253 0.0000 33.8193 0.0000
# 6 0.0000 0.0000 0.0000 7.9086 0.0000 36.1627
#
#
#
# Elastic Compliance Matrix: (Units=1/GPa)
#
#
# Indices 1 2 3 4 5 6 
#
# 1 0.013010 -0.003864 -0.000064 0.000000 -0.003410 0.000000
# 2 -0.003864 0.012991 -0.007014 0.000000 -0.006629 0.000000
# 3 -0.000064 -0.007014 0.020867 0.000000 -0.002071 0.000000
# 4 0.000000 0.000000 0.000000 0.035709 0.000000 -0.007809
# 5 -0.003410 -0.006629 -0.002071 0.000000 0.038024 0.000000
# 6 0.000000 0.000000 0.000000 -0.007809 0.000000 0.029361
#
#
# Mechanical properties :
#
#
# Convention : Reuss Voigt Hill
#
# Bulk Modulus (GPa) = 40.02498 57.52393 48.77445
# Shear Modulus (GPa) = 27.75107 31.95418 29.85262
#
# Velocity S-wave (km/s) = 3.54434 3.80329 3.67609
# Velocity P-wave (km/s) = 5.90493 6.73250 6.33225
#
# Compressibility (1/GPa) = 0.02498440
#
# Stress axis : x y z
#
# Youngs Moduli (GPa) = 76.86620 76.97583 47.92181
#
# Poissons Ratio (x) = 0.29744 0.00307
# Poissons Ratio (y) = 0.29702 0.33611
# Poissons Ratio (z) = 0.00492 0.53988
#
# Static dielectric constant tensor:
#      x y z
#    x 4.534720 0.000000 0.299560 
#    y 0.000000 4.625800 0.000000 
#    z 0.299560 0.000000 -7.601650 
# 
# 
# High freq. dielectric constant tensor:
#      x y z
#    x 1.881320 0.000000 0.008280 
#    y 0.000000 1.872150 0.000000 
#    z 0.008280 0.000000 1.839780 
# 
# From -- ./inp_files/61589.got.cif
#   From: 2010.06.25/outbox.cif.g09.slc.cpg/sg15_31_cif.got.tgz:61589.got - 2010.06.28 07:06:18.
