data_PCOD8136166
_publ_section_title
;
Structure prediction by ZEFSAII (Michael W. Deem and Ramdas Pophale) SiO2 
 PCOD8136166
Probable space group: C 2/C
;
_chemical_formula_sum "Si O2"
_cell_formula_units_Z 60
_cell_length_a 15.718996
_cell_length_b 8.948215
_cell_length_c 25.031711
_cell_angle_alpha 90.000000
_cell_angle_beta 118.062596
_cell_angle_gamma 90.000000
_cell_volume 3106.948570
_symmetry_space_group_name_H-M "C 2/C"
_symmetry_group_IT_number 15
_symmetry_cell_setting 'monoclinic'
loop_
_space_group_symop_operation_xyz
x,y,z
-x,y,1/2-z
-x,-y,-z
x,-y,1/2+z
1/2+x,1/2+y,z
1/2-x,1/2+y,1/2-z
1/2-x,1/2-y,-z
1/2+x,1/2-y,1/2+z
loop_
_atom_site_type_symbol
_atom_site_label
_atom_site_fract_x
_atom_site_fract_y
_atom_site_fract_z
Si Si1 0.354008 0.055562 0.150456
Si Si2 0.966004 0.094959 0.065164
Si Si3 0.941590 0.862879 0.148288
Si Si4 0.150642 0.201018 0.678711
Si Si5 0.810725 0.513614 0.256859
Si Si6 0.000000 0.922087 0.750000
Si Si7 0.982800 0.682012 0.831401
Si Si8 0.855084 0.062297 0.929890
O O1 0.356702 0.069835 0.215034
O O2 0.432778 0.929835 0.160890
O O3 0.250855 0.007489 0.096927
O O4 0.373577 0.218095 0.130369
O O5 0.981729 0.245401 0.103078
O O6 0.925883 0.958620 0.089719
O O7 0.885396 0.126116 0.996480
O O8 0.068327 0.060629 0.067668
O O9 0.050047 0.799614 0.179974
O O10 0.925611 0.969683 0.195653
O O11 0.210262 0.347573 0.710962
O O12 0.207187 0.056042 0.715473
O O13 0.142530 0.197886 0.612023
O O14 0.883628 0.406270 0.310313
O O15 0.954463 0.811937 0.780702
#
# Coordination Sequence:
#
# PCOD8136166 Si02
#       8
#     8   8   8   8   8   4   8   8
#     4  11  21  36  59  85 119 146 187 238 301 328
#     4   9  21  41  61  79 114 152 203 228 280 339
#     4  10  20  35  57  86 113 153 185 239 283 345
#     4  10  22  35  59  81 117 150 189 228 291 338
#     4  11  22  35  55  87 118 149 184 238 287 353
#     4  10  20  32  52  82 118 144 186 220 292 338
#     4  11  21  36  57  84 115 153 183 241 285 342
#     4   9  21  41  61  80 112 157 193 240 277 335
#
# _framework density 19.311553
#
# number of rings (size 3 to 8) (size 9 to 14) (size 15 to 20)
#    0.000    1.867    2.667    0.800    7.467    1.067 
#    0.000    0.667    0.000    0.000    0.000    0.000 
#    0.000    0.000    0.000    0.000    0.000    0.000 
#
# Total GULP energy -371901.363823 kJ/mol
# GULP energy per Si atom -12396.712127 kJ/mol
# Density = 1.926760 g / cm^3
# Si number density = 19.311553 Si / 1000 Ang^3
#
#
#
# Elastic Constant Matrix: (Units=GPa)
#
#
# Indices 1 2 3 4 5 6 
#
# 1 47.9225 6.4577 17.6881 0.0000 6.5256 0.0000
# 2 6.4577 68.1031 42.8632 0.0000 -8.1235 0.0000
# 3 17.6881 42.8632 137.4246 0.0000 1.1706 0.0000
# 4 0.0000 0.0000 0.0000 26.1464 0.0000 -0.7251
# 5 6.5256 -8.1235 1.1706 0.0000 21.2106 0.0000
# 6 0.0000 0.0000 0.0000 -0.7251 0.0000 23.4824
#
#
#
# Elastic Compliance Matrix: (Units=1/GPa)
#
#
# Indices 1 2 3 4 5 6 
#
# 1 0.022993 -0.001565 -0.002407 0.000000 -0.007540 0.000000
# 2 -0.001565 0.019586 -0.005978 0.000000 0.008313 0.000000
# 3 -0.002407 -0.005978 0.009469 0.000000 -0.002072 0.000000
# 4 0.000000 0.000000 0.000000 0.038279 0.000000 0.001182
# 5 -0.007540 0.008313 -0.002072 0.000000 0.052764 0.000000
# 6 0.000000 0.000000 0.000000 0.001182 0.000000 0.042622
#
#
# Mechanical properties :
#
#
# Convention : Reuss Voigt Hill
#
# Bulk Modulus (GPa) = 31.10638 43.05201 37.07920
# Shear Modulus (GPa) = 23.11288 26.59729 24.85509
#
# Velocity S-wave (km/s) = 3.46329 3.71519 3.59145
# Velocity P-wave (km/s) = 5.66879 6.38320 6.03657
#
# Compressibility (1/GPa) = 0.03214774
#
# Stress axis : x y z
#
# Youngs Moduli (GPa) = 43.49123 51.05610 105.60883
#
# Poissons Ratio (x) = 0.07988 0.25423
# Poissons Ratio (y) = 0.06805 0.63138
# Poissons Ratio (z) = 0.10469 0.30524
#
# Static dielectric constant tensor:
#      x y z
#    x 3.370120 0.000000 -0.051330 
#    y 0.000000 3.583510 0.000000 
#    z -0.051330 0.000000 3.653140 
# 
# 
# High freq. dielectric constant tensor:
#      x y z
#    x 1.741130 0.000000 -0.000410 
#    y 0.000000 1.751420 0.000000 
#    z -0.000410 0.000000 1.748640 
# 
# From -- ./inp_files/247449.got.cif
#   From: 2010.06.25/outbox.cif.g09.slc.cpg/sg15_124_cif.got.tgz:247449.got - 2010.06.28 07:06:18.
