data_PCOD8136821
_publ_section_title
;
Structure prediction by ZEFSAII (Michael W. Deem and Ramdas Pophale) SiO2 
 PCOD8136821
Probable space group: C 2/C
;
_chemical_formula_sum "Si O2"
_cell_formula_units_Z 52
_cell_length_a 13.600699
_cell_length_b 25.024938
_cell_length_c 8.081073
_cell_angle_alpha 90.000000
_cell_angle_beta 81.860861
_cell_angle_gamma 90.000000
_cell_volume 2722.742162
_symmetry_space_group_name_H-M "C 2/C"
_symmetry_group_IT_number 15
_symmetry_cell_setting 'monoclinic'
loop_
_space_group_symop_operation_xyz
x,y,z
-x,y,1/2-z
-x,-y,-z
x,-y,1/2+z
1/2+x,1/2+y,z
1/2-x,1/2+y,1/2-z
1/2-x,1/2-y,-z
1/2+x,1/2-y,1/2+z
loop_
_atom_site_type_symbol
_atom_site_label
_atom_site_fract_x
_atom_site_fract_y
_atom_site_fract_z
Si Si1 0.298593 0.249729 0.228999
Si Si2 0.895496 0.529406 0.563187
Si Si3 0.098191 0.265301 0.461765
Si Si4 0.165215 0.429757 0.064749
Si Si5 0.196814 0.163788 0.043697
Si Si6 0.000000 0.815178 0.750000
Si Si7 0.015510 0.371962 0.562994
O O1 0.199113 0.270043 0.337385
O O2 0.278823 0.192785 0.142223
O O3 0.383596 0.243913 0.346938
O O4 0.333313 0.294892 0.092821
O O5 0.810839 0.485736 0.537536
O O6 0.877872 0.551380 0.750185
O O7 0.000000 0.500000 0.500000
O O8 0.896774 0.582983 0.450811
O O9 0.028114 0.220051 0.403145
O O10 0.045155 0.321722 0.444634
O O11 0.262529 0.391919 0.043010
O O12 0.081942 0.396167 0.993363
O O13 0.096112 0.150097 0.171632
O O14 0.000000 0.350818 0.750000
#
# Coordination Sequence:
#
# PCOD8136821 Si02
#       7
#     8   8   8   8   8   4   8
#     4   9  20  36  54  80 115 147 202 239 274 357
#     4  10  20  35  53  81 113 141 187 232 282 346
#     4  10  21  34  53  84 117 156 188 236 288 336
#     4  11  22  36  57  79 114 153 187 237 286 352
#     4  10  21  38  57  80 111 156 195 241 296 338
#     4  10  24  36  58  80 118 152 198 248 278 350
#     4  11  21  30  53  83 117 152 183 225 286 352
#
# _framework density 19.098392
#
# number of rings (size 3 to 8) (size 9 to 14) (size 15 to 20)
#    0.000    1.846    0.000    5.538   10.769    0.000 
#    0.000    1.538    0.000    0.923    0.000    0.000 
#    0.000    0.000    0.000    0.000    0.000    0.000 
#
# Total GULP energy -322169.342683 kJ/mol
# GULP energy per Si atom -12391.128565 kJ/mol
# Density = 1.905492 g / cm^3
# Si number density = 19.098392 Si / 1000 Ang^3
#
#
#
# Elastic Constant Matrix: (Units=GPa)
#
#
# Indices 1 2 3 4 5 6 
#
# 1 58.2088 25.7234 31.8392 0.0000 -2.8464 0.0000
# 2 25.7234 85.0377 44.3486 0.0000 -23.6562 0.0000
# 3 31.8392 44.3486 104.2629 0.0000 -1.8172 0.0000
# 4 0.0000 0.0000 0.0000 33.2508 0.0000 -14.0017
# 5 -2.8464 -23.6562 -1.8172 0.0000 28.7585 0.0000
# 6 0.0000 0.0000 0.0000 -14.0017 0.0000 10.3659
#
#
#
# Elastic Compliance Matrix: (Units=1/GPa)
#
#
# Indices 1 2 3 4 5 6 
#
# 1 0.021708 -0.004688 -0.004670 0.000000 -0.002003 0.000000
# 2 -0.004688 0.021870 -0.007573 0.000000 0.017047 0.000000
# 3 -0.004670 -0.007573 0.014137 0.000000 -0.005799 0.000000
# 4 0.000000 0.000000 0.000000 0.069744 0.000000 0.094206
# 5 -0.002003 0.017047 -0.005799 0.000000 0.048230 0.000000
# 6 0.000000 0.000000 0.000000 0.094206 0.000000 0.223717
#
#
# Mechanical properties :
#
#
# Convention : Reuss Voigt Hill
#
# Bulk Modulus (GPa) = 41.92574 50.14799 46.03687
# Shear Modulus (GPa) = 11.33223 24.18160 17.75692
#
# Velocity S-wave (km/s) = 2.43854 3.56217 3.05250
# Velocity P-wave (km/s) = 5.47072 6.57522 6.04823
#
# Compressibility (1/GPa) = 0.02385170
#
# Stress axis : x y z
#
# Youngs Moduli (GPa) = 46.06668 45.72566 70.73400
#
# Poissons Ratio (x) = 0.21438 0.33030
# Poissons Ratio (y) = 0.21598 0.53570
# Poissons Ratio (z) = 0.21512 0.34630
#
# Static dielectric constant tensor:
#      x y z
#    x 3.335750 0.000000 0.072950 
#    y 0.000000 3.985380 0.000000 
#    z 0.072950 0.000000 3.689370 
# 
# 
# High freq. dielectric constant tensor:
#      x y z
#    x 1.704220 0.000000 0.004750 
#    y 0.000000 1.735170 0.000000 
#    z 0.004750 0.000000 1.761160 
# 
# From -- ./inp_files/43077.got.cif
#   From: 2010.06.25/outbox.cif.g09.slc.cpg/sg15_22_cif.got.tgz:43077.got - 2010.06.28 07:06:18.
