data_PCOD8136699
_publ_section_title
;
Structure prediction by ZEFSAII (Michael W. Deem and Ramdas Pophale) SiO2 
 PCOD8136699
Probable space group: C 2/C
;
_chemical_formula_sum "Si O2"
_cell_formula_units_Z 52
_cell_length_a 9.155158
_cell_length_b 19.041525
_cell_length_c 14.604380
_cell_angle_alpha 90.000000
_cell_angle_beta 94.652769
_cell_angle_gamma 90.000000
_cell_volume 2537.564881
_symmetry_space_group_name_H-M "C 2/C"
_symmetry_group_IT_number 15
_symmetry_cell_setting 'monoclinic'
loop_
_space_group_symop_operation_xyz
x,y,z
-x,y,1/2-z
-x,-y,-z
x,-y,1/2+z
1/2+x,1/2+y,z
1/2-x,1/2+y,1/2-z
1/2-x,1/2-y,-z
1/2+x,1/2-y,1/2+z
loop_
_atom_site_type_symbol
_atom_site_label
_atom_site_fract_x
_atom_site_fract_y
_atom_site_fract_z
Si Si1 0.007002 0.566036 0.935244
Si Si2 0.066715 0.681052 0.437385
Si Si3 0.903199 0.834930 0.006128
Si Si4 0.995706 0.922779 0.641746
Si Si5 0.184257 0.947495 0.360404
Si Si6 0.237217 0.506200 0.815703
Si Si7 0.000000 0.602363 0.250000
O O1 0.855494 0.568457 0.874447
O O2 0.141644 0.557841 0.872923
O O3 0.025194 0.638104 0.991637
O O4 0.000000 0.500000 0.000000
O O5 0.033902 0.762953 0.449491
O O6 0.239974 0.669379 0.457110
O O7 0.008543 0.653891 0.337156
O O8 0.910668 0.890228 0.090244
O O9 0.010248 0.856220 0.926908
O O10 0.145869 0.962762 0.618608
O O11 0.000000 0.900700 0.750000
O O12 0.860225 0.973788 0.609975
O O13 0.162931 0.946870 0.248717
O O14 0.140137 0.449140 0.754529
#
# Coordination Sequence:
#
# PCOD8136699 Si02
#       7
#     8   8   8   8   8   8   4
#     4  11  18  34  60  85 112 147 195 246 278 336
#     4  10  22  35  60  84 116 158 195 231 299 345
#     4  10  20  40  55  85 120 158 190 235 290 360
#     4  10  21  36  60  86 116 154 190 241 296 347
#     4  10  20  34  60  87 115 152 189 237 291 343
#     4  11  19  34  61  91 114 143 201 247 289 329
#     4  12  18  36  60  84 112 146 196 246 278 348
#
# _framework density 20.492087000000001
#
# number of rings (size 3 to 8) (size 9 to 14) (size 15 to 20)
#    0.000    1.538    4.615    1.385    0.000    0.000 
#    4.154    4.615    0.000    7.385    0.000    0.000 
#    0.000    0.000    0.000    0.000    0.000    0.000 
#
# Total GULP energy -322215.161127 kJ/mol
# GULP energy per Si atom -12392.890813 kJ/mol
# Density = 2.044545 g / cm^3
# Si number density = 20.492087 Si / 1000 Ang^3
#
#
#
# Elastic Constant Matrix: (Units=GPa)
#
#
# Indices 1 2 3 4 5 6 
#
# 1 44.3374 10.7577 26.6968 0.0000 -14.8798 0.0000
# 2 10.7577 122.1122 91.1644 0.0000 -19.8537 0.0000
# 3 26.6968 91.1644 132.6230 0.0000 -23.1618 0.0000
# 4 0.0000 0.0000 0.0000 33.9767 0.0000 -2.4663
# 5 -14.8798 -19.8537 -23.1618 0.0000 34.6166 0.0000
# 6 0.0000 0.0000 0.0000 -2.4663 0.0000 22.4141
#
#
#
# Elastic Compliance Matrix: (Units=1/GPa)
#
#
# Indices 1 2 3 4 5 6 
#
# 1 0.029238 0.004419 -0.007117 0.000000 0.010340 0.000000
# 2 0.004419 0.017634 -0.012357 0.000000 0.003745 0.000000
# 3 -0.007117 -0.012357 0.017772 0.000000 0.001744 0.000000
# 4 0.000000 0.000000 0.000000 0.029669 0.000000 0.003265
# 5 0.010340 0.003745 0.001744 0.000000 0.036648 0.000000
# 6 0.000000 0.000000 0.000000 0.003265 0.000000 0.044974
#
#
# Mechanical properties :
#
#
# Convention : Reuss Voigt Hill
#
# Bulk Modulus (GPa) = 28.95798 61.81227 45.38513
# Shear Modulus (GPa) = 22.98260 29.56507 26.27384
#
# Velocity S-wave (km/s) = 3.35257 3.80248 3.58459
# Velocity P-wave (km/s) = 5.39891 7.03619 6.27121
#
# Compressibility (1/GPa) = 0.03453279
#
# Stress axis : x y z
#
# Youngs Moduli (GPa) = 34.20228 56.70832 56.26936
#
# Poissons Ratio (x) = -0.25058 0.40048
# Poissons Ratio (y) = -0.15113 0.69532
# Poissons Ratio (z) = 0.24342 0.70075
#
# Static dielectric constant tensor:
#      x y z
#    x -8.234550 0.000000 3.048580 
#    y 0.000000 3.752230 0.000000 
#    z 3.048580 0.000000 2.880780 
# 
# 
# High freq. dielectric constant tensor:
#      x y z
#    x 1.793080 0.000000 -0.004470 
#    y 0.000000 1.775740 0.000000 
#    z -0.004470 0.000000 1.810990 
# 
# From -- ./inp_files/135996.got.cif
#   From: 2010.06.25/outbox.cif.g09.slc.cpg/sg15_68_cif.got.tgz:135996.got - 2010.06.28 07:06:18.
