data_PCOD8136274
_publ_section_title
;
Structure prediction by ZEFSAII (Michael W. Deem and Ramdas Pophale) SiO2 
 PCOD8136274
Probable space group: C 2/C
;
_chemical_formula_sum "Si O2"
_cell_formula_units_Z 64
_cell_length_a 22.877509
_cell_length_b 17.105725
_cell_length_c 20.889624
_cell_angle_alpha 90.000000
_cell_angle_beta 22.786685
_cell_angle_gamma 90.000000
_cell_volume 3166.138053
_symmetry_space_group_name_H-M "C 2/C"
_symmetry_group_IT_number 15
_symmetry_cell_setting 'monoclinic'
loop_
_space_group_symop_operation_xyz
x,y,z
-x,y,1/2-z
-x,-y,-z
x,-y,1/2+z
1/2+x,1/2+y,z
1/2-x,1/2+y,1/2-z
1/2-x,1/2-y,-z
1/2+x,1/2-y,1/2+z
loop_
_atom_site_type_symbol
_atom_site_label
_atom_site_fract_x
_atom_site_fract_y
_atom_site_fract_z
Si Si1 0.798990 0.668409 0.630585
Si Si2 0.878102 0.744207 0.420832
Si Si3 0.321224 0.986560 0.433944
Si Si4 0.939306 0.735386 0.055046
Si Si5 0.830951 0.827153 0.896388
Si Si6 0.909022 0.922155 0.405189
Si Si7 0.334077 0.515245 0.775634
Si Si8 0.824919 0.842882 0.752758
O O1 0.842820 0.684688 0.512949
O O2 0.667535 0.728408 0.782748
O O3 0.735914 0.580970 0.699956
O O4 0.944701 0.675561 0.528789
O O5 0.750000 0.750000 0.500000
O O6 0.913488 0.829516 0.414842
O O7 0.000000 0.707648 0.250000
O O8 0.500000 0.989291 0.250000
O O9 0.262693 0.899091 0.479919
O O10 0.268996 0.011880 0.557151
O O11 0.257344 0.042851 0.441265
O O12 0.836405 0.687721 0.109375
O O13 0.032846 0.803446 0.925659
O O14 0.834825 0.824398 0.816703
O O15 0.000000 0.833028 0.750000
O O16 0.750000 0.750000 0.000000
O O17 0.000000 0.943655 0.250000
O O18 0.992530 0.963833 0.380436
O O19 0.334327 0.436211 0.733813
#
# Coordination Sequence:
#
# PCOD8136274 Si02
#       8
#     8   8   8   8   8   8   8   8
#     4  11  22  39  60  86 117 155 198 242 292 346
#     4  11  21  34  58  88 120 155 191 233 288 352
#     4  10  20  33  51  83 120 152 185 232 294 356
#     4  10  23  41  61  81 114 156 201 245 284 351
#     4  11  21  36  61  88 117 148 187 240 300 363
#     4   9  18  34  53  79 118 159 190 226 287 356
#     4  10  21  38  58  81 115 152 196 246 293 351
#     4  10  22  41  61  85 113 152 196 241 297 348
#
# _framework density 20.213902000000001
#
# number of rings (size 3 to 8) (size 9 to 14) (size 15 to 20)
#    0.000    1.750    0.000    6.750    0.000    5.000 
#    0.000    2.500    0.000    0.000    0.000    0.000 
#    0.000    0.000    0.000    0.000    0.000    0.000 
#
# Total GULP energy -396746.089059 kJ/mol
# GULP energy per Si atom -12398.315283 kJ/mol
# Density = 2.016789 g / cm^3
# Si number density = 20.213902 Si / 1000 Ang^3
#
#
#
# Elastic Constant Matrix: (Units=GPa)
#
#
# Indices 1 2 3 4 5 6 
#
# 1 117.8307 52.0069 48.5450 0.0089 -23.3090 0.0016
# 2 52.0069 118.9714 27.5023 0.0273 -13.2210 0.0084
# 3 48.5450 27.5023 101.9163 0.0332 -26.7638 0.0048
# 4 0.0089 0.0273 0.0332 27.8718 -0.0091 -6.6661
# 5 -23.3090 -13.2210 -26.7638 -0.0091 40.0513 -0.0035
# 6 0.0016 0.0084 0.0048 -6.6661 -0.0035 34.7920
#
#
#
# Elastic Compliance Matrix: (Units=1/GPa)
#
#
# Indices 1 2 3 4 5 6 
#
# 1 0.012667 -0.004242 -0.004028 0.000007 0.003280 0.000003
# 2 -0.004242 0.010473 -0.000662 -0.000009 0.000546 -0.000004
# 3 -0.004028 -0.000662 0.013628 -0.000013 0.006544 -0.000003
# 4 0.000007 -0.000009 -0.000013 0.037602 0.000001 0.007204
# 5 0.003280 0.000546 0.006544 0.000001 0.031430 0.000002
# 6 0.000003 -0.000004 -0.000003 0.007204 0.000002 0.030123
#
#
# Mechanical properties :
#
#
# Convention : Reuss Voigt Hill
#
# Bulk Modulus (GPa) = 52.89679 66.09188 59.49433
# Shear Modulus (GPa) = 31.23286 34.58728 32.91007
#
# Velocity S-wave (km/s) = 3.93506 4.14099 4.03934
# Velocity P-wave (km/s) = 6.84629 7.45862 7.15900
#
# Compressibility (1/GPa) = 0.01890474
#
# Stress axis : x y z
#
# Youngs Moduli (GPa) = 78.94428 95.47985 73.38040
#
# Poissons Ratio (x) = 0.40500 0.29554
# Poissons Ratio (y) = 0.33486 0.04861
# Poissons Ratio (z) = 0.31795 0.06325
#
# Static dielectric constant tensor:
#      x y z
#    x 3.678950 0.000040 -0.239870 
#    y 0.000040 4.060280 0.000050 
#    z -0.239870 0.000050 3.601060 
# 
# 
# High freq. dielectric constant tensor:
#      x y z
#    x 1.789810 0.000000 -0.019850 
#    y 0.000000 1.796720 0.000000 
#    z -0.019850 0.000000 1.787310 
# 
# From -- ./inp_files/255983.got.cif
#   From: 2010.06.25/outbox.cif.g09.slc.cpg/sg15_128_cif.got.tgz:255983.got - 2010.06.28 07:06:18.
