data_PCOD8136718
_publ_section_title
;
Structure prediction by ZEFSAII (Michael W. Deem and Ramdas Pophale) SiO2 
 PCOD8136718
Probable space group: C 2/C
;
_chemical_formula_sum "Si O2"
_cell_formula_units_Z 48
_cell_length_a 19.300577
_cell_length_b 14.463123
_cell_length_c 9.196275
_cell_angle_alpha 90.000000
_cell_angle_beta 77.158512
_cell_angle_gamma 90.000000
_cell_volume 2502.902275
_symmetry_space_group_name_H-M "C 2/C"
_symmetry_group_IT_number 15
_symmetry_cell_setting 'monoclinic'
loop_
_space_group_symop_operation_xyz
x,y,z
-x,y,1/2-z
-x,-y,-z
x,-y,1/2+z
1/2+x,1/2+y,z
1/2-x,1/2+y,1/2-z
1/2-x,1/2-y,-z
1/2+x,1/2-y,1/2+z
loop_
_atom_site_type_symbol
_atom_site_label
_atom_site_fract_x
_atom_site_fract_y
_atom_site_fract_z
Si Si1 0.719657 0.960049 0.118730
Si Si2 0.170413 0.716046 0.520385
Si Si3 0.688709 0.838398 0.693181
Si Si4 0.819139 0.975406 0.331433
Si Si5 0.344648 0.694208 0.019101
Si Si6 0.418126 0.645655 0.257773
O O1 0.782265 0.935292 0.203560
O O2 0.676659 0.051911 0.182922
O O3 0.663940 0.876059 0.124690
O O4 0.757197 0.971298 0.945381
O O5 0.250000 0.750000 0.500000
O O6 0.153896 0.695431 0.359216
O O7 0.114472 0.792146 0.598744
O O8 0.651349 0.788850 0.573481
O O9 0.772668 0.814823 0.648108
O O10 0.851772 0.891156 0.405973
O O11 0.882025 0.045268 0.263544
O O12 0.408497 0.694786 0.105325
O O13 0.500000 0.630126 0.250000
#
# Coordination Sequence:
#
# PCOD8136718 Si02
#       6
#     8   8   8   8   8   8
#     4  11  19  34  62  96 118 144 198 257 308 342
#     4  12  20  37  62  87 120 157 207 255 294 349
#     4  10  20  34  60  94 113 150 199 262 302 340
#     4  11  20  36  56  90 124 153 196 245 299 357
#     4  10  21  36  58  88 123 155 200 247 302 353
#     4  12  26  41  57  87 129 169 200 239 305 372
#
# _framework density 19.177737
#
# number of rings (size 3 to 8) (size 9 to 14) (size 15 to 20)
#    0.000    1.000    8.333    1.000    4.667    0.667 
#    0.000    0.833    0.000    4.000    0.000    0.000 
#    0.000    0.000    0.000    0.000    0.000    0.000 
#
# Total GULP energy -297658.643347 kJ/mol
# GULP energy per Si atom -12402.443473 kJ/mol
# Density = 1.913409 g / cm^3
# Si number density = 19.177737 Si / 1000 Ang^3
#
#
#
# Elastic Constant Matrix: (Units=GPa)
#
#
# Indices 1 2 3 4 5 6 
#
# 1 57.5614 12.5937 27.6998 0.0000 9.5886 0.0000
# 2 12.5937 75.5417 35.1755 0.0000 3.4885 0.0000
# 3 27.6998 35.1755 101.8218 0.0000 15.3056 0.0000
# 4 0.0000 0.0000 0.0000 34.0804 0.0000 0.3465
# 5 9.5886 3.4885 15.3056 0.0000 23.2267 0.0000
# 6 0.0000 0.0000 0.0000 0.3465 0.0000 15.3039
#
#
#
# Elastic Compliance Matrix: (Units=1/GPa)
#
#
# Indices 1 2 3 4 5 6 
#
# 1 0.020650 -0.001140 -0.004404 0.000000 -0.005451 0.000000
# 2 -0.001140 0.015877 -0.005424 0.000000 0.001660 0.000000
# 3 -0.004404 -0.005424 0.013871 0.000000 -0.006508 0.000000
# 4 0.000000 0.000000 0.000000 0.029349 0.000000 -0.000665
# 5 -0.005451 0.001660 -0.006508 0.000000 0.049343 0.000000
# 6 0.000000 0.000000 0.000000 -0.000665 0.000000 0.065358
#
#
# Mechanical properties :
#
#
# Convention : Reuss Voigt Hill
#
# Bulk Modulus (GPa) = 35.13616 42.87364 39.00490
# Shear Modulus (GPa) = 22.13639 25.15259 23.64449
#
# Velocity S-wave (km/s) = 3.40115 3.62546 3.51510
# Velocity P-wave (km/s) = 5.81247 6.31900 6.07102
#
# Compressibility (1/GPa) = 0.02846071
#
# Stress axis : x y z
#
# Youngs Moduli (GPa) = 48.42682 62.98467 72.09090
#
# Poissons Ratio (x) = 0.07180 0.31752
# Poissons Ratio (y) = 0.05520 0.39104
# Poissons Ratio (z) = 0.21329 0.34165
#
# Static dielectric constant tensor:
#      x y z
#    x 2.930540 0.000000 0.125380 
#    y 0.000000 3.864160 0.000000 
#    z 0.125380 0.000000 3.852940 
# 
# 
# High freq. dielectric constant tensor:
#      x y z
#    x 1.670070 0.000000 0.021120 
#    y 0.000000 1.762990 0.000000 
#    z 0.021120 0.000000 1.767950 
# 
# From -- ./inp_files/47464.got.cif
#   From: 2010.06.25/outbox.cif.g09.slc.cpg/sg15_24_cif.got.tgz:47464.got - 2010.06.28 07:06:18.
