data_PCOD8136460
_publ_section_title
;
Structure prediction by ZEFSAII (Michael W. Deem and Ramdas Pophale) SiO2 
 PCOD8136460
Probable space group: C 2/C
;
_chemical_formula_sum "Si O2"
_cell_formula_units_Z 44
_cell_length_a 11.335857
_cell_length_b 15.064654
_cell_length_c 24.633614
_cell_angle_alpha 90.000000
_cell_angle_beta 146.338920
_cell_angle_gamma 90.000000
_cell_volume 2331.686769
_symmetry_space_group_name_H-M "C 2/C"
_symmetry_group_IT_number 15
_symmetry_cell_setting 'monoclinic'
loop_
_space_group_symop_operation_xyz
x,y,z
-x,y,1/2-z
-x,-y,-z
x,-y,1/2+z
1/2+x,1/2+y,z
1/2-x,1/2+y,1/2-z
1/2-x,1/2-y,-z
1/2+x,1/2-y,1/2+z
loop_
_atom_site_type_symbol
_atom_site_label
_atom_site_fract_x
_atom_site_fract_y
_atom_site_fract_z
Si Si1 0.827138 0.699108 0.354376
Si Si2 0.127042 0.432548 0.912289
Si Si3 0.415777 0.306686 0.630734
Si Si4 0.217306 0.379172 0.453637
Si Si5 0.388619 0.396715 0.403172
Si Si6 0.000000 0.523715 0.250000
O O1 0.766459 0.682233 0.393566
O O2 0.641360 0.669241 0.242656
O O3 0.871773 0.803441 0.364825
O O4 0.028573 0.638844 0.415713
O O5 0.061247 0.535151 0.899092
O O6 0.059272 0.412832 0.823756
O O7 0.379369 0.435009 0.019227
O O8 0.364685 0.374808 0.563317
O O9 0.427400 0.207895 0.609704
O O10 0.372790 0.386627 0.461812
O O11 0.199979 0.460974 0.310375
#
# Coordination Sequence:
#
# PCOD8136460 Si02
#       6
#     8   8   8   8   8   4
#     4  10  20  34  53  79 110 145 173 220 273 323
#     4  11  22  31  56  85 111 135 176 233 272 308
#     4   9  19  36  56  74 104 150 189 206 263 332
#     4   9  18  35  56  78 101 141 189 223 250 323
#     4  10  20  36  54  81 111 139 175 223 275 318
#     4  10  20  36  58  82 108 144 190 220 264 324
#
# _framework density 18.870459
#
# number of rings (size 3 to 8) (size 9 to 14) (size 15 to 20)
#    0.000    2.182    0.000    6.000    5.091    0.727 
#    0.000    0.000    0.000    0.000    0.000    0.000 
#    0.000    0.000    0.000    0.000    0.000    0.000 
#
# Total GULP energy -272708.686994 kJ/mol
# GULP energy per Si atom -12395.849409 kJ/mol
# Density = 1.882751 g / cm^3
# Si number density = 18.870459 Si / 1000 Ang^3
#
#
#
# Elastic Constant Matrix: (Units=GPa)
#
#
# Indices 1 2 3 4 5 6 
#
# 1 50.8691 31.0060 32.9029 -0.0001 1.2220 0.0000
# 2 31.0060 63.7081 7.8372 0.0000 3.2966 0.0000
# 3 32.9029 7.8372 85.9267 0.0002 0.8699 0.0000
# 4 -0.0001 0.0000 0.0002 23.2391 0.0000 0.6555
# 5 1.2220 3.2966 0.8699 0.0000 36.2207 0.0000
# 6 0.0000 0.0000 0.0000 0.6555 0.0000 33.8394
#
#
#
# Elastic Compliance Matrix: (Units=1/GPa)
#
#
# Indices 1 2 3 4 5 6 
#
# 1 0.038742 -0.017253 -0.013267 0.000000 0.000582 0.000000
# 2 -0.017253 0.023631 0.004468 0.000000 -0.001676 0.000000
# 3 -0.013267 0.004468 0.016314 0.000000 -0.000351 0.000000
# 4 0.000000 0.000000 0.000000 0.043054 0.000000 -0.000834
# 5 0.000582 -0.001676 -0.000351 0.000000 0.027750 0.000000
# 6 0.000000 0.000000 0.000000 -0.000834 0.000000 0.029568
#
#
# Mechanical properties :
#
#
# Convention : Reuss Voigt Hill
#
# Bulk Modulus (GPa) = 37.61922 38.22178 37.92050
# Shear Modulus (GPa) = 20.83123 27.24369 24.03746
#
# Velocity S-wave (km/s) = 3.32611 3.80376 3.57293
# Velocity P-wave (km/s) = 5.89317 6.29207 6.09589
#
# Compressibility (1/GPa) = 0.02658215
#
# Stress axis : x y z
#
# Youngs Moduli (GPa) = 25.81169 42.31796 61.29658
#
# Poissons Ratio (x) = 0.73013 0.81324
# Poissons Ratio (y) = 0.44534 -0.27389
# Poissons Ratio (z) = 0.34245 -0.18909
#
# Static dielectric constant tensor:
#      x y z
#    x 3.262090 0.000000 -0.171270 
#    y 0.000000 3.522750 0.000000 
#    z -0.171270 0.000000 3.446650 
# 
# 
# High freq. dielectric constant tensor:
#      x y z
#    x 1.706360 0.000000 -0.014150 
#    y 0.000000 1.730300 0.000000 
#    z -0.014150 0.000000 1.737630 
# 
# From -- ./inp_files/86044.got.cif
#   From: 2010.06.25/outbox.cif.g09.slc.cpg/sg15_44_cif.got.tgz:86044.got - 2010.06.28 07:06:18.
