data_PCOD8136105
_publ_section_title
;
Structure prediction by ZEFSAII (Michael W. Deem and Ramdas Pophale) SiO2 
 PCOD8136105
Probable space group: C 2/C
;
_chemical_formula_sum "Si O2"
_cell_formula_units_Z 40
_cell_length_a 15.837291
_cell_length_b 15.911954
_cell_length_c 17.376129
_cell_angle_alpha 90.000000
_cell_angle_beta 153.110993
_cell_angle_gamma 90.000000
_cell_volume 1980.382482
_symmetry_space_group_name_H-M "C 2/C"
_symmetry_group_IT_number 15
_symmetry_cell_setting 'monoclinic'
loop_
_space_group_symop_operation_xyz
x,y,z
-x,y,1/2-z
-x,-y,-z
x,-y,1/2+z
1/2+x,1/2+y,z
1/2-x,1/2+y,1/2-z
1/2-x,1/2-y,-z
1/2+x,1/2-y,1/2+z
loop_
_atom_site_type_symbol
_atom_site_label
_atom_site_fract_x
_atom_site_fract_y
_atom_site_fract_z
Si Si1 0.500000 0.551058 0.250000
Si Si2 0.715386 0.784393 0.252190
Si Si3 0.000000 0.635481 0.750000
Si Si4 0.103449 0.516496 0.965378
Si Si5 0.046156 0.375632 0.563831
Si Si6 0.106515 0.817079 0.955676
O O1 0.310253 0.496818 0.098842
O O2 0.498275 0.607623 0.171515
O O3 0.652485 0.838605 0.128153
O O4 0.859419 0.834301 0.424617
O O5 0.529398 0.764785 0.155201
O O6 0.806563 0.697490 0.296547
O O7 0.020096 0.573122 0.692612
O O8 0.814781 0.693883 0.587781
O O9 0.997716 0.428213 0.894388
O O10 0.133233 0.564022 0.070245
#
# Coordination Sequence:
#
# PCOD8136105 Si02
#       6
#     4   8   4   8   8   8
#     4  10  20  35  52  81 110 144 180 222 272 323
#     4  10  20  35  52  81 110 144 180 222 272 323
#     4  10  20  35  52  81 110 144 180 222 272 323
#     4  10  20  38  57  79 113 147 182 223 269 326
#     4  10  20  38  57  79 113 147 182 223 269 326
#     4  10  20  31  47  78 108 146 171 217 270 334
#
# _framework density 20.198117
#
# number of rings (size 3 to 8) (size 9 to 14) (size 15 to 20)
#    0.000    2.000    4.000    0.000    0.000    2.400 
#    0.000   10.000    0.000    3.600    0.000    0.000 
#    0.000    0.000    0.000    0.000    0.000    0.000 
#
# Total GULP energy -247833.156613 kJ/mol
# GULP energy per Si atom -12391.657831 kJ/mol
# Density = 2.015215 g / cm^3
# Si number density = 20.198117 Si / 1000 Ang^3
#
#
#
# Elastic Constant Matrix: (Units=GPa)
#
#
# Indices 1 2 3 4 5 6 
#
# 1 64.6325 44.6138 28.4020 -0.0029 3.4299 0.0007
# 2 44.6138 86.2627 34.5522 0.0065 0.8943 0.0054
# 3 28.4020 34.5522 89.0192 -0.0048 5.6248 0.0016
# 4 -0.0029 0.0065 -0.0048 26.6291 -0.0055 -2.6084
# 5 3.4299 0.8943 5.6248 -0.0055 22.9882 -0.0005
# 6 0.0007 0.0054 0.0016 -2.6084 -0.0005 28.8169
#
#
#
# Elastic Compliance Matrix: (Units=1/GPa)
#
#
# Indices 1 2 3 4 5 6 
#
# 1 0.025086 -0.011610 -0.003341 0.000005 -0.002474 0.000002
# 2 -0.011610 0.019114 -0.003836 -0.000007 0.001927 -0.000004
# 3 -0.003341 -0.003836 0.013964 0.000003 -0.002769 0.000000
# 4 0.000005 -0.000007 0.000003 0.037889 0.000008 0.003430
# 5 -0.002474 0.001927 -0.002769 0.000008 0.044472 0.000001
# 6 0.000002 -0.000004 0.000000 0.003430 0.000001 0.035012
#
#
# Mechanical properties :
#
#
# Convention : Reuss Voigt Hill
#
# Bulk Modulus (GPa) = 48.57218 50.56117 49.56668
# Shear Modulus (GPa) = 22.72999 24.50992 23.61996
#
# Velocity S-wave (km/s) = 3.35827 3.48728 3.42338
# Velocity P-wave (km/s) = 6.25598 6.42664 6.34189
#
# Compressibility (1/GPa) = 0.02058792
#
# Stress axis : x y z
#
# Youngs Moduli (GPa) = 39.86355 52.31850 71.61515
#
# Poissons Ratio (x) = 0.60742 0.23927
# Poissons Ratio (y) = 0.46282 0.27475
# Poissons Ratio (z) = 0.13318 0.20072
#
# Static dielectric constant tensor:
#      x y z
#    x 3.485000 -0.000010 0.106190 
#    y -0.000010 3.400540 -0.000020 
#    z 0.106190 -0.000020 3.893310 
# 
# 
# High freq. dielectric constant tensor:
#      x y z
#    x 1.754630 0.000000 0.011050 
#    y 0.000000 1.748970 0.000000 
#    z 0.011050 0.000000 1.805840 
# 
# From -- ./inp_files/38007.got.cif
#   From: 2010.06.25/outbox.cif.g09.slc.cpg/sg15_20_cif.got.tgz:38007.got - 2010.06.28 07:06:18.
