data_PCOD8136081
_publ_section_title
;
Structure prediction by ZEFSAII (Michael W. Deem and Ramdas Pophale) SiO2 
 PCOD8136081
Probable space group: C 2/C
;
_chemical_formula_sum "Si O2"
_cell_formula_units_Z 64
_cell_length_a 13.661461
_cell_length_b 25.761922
_cell_length_c 9.509640
_cell_angle_alpha 90.000000
_cell_angle_beta 72.449957
_cell_angle_gamma 90.000000
_cell_volume 3191.091114
_symmetry_space_group_name_H-M "C 2/C"
_symmetry_group_IT_number 15
_symmetry_cell_setting 'monoclinic'
loop_
_space_group_symop_operation_xyz
x,y,z
-x,y,1/2-z
-x,-y,-z
x,-y,1/2+z
1/2+x,1/2+y,z
1/2-x,1/2+y,1/2-z
1/2-x,1/2-y,-z
1/2+x,1/2-y,1/2+z
loop_
_atom_site_type_symbol
_atom_site_label
_atom_site_fract_x
_atom_site_fract_y
_atom_site_fract_z
Si Si1 0.278306 0.858307 0.893105
Si Si2 0.273513 0.535907 0.174735
Si Si3 0.348962 0.226241 0.532923
Si Si4 0.118618 0.261489 0.169519
Si Si5 0.787378 0.944932 0.981880
Si Si6 0.056283 0.173086 0.578598
Si Si7 0.238020 0.669563 0.424461
Si Si8 0.005476 0.085393 0.405754
O O1 0.297215 0.919880 0.868866
O O2 0.274811 0.835641 0.736830
O O3 0.367454 0.829624 0.946698
O O4 0.172900 0.847985 0.024485
O O5 0.237963 0.481254 0.123138
O O6 0.253834 0.530407 0.348429
O O7 0.392039 0.553449 0.101669
O O8 0.250000 0.250000 0.500000
O O9 0.327763 0.219620 0.708056
O O10 0.444331 0.266128 0.468247
O O11 0.164439 0.207064 0.094594
O O12 0.000000 0.255067 0.250000
O O13 0.138305 0.304812 0.040832
O O14 0.755737 0.884803 0.997291
O O15 0.907862 0.951956 0.965880
O O16 0.000000 0.166956 0.750000
O O17 0.991467 0.137492 0.501603
O O18 0.000000 0.106588 0.250000
#
# Coordination Sequence:
#
# PCOD8136081 Si02
#       8
#     8   8   8   8   8   8   8   8
#     4   9  19  40  53  75 118 153 191 247 292 340
#     4   9  19  33  52  78 111 153 199 238 293 351
#     4  10  20  36  52  77 113 150 196 240 290 342
#     4  11  24  38  61  88 116 158 201 242 300 362
#     4  10  20  32  54  79 110 154 192 241 292 348
#     4  10  20  30  47  77 108 150 194 231 280 345
#     4  10  22  40  59  84 120 156 198 249 296 355
#     4   9  19  32  47  73 116 156 194 240 282 346
#
# _framework density 20.055835999999999
#
# number of rings (size 3 to 8) (size 9 to 14) (size 15 to 20)
#    0.000    2.250    2.500    1.125    1.750    6.000 
#    0.000    0.625    0.000    0.000    0.000    8.750 
#    0.000    0.000    0.000    0.000    0.000    0.000 
#
# Total GULP energy -396444.747385 kJ/mol
# GULP energy per Si atom -12388.898356 kJ/mol
# Density = 2.001019 g / cm^3
# Si number density = 20.055836 Si / 1000 Ang^3
#
#
#
# Elastic Constant Matrix: (Units=GPa)
#
#
# Indices 1 2 3 4 5 6 
#
# 1 25.1001 27.6081 24.1577 0.0000 2.0872 0.0000
# 2 27.6081 137.5932 64.6517 0.0000 13.3156 0.0000
# 3 24.1577 64.6517 108.8870 0.0000 -0.3912 0.0000
# 4 0.0000 0.0000 0.0000 33.6171 0.0000 -3.7887
# 5 2.0872 13.3156 -0.3912 0.0000 22.9119 0.0000
# 6 0.0000 0.0000 0.0000 -3.7887 0.0000 -9.5183
#
#
#
# Elastic Compliance Matrix: (Units=1/GPa)
#
#
# Indices 1 2 3 4 5 6 
#
# 1 0.055677 -0.007313 -0.008014 0.000000 -0.000959 0.000000
# 2 -0.007313 0.011926 -0.005481 0.000000 -0.006358 0.000000
# 3 -0.008014 -0.005481 0.014231 0.000000 0.004159 0.000000
# 4 0.000000 0.000000 0.000000 0.028470 0.000000 -0.011332
# 5 -0.000959 -0.006358 0.004159 0.000000 0.047499 0.000000
# 6 0.000000 0.000000 0.000000 -0.011332 0.000000 -0.100550
#
#
# Mechanical properties :
#
#
# Convention : Reuss Voigt Hill
#
# Bulk Modulus (GPa) = 24.86475 56.04614 40.45544
# Shear Modulus (GPa) = 44.53322 19.74635 32.13978
#
# Velocity S-wave (km/s) = 4.71729 3.14119 4.00749
# Velocity P-wave (km/s) = 6.48807 6.41575 6.45201
#
# Compressibility (1/GPa) = 0.04021757
#
# Stress axis : x y z
#
# Youngs Moduli (GPa) = 17.96069 83.84914 70.26775
#
# Poissons Ratio (x) = 0.61323 0.56310
# Poissons Ratio (y) = 0.13135 0.38517
# Poissons Ratio (z) = 0.14393 0.45961
#
# Static dielectric constant tensor:
#      x y z
#    x 3.777970 0.000000 0.097020 
#    y 0.000000 3.962760 0.000000 
#    z 0.097020 0.000000 3.848020 
# 
# 
# High freq. dielectric constant tensor:
#      x y z
#    x 1.731310 0.000000 0.020380 
#    y 0.000000 1.783910 0.000000 
#    z 0.020380 0.000000 1.784420 
# 
# From -- ./inp_files/43515.got.cif
#   From: 2010.06.25/outbox.cif.g09.slc.cpg/sg15_22_cif.got.tgz:43515.got - 2010.06.28 07:06:18.
