data_PCOD8136430
_publ_section_title
;
Structure prediction by ZEFSAII (Michael W. Deem and Ramdas Pophale) SiO2 
 PCOD8136430
Probable space group: C 2/C
;
_chemical_formula_sum "Si O2"
_cell_formula_units_Z 36
_cell_length_a 17.112416
_cell_length_b 27.544543
_cell_length_c 11.852425
_cell_angle_alpha 90.000000
_cell_angle_beta 159.056803
_cell_angle_gamma 90.000000
_cell_volume 1996.916789
_symmetry_space_group_name_H-M "C 2/C"
_symmetry_group_IT_number 15
_symmetry_cell_setting 'monoclinic'
loop_
_space_group_symop_operation_xyz
x,y,z
-x,y,1/2-z
-x,-y,-z
x,-y,1/2+z
1/2+x,1/2+y,z
1/2-x,1/2+y,1/2-z
1/2-x,1/2-y,-z
1/2+x,1/2-y,1/2+z
loop_
_atom_site_type_symbol
_atom_site_label
_atom_site_fract_x
_atom_site_fract_y
_atom_site_fract_z
Si Si1 0.056618 0.545835 0.651236
Si Si2 0.266648 0.192052 0.905005
Si Si3 0.644737 0.622417 0.551901
Si Si4 0.000000 0.785489 0.250000
Si Si5 0.645127 0.543579 0.241433
O O1 0.137625 0.592775 0.690729
O O2 0.000000 0.500000 0.500000
O O3 0.835434 0.560979 0.415021
O O4 0.249279 0.528955 0.995938
O O5 0.195866 0.171321 0.688778
O O6 0.089153 0.181849 0.765918
O O7 0.500000 0.167119 0.250000
O O8 0.299710 0.250577 0.937613
O O9 0.511461 0.589171 0.458068
O O10 0.500000 0.637897 0.250000
O O11 0.500000 0.500000 0.000000
#
# Coordination Sequence:
#
# PCOD8136430 Si02
#       5
#     8   8   8   4   8
#     4  10  20  34  52  71 106 144 182 222 266 308
#     4   9  18  36  60  80 105 138 176 220 276 326
#     4  10  21  35  52  80 112 141 178 228 267 324
#     4   8  18  38  62  78 110 134 172 236 274 320
#     4  10  20  34  51  74 105 144 183 222 264 308
#
# _framework density 18.027792000000002
#
# number of rings (size 3 to 8) (size 9 to 14) (size 15 to 20)
#    0.667    1.778    2.222    0.000    0.000    3.556 
#    0.000    1.111    0.000    0.000    0.000    0.000 
#    0.000    0.000    0.000    0.000    0.000    0.000 
#
# Total GULP energy -223076.222967 kJ/mol
# GULP energy per Si atom -12393.123498 kJ/mol
# Density = 1.798676 g / cm^3
# Si number density = 18.027792 Si / 1000 Ang^3
#
#
#
# Elastic Constant Matrix: (Units=GPa)
#
#
# Indices 1 2 3 4 5 6 
#
# 1 135.0703 46.0239 49.1542 0.0006 11.1575 0.0002
# 2 46.0239 59.6525 33.8594 0.0003 -13.2702 0.0001
# 3 49.1542 33.8594 75.0901 0.0026 2.7564 0.0009
# 4 0.0006 0.0003 0.0026 17.8646 0.0012 -12.0468
# 5 11.1575 -13.2702 2.7564 0.0012 35.0166 0.0005
# 6 0.0002 0.0001 0.0009 -12.0468 0.0005 36.2182
#
#
#
# Elastic Compliance Matrix: (Units=1/GPa)
#
#
# Indices 1 2 3 4 5 6 
#
# 1 0.012451 -0.009008 -0.003829 0.000001 -0.007080 0.000001
# 2 -0.009008 0.032592 -0.009385 0.000000 0.015960 0.000000
# 3 -0.003829 -0.009385 0.020200 -0.000003 -0.003927 -0.000001
# 4 0.000001 0.000000 -0.000003 0.072163 -0.000003 0.024003
# 5 -0.007080 0.015960 -0.003927 -0.000003 0.037171 -0.000001
# 6 0.000001 0.000000 -0.000001 0.024003 -0.000001 0.035594
#
#
# Mechanical properties :
#
#
# Convention : Reuss Voigt Hill
#
# Bulk Modulus (GPa) = 48.08103 58.65421 53.36762
# Shear Modulus (GPa) = 19.11701 27.20489 23.16095
#
# Velocity S-wave (km/s) = 3.25994 3.88887 3.58821
# Velocity P-wave (km/s) = 6.39516 7.26433 6.84355
#
# Compressibility (1/GPa) = 0.02079822
#
# Stress axis : x y z
#
# Youngs Moduli (GPa) = 80.31358 30.68283 49.50581
#
# Poissons Ratio (x) = 0.27640 0.18954
# Poissons Ratio (y) = 0.72349 0.46462
# Poissons Ratio (z) = 0.30750 0.28796
#
# Static dielectric constant tensor:
#      x y z
#    x 3.619560 0.000000 0.226110 
#    y 0.000000 2.890830 0.000000 
#    z 0.226110 0.000000 3.394270 
# 
# 
# High freq. dielectric constant tensor:
#      x y z
#    x 1.716310 0.000000 0.015240 
#    y 0.000000 1.660820 0.000000 
#    z 0.015240 0.000000 1.693930 
# 
# From -- ./inp_files/108528.got.cif
#   From: 2010.06.25/outbox.cif.g09.slc.cpg/sg15_55_cif.got.tgz:108528.got - 2010.06.28 07:06:18.
