data_PCOD8136752
_publ_section_title
;
Structure prediction by ZEFSAII (Michael W. Deem and Ramdas Pophale) SiO2 
 PCOD8136752
Probable space group: C 2/C
;
_chemical_formula_sum "Si O2"
_cell_formula_units_Z 60
_cell_length_a 12.646338
_cell_length_b 13.608981
_cell_length_c 17.808288
_cell_angle_alpha 90.000000
_cell_angle_beta 77.184899
_cell_angle_gamma 90.000000
_cell_volume 2988.530411
_symmetry_space_group_name_H-M "C 2/C"
_symmetry_group_IT_number 15
_symmetry_cell_setting 'monoclinic'
loop_
_space_group_symop_operation_xyz
x,y,z
-x,y,1/2-z
-x,-y,-z
x,-y,1/2+z
1/2+x,1/2+y,z
1/2-x,1/2+y,1/2-z
1/2-x,1/2-y,-z
1/2+x,1/2-y,1/2+z
loop_
_atom_site_type_symbol
_atom_site_label
_atom_site_fract_x
_atom_site_fract_y
_atom_site_fract_z
Si Si1 0.656480 0.690331 0.372595
Si Si2 0.500000 0.818489 0.750000
Si Si3 0.747351 0.123097 0.669659
Si Si4 0.834908 0.824976 0.315297
Si Si5 0.698228 0.931554 0.759919
Si Si6 0.058627 0.768740 0.665574
Si Si7 0.128239 0.999659 0.467385
Si Si8 0.669498 0.530439 0.126126
O O1 0.731180 0.785266 0.378758
O O2 0.706918 0.639562 0.288693
O O3 0.535148 0.734989 0.383285
O O4 0.662275 0.609015 0.436789
O O5 0.568757 0.750919 0.682674
O O6 0.581111 0.883904 0.785304
O O7 0.807939 0.175209 0.729841
O O8 0.663037 0.196814 0.639723
O O9 0.837757 0.085055 0.596623
O O10 0.684078 0.028804 0.711757
O O11 0.881063 0.927632 0.338003
O O12 0.721131 0.956965 0.843135
O O13 0.088923 0.882962 0.660907
O O14 0.000000 0.735640 0.750000
O O15 0.191666 0.973761 0.534034
O O16 0.000000 0.000000 0.500000
#
# Coordination Sequence:
#
# PCOD8136752 Si02
#       8
#     8   4   8   8   8   8   8   8
#     4  10  20  40  60  89 120 156 206 251 311 347
#     4  10  20  34  62  92 116 148 204 266 302 338
#     4  10  23  38  61  91 122 155 211 249 314 359
#     4  10  22  37  63  91 115 156 209 262 296 362
#     4   9  20  38  59  88 121 155 202 261 294 362
#     4  12  20  36  64  93 116 157 203 263 303 354
#     4  11  24  41  60  89 128 169 195 251 306 378
#     4  11  23  37  59  88 123 162 198 243 306 367
#
# _framework density 20.076758000000002
#
# number of rings (size 3 to 8) (size 9 to 14) (size 15 to 20)
#    0.000    1.600    4.000    0.800    3.733    1.067 
#    0.000    0.000    0.000    8.000    0.000    0.000 
#    0.000    0.000    0.000    0.000    0.000    0.000 
#
# Total GULP energy -371726.998562 kJ/mol
# GULP energy per Si atom -12390.899952 kJ/mol
# Density = 2.003106 g / cm^3
# Si number density = 20.076758 Si / 1000 Ang^3
#
#
#
# Elastic Constant Matrix: (Units=GPa)
#
#
# Indices 1 2 3 4 5 6 
#
# 1 106.2456 58.2197 42.1899 0.0000 -14.6292 0.0000
# 2 58.2197 110.8686 32.6605 0.0000 -12.2601 0.0000
# 3 42.1899 32.6605 88.3772 0.0000 1.0025 0.0000
# 4 0.0000 0.0000 0.0000 26.9155 0.0000 -4.5991
# 5 -14.6292 -12.2601 1.0025 0.0000 22.5541 0.0000
# 6 0.0000 0.0000 0.0000 -4.5991 0.0000 26.9288
#
#
#
# Elastic Compliance Matrix: (Units=1/GPa)
#
#
# Indices 1 2 3 4 5 6 
#
# 1 0.015809 -0.005888 -0.005454 0.000000 0.007296 0.000000
# 2 -0.005888 0.013096 -0.002067 0.000000 0.003391 0.000000
# 3 -0.005454 -0.002067 0.014743 0.000000 -0.005316 0.000000
# 4 0.000000 0.000000 0.000000 0.038270 0.000000 0.006536
# 5 0.007296 0.003391 -0.005316 0.000000 0.051150 0.000000
# 6 0.000000 0.000000 0.000000 0.006536 0.000000 0.038251
#
#
# Mechanical properties :
#
#
# Convention : Reuss Voigt Hill
#
# Bulk Modulus (GPa) = 59.41977 63.51462 61.46720
# Shear Modulus (GPa) = 24.54026 26.77442 25.65734
#
# Velocity S-wave (km/s) = 3.49996 3.65581 3.57874
# Velocity P-wave (km/s) = 6.78185 7.03737 6.91079
#
# Compressibility (1/GPa) = 0.01682941
#
# Stress axis : x y z
#
# Youngs Moduli (GPa) = 63.25516 76.36076 67.82953
#
# Poissons Ratio (x) = 0.44964 0.36992
# Poissons Ratio (y) = 0.37247 0.14021
# Poissons Ratio (z) = 0.34497 0.15785
#
# Static dielectric constant tensor:
#      x y z
#    x 3.726990 0.000000 0.097010 
#    y 0.000000 3.912950 0.000000 
#    z 0.097010 0.000000 3.460810 
# 
# 
# High freq. dielectric constant tensor:
#      x y z
#    x 1.782390 0.000000 0.003240 
#    y 0.000000 1.801310 0.000000 
#    z 0.003240 0.000000 1.743390 
# 
# From -- ./inp_files/198305.got.cif
#   From: 2010.06.25/outbox.cif.g09.slc.cpg/sg15_100_cif.got.tgz:198305.got - 2010.06.28 07:06:18.
