data_PCOD8136899
_publ_section_title
;
Structure prediction by ZEFSAII (Michael W. Deem and Ramdas Pophale) SiO2 
 PCOD8136899
Probable space group: C 2/C
;
_chemical_formula_sum "Si O2"
_cell_formula_units_Z 60
_cell_length_a 26.060817
_cell_length_b 21.568639
_cell_length_c 13.901653
_cell_angle_alpha 90.000000
_cell_angle_beta 157.582148
_cell_angle_gamma 90.000000
_cell_volume 2979.960838
_symmetry_space_group_name_H-M "C 2/C"
_symmetry_group_IT_number 15
_symmetry_cell_setting 'monoclinic'
loop_
_space_group_symop_operation_xyz
x,y,z
-x,y,1/2-z
-x,-y,-z
x,-y,1/2+z
1/2+x,1/2+y,z
1/2-x,1/2+y,1/2-z
1/2-x,1/2-y,-z
1/2+x,1/2-y,1/2+z
loop_
_atom_site_type_symbol
_atom_site_label
_atom_site_fract_x
_atom_site_fract_y
_atom_site_fract_z
Si Si1 0.469012 0.863399 0.587421
Si Si2 0.357432 0.432184 0.040697
Si Si3 0.128814 0.742691 0.715534
Si Si4 0.000000 0.407952 0.250000
Si Si5 0.159962 0.750198 0.208782
Si Si6 0.748155 0.668152 0.289594
Si Si7 0.906915 0.497647 0.431551
Si Si8 0.741263 0.651469 0.978820
O O1 0.500000 0.839213 0.750000
O O2 0.372575 0.815462 0.362228
O O3 0.608647 0.874558 0.772853
O O4 0.400968 0.930910 0.472726
O O5 0.318198 0.378720 0.898799
O O6 0.249720 0.487408 0.858811
O O7 0.356969 0.401545 0.147231
O O8 0.500000 0.458994 0.250000
O O9 0.134165 0.807311 0.665078
O O10 0.996052 0.736707 0.547611
O O11 0.250000 0.750000 0.000000
O O12 0.127546 0.365532 0.441945
O O13 0.030542 0.449643 0.393968
O O14 0.195007 0.731379 0.161152
O O15 0.256441 0.708681 0.443176
O O16 0.188195 0.822583 0.283744
O O17 0.000000 0.500000 0.500000
#
# Coordination Sequence:
#
# PCOD8136899 Si02
#       8
#     8   8   8   4   8   8   8   8
#     4  11  22  39  63  89 119 162 215 260 310 370
#     4  10  20  35  60  87 119 155 199 260 315 369
#     4  11  23  35  57  89 126 161 196 250 322 383
#     4  10  22  38  64  88 116 154 220 254 306 372
#     4   9  18  32  53  84 120 156 195 244 301 373
#     4  10  20  35  56  84 120 156 197 252 304 368
#     4  11  22  39  65  89 114 161 217 270 304 366
#     4   9  17  32  56  86 115 153 204 249 301 364
#
# _framework density 20.134492000000002
#
# number of rings (size 3 to 8) (size 9 to 14) (size 15 to 20)
#    0.000    1.867    2.000    2.400    3.733    2.667 
#    0.000    0.000    7.333    4.000    0.000    0.000 
#    0.000    0.000    0.000    0.000    0.000    0.000 
#
# Total GULP energy -371726.884516 kJ/mol
# GULP energy per Si atom -12390.896151 kJ/mol
# Density = 2.008867 g / cm^3
# Si number density = 20.134492 Si / 1000 Ang^3
#
#
#
# Elastic Constant Matrix: (Units=GPa)
#
#
# Indices 1 2 3 4 5 6 
#
# 1 69.9388 22.1104 31.3483 0.0000 5.4452 0.0000
# 2 22.1104 82.8134 39.5044 0.0000 -5.2906 0.0000
# 3 31.3483 39.5044 94.0170 0.0000 2.8863 0.0000
# 4 0.0000 0.0000 0.0000 33.0506 0.0000 0.9380
# 5 5.4452 -5.2906 2.8863 0.0000 34.4683 0.0000
# 6 0.0000 0.0000 0.0000 0.9380 0.0000 28.4013
#
#
#
# Elastic Compliance Matrix: (Units=1/GPa)
#
#
# Indices 1 2 3 4 5 6 
#
# 1 0.017413 -0.002622 -0.004619 0.000000 -0.002767 0.000000
# 2 -0.002622 0.015783 -0.005860 0.000000 0.003328 0.000000
# 3 -0.004619 -0.005860 0.014682 0.000000 -0.001399 0.000000
# 4 0.000000 0.000000 0.000000 0.030285 0.000000 -0.001000
# 5 -0.002767 0.003328 -0.001399 0.000000 0.030077 0.000000
# 6 0.000000 0.000000 0.000000 -0.001000 0.000000 0.035243
#
#
# Mechanical properties :
#
#
# Convention : Reuss Voigt Hill
#
# Bulk Modulus (GPa) = 46.13507 48.07727 47.10617
# Shear Modulus (GPa) = 28.26284 29.43778 28.85031
#
# Velocity S-wave (km/s) = 3.75067 3.82783 3.78945
# Velocity P-wave (km/s) = 6.45909 6.59290 6.52634
#
# Compressibility (1/GPa) = 0.02167549
#
# Stress axis : x y z
#
# Youngs Moduli (GPa) = 57.42795 63.35808 68.11207
#
# Poissons Ratio (x) = 0.16615 0.31463
# Poissons Ratio (y) = 0.15060 0.39911
# Poissons Ratio (z) = 0.26528 0.37126
#
# Static dielectric constant tensor:
#      x y z
#    x 3.689710 0.000000 0.254860 
#    y 0.000000 3.706470 0.000000 
#    z 0.254860 0.000000 3.330590 
# 
# 
# High freq. dielectric constant tensor:
#      x y z
#    x 1.787390 0.000000 0.007160 
#    y 0.000000 1.772830 0.000000 
#    z 0.007160 0.000000 1.771770 
# 
# From -- ./inp_files/179284.got.cif
#   From: 2010.06.25/outbox.cif.g09.slc.cpg/sg15_90_cif.got.tgz:179284.got - 2010.06.28 07:06:18.
