data_PCOD8136463
_publ_section_title
;
Structure prediction by ZEFSAII (Michael W. Deem and Ramdas Pophale) SiO2 
 PCOD8136463
Probable space group: C 2/C
;
_chemical_formula_sum "Si O2"
_cell_formula_units_Z 52
_cell_length_a 26.555823
_cell_length_b 12.100941
_cell_length_c 8.415642
_cell_angle_alpha 90.000000
_cell_angle_beta 101.818687
_cell_angle_gamma 90.000000
_cell_volume 2647.039402
_symmetry_space_group_name_H-M "C 2/C"
_symmetry_group_IT_number 15
_symmetry_cell_setting 'monoclinic'
loop_
_space_group_symop_operation_xyz
x,y,z
-x,y,1/2-z
-x,-y,-z
x,-y,1/2+z
1/2+x,1/2+y,z
1/2-x,1/2+y,1/2-z
1/2-x,1/2-y,-z
1/2+x,1/2-y,1/2+z
loop_
_atom_site_type_symbol
_atom_site_label
_atom_site_fract_x
_atom_site_fract_y
_atom_site_fract_z
Si Si1 0.084179 0.141327 0.194236
Si Si2 0.563617 0.121825 0.585265
Si Si3 0.537131 0.539086 0.888975
Si Si4 0.243128 0.472553 0.454094
Si Si5 0.801255 0.873373 0.771344
Si Si6 0.684235 0.131764 0.636134
Si Si7 0.500000 0.953227 0.750000
O O1 0.059840 0.263681 0.182287
O O2 0.055228 0.067109 0.302559
O O3 0.143344 0.127084 0.276807
O O4 0.082143 0.105509 0.004877
O O5 0.623540 0.107659 0.579631
O O6 0.529643 0.121649 0.400696
O O7 0.543223 0.027069 0.690037
O O8 0.500000 0.613241 0.750000
O O9 0.500000 0.500000 0.000000
O O10 0.261780 0.385450 0.598808
O O11 0.290866 0.524659 0.385354
O O12 0.212490 0.573692 0.510027
O O13 0.202629 0.410088 0.318721
O O14 0.797958 0.759036 0.865210
#
# Coordination Sequence:
#
# PCOD8136463 Si02
#       7
#     8   8   8   8   8   8   4
#     4  10  20  35  54  80 113 141 182 225 276 323
#     4  10  22  37  59  78 110 144 183 239 269 328
#     4   9  19  33  52  77 104 140 179 219 269 329
#     4  10  20  34  57  77 114 144 180 225 269 322
#     4  10  20  34  53  81 109 147 179 220 270 324
#     4  10  20  36  55  82 107 142 185 221 277 318
#     4  10  22  40  56  80 106 142 194 222 288 316
#
# _framework density 19.644589
#
# number of rings (size 3 to 8) (size 9 to 14) (size 15 to 20)
#    0.000    2.154    0.000    2.769    4.308    0.000 
#    0.000    0.000    0.000   18.462    0.000    0.000 
#    0.000    0.000    0.000    0.000    0.000    0.000 
#
# Total GULP energy -322098.411271 kJ/mol
# GULP energy per Si atom -12388.400434 kJ/mol
# Density = 1.959988 g / cm^3
# Si number density = 19.644589 Si / 1000 Ang^3
#
#
#
# Elastic Constant Matrix: (Units=GPa)
#
#
# Indices 1 2 3 4 5 6 
#
# 1 82.8337 35.0970 23.8241 0.0000 9.2439 0.0000
# 2 35.0970 56.0185 2.1871 0.0000 3.5395 0.0000
# 3 23.8241 2.1871 59.7824 0.0000 4.7114 0.0000
# 4 0.0000 0.0000 0.0000 30.9200 0.0000 -1.6415
# 5 9.2439 3.5395 4.7114 0.0000 29.5377 0.0000
# 6 0.0000 0.0000 0.0000 -1.6415 0.0000 31.7589
#
#
#
# Elastic Compliance Matrix: (Units=1/GPa)
#
#
# Indices 1 2 3 4 5 6 
#
# 1 0.019445 -0.011683 -0.007041 0.000000 -0.003562 0.000000
# 2 -0.011683 0.025021 0.003736 0.000000 0.000062 0.000000
# 3 -0.007041 0.003736 0.019503 0.000000 -0.001355 0.000000
# 4 0.000000 0.000000 0.000000 0.032430 0.000000 0.001676
# 5 -0.003562 0.000062 -0.001355 0.000000 0.035179 0.000000
# 6 0.000000 0.000000 0.000000 0.001676 0.000000 0.031574
#
#
# Mechanical properties :
#
#
# Convention : Reuss Voigt Hill
#
# Bulk Modulus (GPa) = 29.41787 35.65008 32.53398
# Shear Modulus (GPa) = 24.45466 27.61177 26.03321
#
# Velocity S-wave (km/s) = 3.53208 3.75316 3.64429
# Velocity P-wave (km/s) = 5.62509 6.08017 5.85705
#
# Compressibility (1/GPa) = 0.03399294
#
# Stress axis : x y z
#
# Youngs Moduli (GPa) = 51.42692 39.96629 51.27316
#
# Poissons Ratio (x) = 0.46692 0.36101
# Poissons Ratio (y) = 0.60081 -0.19153
# Poissons Ratio (z) = 0.36210 -0.14929
#
# Static dielectric constant tensor:
#      x y z
#    x 3.761650 0.000000 0.593290 
#    y 0.000000 3.960210 0.000000 
#    z 0.593290 0.000000 4.765090 
# 
# 
# High freq. dielectric constant tensor:
#      x y z
#    x 1.771180 0.000000 0.008260 
#    y 0.000000 1.755430 0.000000 
#    z 0.008260 0.000000 1.777430 
# 
# From -- ./inp_files/65085.got.cif
#   From: 2010.06.25/outbox.cif.g09.slc.cpg/sg15_33_cif.got.tgz:65085.got - 2010.06.28 07:06:18.
