data_PCOD8136723
_publ_section_title
;
Structure prediction by ZEFSAII (Michael W. Deem and Ramdas Pophale) SiO2 
 PCOD8136723
Probable space group: C 2/C
;
_chemical_formula_sum "Si O2"
_cell_formula_units_Z 48
_cell_length_a 15.564923
_cell_length_b 18.539704
_cell_length_c 16.630632
_cell_angle_alpha 90.000000
_cell_angle_beta 27.338059
_cell_angle_gamma 90.000000
_cell_volume 2203.930886
_symmetry_space_group_name_H-M "C 2/C"
_symmetry_group_IT_number 15
_symmetry_cell_setting 'monoclinic'
loop_
_space_group_symop_operation_xyz
x,y,z
-x,y,1/2-z
-x,-y,-z
x,-y,1/2+z
1/2+x,1/2+y,z
1/2-x,1/2+y,1/2-z
1/2-x,1/2-y,-z
1/2+x,1/2-y,1/2+z
loop_
_atom_site_type_symbol
_atom_site_label
_atom_site_fract_x
_atom_site_fract_y
_atom_site_fract_z
Si Si1 0.443989 0.957219 0.125799
Si Si2 0.919690 0.811787 0.525394
Si Si3 0.302385 0.843746 0.513319
Si Si4 0.943797 0.597396 0.205560
Si Si5 0.549923 0.691531 0.088294
Si Si6 0.218736 0.347194 0.350100
O O1 0.308431 0.893314 0.209299
O O2 0.360284 0.017528 0.256146
O O3 0.613266 0.921011 0.034398
O O4 0.500000 0.000000 0.000000
O O5 0.717058 0.846293 0.683211
O O6 0.025105 0.837746 0.518640
O O7 0.896526 0.726624 0.555108
O O8 0.056871 0.830998 0.335647
O O9 0.445967 0.778503 0.409972
O O10 0.127546 0.833998 0.715715
O O11 0.237355 0.842625 0.473339
O O12 0.000000 0.607127 0.250000
O O13 0.137072 0.609981 0.994879
#
# Coordination Sequence:
#
# PCOD8136723 Si02
#       6
#     8   8   8   8   8   8
#     4  10  22  42  65  91 137 182 211 267 334 401
#     4  12  22  42  71 102 131 173 231 279 340 395
#     4  10  20  36  61  98 141 170 220 274 334 397
#     4  11  27  48  67  98 137 179 227 277 339 402
#     4  10  20  34  61 103 130 170 217 280 328 395
#     4  11  23  42  73 102 130 174 224 283 335 401
#
# _framework density 21.779267999999998
#
# number of rings (size 3 to 8) (size 9 to 14) (size 15 to 20)
#    0.000    1.333    3.333    3.000    0.000    3.333 
#    3.000    6.667    0.000    0.000    0.000    0.000 
#    0.000    0.000    0.000    0.000    0.000    0.000 
#
# Total GULP energy -297386.498326 kJ/mol
# GULP energy per Si atom -12391.104097 kJ/mol
# Density = 2.172970 g / cm^3
# Si number density = 21.779268 Si / 1000 Ang^3
#
#
#
# Elastic Constant Matrix: (Units=GPa)
#
#
# Indices 1 2 3 4 5 6 
#
# 1 137.3441 46.7741 19.4410 0.0024 3.2964 -0.0044
# 2 46.7741 120.6600 21.0072 -0.0151 -5.2044 0.0021
# 3 19.4410 21.0072 77.8040 -0.0282 7.9926 -0.0018
# 4 0.0024 -0.0151 -0.0282 26.8150 -0.0046 -4.9295
# 5 3.2964 -5.2044 7.9926 -0.0046 19.8995 0.0076
# 6 -0.0044 0.0021 -0.0018 -4.9295 0.0076 35.7756
#
#
#
# Elastic Compliance Matrix: (Units=1/GPa)
#
#
# Indices 1 2 3 4 5 6 
#
# 1 0.008573 -0.003213 -0.001087 -0.000004 -0.001824 0.000001
# 2 -0.003213 0.010121 -0.002354 0.000004 0.004124 -0.000001
# 3 -0.001087 -0.002354 0.014399 0.000014 -0.006219 0.000004
# 4 -0.000004 0.000004 0.000014 0.038262 0.000003 0.005272
# 5 -0.001824 0.004124 -0.006219 0.000003 0.054131 -0.000012
# 6 0.000001 -0.000001 0.000004 0.005272 -0.000012 0.028678
#
#
# Mechanical properties :
#
#
# Convention : Reuss Voigt Hill
#
# Bulk Modulus (GPa) = 50.54262 56.69477 53.61869
# Shear Modulus (GPa) = 28.72477 33.07040 30.89758
#
# Velocity S-wave (km/s) = 3.63561 3.90094 3.77061
# Velocity P-wave (km/s) = 6.39380 6.81012 6.60524
#
# Compressibility (1/GPa) = 0.01978528
#
# Stress axis : x y z
#
# Youngs Moduli (GPa) = 116.64867 98.80656 69.45023
#
# Poissons Ratio (x) = 0.31743 0.07552
# Poissons Ratio (y) = 0.37474 0.16346
# Poissons Ratio (z) = 0.12684 0.23255
#
# Static dielectric constant tensor:
#      x y z
#    x 4.116970 -0.000580 0.001780 
#    y -0.000580 6.410410 0.001030 
#    z 0.001780 0.001030 3.863550 
# 
# 
# High freq. dielectric constant tensor:
#      x y z
#    x 1.850080 0.000000 0.007040 
#    y 0.000000 1.856710 0.000010 
#    z 0.007040 0.000010 1.847620 
# 
# From -- ./inp_files/206380.got.cif
#   From: 2010.06.25/outbox.cif.g09.slc.cpg/sg15_104_cif.got.tgz:206380.got - 2010.06.28 07:06:18.
