data_PCOD8136057
_publ_section_title
;
Structure prediction by ZEFSAII (Michael W. Deem and Ramdas Pophale) SiO2 
 PCOD8136057
Probable space group: C 2/C
;
_chemical_formula_sum "Si O2"
_cell_formula_units_Z 44
_cell_length_a 11.256058
_cell_length_b 15.040709
_cell_length_c 12.740334
_cell_angle_alpha 90.000000
_cell_angle_beta 100.371245
_cell_angle_gamma 90.000000
_cell_volume 2121.686995
_symmetry_space_group_name_H-M "C 2/C"
_symmetry_group_IT_number 15
_symmetry_cell_setting 'monoclinic'
loop_
_space_group_symop_operation_xyz
x,y,z
-x,y,1/2-z
-x,-y,-z
x,-y,1/2+z
1/2+x,1/2+y,z
1/2-x,1/2+y,1/2-z
1/2-x,1/2-y,-z
1/2+x,1/2-y,1/2+z
loop_
_atom_site_type_symbol
_atom_site_label
_atom_site_fract_x
_atom_site_fract_y
_atom_site_fract_z
Si Si1 0.125982 0.749947 0.918639
Si Si2 0.318630 0.978777 0.402102
Si Si3 0.997656 0.629705 0.056762
Si Si4 0.610128 0.562221 0.487061
Si Si5 0.000000 0.244666 0.750000
Si Si6 0.766726 0.143161 0.791682
O O1 0.067357 0.848466 0.917761
O O2 0.165994 0.717979 0.808338
O O3 0.250000 0.750000 0.000000
O O4 0.035426 0.680373 0.956837
O O5 0.379745 0.926218 0.508272
O O6 0.306122 0.920705 0.296410
O O7 0.395857 0.065884 0.385393
O O8 0.186479 0.005430 0.417599
O O9 0.965418 0.697369 0.143745
O O10 0.500000 0.500000 0.500000
O O11 0.689525 0.587027 0.601055
O O12 0.116967 0.185388 0.745433
#
# Coordination Sequence:
#
# PCOD8136057 Si02
#       6
#     8   8   8   8   4   8
#     4  10  19  45  65  86 130 178 207 261 334 382
#     4  11  25  41  65 101 128 168 226 271 318 390
#     4  11  24  42  66  94 133 172 218 274 321 387
#     4  11  22  44  68  94 134 171 217 273 327 386
#     4  12  22  40  68  92 124 178 218 264 328 390
#     4  11  23  42  67  91 131 176 216 264 333 389
#
# _framework density 20.738215
#
# number of rings (size 3 to 8) (size 9 to 14) (size 15 to 20)
#    0.000    1.091    7.273    1.091    2.545    1.455 
#    0.000    1.818    0.000    0.000    0.000    0.000 
#    0.000    0.000    0.000    0.000    0.000    0.000 
#
# Total GULP energy -272792.868554 kJ/mol
# GULP energy per Si atom -12399.675843 kJ/mol
# Density = 2.069101 g / cm^3
# Si number density = 20.738215 Si / 1000 Ang^3
#
#
#
# Elastic Constant Matrix: (Units=GPa)
#
#
# Indices 1 2 3 4 5 6 
#
# 1 57.8809 61.9622 39.1225 0.0000 -18.0339 0.0000
# 2 61.9622 139.7563 43.9562 0.0000 -15.4994 0.0000
# 3 39.1225 43.9562 86.0901 0.0000 -20.2717 0.0000
# 4 0.0000 0.0000 0.0000 41.7067 0.0000 -14.7341
# 5 -18.0339 -15.4994 -20.2717 0.0000 27.8695 0.0000
# 6 0.0000 0.0000 0.0000 -14.7341 0.0000 30.2198
#
#
#
# Elastic Compliance Matrix: (Units=1/GPa)
#
#
# Indices 1 2 3 4 5 6 
#
# 1 0.043582 -0.015014 -0.009008 0.000000 0.013299 0.000000
# 2 -0.015014 0.013781 -0.000840 0.000000 -0.002663 0.000000
# 3 -0.009008 -0.000840 0.017685 0.000000 0.006567 0.000000
# 4 0.000000 0.000000 0.000000 0.028966 0.000000 0.014123
# 5 0.013299 -0.002663 0.006567 0.000000 0.047783 0.000000
# 6 0.000000 0.000000 0.000000 0.014123 0.000000 0.039977
#
#
# Mechanical properties :
#
#
# Convention : Reuss Voigt Hill
#
# Bulk Modulus (GPa) = 39.48966 63.75657 51.62311
# Shear Modulus (GPa) = 20.00486 29.20497 24.60491
#
# Velocity S-wave (km/s) = 3.10923 3.75676 3.44823
# Velocity P-wave (km/s) = 5.65447 7.04471 6.38753
#
# Compressibility (1/GPa) = 0.02532308
#
# Stress axis : x y z
#
# Youngs Moduli (GPa) = 22.94529 72.56312 56.54664
#
# Poissons Ratio (x) = 1.08950 0.50934
# Poissons Ratio (y) = 0.34451 0.04751
# Poissons Ratio (z) = 0.20668 0.06097
#
# Static dielectric constant tensor:
#      x y z
#    x 3.677720 0.000000 -0.196120 
#    y 0.000000 0.082860 0.000000 
#    z -0.196120 0.000000 3.574960 
# 
# 
# High freq. dielectric constant tensor:
#      x y z
#    x 1.810490 0.000000 -0.019070 
#    y 0.000000 1.828710 0.000000 
#    z -0.019070 0.000000 1.799420 
# 
# From -- ./inp_files/86160.got.cif
#   From: 2010.06.25/outbox.cif.g09.slc.cpg/sg15_44_cif.got.tgz:86160.got - 2010.06.28 07:06:18.
