data_PCOD8136818
_publ_section_title
;
Structure prediction by ZEFSAII (Michael W. Deem and Ramdas Pophale) SiO2 
 PCOD8136818
Probable space group: C 2/C
;
_chemical_formula_sum "Si O2"
_cell_formula_units_Z 48
_cell_length_a 5.207820
_cell_length_b 25.413046
_cell_length_c 15.845652
_cell_angle_alpha 90.000000
_cell_angle_beta 88.191950
_cell_angle_gamma 90.000000
_cell_volume 2096.073603
_symmetry_space_group_name_H-M "C 2/C"
_symmetry_group_IT_number 15
_symmetry_cell_setting 'monoclinic'
loop_
_space_group_symop_operation_xyz
x,y,z
-x,y,1/2-z
-x,-y,-z
x,-y,1/2+z
1/2+x,1/2+y,z
1/2-x,1/2+y,1/2-z
1/2-x,1/2-y,-z
1/2+x,1/2-y,1/2+z
loop_
_atom_site_type_symbol
_atom_site_label
_atom_site_fract_x
_atom_site_fract_y
_atom_site_fract_z
Si Si1 0.878598 0.817493 0.443827
Si Si2 0.870122 0.655355 0.028168
Si Si3 0.080306 0.454589 0.062834
Si Si4 0.245871 0.361251 0.779280
Si Si5 0.071488 0.926802 0.151725
Si Si6 0.248717 0.253113 0.293605
O O1 0.658597 0.822737 0.517740
O O2 0.906316 0.868026 0.383975
O O3 0.773574 0.767676 0.391780
O O4 0.159045 0.808335 0.482097
O O5 0.770722 0.655165 0.124437
O O6 0.878171 0.596837 0.993378
O O7 0.353147 0.462452 0.107445
O O8 0.852393 0.451874 0.134269
O O9 0.000000 0.500000 0.000000
O O10 0.500000 0.394090 0.750000
O O11 0.253963 0.309669 0.718377
O O12 0.000000 0.394880 0.750000
O O13 0.000000 0.924392 0.250000
O O14 0.500000 0.279168 0.250000
O O15 0.000000 0.278642 0.250000
#
# Coordination Sequence:
#
# PCOD8136818 Si02
#       6
#     8   8   8   8   8   8
#     4  10  20  35  58  84 110 145 189 236 287 337
#     4  10  21  38  59  81 109 151 191 230 288 349
#     4  10  21  38  59  85 118 149 185 237 288 340
#     4  10  21  39  56  77 112 151 192 238 284 338
#     4  10  20  35  59  87 116 147 185 234 287 341
#     4  10  20  35  53  78 111 147 185 235 285 327
#
# _framework density 22.89996
#
# number of rings (size 3 to 8) (size 9 to 14) (size 15 to 20)
#    0.000    2.000    0.000    3.500    0.000    2.667 
#    0.000   22.500    0.000    0.000    0.000    0.000 
#    0.000    0.000    0.000    0.000    0.000    0.000 
#
# Total GULP energy -297367.324258 kJ/mol
# GULP energy per Si atom -12390.305177 kJ/mol
# Density = 2.284784 g / cm^3
# Si number density = 22.899960 Si / 1000 Ang^3
#
#
#
# Elastic Constant Matrix: (Units=GPa)
#
#
# Indices 1 2 3 4 5 6 
#
# 1 199.1808 27.4615 44.5981 0.0000 1.8091 0.0000
# 2 27.4615 25.0419 11.0134 0.0000 -3.3179 0.0000
# 3 44.5981 11.0134 104.9392 0.0000 -12.0229 0.0000
# 4 0.0000 0.0000 0.0000 19.7648 0.0000 2.5134
# 5 1.8091 -3.3179 -12.0229 0.0000 45.8205 0.0000
# 6 0.0000 0.0000 0.0000 2.5134 0.0000 6.5368
#
#
#
# Elastic Compliance Matrix: (Units=1/GPa)
#
#
# Indices 1 2 3 4 5 6 
#
# 1 0.006381 -0.006196 -0.002208 0.000000 -0.001280 0.000000
# 2 -0.006196 0.048049 -0.002044 0.000000 0.003188 0.000000
# 3 -0.002208 -0.002044 0.011006 0.000000 0.002827 0.000000
# 4 0.000000 0.000000 0.000000 0.053196 0.000000 -0.020454
# 5 -0.001280 0.003188 0.002827 0.000000 0.022847 0.000000
# 6 0.000000 0.000000 0.000000 -0.020454 0.000000 0.160845
#
#
# Mechanical properties :
#
#
# Convention : Reuss Voigt Hill
#
# Bulk Modulus (GPa) = 22.45210 55.03422 38.74316
# Shear Modulus (GPa) = 14.78995 30.83036 22.81015
#
# Velocity S-wave (km/s) = 2.54412 3.67319 3.15949
# Velocity P-wave (km/s) = 4.29601 6.48647 5.50137
#
# Compressibility (1/GPa) = 0.04453927
#
# Stress axis : x y z
#
# Youngs Moduli (GPa) = 156.71891 20.81208 90.85754
#
# Poissons Ratio (x) = 0.12895 0.20063
# Poissons Ratio (y) = 0.97100 0.18575
# Poissons Ratio (z) = 0.34607 0.04255
#
# Static dielectric constant tensor:
#      x y z
#    x 6.162290 0.000000 0.073200 
#    y 0.000000 3.675020 0.000000 
#    z 0.073200 0.000000 4.021610 
# 
# 
# High freq. dielectric constant tensor:
#      x y z
#    x 1.941290 0.000000 -0.004430 
#    y 0.000000 1.853940 0.000000 
#    z -0.004430 0.000000 1.910040 
# 
# From -- ./inp_files/130051.got.cif
#   From: 2010.06.25/outbox.cif.g09.slc.cpg/sg15_66_cif.got.tgz:130051.got - 2010.06.28 07:06:18.
