data_PCOD8136391
_publ_section_title
;
Structure prediction by ZEFSAII (Michael W. Deem and Ramdas Pophale) SiO2 
 PCOD8136391
Probable space group: C 2/C
;
_chemical_formula_sum "Si O2"
_cell_formula_units_Z 60
_cell_length_a 16.638724
_cell_length_b 8.613011
_cell_length_c 23.743356
_cell_angle_alpha 90.000000
_cell_angle_beta 114.643433
_cell_angle_gamma 90.000000
_cell_volume 3092.736506
_symmetry_space_group_name_H-M "C 2/C"
_symmetry_group_IT_number 15
_symmetry_cell_setting 'monoclinic'
loop_
_space_group_symop_operation_xyz
x,y,z
-x,y,1/2-z
-x,-y,-z
x,-y,1/2+z
1/2+x,1/2+y,z
1/2-x,1/2+y,1/2-z
1/2-x,1/2-y,-z
1/2+x,1/2-y,1/2+z
loop_
_atom_site_type_symbol
_atom_site_label
_atom_site_fract_x
_atom_site_fract_y
_atom_site_fract_z
Si Si1 0.000000 0.176358 0.750000
Si Si2 0.857048 0.944357 0.678199
Si Si3 0.498402 0.084214 0.339699
Si Si4 0.709771 0.828155 0.153850
Si Si5 0.740431 0.237049 0.063341
Si Si6 0.421780 0.952271 0.936325
Si Si7 0.192604 0.533160 0.359206
Si Si8 0.121883 0.663376 0.740694
O O1 0.068967 0.076223 0.806693
O O2 0.043550 0.287064 0.715104
O O3 0.773327 0.024439 0.683156
O O4 0.822152 0.869672 0.609533
O O5 0.901527 0.812640 0.729417
O O6 0.463068 0.123770 0.391677
O O7 0.604433 0.078198 0.368163
O O8 0.466976 0.914057 0.309705
O O9 0.626988 0.887678 0.093256
O O10 0.752980 0.690830 0.131097
O O11 0.681782 0.773135 0.207418
O O12 0.748095 0.410714 0.089568
O O13 0.645110 0.168752 0.053481
O O14 0.750000 0.250000 0.000000
O O15 0.500000 0.000000 0.000000
O O16 0.173325 0.464709 0.292094
#
# Coordination Sequence:
#
# PCOD8136391 Si02
#       8
#     4   8   8   8   8   8   8   8
#     4  12  22  36  58  96 132 156 210 256 324 378
#     4  10  22  35  58  91 125 157 205 258 310 374
#     4  11  21  38  63  89 128 163 201 258 314 379
#     4  10  20  38  59  90 118 159 202 253 307 373
#     4  10  23  43  65  86 121 167 219 259 315 381
#     4  10  23  44  63  87 120 164 210 263 314 365
#     4  11  20  37  61  89 118 161 204 249 314 370
#     4  10  20  33  60  86 126 160 198 240 315 369
#
# _framework density 19.400293999999999
#
# number of rings (size 3 to 8) (size 9 to 14) (size 15 to 20)
#    0.000    1.600    2.667    1.600    3.733    5.333 
#    2.400    2.667    0.000    0.000    0.000    0.000 
#    0.000    0.000    0.000    0.000    0.000    0.000 
#
# Total GULP energy -371916.154656 kJ/mol
# GULP energy per Si atom -12397.205155 kJ/mol
# Density = 1.935614 g / cm^3
# Si number density = 19.400294 Si / 1000 Ang^3
#
#
#
# Elastic Constant Matrix: (Units=GPa)
#
#
# Indices 1 2 3 4 5 6 
#
# 1 120.9624 58.4426 70.0926 0.0000 -10.6717 0.0000
# 2 58.4426 110.6982 53.1818 0.0000 -5.3548 0.0000
# 3 70.0926 53.1818 122.4318 0.0000 -14.8216 0.0000
# 4 0.0000 0.0000 0.0000 21.5668 0.0000 6.9676
# 5 -10.6717 -5.3548 -14.8216 0.0000 32.4922 0.0000
# 6 0.0000 0.0000 0.0000 6.9676 0.0000 34.4443
#
#
#
# Elastic Compliance Matrix: (Units=1/GPa)
#
#
# Indices 1 2 3 4 5 6 
#
# 1 0.013951 -0.004473 -0.005905 0.000000 0.001151 0.000000
# 2 -0.004473 0.012855 -0.003117 0.000000 -0.000772 0.000000
# 3 -0.005905 -0.003117 0.013342 0.000000 0.003633 0.000000
# 4 0.000000 0.000000 0.000000 0.049610 0.000000 -0.010035
# 5 0.001151 -0.000772 0.003633 0.000000 0.032685 0.000000
# 6 0.000000 0.000000 0.000000 -0.010035 0.000000 0.031062
#
#
# Mechanical properties :
#
#
# Convention : Reuss Voigt Hill
#
# Bulk Modulus (GPa) = 75.99132 79.72514 77.85823
# Shear Modulus (GPa) = 27.04451 29.19236 28.11844
#
# Velocity S-wave (km/s) = 3.73772 3.88330 3.81121
# Velocity P-wave (km/s) = 7.60806 7.82884 7.71924
#
# Compressibility (1/GPa) = 0.01315940
#
# Stress axis : x y z
#
# Youngs Moduli (GPa) = 71.67773 77.79057 74.95170
#
# Poissons Ratio (x) = 0.34796 0.44257
# Poissons Ratio (y) = 0.32062 0.23359
# Poissons Ratio (z) = 0.42324 0.24244
#
# Static dielectric constant tensor:
#      x y z
#    x 3.603590 0.000000 0.028780 
#    y 0.000000 3.661120 0.000000 
#    z 0.028780 0.000000 3.495840 
# 
# 
# High freq. dielectric constant tensor:
#      x y z
#    x 1.754800 0.000000 0.002730 
#    y 0.000000 1.760650 0.000000 
#    z 0.002730 0.000000 1.745940 
# 
# From -- ./inp_files/276327.got.cif
#   From: 2010.06.25/outbox.cif.g09.slc.cpg/sg15_139_cif.got.tgz:276327.got - 2010.06.28 07:06:18.
