data_PCOD8136636
_publ_section_title
;
Structure prediction by ZEFSAII (Michael W. Deem and Ramdas Pophale) SiO2 
 PCOD8136636
Probable space group: C 2/C
;
_chemical_formula_sum "Si O2"
_cell_formula_units_Z 64
_cell_length_a 26.516409
_cell_length_b 15.591478
_cell_length_c 18.342560
_cell_angle_alpha 90.000000
_cell_angle_beta 155.021807
_cell_angle_gamma 90.000000
_cell_volume 3202.252345
_symmetry_space_group_name_H-M "C 2/C"
_symmetry_group_IT_number 15
_symmetry_cell_setting 'monoclinic'
loop_
_space_group_symop_operation_xyz
x,y,z
-x,y,1/2-z
-x,-y,-z
x,-y,1/2+z
1/2+x,1/2+y,z
1/2-x,1/2+y,1/2-z
1/2-x,1/2-y,-z
1/2+x,1/2-y,1/2+z
loop_
_atom_site_type_symbol
_atom_site_label
_atom_site_fract_x
_atom_site_fract_y
_atom_site_fract_z
Si Si1 0.727125 0.907058 0.367341
Si Si2 0.621821 0.655370 0.872197
Si Si3 0.877882 0.515925 0.381778
Si Si4 0.521529 0.189322 0.973639
Si Si5 0.323205 0.748551 0.698562
Si Si6 0.932573 0.135905 0.036816
Si Si7 0.264682 0.423096 0.191633
Si Si8 0.162479 0.977440 0.853695
O O1 0.614887 0.844087 0.205393
O O2 0.849000 0.862683 0.499143
O O3 0.733661 0.931930 0.461501
O O4 0.719379 0.994141 0.308044
O O5 0.500000 0.678741 0.750000
O O6 0.628061 0.723329 0.815682
O O7 0.616810 0.559011 0.837850
O O8 0.733123 0.670950 0.073040
O O9 0.882407 0.613325 0.417310
O O10 0.853739 0.453721 0.419779
O O11 0.000000 0.500000 0.500000
O O12 0.539080 0.263990 0.938360
O O13 0.558999 0.226489 0.101582
O O14 0.245683 0.669643 0.630571
O O15 0.056342 0.089408 0.211520
O O16 0.873764 0.086857 0.891078
O O17 0.292137 0.495871 0.166877
#
# Coordination Sequence:
#
# PCOD8136636 Si02
#       8
#     8   8   8   8   8   8   8   8
#     4  10  21  37  58  83 113 148 188 240 290 338
#     4  10  20  34  58  88 116 151 187 232 293 348
#     4   9  19  37  58  81 109 146 189 228 280 346
#     4  10  21  37  57  81 111 151 195 235 283 347
#     4   9  20  37  56  87 119 143 187 241 290 343
#     4  10  21  37  57  83 115 150 192 240 287 342
#     4   9  20  38  59  83 113 150 190 238 291 342
#     4  11  21  37  57  82 115 150 193 239 288 344
#
# _framework density 19.985934
#
# number of rings (size 3 to 8) (size 9 to 14) (size 15 to 20)
#    0.000    2.250    0.000    2.250    0.000    6.500 
#    0.000    7.500    0.000    0.000    0.000    0.000 
#    0.000    0.000    0.000    0.000    0.000    0.000 
#
# Total GULP energy -396526.986413 kJ/mol
# GULP energy per Si atom -12391.468325 kJ/mol
# Density = 1.994045 g / cm^3
# Si number density = 19.985934 Si / 1000 Ang^3
#
#
#
# Elastic Constant Matrix: (Units=GPa)
#
#
# Indices 1 2 3 4 5 6 
#
# 1 115.8049 44.8056 44.4237 0.0000 7.2129 0.0000
# 2 44.8056 121.8625 44.8592 0.0000 6.7217 0.0000
# 3 44.4237 44.8592 78.5268 0.0000 0.2089 0.0000
# 4 0.0000 0.0000 0.0000 34.2953 0.0000 -5.3748
# 5 7.2129 6.7217 0.2089 0.0000 28.0836 0.0000
# 6 0.0000 0.0000 0.0000 -5.3748 0.0000 -19.6953
#
#
#
# Elastic Compliance Matrix: (Units=1/GPa)
#
#
# Indices 1 2 3 4 5 6 
#
# 1 0.011689 -0.002193 -0.005354 0.000000 -0.002438 0.000000
# 2 -0.002193 0.010973 -0.005023 0.000000 -0.002026 0.000000
# 3 -0.005354 -0.005023 0.018626 0.000000 0.002439 0.000000
# 4 0.000000 0.000000 0.000000 0.027963 0.000000 -0.007631
# 5 -0.002438 -0.002026 0.002439 0.000000 0.036701 0.000000
# 6 0.000000 0.000000 0.000000 -0.007631 0.000000 -0.048691
#
#
# Mechanical properties :
#
#
# Convention : Reuss Voigt Hill
#
# Bulk Modulus (GPa) = 61.91905 64.93015 63.42460
# Shear Modulus (GPa) = 56.96012 20.67709 38.81861
#
# Velocity S-wave (km/s) = 5.34434 3.21998 4.41193
# Velocity P-wave (km/s) = 8.31452 6.81049 7.59980
#
# Compressibility (1/GPa) = 0.01615012
#
# Stress axis : x y z
#
# Youngs Moduli (GPa) = 85.55007 91.13519 53.68890
#
# Poissons Ratio (x) = 0.19982 0.28743
# Poissons Ratio (y) = 0.18757 0.26965
# Poissons Ratio (z) = 0.45801 0.45773
#
# Static dielectric constant tensor:
#      x y z
#    x 3.675580 0.000000 -0.162610 
#    y 0.000000 3.954050 0.000000 
#    z -0.162610 0.000000 3.599550 
# 
# 
# High freq. dielectric constant tensor:
#      x y z
#    x 1.774580 0.000000 -0.011100 
#    y 0.000000 1.784310 0.000000 
#    z -0.011100 0.000000 1.773040 
# 
# From -- ./inp_files/259466.got.cif
#   From: 2010.06.25/outbox.cif.g09.slc.cpg/sg15_130_cif.got.tgz:259466.got - 2010.06.28 07:06:18.
