data_PCOD8136755
_publ_section_title
;
Structure prediction by ZEFSAII (Michael W. Deem and Ramdas Pophale) SiO2 
 PCOD8136755
Probable space group: C 2/C
;
_chemical_formula_sum "Si O2"
_cell_formula_units_Z 64
_cell_length_a 27.686116
_cell_length_b 11.319586
_cell_length_c 22.007166
_cell_angle_alpha 90.000000
_cell_angle_beta 27.638450
_cell_angle_gamma 90.000000
_cell_volume 3199.427769
_symmetry_space_group_name_H-M "C 2/C"
_symmetry_group_IT_number 15
_symmetry_cell_setting 'monoclinic'
loop_
_space_group_symop_operation_xyz
x,y,z
-x,y,1/2-z
-x,-y,-z
x,-y,1/2+z
1/2+x,1/2+y,z
1/2-x,1/2+y,1/2-z
1/2-x,1/2-y,-z
1/2+x,1/2-y,1/2+z
loop_
_atom_site_type_symbol
_atom_site_label
_atom_site_fract_x
_atom_site_fract_y
_atom_site_fract_z
Si Si1 0.707514 0.588276 0.164134
Si Si2 0.491836 0.931976 0.436296
Si Si3 0.624086 0.453265 0.941748
Si Si4 0.367580 0.756274 0.148583
Si Si5 0.000052 0.074677 0.319791
Si Si6 0.191548 0.124459 0.770740
Si Si7 0.644801 0.886912 0.811101
Si Si8 0.571251 0.831032 0.113367
O O1 0.698519 0.683807 0.227961
O O2 0.615573 0.598365 0.216881
O O3 0.712636 0.457190 0.187982
O O4 0.811659 0.620180 0.010118
O O5 0.544106 0.827694 0.416493
O O6 0.376008 0.930185 0.595441
O O7 0.488357 0.905824 0.370349
O O8 0.552982 0.055409 0.373267
O O9 0.582470 0.335250 0.955235
O O10 0.613520 0.559834 0.904927
O O11 0.742730 0.436847 0.832208
O O12 0.553404 0.475564 0.079108
O O13 0.296379 0.847027 0.190821
O O14 0.929620 0.192530 0.402060
O O15 0.000000 0.029816 0.250000
O O16 0.139306 0.246514 0.807224
O O17 0.500000 0.856366 0.250000
#
# Coordination Sequence:
#
# PCOD8136755 Si02
#       8
#     8   8   8   8   8   8   8   8
#     4  11  24  42  62  94 131 160 209 271 307 381
#     4  11  20  37  58  98 124 162 207 253 315 375
#     4  10  20  37  58  91 123 161 199 260 317 368
#     4  10  20  34  62  93 126 163 194 263 319 373
#     4  11  25  42  64  91 122 167 213 260 314 380
#     4  10  20  37  60  93 129 164 200 257 322 372
#     4  10  22  33  61  94 128 161 204 260 308 379
#     4  11  25  42  63  89 126 166 210 259 316 377
#
# _framework density 20.003578000000001
#
# number of rings (size 3 to 8) (size 9 to 14) (size 15 to 20)
#    0.000    1.500    2.500    3.750    3.500    4.000 
#    0.000    0.000    0.000   10.500    0.000    0.000 
#    0.000    0.000    0.000    0.000    0.000    0.000 
#
# Total GULP energy -396696.630903 kJ/mol
# GULP energy per Si atom -12396.769716 kJ/mol
# Density = 1.995805 g / cm^3
# Si number density = 20.003578 Si / 1000 Ang^3
#
#
#
# Elastic Constant Matrix: (Units=GPa)
#
#
# Indices 1 2 3 4 5 6 
#
# 1 104.1495 35.0407 49.1142 -0.0001 -3.2391 0.0000
# 2 35.0407 107.5768 42.7655 -0.0012 -3.0132 0.0001
# 3 49.1142 42.7655 109.6882 -0.0005 -2.6999 0.0000
# 4 -0.0001 -0.0012 -0.0005 23.2352 0.0001 -3.6666
# 5 -3.2391 -3.0132 -2.6999 0.0001 28.3634 0.0001
# 6 0.0000 0.0001 0.0000 -3.6666 0.0001 26.9965
#
#
#
# Elastic Compliance Matrix: (Units=1/GPa)
#
#
# Indices 1 2 3 4 5 6 
#
# 1 0.012614 -0.002189 -0.004776 0.000000 0.000753 0.000000
# 2 -0.002189 0.011397 -0.003448 0.000000 0.000633 0.000000
# 3 -0.004776 -0.003448 0.012607 0.000000 0.000288 0.000000
# 4 0.000000 0.000000 0.000000 0.043981 0.000000 0.005973
# 5 0.000753 0.000633 0.000288 0.000000 0.035437 0.000000
# 6 0.000000 0.000000 0.000000 0.005973 0.000000 0.037853
#
#
# Mechanical properties :
#
#
# Convention : Reuss Voigt Hill
#
# Bulk Modulus (GPa) = 63.32361 63.91727 63.62044
# Shear Modulus (GPa) = 27.78118 28.68528 28.23323
#
# Velocity S-wave (km/s) = 3.73072 3.79094 3.76095
# Velocity P-wave (km/s) = 7.09102 7.15429 7.12273
#
# Compressibility (1/GPa) = 0.01579190
#
# Stress axis : x y z
#
# Youngs Moduli (GPa) = 79.27902 87.74227 79.32358
#
# Poissons Ratio (x) = 0.19206 0.37885
# Poissons Ratio (y) = 0.17353 0.27349
# Poissons Ratio (z) = 0.37863 0.30252
#
# Static dielectric constant tensor:
#      x y z
#    x 3.582010 0.000000 -0.109790 
#    y 0.000000 3.864290 0.000000 
#    z -0.109790 0.000000 3.553860 
# 
# 
# High freq. dielectric constant tensor:
#      x y z
#    x 1.769680 0.000000 -0.022620 
#    y 0.000000 1.788840 0.000000 
#    z -0.022620 0.000000 1.774100 
# 
# From -- ./inp_files/257508.got.cif
#   From: 2010.06.25/outbox.cif.g09.slc.cpg/sg15_129_cif.got.tgz:257508.got - 2010.06.28 07:06:18.
