data_PCOD8136467
_publ_section_title
;
Structure prediction by ZEFSAII (Michael W. Deem and Ramdas Pophale) SiO2 
 PCOD8136467
Probable space group: C 2/C
;
_chemical_formula_sum "Si O2"
_cell_formula_units_Z 52
_cell_length_a 6.440265
_cell_length_b 23.409208
_cell_length_c 20.975281
_cell_angle_alpha 90.000000
_cell_angle_beta 66.480706
_cell_angle_gamma 90.000000
_cell_volume 2899.562092
_symmetry_space_group_name_H-M "C 2/C"
_symmetry_group_IT_number 15
_symmetry_cell_setting 'monoclinic'
loop_
_space_group_symop_operation_xyz
x,y,z
-x,y,1/2-z
-x,-y,-z
x,-y,1/2+z
1/2+x,1/2+y,z
1/2-x,1/2+y,1/2-z
1/2-x,1/2-y,-z
1/2+x,1/2-y,1/2+z
loop_
_atom_site_type_symbol
_atom_site_label
_atom_site_fract_x
_atom_site_fract_y
_atom_site_fract_z
Si Si1 0.160293 0.417631 0.984300
Si Si2 0.368522 0.596508 0.586037
Si Si3 0.928175 0.711737 0.014899
Si Si4 0.236527 0.975139 0.100173
Si Si5 0.500000 0.328511 0.250000
Si Si6 0.591750 0.289662 0.100440
Si Si7 0.102059 0.416874 0.301390
O O1 0.156713 0.352364 0.962349
O O2 0.240606 0.457590 0.916069
O O3 0.352680 0.424782 0.015115
O O4 0.912002 0.438062 0.036871
O O5 0.484099 0.546933 0.614369
O O6 0.512096 0.653536 0.574424
O O7 0.110961 0.611222 0.636723
O O8 0.976965 0.735837 0.079699
O O9 0.750000 0.750000 0.000000
O O10 0.140763 0.713038 0.941520
O O11 0.280899 0.965481 0.169813
O O12 0.534633 0.289671 0.182929
O O13 0.280602 0.367297 0.263565
O O14 0.000000 0.445300 0.250000
#
# Coordination Sequence:
#
# PCOD8136467 Si02
#       7
#     8   8   8   8   4   8   8
#     4  10  20  34  56  79 116 152 185 230 286 344
#     4  11  18  34  55  88 112 144 187 236 299 342
#     4  11  22  38  57  86 122 155 193 242 292 348
#     4  10  20  34  53  85 115 142 189 235 282 351
#     4  12  22  38  58  86 120 146 198 250 294 358
#     4  11  22  35  59  87 117 152 196 246 294 345
#     4  11  20  32  56  84 112 145 183 244 301 339
#
# _framework density 17.933741999999999
#
# number of rings (size 3 to 8) (size 9 to 14) (size 15 to 20)
#    0.000    1.231    6.154    1.385    0.000    0.000 
#    0.000    0.000    1.692    0.000    4.000    0.000 
#    0.000    0.000    0.000    0.000    0.000    0.000 
#
# Total GULP energy -322346.003052 kJ/mol
# GULP energy per Si atom -12397.923194 kJ/mol
# Density = 1.789292 g / cm^3
# Si number density = 17.933742 Si / 1000 Ang^3
#
#
#
# Elastic Constant Matrix: (Units=GPa)
#
#
# Indices 1 2 3 4 5 6 
#
# 1 125.5895 53.5750 52.9405 0.0000 11.6448 0.0000
# 2 53.5750 126.3148 46.4129 0.0000 10.3824 0.0000
# 3 52.9405 46.4129 102.2512 0.0000 21.0766 0.0000
# 4 0.0000 0.0000 0.0000 29.0121 0.0000 5.4568
# 5 11.6448 10.3824 21.0766 0.0000 38.2781 0.0000
# 6 0.0000 0.0000 0.0000 5.4568 0.0000 23.4670
#
#
#
# Elastic Compliance Matrix: (Units=1/GPa)
#
#
# Indices 1 2 3 4 5 6 
#
# 1 0.011126 -0.003122 -0.004309 0.000000 -0.000165 0.000000
# 2 -0.003122 0.010379 -0.003057 0.000000 -0.000182 0.000000
# 3 -0.004309 -0.003057 0.014617 0.000000 -0.005908 0.000000
# 4 0.000000 0.000000 0.000000 0.036045 0.000000 -0.008382
# 5 -0.000165 -0.000182 -0.005908 0.000000 0.029477 0.000000
# 6 0.000000 0.000000 0.000000 -0.008382 0.000000 0.044562
#
#
# Mechanical properties :
#
#
# Convention : Reuss Voigt Hill
#
# Bulk Modulus (GPa) = 66.03066 73.33468 69.68267
# Shear Modulus (GPa) = 29.03067 31.56658 30.29862
#
# Velocity S-wave (km/s) = 4.02776 4.20000 4.11478
# Velocity P-wave (km/s) = 7.65047 8.03124 7.84316
#
# Compressibility (1/GPa) = 0.01514448
#
# Stress axis : x y z
#
# Youngs Moduli (GPa) = 89.87843 96.34624 68.41560
#
# Poissons Ratio (x) = 0.30079 0.29483
# Poissons Ratio (y) = 0.28060 0.20917
# Poissons Ratio (z) = 0.38732 0.29456
#
# Static dielectric constant tensor:
#      x y z
#    x 3.684710 0.000000 0.071210 
#    y 0.000000 3.213200 0.000000 
#    z 0.071210 0.000000 3.337390 
# 
# 
# High freq. dielectric constant tensor:
#      x y z
#    x 1.722390 0.000000 0.004020 
#    y 0.000000 1.667750 0.000000 
#    z 0.004020 0.000000 1.675160 
# 
# From -- ./inp_files/227475.got.cif
#   From: 2010.06.25/outbox.cif.g09.slc.cpg/sg15_114_cif.got.tgz:227475.got - 2010.06.28 07:06:18.
