data_PCOD8136077
_publ_section_title
;
Structure prediction by ZEFSAII (Michael W. Deem and Ramdas Pophale) SiO2 
 PCOD8136077
Probable space group: C 2/C
;
_chemical_formula_sum "Si O2"
_cell_formula_units_Z 56
_cell_length_a 20.987909
_cell_length_b 16.565645
_cell_length_c 23.665621
_cell_angle_alpha 90.000000
_cell_angle_beta 156.978392
_cell_angle_gamma 90.000000
_cell_volume 3217.800335
_symmetry_space_group_name_H-M "C 2/C"
_symmetry_group_IT_number 15
_symmetry_cell_setting 'monoclinic'
loop_
_space_group_symop_operation_xyz
x,y,z
-x,y,1/2-z
-x,-y,-z
x,-y,1/2+z
1/2+x,1/2+y,z
1/2-x,1/2+y,1/2-z
1/2-x,1/2-y,-z
1/2+x,1/2-y,1/2+z
loop_
_atom_site_type_symbol
_atom_site_label
_atom_site_fract_x
_atom_site_fract_y
_atom_site_fract_z
Si Si1 0.566253 0.664602 0.741951
Si Si2 0.327822 0.540685 0.850113
Si Si3 0.558579 0.926007 0.627972
Si Si4 0.557841 0.293662 0.022272
Si Si5 0.583969 0.762569 0.974109
Si Si6 0.273293 0.651553 0.209168
Si Si7 0.714993 0.515147 0.814415
O O1 0.500000 0.678703 0.750000
O O2 0.432323 0.696586 0.588294
O O3 0.728478 0.716177 0.863546
O O4 0.597096 0.569552 0.757058
O O5 0.188755 0.484251 0.766128
O O6 0.328259 0.627664 0.880037
O O7 0.294549 0.551028 0.756582
O O8 0.500000 0.500000 0.000000
O O9 0.513368 0.843965 0.624538
O O10 0.643916 0.899196 0.639792
O O11 0.399525 0.978419 0.486316
O O12 0.674980 0.221393 0.095831
O O13 0.483601 0.272821 0.022571
O O14 0.413876 0.306664 0.860425
O O15 0.343717 0.579070 0.227145
#
# Coordination Sequence:
#
# PCOD8136077 Si02
#       7
#     8   8   8   8   8   8   8
#     4  11  22  35  53  71  93 133 176 212 246 283
#     4  11  18  29  46  72 100 131 165 190 232 303
#     4   9  19  30  46  67 100 137 157 190 244 292
#     4  11  20  29  49  73 105 134 159 192 244 301
#     4  10  20  34  49  72 104 130 164 203 247 290
#     4  10  20  30  44  74 100 131 164 189 239 304
#     4  10  20  34  47  66 103 132 164 205 246 285
#
# _framework density 17.403193999999999
#
# number of rings (size 3 to 8) (size 9 to 14) (size 15 to 20)
#    0.000    1.714    4.286    3.857    6.000    0.000 
#    0.000    0.000    0.000    0.000    0.000    1.000 
#    0.000    0.000    0.000    0.000    0.000    0.000 
#
# Total GULP energy -347031.240138 kJ/mol
# GULP energy per Si atom -12393.972862 kJ/mol
# Density = 1.736358 g / cm^3
# Si number density = 17.403194 Si / 1000 Ang^3
#
#
#
# Elastic Constant Matrix: (Units=GPa)
#
#
# Indices 1 2 3 4 5 6 
#
# 1 24.3135 13.5754 17.3922 -0.0037 -4.3143 0.0082
# 2 13.5754 130.5563 51.1653 0.0657 -5.1328 -0.0120
# 3 17.3922 51.1653 70.8073 0.0665 -11.7121 -0.0111
# 4 -0.0037 0.0657 0.0665 34.0142 -0.0048 -3.4901
# 5 -4.3143 -5.1328 -11.7121 -0.0048 11.2575 0.0005
# 6 0.0082 -0.0120 -0.0111 -3.4901 0.0005 8.3503
#
#
#
# Elastic Compliance Matrix: (Units=1/GPa)
#
#
# Indices 1 2 3 4 5 6 
#
# 1 0.050518 -0.000832 -0.010470 0.000023 0.008089 -0.000055
# 2 -0.000832 0.010837 -0.008288 -0.000005 -0.004001 0.000003
# 3 -0.010470 -0.008288 0.025842 -0.000031 0.019094 0.000019
# 4 0.000023 -0.000005 -0.000031 0.030717 -0.000013 0.012838
# 5 0.008089 -0.004001 0.019094 -0.000013 0.109970 -0.000001
# 6 -0.000055 0.000003 0.000019 0.012838 -0.000001 0.125122
#
#
# Mechanical properties :
#
#
# Convention : Reuss Voigt Hill
#
# Bulk Modulus (GPa) = 20.82565 43.32699 32.07632
# Shear Modulus (GPa) = 12.24916 20.29402 16.27159
#
# Velocity S-wave (km/s) = 2.65589 3.41854 3.06106
# Velocity P-wave (km/s) = 4.62575 6.36647 5.56460
#
# Compressibility (1/GPa) = 0.04801772
#
# Stress axis : x y z
#
# Youngs Moduli (GPa) = 19.79479 92.27737 38.69702
#
# Poissons Ratio (x) = 0.07676 0.40514
# Poissons Ratio (y) = 0.01647 0.32073
# Poissons Ratio (z) = 0.20724 0.76481
#
# Static dielectric constant tensor:
#      x y z
#    x 2.766510 -0.000170 -0.083990 
#    y -0.000170 3.955970 0.000120 
#    z -0.083990 0.000120 3.584910 
# 
# 
# High freq. dielectric constant tensor:
#      x y z
#    x 1.588040 0.000000 -0.003320 
#    y 0.000000 1.696380 -0.000010 
#    z -0.003320 -0.000010 1.688280 
# 
# From -- ./inp_files/62223.got.cif
#   From: 2010.06.25/outbox.cif.g09.slc.cpg/sg15_32_cif.got.tgz:62223.got - 2010.06.28 07:06:18.
