data_PCOD8136021
_publ_section_title
;
Structure prediction by ZEFSAII (Michael W. Deem and Ramdas Pophale) SiO2 
 PCOD8136021
Probable space group: C 2/C
;
_chemical_formula_sum "Si O2"
_cell_formula_units_Z 56
_cell_length_a 8.717005
_cell_length_b 31.038917
_cell_length_c 13.154568
_cell_angle_alpha 90.000000
_cell_angle_beta 51.989332
_cell_angle_gamma 90.000000
_cell_volume 2804.267254
_symmetry_space_group_name_H-M "C 2/C"
_symmetry_group_IT_number 15
_symmetry_cell_setting 'monoclinic'
loop_
_space_group_symop_operation_xyz
x,y,z
-x,y,1/2-z
-x,-y,-z
x,-y,1/2+z
1/2+x,1/2+y,z
1/2-x,1/2+y,1/2-z
1/2-x,1/2-y,-z
1/2+x,1/2-y,1/2+z
loop_
_atom_site_type_symbol
_atom_site_label
_atom_site_fract_x
_atom_site_fract_y
_atom_site_fract_z
Si Si1 0.138607 0.641212 0.289887
Si Si2 0.461229 0.387255 0.957602
Si Si3 0.651182 0.068533 0.437649
Si Si4 0.232007 0.216244 0.140428
Si Si5 0.797716 0.310485 0.386127
Si Si6 0.786118 0.522107 0.647543
Si Si7 0.466190 0.537452 0.934149
O O1 0.364924 0.632027 0.178495
O O2 0.065138 0.607509 0.405361
O O3 0.139089 0.690136 0.330673
O O4 0.000000 0.637800 0.250000
O O5 0.322294 0.413993 0.939185
O O6 0.350137 0.350071 0.065898
O O7 0.562148 0.417675 0.998337
O O8 0.491142 0.046391 0.576604
O O9 0.717335 0.029886 0.334423
O O10 0.280382 0.266816 0.135892
O O11 0.000000 0.208450 0.250000
O O12 0.313634 0.199574 0.999293
O O13 0.000000 0.324126 0.250000
O O14 0.649999 0.543124 0.785914
O O15 0.723245 0.528978 0.555969
O O16 0.500000 0.500000 0.000000
#
# Coordination Sequence:
#
# PCOD8136021 Si02
#       7
#     8   8   8   8   8   8   8
#     4  12  24  40  67  96 128 164 217 266 329 391
#     4  12  23  39  67  94 125 168 223 263 321 382
#     4  11  22  40  61  89 121 166 218 264 310 379
#     4  10  19  42  68  95 127 166 213 266 317 391
#     4  10  22  37  69  98 127 161 215 266 320 381
#     4  10  24  40  58  87 129 167 210 266 323 373
#     4  11  22  39  60  87 126 170 210 260 323 376
#
# _framework density 19.969566
#
# number of rings (size 3 to 8) (size 9 to 14) (size 15 to 20)
#    0.000    1.143    4.286    2.143    4.000    0.000 
#    0.000    0.714    3.143    0.000    0.000    0.000 
#    0.000    0.000    0.000    0.000    0.000    0.000 
#
# Total GULP energy -347101.012392 kJ/mol
# GULP energy per Si atom -12396.464728 kJ/mol
# Density = 1.992411 g / cm^3
# Si number density = 19.969566 Si / 1000 Ang^3
#
#
#
# Elastic Constant Matrix: (Units=GPa)
#
#
# Indices 1 2 3 4 5 6 
#
# 1 82.8681 30.3421 18.9058 0.0000 3.0272 0.0000
# 2 30.3421 130.3395 20.0922 0.0000 2.7046 0.0000
# 3 18.9058 20.0922 81.7952 0.0000 -8.3762 0.0000
# 4 0.0000 0.0000 0.0000 30.9828 0.0000 3.4855
# 5 3.0272 2.7046 -8.3762 0.0000 31.9497 0.0000
# 6 0.0000 0.0000 0.0000 3.4855 0.0000 28.9673
#
#
#
# Elastic Compliance Matrix: (Units=1/GPa)
#
#
# Indices 1 2 3 4 5 6 
#
# 1 0.013752 -0.002751 -0.002685 0.000000 -0.001774 0.000000
# 2 -0.002751 0.008571 -0.001559 0.000000 -0.000874 0.000000
# 3 -0.002685 -0.001559 0.013635 0.000000 0.003961 0.000000
# 4 0.000000 0.000000 0.000000 0.032719 0.000000 -0.003937
# 5 -0.001774 -0.000874 0.003961 0.000000 0.032580 0.000000
# 6 0.000000 0.000000 0.000000 -0.003937 0.000000 0.034995
#
#
# Mechanical properties :
#
#
# Convention : Reuss Voigt Hill
#
# Bulk Modulus (GPa) = 45.51861 48.18700 46.85280
# Shear Modulus (GPa) = 31.73333 33.42415 32.57874
#
# Velocity S-wave (km/s) = 3.99066 4.09559 4.04347
# Velocity P-wave (km/s) = 6.63907 6.82259 6.73146
#
# Compressibility (1/GPa) = 0.02196904
#
# Stress axis : x y z
#
# Youngs Moduli (GPa) = 72.71787 116.67143 73.34211
#
# Poissons Ratio (x) = 0.32093 0.19689
# Poissons Ratio (y) = 0.20002 0.11435
# Poissons Ratio (z) = 0.19521 0.18190
#
# Static dielectric constant tensor:
#      x y z
#    x 3.438130 0.000000 -0.038880 
#    y 0.000000 3.996670 0.000000 
#    z -0.038880 0.000000 3.724660 
# 
# 
# High freq. dielectric constant tensor:
#      x y z
#    x 1.752580 0.000000 -0.006590 
#    y 0.000000 1.796340 0.000000 
#    z -0.006590 0.000000 1.786120 
# 
# From -- ./inp_files/82485.got.cif
#   From: 2010.06.25/outbox.cif.g09.slc.cpg/sg15_42_cif.got.tgz:82485.got - 2010.06.28 07:06:18.
