data_PCOD8136589
_publ_section_title
;
Structure prediction by ZEFSAII (Michael W. Deem and Ramdas Pophale) SiO2 
 PCOD8136589
Probable space group: C 2/C
;
_chemical_formula_sum "Si O2"
_cell_formula_units_Z 48
_cell_length_a 8.289369
_cell_length_b 11.985920
_cell_length_c 23.878601
_cell_angle_alpha 90.000000
_cell_angle_beta 109.607475
_cell_angle_gamma 90.000000
_cell_volume 2234.904325
_symmetry_space_group_name_H-M "C 2/C"
_symmetry_group_IT_number 15
_symmetry_cell_setting 'monoclinic'
loop_
_space_group_symop_operation_xyz
x,y,z
-x,y,1/2-z
-x,-y,-z
x,-y,1/2+z
1/2+x,1/2+y,z
1/2-x,1/2+y,1/2-z
1/2-x,1/2-y,-z
1/2+x,1/2-y,1/2+z
loop_
_atom_site_type_symbol
_atom_site_label
_atom_site_fract_x
_atom_site_fract_y
_atom_site_fract_z
Si Si1 0.204809 0.534261 0.410694
Si Si2 0.328747 0.666264 0.849804
Si Si3 0.303569 0.598885 0.727026
Si Si4 0.187004 0.543549 0.532093
Si Si5 0.773246 0.224677 0.618311
Si Si6 0.802087 0.417621 0.861837
O O1 0.277875 0.422263 0.391468
O O2 0.280977 0.538172 0.482931
O O3 0.267346 0.644393 0.385204
O O4 0.999976 0.544957 0.386003
O O5 0.237705 0.620870 0.782310
O O6 0.531028 0.684617 0.868257
O O7 0.255253 0.787715 0.856532
O O8 0.500000 0.633440 0.750000
O O9 0.207258 0.678086 0.670530
O O10 0.278442 0.470906 0.704109
O O11 0.172307 0.669774 0.554263
O O12 0.282527 0.468838 0.591122
O O13 0.000000 0.500000 0.500000
#
# Coordination Sequence:
#
# PCOD8136589 Si02
#       6
#     8   8   8   8   8   8
#     4  10  20  34  57  84 105 142 192 222 276 343
#     4  10  21  34  55  83 106 144 188 224 282 339
#     4   9  19  37  53  71 107 145 177 226 285 329
#     4   9  18  36  57  78 112 147 179 230 282 323
#     4   9  19  37  56  76 110 146 180 231 277 331
#     4   9  20  38  53  78 115 142 178 237 278 326
#
# _framework density 21.477429999999998
#
# number of rings (size 3 to 8) (size 9 to 14) (size 15 to 20)
#    0.000    2.667    0.000    0.500    2.333    2.000 
#    3.000   10.000    0.000    0.000    0.000    0.000 
#    0.000    0.000    0.000    0.000    0.000    0.000 
#
# Total GULP energy -297329.583473 kJ/mol
# GULP energy per Si atom -12388.732645 kJ/mol
# Density = 2.142855 g / cm^3
# Si number density = 21.477430 Si / 1000 Ang^3
#
#
#
# Elastic Constant Matrix: (Units=GPa)
#
#
# Indices 1 2 3 4 5 6 
#
# 1 10.7887 13.6514 5.9999 0.0000 -2.7937 0.0000
# 2 13.6514 179.9671 53.4033 0.0000 -12.7621 0.0000
# 3 5.9999 53.4033 129.0173 0.0000 -19.5634 0.0000
# 4 0.0000 0.0000 0.0000 27.4847 0.0000 -6.2455
# 5 -2.7937 -12.7621 -19.5634 0.0000 23.0695 0.0000
# 6 0.0000 0.0000 0.0000 -6.2455 0.0000 25.3818
#
#
#
# Elastic Compliance Matrix: (Units=1/GPa)
#
#
# Indices 1 2 3 4 5 6 
#
# 1 0.104182 -0.007131 -0.000664 0.000000 0.008109 0.000000
# 2 -0.007131 0.006866 -0.002370 0.000000 0.000925 0.000000
# 3 -0.000664 -0.002370 0.009814 0.000000 0.006931 0.000000
# 4 0.000000 0.000000 0.000000 0.038539 0.000000 0.009483
# 5 0.008109 0.000925 0.006931 0.000000 0.050718 0.000000
# 6 0.000000 0.000000 0.000000 0.009483 0.000000 0.041732
#
#
# Mechanical properties :
#
#
# Convention : Reuss Voigt Hill
#
# Bulk Modulus (GPa) = 9.94707 51.76470 30.85588
# Shear Modulus (GPa) = 16.35641 31.63511 23.99576
#
# Velocity S-wave (km/s) = 2.76264 3.84206 3.34616
# Velocity P-wave (km/s) = 3.84937 6.62089 5.41543
#
# Compressibility (1/GPa) = 0.10053212
#
# Stress axis : x y z
#
# Youngs Moduli (GPa) = 9.59863 145.63611 101.89718
#
# Poissons Ratio (x) = 1.03849 0.06764
# Poissons Ratio (y) = 0.06845 0.24153
# Poissons Ratio (z) = 0.00637 0.34520
#
# Static dielectric constant tensor:
#      x y z
#    x 3.446630 0.000000 -0.237400 
#    y 0.000000 3.971250 0.000000 
#    z -0.237400 0.000000 4.659180 
# 
# 
# High freq. dielectric constant tensor:
#      x y z
#    x 1.797280 0.000000 -0.005830 
#    y 0.000000 1.846220 0.000000 
#    z -0.005830 0.000000 1.862340 
# 
# From -- ./inp_files/236646.got.cif
#   From: 2010.06.25/outbox.cif.g09.slc.cpg/sg15_119_cif.got.tgz:236646.got - 2010.06.28 07:06:18.
