data_PCOD8136898
_publ_section_title
;
Structure prediction by ZEFSAII (Michael W. Deem and Ramdas Pophale) SiO2 
 PCOD8136898
Probable space group: C 2/C
;
_chemical_formula_sum "Si O2"
_cell_formula_units_Z 56
_cell_length_a 20.421124
_cell_length_b 28.722099
_cell_length_c 8.389931
_cell_angle_alpha 90.000000
_cell_angle_beta 32.716677
_cell_angle_gamma 90.000000
_cell_volume 2659.732994
_symmetry_space_group_name_H-M "C 2/C"
_symmetry_group_IT_number 15
_symmetry_cell_setting 'monoclinic'
loop_
_space_group_symop_operation_xyz
x,y,z
-x,y,1/2-z
-x,-y,-z
x,-y,1/2+z
1/2+x,1/2+y,z
1/2-x,1/2+y,1/2-z
1/2-x,1/2-y,-z
1/2+x,1/2-y,1/2+z
loop_
_atom_site_type_symbol
_atom_site_label
_atom_site_fract_x
_atom_site_fract_y
_atom_site_fract_z
Si Si1 0.883319 0.659193 0.380397
Si Si2 0.751871 0.002151 0.571164
Si Si3 0.381412 0.051375 0.403317
Si Si4 0.316444 0.218024 0.238758
Si Si5 0.630364 0.335366 0.901816
Si Si6 0.865949 0.060556 0.081359
Si Si7 0.373045 0.306119 0.948310
O O1 0.885386 0.604484 0.339528
O O2 0.902393 0.684497 0.170082
O O3 0.000000 0.673186 0.250000
O O4 0.751956 0.671703 0.726778
O O5 0.854985 0.023420 0.246257
O O6 0.637106 0.984571 0.703675
O O7 0.791292 0.955481 0.580455
O O8 0.723858 0.044017 0.750182
O O9 0.500000 0.034755 0.250000
O O10 0.250000 0.250000 0.500000
O O11 0.222693 0.187225 0.334239
O O12 0.385439 0.251887 0.974548
O O13 0.675262 0.388175 0.778621
O O14 0.629463 0.308012 0.737251
O O15 0.500000 0.333037 0.250000
O O16 0.000000 0.062815 0.750000
O O17 0.500000 0.330490 0.750000
#
# Coordination Sequence:
#
# PCOD8136898 Si02
#       7
#     8   8   8   8   8   8   8
#     4  10  22  41  63  89 122 160 202 251 302 357
#     4  10  20  35  56  84 117 153 196 240 288 347
#     4  10  20  36  58  84 116 154 195 241 292 347
#     4  10  22  38  58  85 116 153 196 245 300 355
#     4  11  22  39  61  88 122 160 202 249 301 361
#     4  10  21  36  57  85 118 155 194 240 292 348
#     4  11  24  41  63  91 120 157 201 250 305 363
#
# _framework density 21.054746000000002
#
# number of rings (size 3 to 8) (size 9 to 14) (size 15 to 20)
#    0.000    1.714    0.000    4.714    0.000    6.857 
#    0.000    3.571    0.000    6.857    0.000    0.000 
#    0.000    0.000    0.000    0.000    0.000    0.000 
#
# Total GULP energy -346969.491146 kJ/mol
# GULP energy per Si atom -12391.767541 kJ/mol
# Density = 2.100682 g / cm^3
# Si number density = 21.054746 Si / 1000 Ang^3
#
#
#
# Elastic Constant Matrix: (Units=GPa)
#
#
# Indices 1 2 3 4 5 6 
#
# 1 152.1932 65.8816 34.5576 0.0000 5.1658 0.0000
# 2 65.8816 116.1585 31.6842 0.0000 12.7870 0.0000
# 3 34.5576 31.6842 61.5308 0.0000 -3.2968 0.0000
# 4 0.0000 0.0000 0.0000 21.6502 0.0000 1.5208
# 5 5.1658 12.7870 -3.2968 0.0000 41.1911 0.0000
# 6 0.0000 0.0000 0.0000 1.5208 0.0000 41.7884
#
#
#
# Elastic Compliance Matrix: (Units=1/GPa)
#
#
# Indices 1 2 3 4 5 6 
#
# 1 0.009122 -0.004392 -0.002862 0.000000 -0.000010 0.000000
# 2 -0.004392 0.012671 -0.004258 0.000000 -0.003724 0.000000
# 3 -0.002862 -0.004258 0.020229 0.000000 0.003300 0.000000
# 4 0.000000 0.000000 0.000000 0.046307 0.000000 -0.001685
# 5 -0.000010 -0.003724 0.003300 0.000000 0.025698 0.000000
# 6 0.000000 0.000000 0.000000 -0.001685 0.000000 0.023991
#
#
# Mechanical properties :
#
#
# Convention : Reuss Voigt Hill
#
# Bulk Modulus (GPa) = 52.63613 66.01436 59.32525
# Shear Modulus (GPa) = 29.87298 34.10986 31.99142
#
# Velocity S-wave (km/s) = 3.77081 4.02936 3.90223
# Velocity P-wave (km/s) = 6.63420 7.28487 6.96714
#
# Compressibility (1/GPa) = 0.01899836
#
# Stress axis : x y z
#
# Youngs Moduli (GPa) = 109.62489 78.91939 49.43469
#
# Poissons Ratio (x) = 0.34661 0.14149
# Poissons Ratio (y) = 0.48147 0.21048
# Poissons Ratio (z) = 0.31376 0.33601
#
# Static dielectric constant tensor:
#      x y z
#    x 5.069450 0.000000 -0.591800 
#    y 0.000000 4.031480 0.000000 
#    z -0.591800 0.000000 4.231190 
# 
# 
# High freq. dielectric constant tensor:
#      x y z
#    x 1.842400 0.000000 0.002890 
#    y 0.000000 1.828140 0.000000 
#    z 0.002890 0.000000 1.816800 
# 
# From -- ./inp_files/59348.got.cif
#   From: 2010.06.25/outbox.cif.g09.slc.cpg/sg15_30_cif.got.tgz:59348.got - 2010.06.28 07:06:18.
