data_PCOD8136920
_publ_section_title
;
Structure prediction by ZEFSAII (Michael W. Deem and Ramdas Pophale) SiO2 
 PCOD8136920
Probable space group: C 2/C
;
_chemical_formula_sum "Si O2"
_cell_formula_units_Z 64
_cell_length_a 32.039416
_cell_length_b 9.686222
_cell_length_c 19.310128
_cell_angle_alpha 90.000000
_cell_angle_beta 143.039184
_cell_angle_gamma 90.000000
_cell_volume 3603.236446
_symmetry_space_group_name_H-M "C 2/C"
_symmetry_group_IT_number 15
_symmetry_cell_setting 'monoclinic'
loop_
_space_group_symop_operation_xyz
x,y,z
-x,y,1/2-z
-x,-y,-z
x,-y,1/2+z
1/2+x,1/2+y,z
1/2-x,1/2+y,1/2-z
1/2-x,1/2-y,-z
1/2+x,1/2-y,1/2+z
loop_
_atom_site_type_symbol
_atom_site_label
_atom_site_fract_x
_atom_site_fract_y
_atom_site_fract_z
Si Si1 0.682244 0.589008 0.375568
Si Si2 0.457898 0.537807 0.511377
Si Si3 0.951309 0.420198 0.339546
Si Si4 0.969546 0.854463 0.785288
Si Si5 0.788985 0.659177 0.773552
Si Si6 0.196931 0.969874 0.740450
Si Si7 0.297472 0.906867 0.133123
Si Si8 0.051745 0.344488 0.006749
O O1 0.605898 0.573153 0.307629
O O2 0.690572 0.507109 0.314693
O O3 0.693551 0.747736 0.373522
O O4 0.739115 0.529001 0.505200
O O5 0.500000 0.500000 0.500000
O O6 0.476172 0.437332 0.597281
O O7 0.377585 0.517098 0.391532
O O8 0.473922 0.695787 0.553361
O O9 0.968550 0.305645 0.305448
O O10 0.873009 0.478810 0.223705
O O11 0.958217 0.349793 0.423762
O O12 0.006248 0.543631 0.405318
O O13 0.000000 0.863860 0.750000
O O14 0.742406 0.595438 0.772037
O O15 0.773811 0.578468 0.681501
O O16 0.867552 0.634226 0.902796
O O17 0.771164 0.820935 0.738392
#
# Coordination Sequence:
#
# PCOD8136920 Si02
#       8
#     8   8   8   8   8   8   8   8
#     4   9  17  34  53  76 109 145 173 221 277 324
#     4  11  19  37  58  80 109 151 185 223 280 333
#     4   9  17  35  56  84 106 138 180 234 276 330
#     4  11  22  34  55  86 109 139 193 235 268 332
#     4   9  19  34  52  83 105 139 180 225 269 319
#     4  10  20  35  57  80 111 140 183 228 272 322
#     4   8  16  32  54  74 107 139 170 217 283 319
#     4   9  18  35  59  79 113 140 180 231 283 325
#
# _framework density 17.761810000000001
#
# number of rings (size 3 to 8) (size 9 to 14) (size 15 to 20)
#    0.000    2.500    2.500    1.500    1.750    1.000 
#    9.000    0.625    2.750    1.500    0.000    0.000 
#    0.000    0.000    0.000    0.000    0.000    0.000 
#
# Total GULP energy -396727.325850 kJ/mol
# GULP energy per Si atom -12397.728933 kJ/mol
# Density = 1.772138 g / cm^3
# Si number density = 17.761810 Si / 1000 Ang^3
#
#
#
# Elastic Constant Matrix: (Units=GPa)
#
#
# Indices 1 2 3 4 5 6 
#
# 1 128.4381 45.9089 43.1725 0.0000 -6.5349 0.0000
# 2 45.9089 58.5600 39.3601 0.0000 5.8708 0.0000
# 3 43.1725 39.3601 110.1150 0.0000 -4.2994 0.0000
# 4 0.0000 0.0000 0.0000 26.8344 0.0000 2.7129
# 5 -6.5349 5.8708 -4.2994 0.0000 23.3527 0.0000
# 6 0.0000 0.0000 0.0000 2.7129 0.0000 27.7986
#
#
#
# Elastic Compliance Matrix: (Units=1/GPa)
#
#
# Indices 1 2 3 4 5 6 
#
# 1 0.011608 -0.008825 -0.001192 0.000000 0.005248 0.000000
# 2 -0.008825 0.030449 -0.007876 0.000000 -0.011574 0.000000
# 3 -0.001192 -0.007876 0.012518 0.000000 0.003951 0.000000
# 4 0.000000 0.000000 0.000000 0.037637 0.000000 -0.003673
# 5 0.005248 -0.011574 0.003951 0.000000 0.047927 0.000000
# 6 0.000000 0.000000 0.000000 -0.003673 0.000000 0.036332
#
#
# Mechanical properties :
#
#
# Convention : Reuss Voigt Hill
#
# Bulk Modulus (GPa) = 53.22053 61.55513 57.38783
# Shear Modulus (GPa) = 22.88130 26.84193 24.86161
#
# Velocity S-wave (km/s) = 3.59309 3.89165 3.74535
# Velocity P-wave (km/s) = 6.87330 7.41110 7.14726
#
# Compressibility (1/GPa) = 0.01878974
#
# Stress axis : x y z
#
# Youngs Moduli (GPa) = 86.14818 32.84174 79.88488
#
# Poissons Ratio (x) = 0.28984 0.09519
# Poissons Ratio (y) = 0.76028 0.62915
# Poissons Ratio (z) = 0.10266 0.25865
#
# Static dielectric constant tensor:
#      x y z
#    x 3.163000 0.000000 0.095280 
#    y 0.000000 3.099710 0.000000 
#    z 0.095280 0.000000 3.446470 
# 
# 
# High freq. dielectric constant tensor:
#      x y z
#    x 1.681060 0.000000 0.009430 
#    y 0.000000 1.659890 0.000000 
#    z 0.009430 0.000000 1.692530 
# 
# From -- ./inp_files/224631.got.cif
#   From: 2010.06.25/outbox.cif.g09.slc.cpg/sg15_113_cif.got.tgz:224631.got - 2010.06.28 07:06:18.
