data_PCOD8136488
_publ_section_title
;
Structure prediction by ZEFSAII (Michael W. Deem and Ramdas Pophale) SiO2 
 PCOD8136488
Probable space group: C 2/C
;
_chemical_formula_sum "Si O2"
_cell_formula_units_Z 64
_cell_length_a 17.207037
_cell_length_b 14.543925
_cell_length_c 14.188346
_cell_angle_alpha 90.000000
_cell_angle_beta 67.354190
_cell_angle_gamma 90.000000
_cell_volume 3276.992062
_symmetry_space_group_name_H-M "C 2/C"
_symmetry_group_IT_number 15
_symmetry_cell_setting 'monoclinic'
loop_
_space_group_symop_operation_xyz
x,y,z
-x,y,1/2-z
-x,-y,-z
x,-y,1/2+z
1/2+x,1/2+y,z
1/2-x,1/2+y,1/2-z
1/2-x,1/2-y,-z
1/2+x,1/2-y,1/2+z
loop_
_atom_site_type_symbol
_atom_site_label
_atom_site_fract_x
_atom_site_fract_y
_atom_site_fract_z
Si Si1 0.659650 0.836654 0.484582
Si Si2 0.804599 0.840323 0.873314
Si Si3 0.743204 0.404744 0.228184
Si Si4 0.833051 0.866419 0.510137
Si Si5 0.731058 0.898833 0.730629
Si Si6 0.596917 0.476977 0.181524
Si Si7 0.802877 0.637152 0.896494
Si Si8 0.591780 0.045660 0.165342
O O1 0.685579 0.848823 0.363197
O O2 0.743667 0.856224 0.502759
O O3 0.622695 0.733750 0.511818
O O4 0.591413 0.908205 0.560662
O O5 0.745912 0.824439 0.806906
O O6 0.876661 0.916007 0.819447
O O7 0.843459 0.740048 0.880511
O O8 0.749489 0.880036 0.984628
O O9 0.777899 0.507467 0.208118
O O10 0.650338 0.407272 0.223911
O O11 0.739325 0.368603 0.337078
O O12 0.814090 0.900509 0.625011
O O13 0.890345 0.942200 0.431852
O O14 0.646329 0.886573 0.708488
O O15 0.500000 0.467169 0.250000
O O16 0.873010 0.558264 0.855594
O O17 0.500000 0.039677 0.250000
#
# Coordination Sequence:
#
# PCOD8136488 Si02
#       8
#     8   8   8   8   8   8   8   8
#     4   9  17  31  52  75 102 138 177 216 260 314
#     4  10  20  36  57  77 103 144 188 220 252 313
#     4   9  17  33  55  76 102 139 180 215 255 314
#     4   9  17  31  52  75 102 138 177 216 260 314
#     4   9  17  33  55  76 102 139 180 215 255 314
#     4  10  20  34  54  82 112 136 168 223 281 322
#     4  10  20  36  57  77 103 144 188 220 252 313
#     4  10  20  34  54  82 112 136 168 223 281 322
#
# _framework density 19.530104999999999
#
# number of rings (size 3 to 8) (size 9 to 14) (size 15 to 20)
#    0.000    2.500    0.000    4.500    0.000    2.000 
#    0.000   11.250    0.000    6.000    0.000    0.000 
#    0.000    0.000    0.000    0.000    0.000    0.000 
#
# Total GULP energy -396464.194108 kJ/mol
# GULP energy per Si atom -12389.506066 kJ/mol
# Density = 1.948565 g / cm^3
# Si number density = 19.530105 Si / 1000 Ang^3
#
#
#
# Elastic Constant Matrix: (Units=GPa)
#
#
# Indices 1 2 3 4 5 6 
#
# 1 58.2600 20.6081 56.9334 0.0000 -11.8474 0.0000
# 2 20.6081 94.8685 30.7000 0.0000 -12.7518 0.0000
# 3 56.9334 30.7000 138.1447 0.0000 1.9964 0.0000
# 4 0.0000 0.0000 0.0000 21.6779 0.0000 2.3744
# 5 -11.8474 -12.7518 1.9964 0.0000 31.4266 0.0000
# 6 0.0000 0.0000 0.0000 2.3744 0.0000 13.9921
#
#
#
# Elastic Compliance Matrix: (Units=1/GPa)
#
#
# Indices 1 2 3 4 5 6 
#
# 1 0.033785 -0.001077 -0.013875 0.000000 0.013181 0.000000
# 2 -0.001077 0.012156 -0.002325 0.000000 0.004674 0.000000
# 3 -0.013875 -0.002325 0.013575 0.000000 -0.007036 0.000000
# 4 0.000000 0.000000 0.000000 0.047004 0.000000 -0.007976
# 5 0.013181 0.004674 -0.007036 0.000000 0.039133 0.000000
# 6 0.000000 0.000000 0.000000 -0.007976 0.000000 0.072823
#
#
# Mechanical properties :
#
#
# Convention : Reuss Voigt Hill
#
# Bulk Modulus (GPa) = 40.06152 56.41737 48.23944
# Shear Modulus (GPa) = 19.13155 25.62142 22.37648
#
# Velocity S-wave (km/s) = 3.13324 3.62594 3.38855
# Velocity P-wave (km/s) = 5.80059 6.81762 6.32957
#
# Compressibility (1/GPa) = 0.02496161
#
# Stress axis : x y z
#
# Youngs Moduli (GPa) = 29.59932 82.26720 73.66338
#
# Poissons Ratio (x) = 0.08863 1.02205
# Poissons Ratio (y) = 0.03189 0.17126
# Poissons Ratio (z) = 0.41068 0.19126
#
# Static dielectric constant tensor:
#      x y z
#    x 3.161220 0.000000 0.345750 
#    y 0.000000 3.794490 0.000000 
#    z 0.345750 0.000000 3.910860 
# 
# 
# High freq. dielectric constant tensor:
#      x y z
#    x 1.700000 0.000000 0.023370 
#    y 0.000000 1.771710 0.000000 
#    z 0.023370 0.000000 1.774010 
# 
# From -- ./inp_files/162257.got.cif
#   From: 2010.06.25/outbox.cif.g09.slc.cpg/sg15_82_cif.got.tgz:162257.got - 2010.06.28 07:06:18.
