data_PCOD8136712
_publ_section_title
;
Structure prediction by ZEFSAII (Michael W. Deem and Ramdas Pophale) SiO2 
 PCOD8136712
Probable space group: C 2/C
;
_chemical_formula_sum "Si O2"
_cell_formula_units_Z 60
_cell_length_a 21.831297
_cell_length_b 8.506959
_cell_length_c 21.167398
_cell_angle_alpha 90.000000
_cell_angle_beta 128.262119
_cell_angle_gamma 90.000000
_cell_volume 3086.696158
_symmetry_space_group_name_H-M "C 2/C"
_symmetry_group_IT_number 15
_symmetry_cell_setting 'monoclinic'
loop_
_space_group_symop_operation_xyz
x,y,z
-x,y,1/2-z
-x,-y,-z
x,-y,1/2+z
1/2+x,1/2+y,z
1/2-x,1/2+y,1/2-z
1/2-x,1/2-y,-z
1/2+x,1/2-y,1/2+z
loop_
_atom_site_type_symbol
_atom_site_label
_atom_site_fract_x
_atom_site_fract_y
_atom_site_fract_z
Si Si1 0.178227 0.605491 0.674576
Si Si2 0.500000 0.810418 0.750000
Si Si3 0.748999 0.389857 0.949098
Si Si4 0.881537 0.622202 0.000918
Si Si5 0.309369 0.380560 0.721196
Si Si6 0.016379 0.851418 0.687067
Si Si7 0.466216 0.006554 0.848991
Si Si8 0.608190 0.398577 0.400113
O O1 0.137492 0.656888 0.583606
O O2 0.261526 0.530203 0.713721
O O3 0.197747 0.753726 0.729118
O O4 0.118907 0.489762 0.673615
O O5 0.429971 0.702414 0.680465
O O6 0.463359 0.919302 0.780412
O O7 0.831373 0.480149 0.999402
O O8 0.728212 0.314025 0.867848
O O9 0.685671 0.521011 0.924557
O O10 0.750000 0.250000 0.000000
O O11 0.867028 0.786677 0.026784
O O12 0.971559 0.572893 0.064759
O O13 0.398706 0.430331 0.766268
O O14 0.012226 0.688879 0.646675
O O15 0.000000 0.820829 0.750000
O O16 0.953318 0.969132 0.616193
#
# Coordination Sequence:
#
# PCOD8136712 Si02
#       8
#     8   4   8   8   8   8   8   8
#     4  10  23  41  57  82 120 159 198 236 288 361
#     4  10  20  34  60  92 110 152 194 250 306 336
#     4  11  22  38  59  87 119 154 199 246 302 347
#     4  10  23  37  56  86 121 157 193 241 301 352
#     4  10  23  39  61  85 115 159 198 242 291 351
#     4  11  19  37  63  88 118 148 196 250 291 350
#     4  10  21  37  61  86 117 158 196 242 294 356
#     4  11  21  36  58  88 121 146 190 256 300 346
#
# _framework density 19.438258000000001
#
# number of rings (size 3 to 8) (size 9 to 14) (size 15 to 20)
#    0.000    1.600    2.667    1.600    0.000    6.400 
#    0.000    2.667    0.000    0.000    0.000    0.000 
#    0.000    0.000    0.000    0.000    0.000    0.000 
#
# Total GULP energy -372068.412739 kJ/mol
# GULP energy per Si atom -12402.280425 kJ/mol
# Density = 1.939402 g / cm^3
# Si number density = 19.438258 Si / 1000 Ang^3
#
#
#
# Elastic Constant Matrix: (Units=GPa)
#
#
# Indices 1 2 3 4 5 6 
#
# 1 87.3480 16.5359 32.2953 0.0000 -8.1701 0.0000
# 2 16.5359 72.3567 32.7340 0.0000 -16.1897 0.0000
# 3 32.2953 32.7340 87.9622 0.0000 -19.3034 0.0000
# 4 0.0000 0.0000 0.0000 26.5679 0.0000 -4.4890
# 5 -8.1701 -16.1897 -19.3034 0.0000 32.0940 0.0000
# 6 0.0000 0.0000 0.0000 -4.4890 0.0000 28.6732
#
#
#
# Elastic Compliance Matrix: (Units=1/GPa)
#
#
# Indices 1 2 3 4 5 6 
#
# 1 0.013308 -0.000968 -0.004481 0.000000 0.000204 0.000000
# 2 -0.000968 0.017534 -0.004934 0.000000 0.005631 0.000000
# 3 -0.004481 -0.004934 0.016190 0.000000 0.006108 0.000000
# 4 0.000000 0.000000 0.000000 0.038662 0.000000 0.006053
# 5 0.000204 0.005631 0.006108 0.000000 0.037725 0.000000
# 6 0.000000 0.000000 0.000000 0.006053 0.000000 0.035823
#
#
# Mechanical properties :
#
#
# Convention : Reuss Voigt Hill
#
# Bulk Modulus (GPa) = 38.07251 45.64415 41.85833
# Shear Modulus (GPa) = 26.48832 28.54046 27.51439
#
# Velocity S-wave (km/s) = 3.69547 3.83595 3.76636
# Velocity P-wave (km/s) = 6.15122 6.56901 6.36355
#
# Compressibility (1/GPa) = 0.02626567
#
# Stress axis : x y z
#
# Youngs Moduli (GPa) = 75.14538 57.03331 61.76620
#
# Poissons Ratio (x) = 0.05524 0.27675
# Poissons Ratio (y) = 0.07278 0.30473
# Poissons Ratio (z) = 0.33670 0.28138
#
# Static dielectric constant tensor:
#      x y z
#    x 3.743430 0.000000 0.021810 
#    y 0.000000 3.511240 0.000000 
#    z 0.021810 0.000000 3.691270 
# 
# 
# High freq. dielectric constant tensor:
#      x y z
#    x 1.766710 0.000000 0.005260 
#    y 0.000000 1.753680 0.000000 
#    z 0.005260 0.000000 1.761860 
# 
# From -- ./inp_files/214311.got.cif
#   From: 2010.06.25/outbox.cif.g09.slc.cpg/sg15_108_cif.got.tgz:214311.got - 2010.06.28 07:06:18.
