data_PCOD8136621
_publ_section_title
;
Structure prediction by ZEFSAII (Michael W. Deem and Ramdas Pophale) SiO2 
 PCOD8136621
Probable space group: C 2/C
;
_chemical_formula_sum "Si O2"
_cell_formula_units_Z 52
_cell_length_a 18.093064
_cell_length_b 10.699402
_cell_length_c 22.770356
_cell_angle_alpha 90.000000
_cell_angle_beta 142.150831
_cell_angle_gamma 90.000000
_cell_volume 2704.681399
_symmetry_space_group_name_H-M "C 2/C"
_symmetry_group_IT_number 15
_symmetry_cell_setting 'monoclinic'
loop_
_space_group_symop_operation_xyz
x,y,z
-x,y,1/2-z
-x,-y,-z
x,-y,1/2+z
1/2+x,1/2+y,z
1/2-x,1/2+y,1/2-z
1/2-x,1/2-y,-z
1/2+x,1/2-y,1/2+z
loop_
_atom_site_type_symbol
_atom_site_label
_atom_site_fract_x
_atom_site_fract_y
_atom_site_fract_z
Si Si1 0.806299 0.998620 0.804413
Si Si2 0.500000 0.739310 0.250000
Si Si3 0.051387 0.919632 0.898941
Si Si4 0.317046 0.184478 0.126004
Si Si5 0.766677 0.589002 0.614115
Si Si6 0.418468 0.697225 0.585905
Si Si7 0.674573 0.749575 0.736168
O O1 0.724844 0.876719 0.739696
O O2 0.938379 0.947238 0.870843
O O3 0.797588 0.047258 0.865591
O O4 0.757896 0.118503 0.736777
O O5 0.479090 0.660267 0.177784
O O6 0.621782 0.815710 0.311573
O O7 0.097054 0.053205 0.905648
O O8 0.160081 0.856518 0.005191
O O9 0.423750 0.228873 0.150643
O O10 0.331126 0.242172 0.198171
O O11 0.324587 0.036059 0.125134
O O12 0.190511 0.240251 0.023556
O O13 0.539890 0.729205 0.626391
#
# Coordination Sequence:
#
# PCOD8136621 Si02
#       7
#     8   4   8   8   8   8   8
#     4  10  21  38  59  86 118 166 201 236 299 362
#     4  12  24  36  62  96 120 150 202 258 302 342
#     4  10  22  39  59  84 119 157 195 241 297 362
#     4   9  19  35  58  83 107 144 189 237 295 349
#     4  10  22  39  59  84 119 157 195 241 297 362
#     4   9  19  35  58  83 107 144 189 237 295 349
#     4  10  20  34  58  80 116 148 198 240 285 347
#
# _framework density 19.225925
#
# number of rings (size 3 to 8) (size 9 to 14) (size 15 to 20)
#    0.000    2.154    0.000    2.308    8.615    1.231 
#    0.000    0.769    0.000    0.000    0.000    0.000 
#    0.000    0.000    0.000    0.000    0.000    0.000 
#
# Total GULP energy -322092.385749 kJ/mol
# GULP energy per Si atom -12388.168683 kJ/mol
# Density = 1.918217 g / cm^3
# Si number density = 19.225925 Si / 1000 Ang^3
#
#
#
# Elastic Constant Matrix: (Units=GPa)
#
#
# Indices 1 2 3 4 5 6 
#
# 1 95.5333 47.5051 42.0523 0.0000 8.4400 0.0000
# 2 47.5051 110.9755 50.0724 0.0000 7.5793 0.0000
# 3 42.0523 50.0724 96.2805 0.0000 5.4283 0.0000
# 4 0.0000 0.0000 0.0000 29.9959 0.0000 -3.8671
# 5 8.4400 7.5793 5.4283 0.0000 13.6715 0.0000
# 6 0.0000 0.0000 0.0000 -3.8671 0.0000 35.3600
#
#
#
# Elastic Compliance Matrix: (Units=1/GPa)
#
#
# Indices 1 2 3 4 5 6 
#
# 1 0.014751 -0.004160 -0.003985 0.000000 -0.005218 0.000000
# 2 -0.004160 0.013186 -0.004883 0.000000 -0.002803 0.000000
# 3 -0.003985 -0.004883 0.014704 0.000000 -0.000671 0.000000
# 4 0.000000 0.000000 0.000000 0.033815 0.000000 0.003698
# 5 -0.005218 -0.002803 -0.000671 0.000000 0.078187 0.000000
# 6 0.000000 0.000000 0.000000 0.003698 0.000000 0.028685
#
#
# Mechanical properties :
#
#
# Convention : Reuss Voigt Hill
#
# Bulk Modulus (GPa) = 60.29259 64.67211 62.48235
# Shear Modulus (GPa) = 23.26519 26.68278 24.97399
#
# Velocity S-wave (km/s) = 3.48242 3.72943 3.60804
# Velocity P-wave (km/s) = 6.89911 7.22882 7.06589
#
# Compressibility (1/GPa) = 0.01658579
#
# Stress axis : x y z
#
# Youngs Moduli (GPa) = 67.78994 75.83582 68.00798
#
# Poissons Ratio (x) = 0.31548 0.27103
# Poissons Ratio (y) = 0.28201 0.33207
# Poissons Ratio (z) = 0.27016 0.37029
#
# Static dielectric constant tensor:
#      x y z
#    x 3.613420 0.000000 0.086560 
#    y 0.000000 3.658850 0.000000 
#    z 0.086560 0.000000 3.552330 
# 
# 
# High freq. dielectric constant tensor:
#      x y z
#    x 1.754610 0.000000 0.006900 
#    y 0.000000 1.747610 0.000000 
#    z 0.006900 0.000000 1.745790 
# 
# From -- ./inp_files/248685.got.cif
#   From: 2010.06.25/outbox.cif.g09.slc.cpg/sg15_125_cif.got.tgz:248685.got - 2010.06.28 07:06:18.
