data_PCOD8136160
_publ_section_title
;
Structure prediction by ZEFSAII (Michael W. Deem and Ramdas Pophale) SiO2 
 PCOD8136160
Probable space group: C 2/C
;
_chemical_formula_sum "Si O2"
_cell_formula_units_Z 60
_cell_length_a 23.227290
_cell_length_b 5.307572
_cell_length_c 26.453207
_cell_angle_alpha 90.000000
_cell_angle_beta 119.908607
_cell_angle_gamma 90.000000
_cell_volume 2826.849061
_symmetry_space_group_name_H-M "C 2/C"
_symmetry_group_IT_number 15
_symmetry_cell_setting 'monoclinic'
loop_
_space_group_symop_operation_xyz
x,y,z
-x,y,1/2-z
-x,-y,-z
x,-y,1/2+z
1/2+x,1/2+y,z
1/2-x,1/2+y,1/2-z
1/2-x,1/2-y,-z
1/2+x,1/2-y,1/2+z
loop_
_atom_site_type_symbol
_atom_site_label
_atom_site_fract_x
_atom_site_fract_y
_atom_site_fract_z
Si Si1 0.040604 0.748416 0.007238
Si Si2 0.000000 0.154094 0.750000
Si Si3 0.556922 0.973138 0.199856
Si Si4 0.966918 0.095242 0.103067
Si Si5 0.094165 0.196314 0.630667
Si Si6 0.126360 0.032076 0.854468
Si Si7 0.229197 0.978727 0.712229
Si Si8 0.328645 0.047082 0.670115
O O1 0.102456 0.739853 0.074367
O O2 0.061348 0.743948 0.957073
O O3 0.000000 0.500000 0.000000
O O4 0.000000 0.000000 0.000000
O O5 0.991015 0.313830 0.797639
O O6 0.934085 0.991081 0.712041
O O7 0.507014 0.750679 0.163298
O O8 0.611049 0.902215 0.265190
O O9 0.599095 0.059717 0.168923
O O10 0.902155 0.973277 0.100920
O O11 0.018490 0.892889 0.104561
O O12 0.149385 0.993830 0.671682
O O13 0.161573 0.299736 0.860153
O O14 0.176208 0.796736 0.867134
O O15 0.253291 0.204317 0.759091
O O16 0.260578 0.014190 0.670791
#
# Coordination Sequence:
#
# PCOD8136160 Si02
#       8
#     8   4   8   8   8   8   8   8
#     4  10  22  38  59  88 121 154 199 250 308 364
#     4  10  20  32  50  86 118 154 182 234 298 368
#     4  11  19  34  54  84 122 153 191 238 301 364
#     4  11  21  37  62  88 121 153 199 249 315 362
#     4  11  23  38  60  88 121 157 200 252 303 356
#     4  11  22  36  56  82 119 154 191 244 295 361
#     4  12  25  41  62  85 123 167 206 247 296 362
#     4  11  24  37  54  86 118 159 199 233 294 359
#
# _framework density 21.225044
#
# number of rings (size 3 to 8) (size 9 to 14) (size 15 to 20)
#    0.000    1.067    4.000    4.000    3.733    0.533 
#    0.000    0.000    0.000    1.600    0.000    0.000 
#    0.000    0.000    0.000    0.000    0.000    0.000 
#
# Total GULP energy -371801.502817 kJ/mol
# GULP energy per Si atom -12393.383427 kJ/mol
# Density = 2.117673 g / cm^3
# Si number density = 21.225044 Si / 1000 Ang^3
#
#
#
# Elastic Constant Matrix: (Units=GPa)
#
#
# Indices 1 2 3 4 5 6 
#
# 1 83.7282 12.0075 11.9146 0.0036 -17.3385 0.0142
# 2 12.0075 99.3913 11.3195 -0.0055 -9.5433 0.0344
# 3 11.9146 11.3195 74.0142 -0.0015 -20.8479 0.0048
# 4 0.0036 -0.0055 -0.0015 15.8725 0.0037 -8.4461
# 5 -17.3385 -9.5433 -20.8479 0.0037 21.9456 -0.0025
# 6 0.0142 0.0344 0.0048 -8.4461 -0.0025 32.9767
#
#
#
# Elastic Compliance Matrix: (Units=1/GPa)
#
#
# Indices 1 2 3 4 5 6 
#
# 1 0.014405 -0.000705 0.001240 -0.000010 0.012253 -0.000007
# 2 -0.000705 0.010544 -0.000498 -0.000003 0.003556 -0.000011
# 3 0.001240 -0.000498 0.018572 -0.000004 0.018407 -0.000002
# 4 -0.000010 -0.000003 -0.000004 0.072943 -0.000024 0.018683
# 5 0.012253 0.003556 0.018407 -0.000024 0.074280 -0.000012
# 6 -0.000007 -0.000011 -0.000002 0.018683 -0.000012 0.035109
#
#
# Mechanical properties :
#
#
# Convention : Reuss Voigt Hill
#
# Bulk Modulus (GPa) = 22.93740 36.40187 29.66964
# Shear Modulus (GPa) = 20.80628 28.95178 24.87903
#
# Velocity S-wave (km/s) = 3.13432 3.69730 3.42739
# Velocity P-wave (km/s) = 4.89171 5.95099 5.44716
#
# Compressibility (1/GPa) = 0.04359691
#
# Stress axis : x y z
#
# Youngs Moduli (GPa) = 69.41867 94.83618 53.84433
#
# Poissons Ratio (x) = 0.06687 -0.06678
# Poissons Ratio (y) = 0.04895 0.02679
# Poissons Ratio (z) = -0.08609 0.04719
#
# Static dielectric constant tensor:
#      x y z
#    x 3.947950 -0.000010 -0.449760 
#    y -0.000010 3.804770 0.000000 
#    z -0.449760 0.000000 4.097170 
# 
# 
# High freq. dielectric constant tensor:
#      x y z
#    x 1.819180 0.000000 -0.034090 
#    y 0.000000 1.840410 0.000000 
#    z -0.034090 0.000000 1.801090 
# 
# From -- ./inp_files/300126.got.cif
#   From: 2010.06.25/outbox.cif.g09.slc.cpg/sg15_151_cif.got.tgz:300126.got - 2010.06.28 07:06:18.
