data_PCOD8136437
_publ_section_title
;
Structure prediction by ZEFSAII (Michael W. Deem and Ramdas Pophale) SiO2 
 PCOD8136437
Probable space group: C 2/C
;
_chemical_formula_sum "Si O2"
_cell_formula_units_Z 40
_cell_length_a 13.932378
_cell_length_b 13.886079
_cell_length_c 11.316469
_cell_angle_alpha 90.000000
_cell_angle_beta 87.679704
_cell_angle_gamma 90.000000
_cell_volume 2187.558126
_symmetry_space_group_name_H-M "C 2/C"
_symmetry_group_IT_number 15
_symmetry_cell_setting 'monoclinic'
loop_
_space_group_symop_operation_xyz
x,y,z
-x,y,1/2-z
-x,-y,-z
x,-y,1/2+z
1/2+x,1/2+y,z
1/2-x,1/2+y,1/2-z
1/2-x,1/2-y,-z
1/2+x,1/2-y,1/2+z
loop_
_atom_site_type_symbol
_atom_site_label
_atom_site_fract_x
_atom_site_fract_y
_atom_site_fract_z
Si Si1 0.974252 0.138645 0.440178
Si Si2 0.311660 0.377394 0.544350
Si Si3 0.500000 0.789777 0.250000
Si Si4 0.670481 0.587820 0.860282
Si Si5 0.698941 0.816891 0.325521
Si Si6 0.000000 0.019298 0.750000
O O1 0.882323 0.139943 0.528843
O O2 0.077984 0.146462 0.500870
O O3 0.950403 0.223764 0.351506
O O4 0.983330 0.038803 0.370661
O O5 0.294064 0.480924 0.605574
O O6 0.287109 0.296753 0.645913
O O7 0.241033 0.374943 0.435280
O O8 0.586643 0.847597 0.309645
O O9 0.753327 0.654609 0.802159
O O10 0.594330 0.583040 0.757744
#
# Coordination Sequence:
#
# PCOD8136437 Si02
#       6
#     8   8   4   8   8   4
#     4   9  17  30  51  76 100 122 156 209 259 294
#     4   9  19  34  51  76 104 128 156 201 260 300
#     4   9  20  36  46  65 104 142 168 197 242 287
#     4  11  18  29  54  80  98 126 166 204 243 298
#     4  10  20  34  52  70 100 136 163 199 247 291
#     4   9  16  28  48  77 104 120 144 203 270 299
#
# _framework density 18.285228
#
# number of rings (size 3 to 8) (size 9 to 14) (size 15 to 20)
#    0.000    2.400    0.000    6.000    0.000    0.800 
#    0.000    1.000    0.000    6.000    0.000    0.000 
#    0.000    0.000    0.000    0.000    0.000    0.000 
#
# Total GULP energy -247779.087543 kJ/mol
# GULP energy per Si atom -12388.954377 kJ/mol
# Density = 1.824361 g / cm^3
# Si number density = 18.285228 Si / 1000 Ang^3
#
#
#
# Elastic Constant Matrix: (Units=GPa)
#
#
# Indices 1 2 3 4 5 6 
#
# 1 98.9370 29.3298 54.8501 0.0000 13.1366 0.0000
# 2 29.3298 65.3501 44.7898 0.0000 -13.5314 0.0000
# 3 54.8501 44.7898 110.8096 0.0000 -9.6347 0.0000
# 4 0.0000 0.0000 0.0000 11.8696 0.0000 1.2383
# 5 13.1366 -13.5314 -9.6347 0.0000 37.2730 0.0000
# 6 0.0000 0.0000 0.0000 1.2383 0.0000 19.7113
#
#
#
# Elastic Compliance Matrix: (Units=1/GPa)
#
#
# Indices 1 2 3 4 5 6 
#
# 1 0.016716 -0.004449 -0.007293 0.000000 -0.009392 0.000000
# 2 -0.004449 0.023557 -0.006588 0.000000 0.008417 0.000000
# 3 -0.007293 -0.006588 0.015665 0.000000 0.004228 0.000000
# 4 0.000000 0.000000 0.000000 0.084805 0.000000 -0.005328
# 5 -0.009392 0.008417 0.004228 0.000000 0.034288 0.000000
# 6 0.000000 0.000000 0.000000 -0.005328 0.000000 0.051067
#
#
# Mechanical properties :
#
#
# Convention : Reuss Voigt Hill
#
# Bulk Modulus (GPa) = 51.86952 59.22624 55.54788
# Shear Modulus (GPa) = 18.57470 23.51256 21.04363
#
# Velocity S-wave (km/s) = 3.19067 3.58980 3.39610
# Velocity P-wave (km/s) = 6.48092 7.04576 6.76923
#
# Compressibility (1/GPa) = 0.01927914
#
# Stress axis : x y z
#
# Youngs Moduli (GPa) = 59.82131 42.45043 63.83695
#
# Poissons Ratio (x) = 0.18885 0.46556
# Poissons Ratio (y) = 0.26613 0.42055
# Poissons Ratio (z) = 0.43627 0.27966
#
# Static dielectric constant tensor:
#      x y z
#    x 3.579330 0.000000 0.162850 
#    y 0.000000 3.156290 0.000000 
#    z 0.162850 0.000000 3.433820 
# 
# 
# High freq. dielectric constant tensor:
#      x y z
#    x 1.709340 0.000000 0.017770 
#    y 0.000000 1.675390 0.000000 
#    z 0.017770 0.000000 1.711760 
# 
# From -- ./inp_files/85582.got.cif
#   From: 2010.06.25/outbox.cif.g09.slc.cpg/sg15_43_cif.got.tgz:85582.got - 2010.06.28 07:06:18.
