data_PCOD8136957
_publ_section_title
;
Structure prediction by ZEFSAII (Michael W. Deem and Ramdas Pophale) SiO2 
 PCOD8136957
Probable space group: C 2/C
;
_chemical_formula_sum "Si O2"
_cell_formula_units_Z 64
_cell_length_a 16.408617
_cell_length_b 24.470625
_cell_length_c 14.954948
_cell_angle_alpha 90.000000
_cell_angle_beta 146.918120
_cell_angle_gamma 90.000000
_cell_volume 3277.667691
_symmetry_space_group_name_H-M "C 2/C"
_symmetry_group_IT_number 15
_symmetry_cell_setting 'monoclinic'
loop_
_space_group_symop_operation_xyz
x,y,z
-x,y,1/2-z
-x,-y,-z
x,-y,1/2+z
1/2+x,1/2+y,z
1/2-x,1/2+y,1/2-z
1/2-x,1/2-y,-z
1/2+x,1/2-y,1/2+z
loop_
_atom_site_type_symbol
_atom_site_label
_atom_site_fract_x
_atom_site_fract_y
_atom_site_fract_z
Si Si1 0.261709 0.097466 0.274007
Si Si2 0.882998 0.798573 0.935285
Si Si3 0.741405 0.000327 0.856459
Si Si4 0.775381 0.809509 0.216308
Si Si5 0.551770 0.467094 0.705246
Si Si6 0.598458 0.918488 0.086469
Si Si7 0.666947 0.342196 0.420421
Si Si8 0.215989 0.454404 0.016143
O O1 0.191025 0.156511 0.195628
O O2 0.176973 0.071170 0.279115
O O3 0.435370 0.104299 0.457994
O O4 0.243524 0.060061 0.170150
O O5 0.832177 0.739529 0.851523
O O6 0.819823 0.807538 0.977164
O O7 0.061053 0.802355 0.091430
O O8 0.640168 0.039013 0.702394
O O9 0.909374 0.024409 0.010772
O O10 0.672649 0.995519 0.894403
O O11 0.713789 0.868232 0.191024
O O12 0.780818 0.804723 0.113926
O O13 0.500000 0.439006 0.750000
O O14 0.627710 0.526002 0.796313
O O15 0.596690 0.950307 0.988196
O O16 0.500000 0.362818 0.250000
O O17 0.770069 0.395626 0.517865
#
# Coordination Sequence:
#
# PCOD8136957 Si02
#       8
#     8   8   8   8   8   8   8   8
#     4  12  23  37  58  85 119 154 201 246 296 350
#     4  11  21  37  58  83 113 158 200 247 295 348
#     4  11  21  37  60  83 120 160 198 243 302 346
#     4  10  22  37  57  81 117 156 203 243 295 351
#     4  10  22  37  59  86 118 154 204 245 298 361
#     4  11  24  39  55  87 127 158 202 246 292 358
#     4   9  17  31  52  81 116 157 197 237 280 347
#     4  10  20  35  57  87 122 160 201 239 290 355
#
# _framework density 19.52608
#
# number of rings (size 3 to 8) (size 9 to 14) (size 15 to 20)
#    0.000    1.500    2.500    3.750    3.500    0.500 
#    2.250    1.250    0.000    0.000    0.000   14.000 
#    0.000    0.000    0.000    0.000    0.000    0.000 
#
# Total GULP energy -396742.072555 kJ/mol
# GULP energy per Si atom -12398.189767 kJ/mol
# Density = 1.948164 g / cm^3
# Si number density = 19.526080 Si / 1000 Ang^3
#
#
#
# Elastic Constant Matrix: (Units=GPa)
#
#
# Indices 1 2 3 4 5 6 
#
# 1 84.8928 41.4797 46.8795 0.0000 13.7753 0.0000
# 2 41.4797 96.3302 33.9855 0.0000 -1.8666 0.0000
# 3 46.8795 33.9855 81.1400 0.0000 5.0163 0.0000
# 4 0.0000 0.0000 0.0000 26.9736 0.0000 6.0653
# 5 13.7753 -1.8666 5.0163 0.0000 25.4583 0.0000
# 6 0.0000 0.0000 0.0000 6.0653 0.0000 23.4277
#
#
#
# Elastic Compliance Matrix: (Units=1/GPa)
#
#
# Indices 1 2 3 4 5 6 
#
# 1 0.021603 -0.006247 -0.009226 0.000000 -0.010329 0.000000
# 2 -0.006247 0.014081 -0.002593 0.000000 0.004924 0.000000
# 3 -0.009226 -0.002593 0.018671 0.000000 0.001123 0.000000
# 4 0.000000 0.000000 0.000000 0.039365 0.000000 -0.010191
# 5 -0.010329 0.004924 0.001123 0.000000 0.045009 0.000000
# 6 0.000000 0.000000 0.000000 -0.010191 0.000000 0.045323
#
#
# Mechanical properties :
#
#
# Convention : Reuss Voigt Hill
#
# Bulk Modulus (GPa) = 54.87542 56.33916 55.60729
# Shear Modulus (GPa) = 22.09851 24.50647 23.30249
#
# Velocity S-wave (km/s) = 3.36779 3.54653 3.45831
# Velocity P-wave (km/s) = 6.57931 6.75917 6.66985
#
# Compressibility (1/GPa) = 0.01822310
#
# Stress axis : x y z
#
# Youngs Moduli (GPa) = 46.28972 71.01642 53.55785
#
# Poissons Ratio (x) = 0.44367 0.49413
# Poissons Ratio (y) = 0.28919 0.13887
# Poissons Ratio (z) = 0.42707 0.18413
#
# Static dielectric constant tensor:
#      x y z
#    x 3.592720 0.000000 0.064040 
#    y 0.000000 3.346610 0.000000 
#    z 0.064040 0.000000 3.454150 
# 
# 
# High freq. dielectric constant tensor:
#      x y z
#    x 1.749520 0.000000 0.013350 
#    y 0.000000 1.745480 0.000000 
#    z 0.013350 0.000000 1.758390 
# 
# From -- ./inp_files/164279.got.cif
#   From: 2010.06.25/outbox.cif.g09.slc.cpg/sg15_83_cif.got.tgz:164279.got - 2010.06.28 07:06:18.
