data_PCOD8136216
_publ_section_title
;
Structure prediction by ZEFSAII (Michael W. Deem and Ramdas Pophale) SiO2 
 PCOD8136216
Probable space group: C 2/C
;
_chemical_formula_sum "Si O2"
_cell_formula_units_Z 64
_cell_length_a 17.754215
_cell_length_b 22.135975
_cell_length_c 8.344916
_cell_angle_alpha 90.000000
_cell_angle_beta 104.864475
_cell_angle_gamma 90.000000
_cell_volume 3169.858166
_symmetry_space_group_name_H-M "C 2/C"
_symmetry_group_IT_number 15
_symmetry_cell_setting 'monoclinic'
loop_
_space_group_symop_operation_xyz
x,y,z
-x,y,1/2-z
-x,-y,-z
x,-y,1/2+z
1/2+x,1/2+y,z
1/2-x,1/2+y,1/2-z
1/2-x,1/2-y,-z
1/2+x,1/2-y,1/2+z
loop_
_atom_site_type_symbol
_atom_site_label
_atom_site_fract_x
_atom_site_fract_y
_atom_site_fract_z
Si Si1 0.582734 0.416191 0.736371
Si Si2 0.282148 0.666633 0.309137
Si Si3 0.718034 0.614431 0.848129
Si Si4 0.364034 0.521432 0.522685
Si Si5 0.703589 0.980296 0.308711
Si Si6 0.722875 0.787601 0.332370
Si Si7 0.653368 0.877913 0.499444
Si Si8 0.048765 0.451753 0.625769
O O1 0.500000 0.389863 0.750000
O O2 0.640304 0.362260 0.723984
O O3 0.571681 0.458407 0.572958
O O4 0.616843 0.455883 0.900465
O O5 0.260923 0.648734 0.477405
O O6 0.299255 0.738961 0.315159
O O7 0.207577 0.649833 0.165016
O O8 0.783920 0.565447 0.834277
O O9 0.711457 0.665412 0.703719
O O10 0.640478 0.573406 0.839310
O O11 0.280441 0.521154 0.382927
O O12 0.688497 0.941972 0.461304
O O13 0.630617 0.022128 0.231529
O O14 0.750000 0.750000 0.500000
O O15 0.649756 0.829516 0.350525
O O16 0.567819 0.893219 0.524692
O O17 0.000000 0.428595 0.750000
O O18 0.000000 0.500000 0.500000
#
# Coordination Sequence:
#
# PCOD8136216 Si02
#       8
#     8   8   8   8   8   8   8   8
#     4  11  22  34  55  85 120 152 185 230 294 349
#     4  10  20  37  62  81 111 152 197 252 281 337
#     4  10  20  32  60  88 112 142 198 241 289 341
#     4  11  20  36  56  85 121 153 186 235 286 358
#     4  11  20  36  55  83 120 156 190 225 293 359
#     4   9  20  37  60  84 108 145 203 255 287 329
#     4  10  20  37  56  83 108 157 196 235 292 345
#     4  12  24  35  54  83 128 159 190 235 294 359
#
# _framework density 20.190178
#
# number of rings (size 3 to 8) (size 9 to 14) (size 15 to 20)
#    0.000    1.500    3.750    3.000    1.750    0.000 
#    0.000    0.000    5.500    3.000    0.000    0.000 
#    0.000    0.000    0.000    0.000    0.000    0.000 
#
# Total GULP energy -396440.252587 kJ/mol
# GULP energy per Si atom -12388.757893 kJ/mol
# Density = 2.014422 g / cm^3
# Si number density = 20.190178 Si / 1000 Ang^3
#
#
#
# Elastic Constant Matrix: (Units=GPa)
#
#
# Indices 1 2 3 4 5 6 
#
# 1 102.0237 34.9846 32.1802 0.0000 -24.9343 0.0000
# 2 34.9846 100.7922 24.4689 0.0000 -13.9796 0.0000
# 3 32.1802 24.4689 61.8925 0.0000 -22.6192 0.0000
# 4 0.0000 0.0000 0.0000 37.5568 0.0000 -15.9932
# 5 -24.9343 -13.9796 -22.6192 0.0000 35.7075 0.0000
# 6 0.0000 0.0000 0.0000 -15.9932 0.0000 23.4810
#
#
#
# Elastic Compliance Matrix: (Units=1/GPa)
#
#
# Indices 1 2 3 4 5 6 
#
# 1 0.013405 -0.002949 -0.003650 0.000000 0.005894 0.000000
# 2 -0.002949 0.011736 -0.002837 0.000000 0.000738 0.000000
# 3 -0.003650 -0.002837 0.023213 0.000000 0.011045 0.000000
# 4 0.000000 0.000000 0.000000 0.037504 0.000000 0.025545
# 5 0.005894 0.000738 0.011045 0.000000 0.039407 0.000000
# 6 0.000000 0.000000 0.000000 0.025545 0.000000 0.059986
#
#
# Mechanical properties :
#
#
# Convention : Reuss Voigt Hill
#
# Bulk Modulus (GPa) = 33.91843 49.77511 41.84677
# Shear Modulus (GPa) = 23.37010 30.88737 27.12874
#
# Velocity S-wave (km/s) = 3.40589 3.91554 3.66957
# Velocity P-wave (km/s) = 5.68355 6.71927 6.22299
#
# Compressibility (1/GPa) = 0.02948249
#
# Stress axis : x y z
#
# Youngs Moduli (GPa) = 74.60161 85.20724 43.08009
#
# Poissons Ratio (x) = 0.25129 0.15723
# Poissons Ratio (y) = 0.22002 0.12220
# Poissons Ratio (z) = 0.27227 0.24169
#
# Static dielectric constant tensor:
#      x y z
#    x 3.612520 0.000000 -0.592270 
#    y 0.000000 4.228930 0.000000 
#    z -0.592270 0.000000 3.913620 
# 
# 
# High freq. dielectric constant tensor:
#      x y z
#    x 1.755530 0.000000 -0.046680 
#    y 0.000000 1.788690 0.000000 
#    z -0.046680 0.000000 1.794320 
# 
# From -- ./inp_files/51279.got.cif
#   From: 2010.06.25/outbox.cif.g09.slc.cpg/sg15_26_cif.got.tgz:51279.got - 2010.06.28 07:06:18.
