data_PCOD8136835
_publ_section_title
;
Structure prediction by ZEFSAII (Michael W. Deem and Ramdas Pophale) SiO2 
 PCOD8136835
Probable space group: C 2/C
;
_chemical_formula_sum "Si O2"
_cell_formula_units_Z 56
_cell_length_a 23.807424
_cell_length_b 13.639499
_cell_length_c 20.653571
_cell_angle_alpha 90.000000
_cell_angle_beta 155.776376
_cell_angle_gamma 90.000000
_cell_volume 2751.734452
_symmetry_space_group_name_H-M "C 2/C"
_symmetry_group_IT_number 15
_symmetry_cell_setting 'monoclinic'
loop_
_space_group_symop_operation_xyz
x,y,z
-x,y,1/2-z
-x,-y,-z
x,-y,1/2+z
1/2+x,1/2+y,z
1/2-x,1/2+y,1/2-z
1/2-x,1/2-y,-z
1/2+x,1/2-y,1/2+z
loop_
_atom_site_type_symbol
_atom_site_label
_atom_site_fract_x
_atom_site_fract_y
_atom_site_fract_z
Si Si1 0.940214 0.205563 0.399662
Si Si2 0.006072 0.801061 0.403533
Si Si3 0.782210 0.698976 0.966098
Si Si4 0.354895 0.369315 0.561965
Si Si5 0.269728 0.978227 0.957821
Si Si6 0.017246 0.020084 0.412244
Si Si7 0.155198 0.697804 0.037698
O O1 0.974084 0.251060 0.505895
O O2 0.993543 0.092719 0.448369
O O3 0.778248 0.210740 0.218096
O O4 0.013779 0.271682 0.422483
O O5 0.093278 0.753495 0.437901
O O6 0.848051 0.796755 0.217797
O O7 0.059984 0.910604 0.476380
O O8 0.830976 0.587150 0.030636
O O9 0.750000 0.750000 0.000000
O O10 0.500000 0.360249 0.750000
O O11 0.237257 0.419306 0.481798
O O12 0.363383 0.436372 0.506863
O O13 0.310623 0.261459 0.490843
O O14 0.116656 0.988484 0.772069
O O15 0.358765 0.915162 0.000295
#
# Coordination Sequence:
#
# PCOD8136835 Si02
#       7
#     8   8   8   8   8   8   8
#     4  10  20  36  56  82 109 139 178 218 262 318
#     4  11  21  38  59  79 106 143 177 221 269 310
#     4  11  23  39  57  80 106 138 180 224 266 316
#     4   9  16  31  55  83 109 140 177 218 264 314
#     4   9  18  33  53  77 110 143 174 216 269 316
#     4   8  17  32  56  81 103 136 184 223 256 310
#     4  10  20  35  54  82 112 141 176 218 261 318
#
# _framework density 20.350801000000001
#
# number of rings (size 3 to 8) (size 9 to 14) (size 15 to 20)
#    0.000    2.286    0.000    3.857    0.000    2.286 
#    0.000    7.857    0.000    0.000    0.000    0.000 
#    0.000    0.000    0.000    0.000    0.000    0.000 
#
# Total GULP energy -347113.470905 kJ/mol
# GULP energy per Si atom -12396.909675 kJ/mol
# Density = 2.030448 g / cm^3
# Si number density = 20.350801 Si / 1000 Ang^3
#
#
#
# Elastic Constant Matrix: (Units=GPa)
#
#
# Indices 1 2 3 4 5 6 
#
# 1 78.1177 24.3472 2.4580 0.0001 -10.0578 -0.0001
# 2 24.3472 112.3994 5.7565 0.0006 2.8089 0.0005
# 3 2.4580 5.7565 37.0523 0.0000 -7.0593 0.0001
# 4 0.0001 0.0006 0.0000 22.3771 0.0005 1.4268
# 5 -10.0578 2.8089 -7.0593 0.0005 31.8683 0.0007
# 6 -0.0001 0.0005 0.0001 1.4268 0.0007 17.5792
#
#
#
# Elastic Compliance Matrix: (Units=1/GPa)
#
#
# Indices 1 2 3 4 5 6 
#
# 1 0.014446 -0.003278 0.000496 0.000000 0.004958 0.000000
# 2 -0.003278 0.009753 -0.001732 0.000000 -0.002278 0.000000
# 3 0.000496 -0.001732 0.028486 0.000000 0.006619 0.000000
# 4 0.000000 0.000000 0.000000 0.044921 -0.000001 -0.003646
# 5 0.004958 -0.002278 0.006619 -0.000001 0.034611 -0.000001
# 6 0.000000 0.000000 0.000000 -0.003646 -0.000001 0.057181
#
#
# Mechanical properties :
#
#
# Convention : Reuss Voigt Hill
#
# Bulk Modulus (GPa) = 22.90661 32.52143 27.71402
# Shear Modulus (GPa) = 23.47652 27.36542 25.42097
#
# Velocity S-wave (km/s) = 3.40014 3.67097 3.53815
# Velocity P-wave (km/s) = 5.16671 5.82951 5.50809
#
# Compressibility (1/GPa) = 0.04365553
#
# Stress axis : x y z
#
# Youngs Moduli (GPa) = 69.22453 102.53670 35.10477
#
# Poissons Ratio (x) = 0.33616 -0.01740
# Poissons Ratio (y) = 0.22695 0.06079
# Poissons Ratio (z) = -0.03431 0.17756
#
# Static dielectric constant tensor:
#      x y z
#    x 3.615100 0.000000 -0.106430 
#    y 0.000000 3.925170 0.000000 
#    z -0.106430 0.000000 3.327920 
# 
# 
# High freq. dielectric constant tensor:
#      x y z
#    x 1.797810 0.000000 -0.011090 
#    y 0.000000 1.794750 0.000000 
#    z -0.011090 0.000000 1.769150 
# 
# From -- ./inp_files/255471.got.cif
#   From: 2010.06.25/outbox.cif.g09.slc.cpg/sg15_128_cif.got.tgz:255471.got - 2010.06.28 07:06:18.
