data_PCOD8136011
_publ_section_title
;
Structure prediction by ZEFSAII (Michael W. Deem and Ramdas Pophale) SiO2 
 PCOD8136011
Probable space group: C 2/C
;
_chemical_formula_sum "Si O2"
_cell_formula_units_Z 40
_cell_length_a 7.303232
_cell_length_b 23.734769
_cell_length_c 11.886077
_cell_angle_alpha 90.000000
_cell_angle_beta 73.234330
_cell_angle_gamma 90.000000
_cell_volume 1972.758980
_symmetry_space_group_name_H-M "C 2/C"
_symmetry_group_IT_number 15
_symmetry_cell_setting 'monoclinic'
loop_
_space_group_symop_operation_xyz
x,y,z
-x,y,1/2-z
-x,-y,-z
x,-y,1/2+z
1/2+x,1/2+y,z
1/2-x,1/2+y,1/2-z
1/2-x,1/2-y,-z
1/2+x,1/2-y,1/2+z
loop_
_atom_site_type_symbol
_atom_site_label
_atom_site_fract_x
_atom_site_fract_y
_atom_site_fract_z
Si Si1 0.500000 0.962096 0.750000
Si Si2 0.300300 0.398009 0.843471
Si Si3 0.631913 0.784282 0.931101
Si Si4 0.399459 0.844757 0.153565
Si Si5 0.500000 0.292599 0.250000
Si Si6 0.600712 0.043407 0.563037
O O1 0.620898 0.921711 0.807592
O O2 0.653003 0.003468 0.659620
O O3 0.500000 0.413360 0.750000
O O4 0.275175 0.330775 0.853066
O O5 0.284437 0.426126 0.971865
O O6 0.539414 0.746453 0.850638
O O7 0.750000 0.750000 0.000000
O O8 0.461307 0.813022 0.029583
O O9 0.500000 0.821135 0.250000
O O10 0.446325 0.910389 0.130830
O O11 0.174253 0.835173 0.201218
O O12 0.500000 0.000000 0.500000
#
# Coordination Sequence:
#
# PCOD8136011 Si02
#       6
#     4   8   8   8   4   8
#     4  10  19  42  66  90 132 166 207 274 326 376
#     4  10  23  40  63  96 124 169 219 257 322 396
#     4  11  24  43  65  94 138 172 214 276 327 383
#     4  11  22  43  65  97 132 168 220 270 325 396
#     4  12  25  42  70  96 126 180 217 266 328 396
#     4   9  20  41  64  91 132 165 207 276 325 372
#
# _framework density 20.27617
#
# number of rings (size 3 to 8) (size 9 to 14) (size 15 to 20)
#    0.000    1.600    3.000    1.200    2.800    0.800 
#   18.000    0.000    0.000    0.000    0.000    0.000 
#    0.000    0.000    0.000    0.000    0.000    0.000 
#
# Total GULP energy -247843.485115 kJ/mol
# GULP energy per Si atom -12392.174256 kJ/mol
# Density = 2.023002 g / cm^3
# Si number density = 20.276170 Si / 1000 Ang^3
#
#
#
# Elastic Constant Matrix: (Units=GPa)
#
#
# Indices 1 2 3 4 5 6 
#
# 1 95.3035 37.9200 41.2974 0.0000 -10.5445 0.0000
# 2 37.9200 114.4176 45.7215 0.0000 -0.0004 0.0000
# 3 41.2974 45.7215 107.3134 0.0000 -0.4196 0.0000
# 4 0.0000 0.0000 0.0000 36.2515 0.0000 3.7304
# 5 -10.5445 -0.0004 -0.4196 0.0000 41.1701 0.0000
# 6 0.0000 0.0000 0.0000 3.7304 0.0000 17.3208
#
#
#
# Elastic Compliance Matrix: (Units=1/GPa)
#
#
# Indices 1 2 3 4 5 6 
#
# 1 0.013808 -0.002963 -0.004038 0.000000 0.003495 0.000000
# 2 -0.002963 0.011169 -0.003622 0.000000 -0.000796 0.000000
# 3 -0.004038 -0.003622 0.012412 0.000000 -0.000908 0.000000
# 4 0.000000 0.000000 0.000000 0.028210 0.000000 -0.006076
# 5 0.003495 -0.000796 -0.000908 0.000000 0.025175 0.000000
# 6 0.000000 0.000000 0.000000 -0.006076 0.000000 0.059043
#
#
# Mechanical properties :
#
#
# Convention : Reuss Voigt Hill
#
# Bulk Modulus (GPa) = 61.94001 62.99028 62.46515
# Shear Modulus (GPa) = 28.33779 31.75485 30.04632
#
# Velocity S-wave (km/s) = 3.74249 3.96171 3.85366
# Velocity P-wave (km/s) = 7.02065 7.21530 7.11864
#
# Compressibility (1/GPa) = 0.01614465
#
# Stress axis : x y z
#
# Youngs Moduli (GPa) = 72.42168 89.53356 80.56839
#
# Poissons Ratio (x) = 0.26526 0.32532
# Poissons Ratio (y) = 0.21456 0.29179
# Poissons Ratio (z) = 0.29242 0.32425
#
# Static dielectric constant tensor:
#      x y z
#    x 3.197580 0.000000 -0.076520 
#    y 0.000000 3.891000 0.000000 
#    z -0.076520 0.000000 4.382840 
# 
# 
# High freq. dielectric constant tensor:
#      x y z
#    x 1.751610 0.000000 -0.000880 
#    y 0.000000 1.810710 0.000000 
#    z -0.000880 0.000000 1.821570 
# 
# From -- ./inp_files/73108.got.cif
#   From: 2010.06.25/outbox.cif.g09.slc.cpg/sg15_37_cif.got.tgz:73108.got - 2010.06.28 07:06:18.
