data_PCOD8136676
_publ_section_title
;
Structure prediction by ZEFSAII (Michael W. Deem and Ramdas Pophale) SiO2 
 PCOD8136676
Probable space group: C 2/C
;
_chemical_formula_sum "Si O2"
_cell_formula_units_Z 56
_cell_length_a 22.061276
_cell_length_b 16.493202
_cell_length_c 9.747987
_cell_angle_alpha 90.000000
_cell_angle_beta 43.720279
_cell_angle_gamma 90.000000
_cell_volume 2451.407312
_symmetry_space_group_name_H-M "C 2/C"
_symmetry_group_IT_number 15
_symmetry_cell_setting 'monoclinic'
loop_
_space_group_symop_operation_xyz
x,y,z
-x,y,1/2-z
-x,-y,-z
x,-y,1/2+z
1/2+x,1/2+y,z
1/2-x,1/2+y,1/2-z
1/2-x,1/2-y,-z
1/2+x,1/2-y,1/2+z
loop_
_atom_site_type_symbol
_atom_site_label
_atom_site_fract_x
_atom_site_fract_y
_atom_site_fract_z
Si Si1 0.000000 0.674682 0.250000
Si Si2 0.880712 0.210704 0.332010
Si Si3 0.197243 0.919751 0.019496
Si Si4 0.151226 0.216556 0.410324
Si Si5 0.682722 0.293205 0.271025
Si Si6 0.000000 0.651785 0.750000
Si Si7 0.605412 0.874099 0.827732
Si Si8 0.553328 0.540560 0.293561
O O1 0.051515 0.616382 0.273431
O O2 0.939255 0.735634 0.435022
O O3 0.818200 0.219700 0.299586
O O4 0.828650 0.182405 0.551597
O O5 0.931568 0.293712 0.276911
O O6 0.947519 0.137741 0.184166
O O7 0.170017 0.871738 0.200989
O O8 0.154087 0.007874 0.111755
O O9 0.151070 0.876567 0.963296
O O10 0.303192 0.924244 0.828405
O O11 0.218079 0.260585 0.405832
O O12 0.617358 0.222307 0.331294
O O13 0.050227 0.596294 0.553145
O O14 0.500000 0.514258 0.250000
O O15 0.500000 0.500000 0.500000
#
# Coordination Sequence:
#
# PCOD8136676 Si02
#       8
#     4   8   8   8   8   4   8   8
#     4  12  18  30  57  86 113 148 192 242 310 360
#     4  11  22  36  54  83 121 155 196 247 301 366
#     4  11  22  38  55  81 126 163 203 248 294 371
#     4  11  21  33  57  86 115 152 197 252 305 366
#     4  10  20  37  54  81 120 153 193 254 315 355
#     4  10  20  34  59  84 123 152 188 256 314 356
#     4  10  20  35  56  87 117 154 193 252 317 352
#     4  12  26  39  57  86 122 172 209 237 289 370
#
# _framework density 22.84402
#
# number of rings (size 3 to 8) (size 9 to 14) (size 15 to 20)
#    0.000    1.143    5.000    3.000    5.000    0.000 
#    0.000    0.000    0.000    0.000    0.000    2.000 
#    0.000    0.000    0.000    0.000    0.000    0.000 
#
# Total GULP energy -347123.558754 kJ/mol
# GULP energy per Si atom -12397.269956 kJ/mol
# Density = 2.279203 g / cm^3
# Si number density = 22.844020 Si / 1000 Ang^3
#
#
#
# Elastic Constant Matrix: (Units=GPa)
#
#
# Indices 1 2 3 4 5 6 
#
# 1 115.4078 7.3905 31.1397 0.0000 15.8059 0.0000
# 2 7.3905 27.6166 2.7402 0.0000 -2.1976 0.0000
# 3 31.1397 2.7402 111.7862 0.0000 8.6582 0.0000
# 4 0.0000 0.0000 0.0000 23.4158 0.0000 -2.1757
# 5 15.8059 -2.1976 8.6582 0.0000 44.9414 0.0000
# 6 0.0000 0.0000 0.0000 -2.1757 0.0000 5.0439
#
#
#
# Elastic Compliance Matrix: (Units=1/GPa)
#
#
# Indices 1 2 3 4 5 6 
#
# 1 0.009930 -0.002664 -0.002457 0.000000 -0.003149 0.000000
# 2 -0.002664 0.037187 -0.000389 0.000000 0.002830 0.000000
# 3 -0.002457 -0.000389 0.009719 0.000000 -0.001027 0.000000
# 4 0.000000 0.000000 0.000000 0.044489 0.000000 0.019191
# 5 -0.003149 0.002830 -0.001027 0.000000 0.023695 0.000000
# 6 0.000000 0.000000 0.000000 0.019191 0.000000 0.206537
#
#
# Mechanical properties :
#
#
# Convention : Reuss Voigt Hill
#
# Bulk Modulus (GPa) = 21.82623 37.48353 29.65488
# Shear Modulus (GPa) = 13.97237 28.91622 21.44429
#
# Velocity S-wave (km/s) = 2.47582 3.56168 3.06719
# Velocity P-wave (km/s) = 4.21285 5.77566 5.05501
#
# Compressibility (1/GPa) = 0.04581642
#
# Stress axis : x y z
#
# Youngs Moduli (GPa) = 100.70739 26.89125 102.88976
#
# Poissons Ratio (x) = 0.07164 0.25279
# Poissons Ratio (y) = 0.26830 0.03999
# Poissons Ratio (z) = 0.24742 0.01045
#
# Static dielectric constant tensor:
#      x y z
#    x 4.087660 0.000000 0.100740 
#    y 0.000000 3.571190 0.000000 
#    z 0.100740 0.000000 4.413400 
# 
# 
# High freq. dielectric constant tensor:
#      x y z
#    x 1.910350 0.000000 0.015380 
#    y 0.000000 1.844190 0.000000 
#    z 0.015380 0.000000 1.921930 
# 
# From -- ./inp_files/62708.got.cif
#   From: 2010.06.25/outbox.cif.g09.slc.cpg/sg15_32_cif.got.tgz:62708.got - 2010.06.28 07:06:18.
