data_PCOD8136942
_publ_section_title
;
Structure prediction by ZEFSAII (Michael W. Deem and Ramdas Pophale) SiO2 
 PCOD8136942
Probable space group: C 2/C
;
_chemical_formula_sum "Si O2"
_cell_formula_units_Z 56
_cell_length_a 8.151709
_cell_length_b 12.406474
_cell_length_c 25.662109
_cell_angle_alpha 90.000000
_cell_angle_beta 94.261550
_cell_angle_gamma 90.000000
_cell_volume 2588.135404
_symmetry_space_group_name_H-M "C 2/C"
_symmetry_group_IT_number 15
_symmetry_cell_setting 'monoclinic'
loop_
_space_group_symop_operation_xyz
x,y,z
-x,y,1/2-z
-x,-y,-z
x,-y,1/2+z
1/2+x,1/2+y,z
1/2-x,1/2+y,1/2-z
1/2-x,1/2-y,-z
1/2+x,1/2-y,1/2+z
loop_
_atom_site_type_symbol
_atom_site_label
_atom_site_fract_x
_atom_site_fract_y
_atom_site_fract_z
Si Si1 0.496550 0.369358 0.055780
Si Si2 0.051344 0.158139 0.153587
Si Si3 0.035022 0.641282 0.092009
Si Si4 0.511911 0.882533 0.190720
Si Si5 0.296310 0.513797 0.636115
Si Si6 0.604570 0.107982 0.304829
Si Si7 0.687805 0.580694 0.049219
O O1 0.583338 0.253938 0.066138
O O2 0.391160 0.397694 0.104586
O O3 0.639271 0.455079 0.047812
O O4 0.372080 0.361167 0.004453
O O5 0.969068 0.276684 0.156071
O O6 0.209756 0.151893 0.195921
O O7 0.103232 0.142066 0.095241
O O8 0.921859 0.067270 0.167991
O O9 0.989769 0.668502 0.151005
O O10 0.883576 0.587356 0.057752
O O11 0.185525 0.557364 0.093563
O O12 0.500000 0.846593 0.250000
O O13 0.692597 0.927072 0.178761
O O14 0.383893 0.980656 0.178620
O O15 0.500000 0.124583 0.250000
#
# Coordination Sequence:
#
# PCOD8136942 Si02
#       7
#     8   8   8   8   8   8   8
#     4  10  20  39  61  86 118 153 189 233 290 341
#     4  10  21  40  62  84 116 154 189 236 288 339
#     4  10  20  35  57  84 117 153 187 236 287 333
#     4  10  22  39  57  82 114 150 192 239 286 331
#     4  10  22  37  58  87 114 149 197 233 280 350
#     4   9  20  40  59  83 117 149 193 243 284 337
#     4   9  20  38  60  87 120 150 188 238 284 344
#
# _framework density 21.6372
#
# number of rings (size 3 to 8) (size 9 to 14) (size 15 to 20)
#    0.000    2.286    0.000    2.143    0.000    8.571 
#    0.000   16.429    0.000    3.429    0.000    0.000 
#    0.000    0.000    0.000    0.000    0.000    0.000 
#
# Total GULP energy -347173.148826 kJ/mol
# GULP energy per Si atom -12399.041030 kJ/mol
# Density = 2.158795 g / cm^3
# Si number density = 21.637200 Si / 1000 Ang^3
#
#
#
# Elastic Constant Matrix: (Units=GPa)
#
#
# Indices 1 2 3 4 5 6 
#
# 1 51.9856 18.5267 11.3554 0.0000 7.8653 0.0000
# 2 18.5267 96.3150 29.6101 0.0000 2.7897 0.0000
# 3 11.3554 29.6101 83.1999 0.0000 19.0846 0.0000
# 4 0.0000 0.0000 0.0000 31.7643 0.0000 1.3892
# 5 7.8653 2.7897 19.0846 0.0000 28.3545 0.0000
# 6 0.0000 0.0000 0.0000 1.3892 0.0000 23.1450
#
#
#
# Elastic Compliance Matrix: (Units=1/GPa)
#
#
# Indices 1 2 3 4 5 6 
#
# 1 0.021502 -0.003881 -0.000323 0.000000 -0.005365 0.000000
# 2 -0.003881 0.012450 -0.004573 0.000000 0.002930 0.000000
# 3 -0.000323 -0.004573 0.016044 0.000000 -0.010259 0.000000
# 4 0.000000 0.000000 0.000000 0.031565 0.000000 -0.001895
# 5 -0.005365 0.002930 -0.010259 0.000000 0.043373 0.000000
# 6 0.000000 0.000000 0.000000 -0.001895 0.000000 0.043320
#
#
# Mechanical properties :
#
#
# Convention : Reuss Voigt Hill
#
# Bulk Modulus (GPa) = 30.82453 38.94277 34.88365
# Shear Modulus (GPa) = 25.42954 28.11999 26.77476
#
# Velocity S-wave (km/s) = 3.43194 3.60893 3.52154
# Velocity P-wave (km/s) = 5.47552 5.95004 5.71770
#
# Compressibility (1/GPa) = 0.03244169
#
# Stress axis : x y z
#
# Youngs Moduli (GPa) = 46.50821 80.31937 62.32789
#
# Poissons Ratio (x) = 0.31175 0.02010
# Poissons Ratio (y) = 0.18052 0.28504
# Poissons Ratio (z) = 0.01500 0.36732
#
# Static dielectric constant tensor:
#      x y z
#    x 3.862210 0.000000 0.051300 
#    y 0.000000 3.915400 0.000000 
#    z 0.051300 0.000000 3.827910 
# 
# 
# High freq. dielectric constant tensor:
#      x y z
#    x 1.838740 0.000000 -0.001610 
#    y 0.000000 1.854670 0.000000 
#    z -0.001610 0.000000 1.840360 
# 
# From -- ./inp_files/307258.got.cif
#   From: 2010.06.25/outbox.cif.g09.slc.cpg/sg15_154_cif.got.tgz:307258.got - 2010.06.28 07:06:18.
