data_PCOD8136037
_publ_section_title
;
Structure prediction by ZEFSAII (Michael W. Deem and Ramdas Pophale) SiO2 
 PCOD8136037
Probable space group: C 2/C
;
_chemical_formula_sum "Si O2"
_cell_formula_units_Z 40
_cell_length_a 19.992359
_cell_length_b 9.790678
_cell_length_c 10.858245
_cell_angle_alpha 90.000000
_cell_angle_beta 44.292917
_cell_angle_gamma 90.000000
_cell_volume 1484.209334
_symmetry_space_group_name_H-M "C 2/C"
_symmetry_group_IT_number 15
_symmetry_cell_setting 'monoclinic'
loop_
_space_group_symop_operation_xyz
x,y,z
-x,y,1/2-z
-x,-y,-z
x,-y,1/2+z
1/2+x,1/2+y,z
1/2-x,1/2+y,1/2-z
1/2-x,1/2-y,-z
1/2+x,1/2-y,1/2+z
loop_
_atom_site_type_symbol
_atom_site_label
_atom_site_fract_x
_atom_site_fract_y
_atom_site_fract_z
Si Si1 0.348285 0.042033 0.272177
Si Si2 0.607688 0.225135 0.486274
Si Si3 0.659783 0.561466 0.116583
Si Si4 0.000000 0.866914 0.250000
Si Si5 0.415399 0.245773 0.597923
Si Si6 0.000000 0.501767 0.250000
O O1 0.258678 0.022040 0.480045
O O2 0.375879 0.908066 0.156462
O O3 0.448204 0.090084 0.210606
O O4 0.325033 0.170474 0.213668
O O5 0.656542 0.346561 0.496755
O O6 0.505591 0.273465 0.568174
O O7 0.589369 0.095295 0.597693
O O8 0.570798 0.458411 0.239203
O O9 0.663184 0.650833 0.237645
O O10 0.934517 0.777889 0.429274
#
# Coordination Sequence:
#
# PCOD8136037 Si02
#       6
#     8   8   8   4   8   4
#     4  11  26  40  79 105 142 185 248 294 350 426
#     4  11  22  44  72 104 144 186 235 292 360 428
#     4  12  24  46  71 108 144 196 224 299 368 430
#     4  12  27  45  74 102 148 185 245 292 358 440
#     4  11  23  48  71 100 143 192 239 294 359 421
#     4  10  19  43  66 100 138 185 231 290 350 406
#
# _framework density 26.950377
#
# number of rings (size 3 to 8) (size 9 to 14) (size 15 to 20)
#    0.000    0.800    6.000    3.600    2.800    3.200 
#    0.000    1.000    0.000    0.000    0.000    0.000 
#    0.000    0.000    0.000    0.000    0.000    0.000 
#
# Total GULP energy -248013.173846 kJ/mol
# GULP energy per Si atom -12400.658692 kJ/mol
# Density = 2.688904 g / cm^3
# Si number density = 26.950377 Si / 1000 Ang^3
#
#
#
# Elastic Constant Matrix: (Units=GPa)
#
#
# Indices 1 2 3 4 5 6 
#
# 1 47.4175 3.5203 14.7294 0.0000 4.3643 0.0000
# 2 3.5203 63.3104 33.6278 0.0000 5.5540 0.0000
# 3 14.7294 33.6278 147.9915 0.0000 9.0728 0.0000
# 4 0.0000 0.0000 0.0000 44.9004 0.0000 3.7539
# 5 4.3643 5.5540 9.0728 0.0000 45.1040 0.0000
# 6 0.0000 0.0000 0.0000 3.7539 0.0000 25.1639
#
#
#
# Elastic Compliance Matrix: (Units=1/GPa)
#
#
# Indices 1 2 3 4 5 6 
#
# 1 0.021890 0.000039 -0.002083 0.000000 -0.001704 0.000000
# 2 0.000039 0.018052 -0.004019 0.000000 -0.001418 0.000000
# 3 -0.002083 -0.004019 0.007933 0.000000 -0.000899 0.000000
# 4 0.000000 0.000000 0.000000 0.022553 0.000000 -0.003364
# 5 -0.001704 -0.001418 -0.000899 0.000000 0.022691 0.000000
# 6 0.000000 0.000000 0.000000 -0.003364 0.000000 0.040241
#
#
# Mechanical properties :
#
#
# Convention : Reuss Voigt Hill
#
# Bulk Modulus (GPa) = 27.97295 40.27493 34.12394
# Shear Modulus (GPa) = 31.76552 36.82311 34.29432
#
# Velocity S-wave (km/s) = 3.43690 3.70040 3.57108
# Velocity P-wave (km/s) = 5.11387 5.76488 5.44910
#
# Compressibility (1/GPa) = 0.03574882
#
# Stress axis : x y z
#
# Youngs Moduli (GPa) = 45.68235 55.39522 126.05902
#
# Poissons Ratio (x) = -0.00214 0.26259
# Poissons Ratio (y) = -0.00177 0.50661
# Poissons Ratio (z) = 0.09516 0.22262
#
# Static dielectric constant tensor:
#      x y z
#    x 4.611250 0.000000 0.130990 
#    y 0.000000 4.821960 0.000000 
#    z 0.130990 0.000000 4.993090 
# 
# 
# High freq. dielectric constant tensor:
#      x y z
#    x 2.068850 0.000000 0.003190 
#    y 0.000000 2.079210 0.000000 
#    z 0.003190 0.000000 2.089530 
# 
# From -- ./inp_files/103964.got.cif
#   From: 2010.06.25/outbox.cif.g09.slc.cpg/sg15_52_cif.got.tgz:103964.got - 2010.06.28 07:06:18.
