data_PCOD8136887
_publ_section_title
;
Structure prediction by ZEFSAII (Michael W. Deem and Ramdas Pophale) SiO2 
 PCOD8136887
Probable space group: C 2/C
;
_chemical_formula_sum "Si O2"
_cell_formula_units_Z 48
_cell_length_a 18.505318
_cell_length_b 8.408625
_cell_length_c 15.995863
_cell_angle_alpha 90.000000
_cell_angle_beta 89.999439
_cell_angle_gamma 90.000000
_cell_volume 2489.024738
_symmetry_space_group_name_H-M "C 2/C"
_symmetry_group_IT_number 15
_symmetry_cell_setting 'monoclinic'
loop_
_space_group_symop_operation_xyz
x,y,z
-x,y,1/2-z
-x,-y,-z
x,-y,1/2+z
1/2+x,1/2+y,z
1/2-x,1/2+y,1/2-z
1/2-x,1/2-y,-z
1/2+x,1/2-y,1/2+z
loop_
_atom_site_type_symbol
_atom_site_label
_atom_site_fract_x
_atom_site_fract_y
_atom_site_fract_z
Si Si1 0.697474 0.896875 0.580294
Si Si2 0.331508 0.210975 0.844936
Si Si3 0.916788 0.816496 0.507269
Si Si4 0.831505 0.710974 0.655065
Si Si5 0.697476 0.896877 0.919707
Si Si6 0.916789 0.183504 0.492732
O O1 0.629556 0.785376 0.558546
O O2 0.762601 0.787833 0.609961
O O3 0.675833 0.019473 0.653656
O O4 0.721723 0.999995 0.499999
O O5 0.339321 0.270303 0.750000
O O6 0.262603 0.287827 0.890045
O O7 0.401897 0.262292 0.897312
O O8 0.901895 0.762283 0.602686
O O9 1.000000 0.785562 0.485629
O O10 0.895773 0.000001 0.500003
O O11 0.824161 0.519471 0.653658
O O12 0.629556 0.785384 0.941457
#
# Coordination Sequence:
#
# PCOD8136887 Si02
#       6
#     8   8   8   8   8   8
#     4  10  20  35  56  81 107 142 182 218 260 318
#     4  11  21  34  56  83 111 139 174 224 272 314
#     4  10  21  38  58  78 105 144 184 219 261 318
#     4  11  21  34  56  83 111 139 174 224 272 314
#     4  10  20  35  56  81 107 142 182 218 260 318
#     4  10  21  38  58  78 105 144 184 219 261 318
#
# _framework density 19.284662000000001
#
# number of rings (size 3 to 8) (size 9 to 14) (size 15 to 20)
#    0.000    1.667    0.000    8.000    0.000    6.667 
#    0.000    1.667    0.000    7.000    0.000    0.000 
#    0.000    0.000    0.000    0.000    0.000    0.000 
#
# Total GULP energy -297611.725099 kJ/mol
# GULP energy per Si atom -12400.488546 kJ/mol
# Density = 1.924077 g / cm^3
# Si number density = 19.284662 Si / 1000 Ang^3
#
#
#
# Elastic Constant Matrix: (Units=GPa)
#
#
# Indices 1 2 3 4 5 6 
#
# 1 65.7753 47.1109 15.3209 0.0000 0.0067 0.0000
# 2 47.1109 129.9514 25.1553 0.0000 0.0080 0.0000
# 3 15.3209 25.1553 71.3065 0.0000 0.0050 0.0000
# 4 0.0000 0.0000 0.0000 21.3118 0.0000 0.0008
# 5 0.0067 0.0080 0.0050 0.0000 6.5036 0.0000
# 6 0.0000 0.0000 0.0000 0.0008 0.0000 33.5844
#
#
#
# Elastic Compliance Matrix: (Units=1/GPa)
#
#
# Indices 1 2 3 4 5 6 
#
# 1 0.020782 -0.007159 -0.001940 0.000000 -0.000011 0.000000
# 2 -0.007159 0.010725 -0.002245 0.000000 -0.000004 0.000000
# 3 -0.001940 -0.002245 0.015233 0.000000 -0.000007 0.000000
# 4 0.000000 0.000000 0.000000 0.046922 0.000000 -0.000001
# 5 -0.000011 -0.000004 -0.000007 0.000000 0.153760 0.000000
# 6 0.000000 0.000000 0.000000 -0.000001 0.000000 0.029776
#
#
# Mechanical properties :
#
#
# Convention : Reuss Voigt Hill
#
# Bulk Modulus (GPa) = 41.57589 49.13415 45.35502
# Shear Modulus (GPa) = 16.23881 24.24304 20.24093
#
# Velocity S-wave (km/s) = 2.90497 3.54943 3.24325
# Velocity P-wave (km/s) = 5.73216 6.50627 6.13145
#
# Compressibility (1/GPa) = 0.02405240
#
# Stress axis : x y z
#
# Youngs Moduli (GPa) = 48.11747 93.23951 65.64733
#
# Poissons Ratio (x) = 0.66747 0.12735
# Poissons Ratio (y) = 0.34446 0.14741
# Poissons Ratio (z) = 0.09334 0.20936
#
# Static dielectric constant tensor:
#      x y z
#    x 3.354780 0.000000 0.000010 
#    y 0.000000 3.924140 0.000000 
#    z 0.000010 0.000000 3.528800 
# 
# 
# High freq. dielectric constant tensor:
#      x y z
#    x 1.742180 0.000000 0.000000 
#    y 0.000000 1.774040 0.000000 
#    z 0.000000 0.000000 1.732460 
# 
# From -- ./inp_files/208644.got.cif
#   From: 2010.06.25/outbox.cif.g09.slc.cpg/sg15_105_cif.got.tgz:208644.got - 2010.06.28 07:06:18.
