data_PCOD8136483
_publ_section_title
;
Structure prediction by ZEFSAII (Michael W. Deem and Ramdas Pophale) SiO2 
 PCOD8136483
Probable space group: C 2/C
;
_chemical_formula_sum "Si O2"
_cell_formula_units_Z 48
_cell_length_a 34.994549
_cell_length_b 5.242515
_cell_length_c 22.797287
_cell_angle_alpha 90.000000
_cell_angle_beta 143.341803
_cell_angle_gamma 90.000000
_cell_volume 2497.046828
_symmetry_space_group_name_H-M "C 2/C"
_symmetry_group_IT_number 15
_symmetry_cell_setting 'monoclinic'
loop_
_space_group_symop_operation_xyz
x,y,z
-x,y,1/2-z
-x,-y,-z
x,-y,1/2+z
1/2+x,1/2+y,z
1/2-x,1/2+y,1/2-z
1/2-x,1/2-y,-z
1/2+x,1/2-y,1/2+z
loop_
_atom_site_type_symbol
_atom_site_label
_atom_site_fract_x
_atom_site_fract_y
_atom_site_fract_z
Si Si1 0.766469 0.541494 0.972440
Si Si2 0.619593 0.073579 0.820585
Si Si3 0.429011 0.449433 0.182983
Si Si4 0.808885 0.708134 0.694037
Si Si5 0.708393 0.358758 0.702197
Si Si6 0.674782 0.413542 0.536854
O O1 0.700607 0.444511 0.862541
O O2 0.809473 0.640853 0.971361
O O3 0.750000 0.750000 0.000000
O O4 0.812931 0.343438 0.064051
O O5 0.570109 0.302173 0.773385
O O6 0.634919 0.046800 0.769006
O O7 0.595837 0.799386 0.813283
O O8 0.500000 0.388309 0.250000
O O9 0.386580 0.522246 0.073293
O O10 0.830197 0.790757 0.785635
O O11 0.738723 0.582931 0.609629
O O12 0.743197 0.629705 0.754586
O O13 0.658951 0.384116 0.586837
#
# Coordination Sequence:
#
# PCOD8136483 Si02
#       6
#     8   8   8   8   8   8
#     4  11  18  30  49  85 115 141 167 221 279 338
#     4  11  22  34  57  81 111 142 177 234 278 325
#     4  11  24  39  56  78 109 149 191 226 271 321
#     4  11  19  33  53  85 113 137 179 220 287 337
#     4  10  21  33  51  79 116 148 173 213 274 344
#     4  10  20  34  54  79 116 145 181 221 273 329
#
# _framework density 19.222708000000001
#
# number of rings (size 3 to 8) (size 9 to 14) (size 15 to 20)
#    0.000    1.333    5.000    3.000    0.000    0.000 
#    0.000    0.000    0.000    2.000    0.000    0.000 
#    0.000    0.000    0.000    0.000    0.000    0.000 
#
# Total GULP energy -297319.371006 kJ/mol
# GULP energy per Si atom -12388.307125 kJ/mol
# Density = 1.917896 g / cm^3
# Si number density = 19.222708 Si / 1000 Ang^3
#
#
#
# Elastic Constant Matrix: (Units=GPa)
#
#
# Indices 1 2 3 4 5 6 
#
# 1 129.8459 31.1149 55.6011 0.0028 -26.6177 0.0102
# 2 31.1149 78.4535 16.2379 -0.0068 -9.6816 0.0228
# 3 55.6011 16.2379 56.7089 0.0020 -14.0634 0.0019
# 4 0.0028 -0.0068 0.0020 18.3694 -0.0019 -0.9617
# 5 -26.6177 -9.6816 -14.0634 -0.0019 34.4663 0.0032
# 6 0.0102 0.0228 0.0019 -0.9617 0.0032 26.0748
#
#
#
# Elastic Compliance Matrix: (Units=1/GPa)
#
#
# Indices 1 2 3 4 5 6 
#
# 1 0.014761 -0.002607 -0.012328 -0.000001 0.005637 -0.000003
# 2 -0.002607 0.014202 -0.001135 0.000005 0.001513 -0.000011
# 3 -0.012328 -0.001135 0.030714 -0.000001 0.002693 0.000003
# 4 -0.000001 0.000005 -0.000001 0.054544 0.000003 0.002012
# 5 0.005637 0.001513 0.002693 0.000003 0.034891 -0.000008
# 6 -0.000003 -0.000011 0.000003 0.002012 -0.000008 0.038425
#
#
# Mechanical properties :
#
#
# Convention : Reuss Voigt Hill
#
# Bulk Modulus (GPa) = 36.31608 52.32400 44.32004
# Shear Modulus (GPa) = 21.84787 26.58572 24.21680
#
# Velocity S-wave (km/s) = 3.37496 3.72296 3.55322
# Velocity P-wave (km/s) = 5.84127 6.76458 6.31981
#
# Compressibility (1/GPa) = 0.02753601
#
# Stress axis : x y z
#
# Youngs Moduli (GPa) = 67.74832 70.41261 32.55866
#
# Poissons Ratio (x) = 0.18356 0.40138
# Poissons Ratio (y) = 0.17661 0.03697
# Poissons Ratio (z) = 0.83519 0.07995
#
# Static dielectric constant tensor:
#      x y z
#    x 3.785520 -0.000010 -0.327860 
#    y -0.000010 3.601630 -0.000010 
#    z -0.327860 -0.000010 3.463590 
# 
# 
# High freq. dielectric constant tensor:
#      x y z
#    x 1.747850 0.000000 -0.033960 
#    y 0.000000 1.761410 0.000000 
#    z -0.033960 0.000000 1.692640 
# 
# From -- ./inp_files/256463.got.cif
#   From: 2010.06.25/outbox.cif.g09.slc.cpg/sg15_129_cif.got.tgz:256463.got - 2010.06.28 07:06:18.
