data_PCOD8136871
_publ_section_title
;
Structure prediction by ZEFSAII (Michael W. Deem and Ramdas Pophale) SiO2 
 PCOD8136871
Probable space group: C 2/C
;
_chemical_formula_sum "Si O2"
_cell_formula_units_Z 36
_cell_length_a 17.067503
_cell_length_b 20.481645
_cell_length_c 8.783264
_cell_angle_alpha 90.000000
_cell_angle_beta 137.627515
_cell_angle_gamma 90.000000
_cell_volume 2069.268963
_symmetry_space_group_name_H-M "C 2/C"
_symmetry_group_IT_number 15
_symmetry_cell_setting 'monoclinic'
loop_
_space_group_symop_operation_xyz
x,y,z
-x,y,1/2-z
-x,-y,-z
x,-y,1/2+z
1/2+x,1/2+y,z
1/2-x,1/2+y,1/2-z
1/2-x,1/2-y,-z
1/2+x,1/2-y,1/2+z
loop_
_atom_site_type_symbol
_atom_site_label
_atom_site_fract_x
_atom_site_fract_y
_atom_site_fract_z
Si Si1 0.138360 0.192276 0.715171
Si Si2 0.500000 0.633685 0.250000
Si Si3 0.617229 0.824343 0.839154
Si Si4 0.619087 0.535263 0.209731
Si Si5 0.793776 0.917856 0.987192
O O1 0.086729 0.260977 0.695846
O O2 0.114698 0.134212 0.805578
O O3 0.074809 0.178905 0.467010
O O4 0.279288 0.196218 0.893574
O O5 0.594759 0.590997 0.297351
O O6 0.500000 0.848821 0.750000
O O7 0.665177 0.884942 0.805964
O O8 0.706947 0.483361 0.411691
O O9 0.500000 0.500000 0.000000
O O10 0.674528 0.566814 0.140086
#
# Coordination Sequence:
#
# PCOD8136871 Si02
#       5
#     8   4   8   8   8
#     4   9  21  36  59  87 110 151 191 242 280 340
#     4  12  22  32  60  96 118 136 190 252 296 328
#     4   9  20  40  60  76 113 168 193 220 284 351
#     4  12  19  32  56  89 119 144 180 245 298 335
#     4  10  20  35  55  84 117 146 193 229 289 348
#
# _framework density 17.397448000000001
#
# number of rings (size 3 to 8) (size 9 to 14) (size 15 to 20)
#    1.333    0.444    4.444    0.000    3.111    0.000 
#    0.000    5.556    0.000    0.000    0.000    0.000 
#    0.000    0.000    0.000    0.000    0.000    0.000 
#
# Total GULP energy -223045.242792 kJ/mol
# GULP energy per Si atom -12391.402377 kJ/mol
# Density = 1.735785 g / cm^3
# Si number density = 17.397448 Si / 1000 Ang^3
#
#
#
# Elastic Constant Matrix: (Units=GPa)
#
#
# Indices 1 2 3 4 5 6 
#
# 1 141.9042 68.5408 50.4687 0.0000 -10.8118 0.0000
# 2 68.5408 112.5450 67.2545 0.0000 -13.2171 0.0000
# 3 50.4687 67.2545 81.5144 0.0000 -21.3683 0.0000
# 4 0.0000 0.0000 0.0000 28.1083 0.0000 0.1107
# 5 -10.8118 -13.2171 -21.3683 0.0000 26.4516 0.0000
# 6 0.0000 0.0000 0.0000 0.1107 0.0000 26.3996
#
#
#
# Elastic Compliance Matrix: (Units=1/GPa)
#
#
# Indices 1 2 3 4 5 6 
#
# 1 0.010207 -0.004800 -0.002404 0.000000 -0.000168 0.000000
# 2 -0.004800 0.020075 -0.014560 0.000000 -0.003692 0.000000
# 3 -0.002404 -0.014560 0.029945 0.000000 0.015933 0.000000
# 4 0.000000 0.000000 0.000000 0.035577 0.000000 -0.000149
# 5 -0.000168 -0.003692 0.015933 0.000000 0.048762 0.000000
# 6 0.000000 0.000000 0.000000 -0.000149 0.000000 0.037880
#
#
# Mechanical properties :
#
#
# Convention : Reuss Voigt Hill
#
# Bulk Modulus (GPa) = 59.87353 78.72129 69.29741
# Shear Modulus (GPa) = 21.59443 26.17186 23.88315
#
# Velocity S-wave (km/s) = 3.52695 3.88280 3.70915
# Velocity P-wave (km/s) = 7.14672 8.09003 7.63296
#
# Compressibility (1/GPa) = 0.01670187
#
# Stress axis : x y z
#
# Youngs Moduli (GPa) = 97.96815 49.81264 33.39415
#
# Poissons Ratio (x) = 0.23908 0.08027
# Poissons Ratio (y) = 0.47021 0.48621
# Poissons Ratio (z) = 0.23550 0.72525
#
# Static dielectric constant tensor:
#      x y z
#    x 2.652630 0.000000 -0.090500 
#    y 0.000000 3.373830 0.000000 
#    z -0.090500 0.000000 3.044350 
# 
# 
# High freq. dielectric constant tensor:
#      x y z
#    x 1.652850 0.000000 -0.008380 
#    y 0.000000 1.681440 0.000000 
#    z -0.008380 0.000000 1.649550 
# 
# From -- ./inp_files/29881.got.cif
#   From: 2010.06.25/outbox.cif.g09.slc.cpg/sg15_15_cif.got.tgz:29881.got - 2010.06.28 07:06:18.
