data_PCOD8136036
_publ_section_title
;
Structure prediction by ZEFSAII (Michael W. Deem and Ramdas Pophale) SiO2 
 PCOD8136036
Probable space group: C 2/C
;
_chemical_formula_sum "Si O2"
_cell_formula_units_Z 48
_cell_length_a 30.409249
_cell_length_b 9.660009
_cell_length_c 17.689399
_cell_angle_alpha 90.000000
_cell_angle_beta 29.059729
_cell_angle_gamma 90.000000
_cell_volume 2523.964784
_symmetry_space_group_name_H-M "C 2/C"
_symmetry_group_IT_number 15
_symmetry_cell_setting 'monoclinic'
loop_
_space_group_symop_operation_xyz
x,y,z
-x,y,1/2-z
-x,-y,-z
x,-y,1/2+z
1/2+x,1/2+y,z
1/2-x,1/2+y,1/2-z
1/2-x,1/2-y,-z
1/2+x,1/2-y,1/2+z
loop_
_atom_site_type_symbol
_atom_site_label
_atom_site_fract_x
_atom_site_fract_y
_atom_site_fract_z
Si Si1 0.322795 0.766615 0.677725
Si Si2 0.568591 0.016717 0.205684
Si Si3 0.929442 0.116546 0.124405
Si Si4 0.258863 0.988213 0.655293
Si Si5 0.043423 0.364014 0.901207
Si Si6 0.000864 0.212208 0.332361
O O1 0.280125 0.893854 0.695917
O O2 0.249345 0.647947 0.806427
O O3 0.365925 0.823307 0.690232
O O4 0.399776 0.689639 0.514114
O O5 0.500000 0.090572 0.250000
O O6 0.576882 0.117297 0.264931
O O7 0.521606 0.874596 0.301704
O O8 0.664150 0.981940 0.024048
O O9 0.830262 0.072468 0.249313
O O10 0.928357 0.139349 0.217218
O O11 0.963569 0.251169 0.027774
O O12 0.000000 0.000000 0.000000
O O13 0.000000 0.500000 0.000000
O O14 0.000000 0.146023 0.250000
#
# Coordination Sequence:
#
# PCOD8136036 Si02
#       6
#     8   8   8   8   8   8
#     4  11  24  42  66  96 129 171 211 266 318 391
#     4  11  22  41  66  96 127 171 219 264 308 390
#     4  11  23  43  65  95 132 166 208 271 320 374
#     4  12  25  42  68  95 132 165 221 266 321 377
#     4  11  21  43  69  89 127 178 211 252 329 387
#     4  10  19  43  65  90 127 165 215 260 311 378
#
# _framework density 19.017697999999999
#
# number of rings (size 3 to 8) (size 9 to 14) (size 15 to 20)
#    0.000    1.000   10.000    0.000    4.667    1.333 
#    3.000    0.833    0.000    0.000    0.000    0.000 
#    0.000    0.000    0.000    0.000    0.000    0.000 
#
# Total GULP energy -297559.442852 kJ/mol
# GULP energy per Si atom -12398.310119 kJ/mol
# Density = 1.897441 g / cm^3
# Si number density = 19.017698 Si / 1000 Ang^3
#
#
#
# Elastic Constant Matrix: (Units=GPa)
#
#
# Indices 1 2 3 4 5 6 
#
# 1 176.6898 42.1284 51.7114 -0.0002 8.5637 -0.0001
# 2 42.1284 92.1365 24.9777 -0.0015 3.5018 0.0002
# 3 51.7114 24.9777 79.8019 -0.0005 -4.3582 0.0001
# 4 -0.0002 -0.0015 -0.0005 23.1850 0.0004 -6.6338
# 5 8.5637 3.5018 -4.3582 0.0004 38.0104 0.0000
# 6 -0.0001 0.0002 0.0001 -6.6338 0.0000 34.7236
#
#
#
# Elastic Compliance Matrix: (Units=1/GPa)
#
#
# Indices 1 2 3 4 5 6 
#
# 1 0.007542 -0.002206 -0.004306 0.000000 -0.001990 0.000000
# 2 -0.002206 0.012594 -0.002565 0.000001 -0.000957 0.000000
# 3 -0.004306 -0.002565 0.016292 0.000000 0.003074 0.000000
# 4 0.000000 0.000001 0.000000 0.045625 -0.000001 0.008717
# 5 -0.001990 -0.000957 0.003074 -0.000001 0.027198 0.000000
# 6 0.000000 0.000000 0.000000 0.008717 0.000000 0.030464
#
#
# Mechanical properties :
#
#
# Convention : Reuss Voigt Hill
#
# Bulk Modulus (GPa) = 54.71834 65.14036 59.92935
# Shear Modulus (GPa) = 30.49558 34.50452 32.50005
#
# Velocity S-wave (km/s) = 4.00876 4.26412 4.13841
# Velocity P-wave (km/s) = 7.08955 7.65314 7.37673
#
# Compressibility (1/GPa) = 0.01827541
#
# Stress axis : x y z
#
# Youngs Moduli (GPa) = 132.58966 79.40488 61.38108
#
# Poissons Ratio (x) = 0.17514 0.26428
# Poissons Ratio (y) = 0.29245 0.15743
# Poissons Ratio (z) = 0.57087 0.20366
#
# Static dielectric constant tensor:
#      x y z
#    x 3.770480 0.000000 0.528090 
#    y 0.000000 3.484320 0.000000 
#    z 0.528090 0.000000 3.010050 
# 
# 
# High freq. dielectric constant tensor:
#      x y z
#    x 1.755730 0.000000 0.002390 
#    y 0.000000 1.732780 0.000000 
#    z 0.002390 0.000000 1.734370 
# 
# From -- ./inp_files/208963.got.cif
#   From: 2010.06.25/outbox.cif.g09.slc.cpg/sg15_105_cif.got.tgz:208963.got - 2010.06.28 07:06:18.
