data_PCOD8136536
_publ_section_title
;
Structure prediction by ZEFSAII (Michael W. Deem and Ramdas Pophale) SiO2 
 PCOD8136536
Probable space group: C 2/C
;
_chemical_formula_sum "Si O2"
_cell_formula_units_Z 56
_cell_length_a 23.824737
_cell_length_b 8.629421
_cell_length_c 15.323663
_cell_angle_alpha 90.000000
_cell_angle_beta 69.522969
_cell_angle_gamma 90.000000
_cell_volume 2951.379422
_symmetry_space_group_name_H-M "C 2/C"
_symmetry_group_IT_number 15
_symmetry_cell_setting 'monoclinic'
loop_
_space_group_symop_operation_xyz
x,y,z
-x,y,1/2-z
-x,-y,-z
x,-y,1/2+z
1/2+x,1/2+y,z
1/2-x,1/2+y,1/2-z
1/2-x,1/2-y,-z
1/2+x,1/2-y,1/2+z
loop_
_atom_site_type_symbol
_atom_site_label
_atom_site_fract_x
_atom_site_fract_y
_atom_site_fract_z
Si Si1 0.157383 0.076900 0.857835
Si Si2 0.615934 0.178779 0.262334
Si Si3 0.283696 0.984160 0.205400
Si Si4 0.519108 0.962926 0.392764
Si Si5 0.117171 0.739048 0.900492
Si Si6 0.199709 0.677161 0.466736
Si Si7 0.895222 0.551633 0.416032
O O1 0.119662 0.145748 0.796649
O O2 0.224741 0.047797 0.791407
O O3 0.159711 0.192926 0.939352
O O4 0.122742 0.922775 0.906517
O O5 0.613597 0.168808 0.159478
O O6 0.677118 0.100532 0.259568
O O7 0.557815 0.104992 0.336837
O O8 0.320433 0.824558 0.172751
O O9 0.268860 0.063066 0.120304
O O10 0.560640 0.807564 0.368517
O O11 0.500000 0.000000 0.500000
O O12 0.457777 0.955683 0.370123
O O13 0.104823 0.660709 0.999983
O O14 0.250000 0.750000 0.500000
O O15 0.156411 0.577212 0.552433
#
# Coordination Sequence:
#
# PCOD8136536 Si02
#       7
#     8   8   8   8   8   8   8
#     4  11  20  34  54  82 111 140 179 231 277 313
#     4  10  20  34  56  80 103 140 182 222 263 320
#     4   9  19  35  53  75 109 150 182 211 271 336
#     4   9  18  37  58  75 101 142 182 213 259 330
#     4   9  19  34  55  80 107 142 181 222 273 325
#     4  10  21  35  54  81 111 145 184 227 268 323
#     4  10  20  37  56  77 107 147 184 216 268 335
#
# _framework density 18.974177999999998
#
# number of rings (size 3 to 8) (size 9 to 14) (size 15 to 20)
#    0.000    2.286    0.000    5.571    0.000    2.286 
#    0.000   10.000    0.000    5.143    0.000    0.000 
#    0.000    0.000    0.000    0.000    0.000    0.000 
#
# Total GULP energy -347082.989223 kJ/mol
# GULP energy per Si atom -12395.821044 kJ/mol
# Density = 1.893099 g / cm^3
# Si number density = 18.974178 Si / 1000 Ang^3
#
#
#
# Elastic Constant Matrix: (Units=GPa)
#
#
# Indices 1 2 3 4 5 6 
#
# 1 105.7915 37.3862 40.4669 0.0000 3.8180 0.0000
# 2 37.3862 113.1483 27.8781 0.0000 2.2729 0.0000
# 3 40.4669 27.8781 66.4898 0.0000 -4.6247 0.0000
# 4 0.0000 0.0000 0.0000 21.9748 0.0000 8.5538
# 5 3.8180 2.2729 -4.6247 0.0000 33.1673 0.0000
# 6 0.0000 0.0000 0.0000 8.5538 0.0000 9.8066
#
#
#
# Elastic Compliance Matrix: (Units=1/GPa)
#
#
# Indices 1 2 3 4 5 6 
#
# 1 0.013153 -0.002550 -0.007098 0.000000 -0.002329 0.000000
# 2 -0.002550 0.010403 -0.002867 0.000000 -0.000819 0.000000
# 3 -0.007098 -0.002867 0.020834 0.000000 0.003919 0.000000
# 4 0.000000 0.000000 0.000000 0.068900 0.000000 -0.060098
# 5 -0.002329 -0.000819 0.003919 0.000000 0.031021 0.000000
# 6 0.000000 0.000000 0.000000 -0.060098 0.000000 0.154392
#
#
# Mechanical properties :
#
#
# Convention : Reuss Voigt Hill
#
# Bulk Modulus (GPa) = 51.65072 55.21023 53.43047
# Shear Modulus (GPa) = 15.14296 24.96963 20.05630
#
# Velocity S-wave (km/s) = 2.82810 3.63158 3.25473
# Velocity P-wave (km/s) = 6.15994 6.83705 6.50731
#
# Compressibility (1/GPa) = 0.01936082
#
# Stress axis : x y z
#
# Youngs Moduli (GPa) = 76.02881 96.12213 47.99788
#
# Poissons Ratio (x) = 0.24515 0.34068
# Poissons Ratio (y) = 0.19390 0.13760
# Poissons Ratio (z) = 0.53963 0.27556
#
# Static dielectric constant tensor:
#      x y z
#    x 3.719890 0.000000 0.022020 
#    y 0.000000 3.463340 0.000000 
#    z 0.022020 0.000000 3.487140 
# 
# 
# High freq. dielectric constant tensor:
#      x y z
#    x 1.739110 0.000000 -0.005300 
#    y 0.000000 1.721620 0.000000 
#    z -0.005300 0.000000 1.738430 
# 
# From -- ./inp_files/171820.got.cif
#   From: 2010.06.25/outbox.cif.g09.slc.cpg/sg15_86_cif.got.tgz:171820.got - 2010.06.28 07:06:18.
