data_PCOD8136385
_publ_section_title
;
Structure prediction by ZEFSAII (Michael W. Deem and Ramdas Pophale) SiO2 
 PCOD8136385
Probable space group: C 2/C
;
_chemical_formula_sum "Si O2"
_cell_formula_units_Z 60
_cell_length_a 21.261565
_cell_length_b 28.875738
_cell_length_c 7.838817
_cell_angle_alpha 90.000000
_cell_angle_beta 37.567040
_cell_angle_gamma 90.000000
_cell_volume 2934.184463
_symmetry_space_group_name_H-M "C 2/C"
_symmetry_group_IT_number 15
_symmetry_cell_setting 'monoclinic'
loop_
_space_group_symop_operation_xyz
x,y,z
-x,y,1/2-z
-x,-y,-z
x,-y,1/2+z
1/2+x,1/2+y,z
1/2-x,1/2+y,1/2-z
1/2-x,1/2-y,-z
1/2+x,1/2-y,1/2+z
loop_
_atom_site_type_symbol
_atom_site_label
_atom_site_fract_x
_atom_site_fract_y
_atom_site_fract_z
Si Si1 0.326585 0.301982 0.987628
Si Si2 0.749671 0.505971 0.298203
Si Si3 0.522596 0.130968 0.892818
Si Si4 0.667241 0.429856 0.227922
Si Si5 0.595103 0.965248 0.286285
Si Si6 0.299873 0.197988 0.073012
Si Si7 0.500000 0.367963 0.750000
Si Si8 0.301757 0.157329 0.436465
O O1 0.295285 0.304695 0.855247
O O2 0.425243 0.335126 0.800410
O O3 0.350822 0.248710 0.978307
O O4 0.237655 0.315480 0.313301
O O5 0.683740 0.470652 0.327874
O O6 0.668275 0.544589 0.541975
O O7 0.800156 0.475650 0.337554
O O8 0.853413 0.532222 0.010509
O O9 0.500000 0.114397 0.750000
O O10 0.554350 0.085178 0.928473
O O11 0.614872 0.166607 0.697613
O O12 0.425097 0.156326 0.186482
O O13 0.562508 0.401128 0.485868
O O14 0.763524 0.395261 0.025489
O O15 0.500000 0.000000 0.500000
O O16 0.265403 0.181096 0.335933
#
# Coordination Sequence:
#
# PCOD8136385 Si02
#       8
#     8   8   8   8   8   8   4   8
#     4  10  23  43  65  91 124 165 211 265 323 380
#     4  10  21  36  60  83 128 163 210 255 313 374
#     4  10  20  33  59  90 125 159 200 245 314 388
#     4  10  22  42  60  92 119 171 212 270 315 378
#     4  11  20  33  56  89 127 164 198 249 311 387
#     4  10  22  41  65  93 127 163 205 260 324 387
#     4  10  24  42  70  86 128 162 228 270 324 370
#     4  10  21  39  64  93 129 162 207 256 326 382
#
# _framework density 20.448612000000001
#
# number of rings (size 3 to 8) (size 9 to 14) (size 15 to 20)
#    0.000    1.867    0.000    4.800    6.533    1.067 
#    0.000    2.667    0.000    0.000    0.000    0.000 
#    0.000    0.000    0.000    0.000    0.000    0.000 
#
# Total GULP energy -371789.167178 kJ/mol
# GULP energy per Si atom -12392.972239 kJ/mol
# Density = 2.040207 g / cm^3
# Si number density = 20.448612 Si / 1000 Ang^3
#
#
#
# Elastic Constant Matrix: (Units=GPa)
#
#
# Indices 1 2 3 4 5 6 
#
# 1 49.1186 31.9721 24.9793 0.0000 0.6411 0.0000
# 2 31.9721 136.8242 47.3575 0.0000 0.7047 0.0000
# 3 24.9793 47.3575 95.2395 0.0000 -3.8719 0.0000
# 4 0.0000 0.0000 0.0000 34.2785 0.0000 -1.8728
# 5 0.6411 0.7047 -3.8719 0.0000 26.5643 0.0000
# 6 0.0000 0.0000 0.0000 -1.8728 0.0000 27.7241
#
#
#
# Elastic Compliance Matrix: (Units=1/GPa)
#
#
# Indices 1 2 3 4 5 6 
#
# 1 0.025551 -0.004383 -0.004569 0.000000 -0.001166 0.000000
# 2 -0.004383 0.009600 -0.003652 0.000000 -0.000681 0.000000
# 3 -0.004569 -0.003652 0.013603 0.000000 0.002190 0.000000
# 4 0.000000 0.000000 0.000000 0.029281 0.000000 0.001978
# 5 -0.001166 -0.000681 0.002190 0.000000 0.038010 0.000000
# 6 0.000000 0.000000 0.000000 0.001978 0.000000 0.036203
#
#
# Mechanical properties :
#
#
# Convention : Reuss Voigt Hill
#
# Bulk Modulus (GPa) = 42.47033 54.42222 48.44628
# Shear Modulus (GPa) = 26.98246 29.50495 28.24371
#
# Velocity S-wave (km/s) = 3.63647 3.80265 3.72049
# Velocity P-wave (km/s) = 6.20050 6.77880 6.49609
#
# Compressibility (1/GPa) = 0.02354585
#
# Stress axis : x y z
#
# Youngs Moduli (GPa) = 39.13765 104.16322 73.51202
#
# Poissons Ratio (x) = 0.45654 0.33591
# Poissons Ratio (y) = 0.17154 0.26846
# Poissons Ratio (z) = 0.17884 0.38039
#
# Static dielectric constant tensor:
#      x y z
#    x 3.686750 0.000000 0.267330 
#    y 0.000000 4.387810 0.000000 
#    z 0.267330 0.000000 3.822670 
# 
# 
# High freq. dielectric constant tensor:
#      x y z
#    x 1.784310 0.000000 0.010700 
#    y 0.000000 1.814610 0.000000 
#    z 0.010700 0.000000 1.798000 
# 
# From -- ./inp_files/64192.got.cif
#   From: 2010.06.25/outbox.cif.g09.slc.cpg/sg15_33_cif.got.tgz:64192.got - 2010.06.28 07:06:18.
