data_PCOD8136399
_publ_section_title
;
Structure prediction by ZEFSAII (Michael W. Deem and Ramdas Pophale) SiO2 
 PCOD8136399
Probable space group: C 2/C
;
_chemical_formula_sum "Si O2"
_cell_formula_units_Z 64
_cell_length_a 12.324771
_cell_length_b 20.287324
_cell_length_c 27.206220
_cell_angle_alpha 90.000000
_cell_angle_beta 151.604775
_cell_angle_gamma 90.000000
_cell_volume 3234.959408
_symmetry_space_group_name_H-M "C 2/C"
_symmetry_group_IT_number 15
_symmetry_cell_setting 'monoclinic'
loop_
_space_group_symop_operation_xyz
x,y,z
-x,y,1/2-z
-x,-y,-z
x,-y,1/2+z
1/2+x,1/2+y,z
1/2-x,1/2+y,1/2-z
1/2-x,1/2-y,-z
1/2+x,1/2-y,1/2+z
loop_
_atom_site_type_symbol
_atom_site_label
_atom_site_fract_x
_atom_site_fract_y
_atom_site_fract_z
Si Si1 0.763622 0.964505 0.750048
Si Si2 0.523807 0.922224 0.019654
Si Si3 0.941384 0.088956 0.619859
Si Si4 0.716130 0.343009 0.301807
Si Si5 0.992071 0.782367 0.596175
Si Si6 0.255090 0.536404 0.449606
Si Si7 0.916011 0.917731 0.914033
Si Si8 0.534751 0.645698 0.316400
O O1 0.499746 0.978998 0.633268
O O2 0.773243 0.939546 0.809934
O O3 0.845684 0.911533 0.743151
O O4 0.942422 0.022854 0.813290
O O5 0.699902 0.895460 0.049225
O O6 0.620347 0.902243 0.112452
O O7 0.285584 0.884406 0.921849
O O8 0.500000 0.000000 0.000000
O O9 0.896538 0.083027 0.543793
O O10 0.129069 0.143764 0.710855
O O11 0.500000 0.340664 0.250000
O O12 0.826611 0.271443 0.348174
O O13 0.000993 0.842792 0.561025
O O14 0.750000 0.750000 0.500000
O O15 0.033527 0.803753 0.668541
O O16 0.365090 0.464080 0.489898
O O17 0.256395 0.575444 0.398489
O O18 0.500000 0.681136 0.250000
#
# Coordination Sequence:
#
# PCOD8136399 Si02
#       8
#     8   8   8   8   8   8   8   8
#     4  10  20  33  61  90 123 161 194 249 315 366
#     4  11  21  37  61  88 131 158 197 258 309 370
#     4  10  22  34  57  94 123 159 197 251 313 353
#     4  10  24  41  61  89 120 166 211 245 305 373
#     4  11  23  44  64  84 123 173 211 244 300 377
#     4  10  20  39  60  94 126 147 207 262 305 363
#     4   9  22  39  62  88 119 165 204 248 312 365
#     4  11  23  37  60  95 121 161 202 252 310 359
#
# _framework density 19.783864999999999
#
# number of rings (size 3 to 8) (size 9 to 14) (size 15 to 20)
#    0.000    1.750    2.500    1.125    5.250    2.000 
#    2.250    0.000    0.000    6.000    0.000    0.000 
#    0.000    0.000    0.000    0.000    0.000    0.000 
#
# Total GULP energy -396563.151599 kJ/mol
# GULP energy per Si atom -12392.598487 kJ/mol
# Density = 1.973884 g / cm^3
# Si number density = 19.783865 Si / 1000 Ang^3
#
#
#
# Elastic Constant Matrix: (Units=GPa)
#
#
# Indices 1 2 3 4 5 6 
#
# 1 71.0986 23.0287 28.6712 0.0023 -5.5978 -0.0011
# 2 23.0287 98.9060 29.3637 -0.0021 0.7117 -0.0003
# 3 28.6712 29.3637 89.0231 -0.0076 10.0478 0.0024
# 4 0.0023 -0.0021 -0.0076 25.6724 0.0031 1.2791
# 5 -5.5978 0.7117 10.0478 0.0031 34.5811 0.0001
# 6 -0.0011 -0.0003 0.0024 1.2791 0.0001 29.7655
#
#
#
# Elastic Compliance Matrix: (Units=1/GPa)
#
#
# Indices 1 2 3 4 5 6 
#
# 1 0.017341 -0.002510 -0.005252 -0.000004 0.004385 0.000001
# 2 -0.002510 0.011597 -0.003044 0.000000 0.000239 0.000000
# 3 -0.005252 -0.003044 0.014493 0.000005 -0.004998 -0.000002
# 4 -0.000004 0.000000 0.000005 0.039036 -0.000006 -0.001677
# 5 0.004385 0.000239 -0.004998 -0.000006 0.031075 0.000001
# 6 0.000001 0.000000 -0.000002 -0.001677 0.000001 0.033668
#
#
# Mechanical properties :
#
#
# Convention : Reuss Voigt Hill
#
# Bulk Modulus (GPa) = 45.83113 46.79499 46.31306
# Shear Modulus (GPa) = 28.39393 29.86806 29.13100
#
# Velocity S-wave (km/s) = 3.79252 3.88972 3.84143
# Velocity P-wave (km/s) = 6.51105 6.62403 6.56778
#
# Compressibility (1/GPa) = 0.02181923
#
# Stress axis : x y z
#
# Youngs Moduli (GPa) = 57.66655 86.22948 69.00036
#
# Poissons Ratio (x) = 0.21643 0.36239
# Poissons Ratio (y) = 0.14474 0.21003
# Poissons Ratio (z) = 0.30286 0.26247
#
# Static dielectric constant tensor:
#      x y z
#    x 3.737830 0.000980 -0.257980 
#    y 0.000980 2.336250 -0.001770 
#    z -0.257980 -0.001770 4.168940 
# 
# 
# High freq. dielectric constant tensor:
#      x y z
#    x 1.774710 0.000000 0.003650 
#    y 0.000000 1.747060 0.000000 
#    z 0.003650 0.000000 1.784130 
# 
# From -- ./inp_files/124250.got.cif
#   From: 2010.06.25/outbox.cif.g09.slc.cpg/sg15_63_cif.got.tgz:124250.got - 2010.06.28 07:06:18.
