data_PCOD8136664
_publ_section_title
;
Structure prediction by ZEFSAII (Michael W. Deem and Ramdas Pophale) SiO2 
 PCOD8136664
Probable space group: C 2/C
;
_chemical_formula_sum "Si O2"
_cell_formula_units_Z 52
_cell_length_a 12.319702
_cell_length_b 22.079769
_cell_length_c 14.270308
_cell_angle_alpha 90.000000
_cell_angle_beta 137.172876
_cell_angle_gamma 90.000000
_cell_volume 2638.772432
_symmetry_space_group_name_H-M "C 2/C"
_symmetry_group_IT_number 15
_symmetry_cell_setting 'monoclinic'
loop_
_space_group_symop_operation_xyz
x,y,z
-x,y,1/2-z
-x,-y,-z
x,-y,1/2+z
1/2+x,1/2+y,z
1/2-x,1/2+y,1/2-z
1/2-x,1/2-y,-z
1/2+x,1/2-y,1/2+z
loop_
_atom_site_type_symbol
_atom_site_label
_atom_site_fract_x
_atom_site_fract_y
_atom_site_fract_z
Si Si1 0.067378 0.313135 0.065886
Si Si2 0.089395 0.176450 0.108012
Si Si3 0.827214 0.384717 0.019647
Si Si4 0.433864 0.985519 0.310619
Si Si5 0.062807 0.379719 0.684716
Si Si6 0.500000 0.644072 0.250000
Si Si7 0.779147 0.881130 0.342725
O O1 0.084532 0.242029 0.057768
O O2 0.217178 0.337346 0.221062
O O3 0.900905 0.326052 0.014638
O O4 0.061856 0.344282 0.960158
O O5 0.263110 0.149069 0.208640
O O6 0.038952 0.185461 0.184629
O O7 0.966334 0.131091 0.976931
O O8 0.823863 0.369387 0.127964
O O9 0.936327 0.441711 0.058169
O O10 0.650417 0.398756 0.868955
O O11 0.500000 0.997115 0.250000
O O12 0.260211 0.951841 0.206227
O O13 0.422280 0.052045 0.348094
O O14 0.000000 0.376449 0.750000
#
# Coordination Sequence:
#
# PCOD8136664 Si02
#       7
#     8   8   8   8   8   4   8
#     4  11  21  37  58  88 117 159 195 230 297 350
#     4  11  23  37  58  91 121 150 193 242 293 347
#     4   9  18  34  58  92 122 155 179 236 298 359
#     4   8  17  37  60  81 115 156 197 233 289 347
#     4  11  24  42  62  80 110 163 209 240 279 337
#     4  10  20  34  58  96 126 146 182 234 300 360
#     4   9  20  34  58  90 124 147 184 241 301 352
#
# _framework density 19.706133999999999
#
# number of rings (size 3 to 8) (size 9 to 14) (size 15 to 20)
#    0.000    2.154    1.538    2.308    2.154    4.923 
#    0.000    0.769    0.000    0.000    0.000    0.000 
#    0.000    0.000    0.000    0.000    0.000    0.000 
#
# Total GULP energy -322229.198136 kJ/mol
# GULP energy per Si atom -12393.430698 kJ/mol
# Density = 1.966128 g / cm^3
# Si number density = 19.706134 Si / 1000 Ang^3
#
#
#
# Elastic Constant Matrix: (Units=GPa)
#
#
# Indices 1 2 3 4 5 6 
#
# 1 54.9619 21.8033 28.1082 0.0000 -5.3775 0.0000
# 2 21.8033 143.1299 46.1254 0.0000 5.2638 0.0000
# 3 28.1082 46.1254 127.0366 0.0000 1.9590 0.0000
# 4 0.0000 0.0000 0.0000 -16.1732 0.0000 14.1606
# 5 -5.3775 5.2638 1.9590 0.0000 31.4602 0.0000
# 6 0.0000 0.0000 0.0000 14.1606 0.0000 4.5855
#
#
#
# Elastic Compliance Matrix: (Units=1/GPa)
#
#
# Indices 1 2 3 4 5 6 
#
# 1 0.021534 -0.002131 -0.004057 0.000000 0.004290 0.000000
# 2 -0.002131 0.008165 -0.002469 0.000000 -0.001577 0.000000
# 3 -0.004057 -0.002469 0.009679 0.000000 -0.000883 0.000000
# 4 0.000000 0.000000 0.000000 -0.016694 0.000000 0.051552
# 5 0.004290 -0.001577 -0.000883 0.000000 0.032838 0.000000
# 6 0.000000 0.000000 0.000000 0.051552 0.000000 0.058879
#
#
# Mechanical properties :
#
#
# Convention : Reuss Voigt Hill
#
# Bulk Modulus (GPa) = 45.32021 57.46693 51.39357
# Shear Modulus (GPa) = 35.95296 19.24726 27.60011
#
# Velocity S-wave (km/s) = 4.27600 3.12863 3.74650
# Velocity P-wave (km/s) = 6.88671 6.50203 6.69713
#
# Compressibility (1/GPa) = 0.02206521
#
# Stress axis : x y z
#
# Youngs Moduli (GPa) = 46.43749 122.47681 103.31145
#
# Poissons Ratio (x) = 0.26095 0.41916
# Poissons Ratio (y) = 0.09894 0.25506
# Poissons Ratio (z) = 0.18841 0.30237
#
# Static dielectric constant tensor:
#      x y z
#    x 3.442810 0.000000 -0.047070 
#    y 0.000000 3.611480 0.000000 
#    z -0.047070 0.000000 3.822730 
# 
# 
# High freq. dielectric constant tensor:
#      x y z
#    x 1.742720 0.000000 -0.007470 
#    y 0.000000 1.754870 0.000000 
#    z -0.007470 0.000000 1.782120 
# 
# From -- ./inp_files/148128.got.cif
#   From: 2010.06.25/outbox.cif.g09.slc.cpg/sg15_75_cif.got.tgz:148128.got - 2010.06.28 07:06:18.
