data_PCOD8136660
_publ_section_title
;
Structure prediction by ZEFSAII (Michael W. Deem and Ramdas Pophale) SiO2 
 PCOD8136660
Probable space group: C 2/C
;
_chemical_formula_sum "Si O2"
_cell_formula_units_Z 44
_cell_length_a 11.114530
_cell_length_b 9.104483
_cell_length_c 21.363895
_cell_angle_alpha 90.000000
_cell_angle_beta 115.236202
_cell_angle_gamma 90.000000
_cell_volume 1955.524095
_symmetry_space_group_name_H-M "C 2/C"
_symmetry_group_IT_number 15
_symmetry_cell_setting 'monoclinic'
loop_
_space_group_symop_operation_xyz
x,y,z
-x,y,1/2-z
-x,-y,-z
x,-y,1/2+z
1/2+x,1/2+y,z
1/2-x,1/2+y,1/2-z
1/2-x,1/2-y,-z
1/2+x,1/2-y,1/2+z
loop_
_atom_site_type_symbol
_atom_site_label
_atom_site_fract_x
_atom_site_fract_y
_atom_site_fract_z
Si Si1 0.813617 0.175501 0.073656
Si Si2 0.500806 0.904951 0.323627
Si Si3 0.743394 0.298900 0.708154
Si Si4 0.500000 0.633262 0.750000
Si Si5 0.878654 0.649399 0.365439
Si Si6 0.550191 0.474497 0.129415
O O1 0.699218 0.094705 0.089663
O O2 0.876502 0.299617 0.132924
O O3 0.750000 0.250000 0.000000
O O4 0.922509 0.058512 0.072396
O O5 0.500000 0.951097 0.250000
O O6 0.363351 0.828634 0.310762
O O7 0.501663 0.046209 0.370796
O O8 0.775522 0.351434 0.785286
O O9 0.686674 0.431465 0.651858
O O10 0.875915 0.237717 0.704767
O O11 0.470408 0.526722 0.800575
O O12 0.935855 0.811684 0.394820
#
# Coordination Sequence:
#
# PCOD8136660 Si02
#       6
#     8   8   8   4   8   8
#     4  11  25  45  64  88 130 176 215 259 313 381
#     4  11  23  41  66  97 130 164 211 268 323 379
#     4  10  20  36  61  93 130 161 197 260 323 374
#     4  10  20  34  58  94 130 154 200 262 316 372
#     4  11  22  37  62  95 125 163 210 260 319 378
#     4  10  22  37  60  92 125 164 204 256 315 378
#
# _framework density 22.500364000000001
#
# number of rings (size 3 to 8) (size 9 to 14) (size 15 to 20)
#    0.000    1.455    1.818    4.364    7.636    1.455 
#    0.000    0.909    0.000    0.000    0.000    0.000 
#    0.000    0.000    0.000    0.000    0.000    0.000 
#
# Total GULP energy -272742.313804 kJ/mol
# GULP energy per Si atom -12397.377900 kJ/mol
# Density = 2.244915 g / cm^3
# Si number density = 22.500364 Si / 1000 Ang^3
#
#
#
# Elastic Constant Matrix: (Units=GPa)
#
#
# Indices 1 2 3 4 5 6 
#
# 1 78.5114 26.8718 14.7835 0.0000 6.4365 0.0000
# 2 26.8718 98.3943 0.2206 0.0000 9.1525 0.0000
# 3 14.7835 0.2206 40.8545 0.0000 1.0709 0.0000
# 4 0.0000 0.0000 0.0000 8.8914 0.0000 -3.8156
# 5 6.4365 9.1525 1.0709 0.0000 20.8675 0.0000
# 6 0.0000 0.0000 0.0000 -3.8156 0.0000 27.3127
#
#
#
# Elastic Compliance Matrix: (Units=1/GPa)
#
#
# Indices 1 2 3 4 5 6 
#
# 1 0.015330 -0.003921 -0.005454 0.000000 -0.002729 0.000000
# 2 -0.003921 0.011598 0.001460 0.000000 -0.003953 0.000000
# 3 -0.005454 0.001460 0.026451 0.000000 -0.000315 0.000000
# 4 0.000000 0.000000 0.000000 0.119640 0.000000 0.016714
# 5 -0.002729 -0.003953 -0.000315 0.000000 0.050513 0.000000
# 6 0.000000 0.000000 0.000000 0.016714 0.000000 0.038948
#
#
# Mechanical properties :
#
#
# Convention : Reuss Voigt Hill
#
# Bulk Modulus (GPa) = 26.63220 33.50136 30.06678
# Shear Modulus (GPa) = 17.19235 23.13995 20.16615
#
# Velocity S-wave (km/s) = 2.76722 3.21039 2.99701
# Velocity P-wave (km/s) = 4.69809 5.35385 5.03665
#
# Compressibility (1/GPa) = 0.03754852
#
# Stress axis : x y z
#
# Youngs Moduli (GPa) = 65.23315 86.21960 37.80544
#
# Poissons Ratio (x) = 0.33802 0.20621
# Poissons Ratio (y) = 0.25575 -0.05518
# Poissons Ratio (z) = 0.35581 -0.12585
#
# Static dielectric constant tensor:
#      x y z
#    x 4.218200 0.000000 0.185760 
#    y 0.000000 4.297250 0.000000 
#    z 0.185760 0.000000 3.547200 
# 
# 
# High freq. dielectric constant tensor:
#      x y z
#    x 1.901200 0.000000 0.008320 
#    y 0.000000 1.898540 0.000000 
#    z 0.008320 0.000000 1.829040 
# 
# From -- ./inp_files/236135.got.cif
#   From: 2010.06.25/outbox.cif.g09.slc.cpg/sg15_119_cif.got.tgz:236135.got - 2010.06.28 07:06:18.
