data_PCOD8136279
_publ_section_title
;
Structure prediction by ZEFSAII (Michael W. Deem and Ramdas Pophale) SiO2 
 PCOD8136279
Probable space group: C 2/C
;
_chemical_formula_sum "Si O2"
_cell_formula_units_Z 44
_cell_length_a 26.757970
_cell_length_b 12.468085
_cell_length_c 10.369277
_cell_angle_alpha 90.000000
_cell_angle_beta 39.820511
_cell_angle_gamma 90.000000
_cell_volume 2215.349925
_symmetry_space_group_name_H-M "C 2/C"
_symmetry_group_IT_number 15
_symmetry_cell_setting 'monoclinic'
loop_
_space_group_symop_operation_xyz
x,y,z
-x,y,1/2-z
-x,-y,-z
x,-y,1/2+z
1/2+x,1/2+y,z
1/2-x,1/2+y,1/2-z
1/2-x,1/2-y,-z
1/2+x,1/2-y,1/2+z
loop_
_atom_site_type_symbol
_atom_site_label
_atom_site_fract_x
_atom_site_fract_y
_atom_site_fract_z
Si Si1 0.261102 0.498334 0.225892
Si Si2 0.333763 0.307868 0.690215
Si Si3 0.331671 0.297343 0.973173
Si Si4 0.629866 0.855051 0.597329
Si Si5 0.500000 0.000589 0.750000
Si Si6 0.627434 0.852745 0.890430
O O1 0.327711 0.566026 0.168566
O O2 0.310256 0.421330 0.035268
O O3 0.208523 0.424907 0.424357
O O4 0.205727 0.577300 0.254034
O O5 0.244943 0.273700 0.882025
O O6 0.376901 0.240422 0.493726
O O7 0.375900 0.289866 0.746173
O O8 0.382092 0.245844 0.989549
O O9 0.554490 0.929506 0.733384
O O10 0.630774 0.805257 0.739018
O O11 0.552272 0.072017 0.551693
#
# Coordination Sequence:
#
# PCOD8136279 Si02
#       6
#     8   8   8   8   4   8
#     4   9  18  31  52  77 106 135 164 204 252 301
#     4   9  18  31  48  74 106 135 165 205 252 298
#     4   9  18  31  48  74 106 135 165 205 252 298
#     4  10  20  33  52  76 101 134 173 208 247 299
#     4  10  22  36  52  72 102 134 168 212 254 292
#     4  10  20  33  52  76 101 134 173 208 247 299
#
# _framework density 19.861422000000001
#
# number of rings (size 3 to 8) (size 9 to 14) (size 15 to 20)
#    0.000    2.545    0.000    1.636    0.000   18.182 
#    0.000    0.000    0.000    1.091    0.000    5.091 
#    0.000    0.000    0.000    0.000    0.000    0.000 
#
# Total GULP energy -272664.388478 kJ/mol
# GULP energy per Si atom -12393.835840 kJ/mol
# Density = 1.981622 g / cm^3
# Si number density = 19.861422 Si / 1000 Ang^3
#
#
#
# Elastic Constant Matrix: (Units=GPa)
#
#
# Indices 1 2 3 4 5 6 
#
# 1 72.8117 39.4247 67.8113 0.0000 32.5967 0.0000
# 2 39.4247 109.9081 50.5688 0.0000 19.0631 0.0000
# 3 67.8113 50.5688 105.9167 0.0000 45.5978 0.0000
# 4 0.0000 0.0000 0.0000 21.2349 0.0000 0.1010
# 5 32.5967 19.0631 45.5978 0.0000 43.8721 0.0000
# 6 0.0000 0.0000 0.0000 0.1010 0.0000 25.4914
#
#
#
# Elastic Compliance Matrix: (Units=1/GPa)
#
#
# Indices 1 2 3 4 5 6 
#
# 1 0.035369 -0.003075 -0.018891 0.000000 -0.005309 0.000000
# 2 -0.003075 0.011968 -0.004507 0.000000 0.001768 0.000000
# 3 -0.018891 -0.004507 0.030408 0.000000 -0.015610 0.000000
# 4 0.000000 0.000000 0.000000 0.047093 0.000000 -0.000187
# 5 -0.005309 0.001768 -0.015610 0.000000 0.042194 0.000000
# 6 0.000000 0.000000 0.000000 -0.000187 0.000000 0.039230
#
#
# Mechanical properties :
#
#
# Convention : Reuss Voigt Hill
#
# Bulk Modulus (GPa) = 40.32181 67.13845 53.73013
# Shear Modulus (GPa) = 18.69341 26.84179 22.76760
#
# Velocity S-wave (km/s) = 3.07121 3.68020 3.38941
# Velocity P-wave (km/s) = 5.73778 7.20662 6.51373
#
# Compressibility (1/GPa) = 0.02480047
#
# Stress axis : x y z
#
# Youngs Moduli (GPa) = 28.27307 83.55380 32.88615
#
# Poissons Ratio (x) = 0.25689 0.62126
# Poissons Ratio (y) = 0.08693 0.14821
# Poissons Ratio (z) = 0.53411 0.37657
#
# Static dielectric constant tensor:
#      x y z
#    x 3.549490 0.000000 0.329800 
#    y 0.000000 3.677350 0.000000 
#    z 0.329800 0.000000 3.513350 
# 
# 
# High freq. dielectric constant tensor:
#      x y z
#    x 1.746940 0.000000 0.030750 
#    y 0.000000 1.768390 0.000000 
#    z 0.030750 0.000000 1.758720 
# 
# From -- ./inp_files/65333.got.cif
#   From: 2010.06.25/outbox.cif.g09.slc.cpg/sg15_33_cif.got.tgz:65333.got - 2010.06.28 07:06:18.
