data_PCOD8136388
_publ_section_title
;
Structure prediction by ZEFSAII (Michael W. Deem and Ramdas Pophale) SiO2 
 PCOD8136388
Probable space group: C 2/C
;
_chemical_formula_sum "Si O2"
_cell_formula_units_Z 48
_cell_length_a 17.243149
_cell_length_b 18.795502
_cell_length_c 9.987864
_cell_angle_alpha 90.000000
_cell_angle_beta 46.735749
_cell_angle_gamma 90.000000
_cell_volume 2357.187437
_symmetry_space_group_name_H-M "C 2/C"
_symmetry_group_IT_number 15
_symmetry_cell_setting 'monoclinic'
loop_
_space_group_symop_operation_xyz
x,y,z
-x,y,1/2-z
-x,-y,-z
x,-y,1/2+z
1/2+x,1/2+y,z
1/2-x,1/2+y,1/2-z
1/2-x,1/2-y,-z
1/2+x,1/2-y,1/2+z
loop_
_atom_site_type_symbol
_atom_site_label
_atom_site_fract_x
_atom_site_fract_y
_atom_site_fract_z
Si Si1 0.141081 0.634337 0.263775
Si Si2 0.129190 0.159627 0.454596
Si Si3 0.258610 0.015534 0.866939
Si Si4 0.500000 0.554392 0.750000
Si Si5 0.500000 0.774024 0.750000
Si Si6 0.879159 0.034673 0.213220
Si Si7 0.975104 0.435181 0.125964
O O1 0.245093 0.677553 0.194091
O O2 0.177590 0.556727 0.170674
O O3 0.093793 0.677740 0.196200
O O4 0.050649 0.629906 0.487600
O O5 0.054059 0.227610 0.566862
O O6 0.097701 0.116675 0.356248
O O7 0.105234 0.102829 0.603829
O O8 0.347979 0.078657 0.757197
O O9 0.200550 0.005689 0.793106
O O10 0.173384 0.037267 0.077815
O O11 0.512737 0.509866 0.875168
O O12 0.000000 0.453318 0.250000
O O13 0.000000 0.500000 0.000000
#
# Coordination Sequence:
#
# PCOD8136388 Si02
#       7
#     8   8   8   4   4   8   8
#     4  10  21  37  60  85 120 158 201 250 292 354
#     4  10  22  39  57  87 122 152 208 252 289 364
#     4  10  21  33  59  96 126 146 194 249 312 363
#     4  11  20  36  62  90 122 155 196 252 326 359
#     4  11  24  38  64  82 116 175 214 240 290 363
#     4  11  20  37  60  92 127 154 188 258 312 367
#     4  10  20  33  59  92 126 155 189 247 317 363
#
# _framework density 20.363251000000002
#
# number of rings (size 3 to 8) (size 9 to 14) (size 15 to 20)
#    0.000    1.667    3.333    4.000    7.000    0.000 
#    0.000    0.000    1.833    2.000    0.000    0.000 
#    0.000    0.000    0.000    0.000    0.000    0.000 
#
# Total GULP energy -297349.160333 kJ/mol
# GULP energy per Si atom -12389.548347 kJ/mol
# Density = 2.031690 g / cm^3
# Si number density = 20.363251 Si / 1000 Ang^3
#
#
#
# Elastic Constant Matrix: (Units=GPa)
#
#
# Indices 1 2 3 4 5 6 
#
# 1 127.6887 41.4635 23.1383 0.0000 -0.9942 0.0000
# 2 41.4635 63.7573 26.3868 0.0000 -0.4889 0.0000
# 3 23.1383 26.3868 69.0098 0.0000 15.6804 0.0000
# 4 0.0000 0.0000 0.0000 30.5837 0.0000 0.1597
# 5 -0.9942 -0.4889 15.6804 0.0000 38.9551 0.0000
# 6 0.0000 0.0000 0.0000 0.1597 0.0000 17.7509
#
#
#
# Elastic Compliance Matrix: (Units=1/GPa)
#
#
# Indices 1 2 3 4 5 6 
#
# 1 0.010005 -0.005999 -0.001212 0.000000 0.000668 0.000000
# 2 -0.005999 0.022653 -0.007352 0.000000 0.003091 0.000000
# 3 -0.001212 -0.007352 0.019522 0.000000 -0.007981 0.000000
# 4 0.000000 0.000000 0.000000 0.032699 0.000000 -0.000294
# 5 0.000668 0.003091 -0.007981 0.000000 0.028939 0.000000
# 6 0.000000 0.000000 0.000000 -0.000294 0.000000 0.056338
#
#
# Mechanical properties :
#
#
# Convention : Reuss Voigt Hill
#
# Bulk Modulus (GPa) = 43.38170 49.15924 46.27047
# Shear Modulus (GPa) = 24.15852 28.75576 26.45714
#
# Velocity S-wave (km/s) = 3.44812 3.76192 3.60843
# Velocity P-wave (km/s) = 6.09942 6.56224 6.33506
#
# Compressibility (1/GPa) = 0.02305119
#
# Stress axis : x y z
#
# Youngs Moduli (GPa) = 99.95418 44.14494 51.22460
#
# Poissons Ratio (x) = 0.26485 0.06210
# Poissons Ratio (y) = 0.59967 0.37662
# Poissons Ratio (z) = 0.12117 0.32456
#
# Static dielectric constant tensor:
#      x y z
#    x 4.136190 0.000000 -0.615290 
#    y 0.000000 3.512710 0.000000 
#    z -0.615290 0.000000 4.331890 
# 
# 
# High freq. dielectric constant tensor:
#      x y z
#    x 1.803660 0.000000 -0.026750 
#    y 0.000000 1.741570 0.000000 
#    z -0.026750 0.000000 1.818170 
# 
# From -- ./inp_files/49630.got.cif
#   From: 2010.06.25/outbox.cif.g09.slc.cpg/sg15_25_cif.got.tgz:49630.got - 2010.06.28 07:06:18.
