data_PCOD8136574
_publ_section_title
;
Structure prediction by ZEFSAII (Michael W. Deem and Ramdas Pophale) SiO2 
 PCOD8136574
Probable space group: C 2/C
;
_chemical_formula_sum "Si O2"
_cell_formula_units_Z 64
_cell_length_a 10.886620
_cell_length_b 17.304929
_cell_length_c 18.673870
_cell_angle_alpha 90.000000
_cell_angle_beta 78.787882
_cell_angle_gamma 90.000000
_cell_volume 3450.866618
_symmetry_space_group_name_H-M "C 2/C"
_symmetry_group_IT_number 15
_symmetry_cell_setting 'monoclinic'
loop_
_space_group_symop_operation_xyz
x,y,z
-x,y,1/2-z
-x,-y,-z
x,-y,1/2+z
1/2+x,1/2+y,z
1/2-x,1/2+y,1/2-z
1/2-x,1/2-y,-z
1/2+x,1/2-y,1/2+z
loop_
_atom_site_type_symbol
_atom_site_label
_atom_site_fract_x
_atom_site_fract_y
_atom_site_fract_z
Si Si1 0.193073 0.836591 0.085976
Si Si2 0.545529 0.206482 0.671990
Si Si3 0.483117 0.981832 0.918375
Si Si4 0.783509 0.427008 0.347668
Si Si5 0.891765 0.775537 0.978443
Si Si6 0.163943 0.422161 0.316645
Si Si7 0.962824 0.076823 0.543919
Si Si8 0.913181 0.314840 0.951945
O O1 0.221342 0.875237 0.159737
O O2 0.150665 0.746351 0.096137
O O3 0.086705 0.886838 0.061949
O O4 0.317150 0.841419 0.024009
O O5 0.500000 0.250243 0.750000
O O6 0.682072 0.164900 0.658556
O O7 0.546198 0.266262 0.607005
O O8 0.451288 0.135894 0.673661
O O9 0.458703 0.891244 0.905745
O O10 0.367202 0.027867 0.896437
O O11 0.615856 0.004444 0.867587
O O12 0.500000 0.000000 0.000000
O O13 0.799681 0.457141 0.264596
O O14 0.638385 0.438918 0.382812
O O15 0.750000 0.750000 0.000000
O O16 0.900597 0.865966 0.993371
O O17 0.966784 0.724425 0.026433
O O18 0.000000 0.000000 0.500000
#
# Coordination Sequence:
#
# PCOD8136574 Si02
#       8
#     8   8   8   8   8   8   8   8
#     4  10  20  36  57  84 115 162 190 238 307 367
#     4   9  17  34  59  85 111 145 192 241 293 351
#     4  11  19  33  64  91 112 153 202 257 295 349
#     4  10  21  38  58  87 118 152 197 246 300 364
#     4  11  20  35  61  87 115 151 199 254 293 353
#     4  10  20  36  63  84 116 158 197 241 305 368
#     4  11  24  36  59  84 115 153 199 249 297 359
#     4  10  20  34  56  90 121 145 202 253 294 350
#
# _framework density 18.546066
#
# number of rings (size 3 to 8) (size 9 to 14) (size 15 to 20)
#    0.000    1.750    3.750    2.625    0.000    0.500 
#    0.000    0.000   16.500    0.000    0.000    0.000 
#    0.000    0.000    0.000    0.000    0.000    0.000 
#
# Total GULP energy -396672.317876 kJ/mol
# GULP energy per Si atom -12396.009934 kJ/mol
# Density = 1.850385 g / cm^3
# Si number density = 18.546066 Si / 1000 Ang^3
#
#
#
# Elastic Constant Matrix: (Units=GPa)
#
#
# Indices 1 2 3 4 5 6 
#
# 1 94.6570 38.7609 32.9366 0.0000 -5.4678 0.0000
# 2 38.7609 106.8719 53.2838 0.0000 -4.6846 0.0000
# 3 32.9366 53.2838 123.1411 0.0000 -6.9541 0.0000
# 4 0.0000 0.0000 0.0000 24.0568 0.0000 2.6194
# 5 -5.4678 -4.6846 -6.9541 0.0000 30.1502 0.0000
# 6 0.0000 0.0000 0.0000 2.6194 0.0000 28.1182
#
#
#
# Elastic Compliance Matrix: (Units=1/GPa)
#
#
# Indices 1 2 3 4 5 6 
#
# 1 0.012763 -0.003705 -0.001735 0.000000 0.001339 0.000000
# 2 -0.003705 0.013020 -0.004627 0.000000 0.000284 0.000000
# 3 -0.001735 -0.004627 0.010667 0.000000 0.001427 0.000000
# 4 0.000000 0.000000 0.000000 0.041994 0.000000 -0.003912
# 5 0.001339 0.000284 0.001427 0.000000 0.033783 0.000000
# 6 0.000000 0.000000 0.000000 -0.003912 0.000000 0.035929
#
#
# Mechanical properties :
#
#
# Convention : Reuss Voigt Hill
#
# Bulk Modulus (GPa) = 61.28746 63.84808 62.56777
# Shear Modulus (GPa) = 28.78052 29.77762 29.27907
#
# Velocity S-wave (km/s) = 3.94361 4.01134 3.97762
# Velocity P-wave (km/s) = 7.33852 7.48037 7.40979
#
# Compressibility (1/GPa) = 0.01631655
#
# Stress axis : x y z
#
# Youngs Moduli (GPa) = 78.35356 76.80434 93.74380
#
# Poissons Ratio (x) = 0.28458 0.16262
# Poissons Ratio (y) = 0.29032 0.43373
# Poissons Ratio (z) = 0.13592 0.35536
#
# Static dielectric constant tensor:
#      x y z
#    x 3.547430 0.000000 0.019300 
#    y 0.000000 3.610410 0.000000 
#    z 0.019300 0.000000 3.600080 
# 
# 
# High freq. dielectric constant tensor:
#      x y z
#    x 1.726230 0.000000 -0.000120 
#    y 0.000000 1.705680 0.000000 
#    z -0.000120 0.000000 1.709700 
# 
# From -- ./inp_files/199141.got.cif
#   From: 2010.06.25/outbox.cif.g09.slc.cpg/sg15_100_cif.got.tgz:199141.got - 2010.06.28 07:06:18.
