data_PCOD8136352
_publ_section_title
;
Structure prediction by ZEFSAII (Michael W. Deem and Ramdas Pophale) SiO2 
 PCOD8136352
Probable space group: C 2/C
;
_chemical_formula_sum "Si O2"
_cell_formula_units_Z 56
_cell_length_a 23.340311
_cell_length_b 8.903109
_cell_length_c 14.096546
_cell_angle_alpha 90.000000
_cell_angle_beta 75.308589
_cell_angle_gamma 90.000000
_cell_volume 2833.510495
_symmetry_space_group_name_H-M "C 2/C"
_symmetry_group_IT_number 15
_symmetry_cell_setting 'monoclinic'
loop_
_space_group_symop_operation_xyz
x,y,z
-x,y,1/2-z
-x,-y,-z
x,-y,1/2+z
1/2+x,1/2+y,z
1/2-x,1/2+y,1/2-z
1/2-x,1/2-y,-z
1/2+x,1/2-y,1/2+z
loop_
_atom_site_type_symbol
_atom_site_label
_atom_site_fract_x
_atom_site_fract_y
_atom_site_fract_z
Si Si1 0.375391 0.593445 0.120537
Si Si2 0.841888 0.497067 0.774414
Si Si3 0.930723 0.256705 0.275298
Si Si4 0.246912 0.423955 0.030754
Si Si5 0.118769 0.980585 0.568975
Si Si6 0.340697 0.655566 0.776548
Si Si7 0.705640 0.868287 0.386666
O O1 0.414979 0.671678 0.184143
O O2 0.347754 0.442489 0.178325
O O3 0.325078 0.704766 0.097935
O O4 0.414956 0.543458 0.011402
O O5 0.898239 0.584257 0.792456
O O6 0.782470 0.551114 0.854263
O O7 0.861180 0.325626 0.761674
O O8 0.830979 0.532401 0.670189
O O9 0.909465 0.172433 0.379984
O O10 0.000000 0.283339 0.250000
O O11 0.250000 0.250000 0.000000
O O12 0.314897 0.469544 0.999811
O O13 0.206317 0.534558 0.982922
O O14 0.117754 0.092760 0.657599
O O15 0.272380 0.657167 0.829241
#
# Coordination Sequence:
#
# PCOD8136352 Si02
#       7
#     8   8   8   8   8   8   8
#     4  10  21  37  58  85 113 153 199 235 288 344
#     4  11  22  35  58  85 118 155 189 238 287 344
#     4  10  23  42  58  79 111 151 197 247 294 335
#     4  11  21  34  58  92 123 156 188 229 286 352
#     4  10  20  37  59  84 117 148 191 233 282 353
#     4  10  20  33  56  88 119 154 187 230 286 348
#     4  10  21  33  55  87 127 156 183 230 284 351
#
# _framework density 19.763468
#
# number of rings (size 3 to 8) (size 9 to 14) (size 15 to 20)
#    0.000    1.714    1.429    3.429    6.000    2.857 
#    0.000    2.857    0.000   12.000    0.000    0.000 
#    0.000    0.000    0.000    0.000    0.000    0.000 
#
# Total GULP energy -346915.904098 kJ/mol
# GULP energy per Si atom -12389.853718 kJ/mol
# Density = 1.971849 g / cm^3
# Si number density = 19.763468 Si / 1000 Ang^3
#
#
#
# Elastic Constant Matrix: (Units=GPa)
#
#
# Indices 1 2 3 4 5 6 
#
# 1 67.0513 21.2644 6.5780 0.0000 -8.7098 0.0000
# 2 21.2644 150.2095 29.5561 0.0000 -0.6504 0.0000
# 3 6.5780 29.5561 83.0763 0.0000 2.8076 0.0000
# 4 0.0000 0.0000 0.0000 29.2471 0.0000 0.2035
# 5 -8.7098 -0.6504 2.8076 0.0000 11.3783 0.0000
# 6 0.0000 0.0000 0.0000 0.2035 0.0000 6.8304
#
#
#
# Elastic Compliance Matrix: (Units=1/GPa)
#
#
# Indices 1 2 3 4 5 6 
#
# 1 0.017472 -0.002207 -0.001055 0.000000 0.013509 0.000000
# 2 -0.002207 0.007450 -0.002453 0.000000 -0.000659 0.000000
# 3 -0.001055 -0.002453 0.013135 0.000000 -0.004189 0.000000
# 4 0.000000 0.000000 0.000000 0.034199 0.000000 -0.001019
# 5 0.013509 -0.000659 -0.004189 0.000000 0.099223 0.000000
# 6 0.000000 0.000000 0.000000 -0.001019 0.000000 0.146434
#
#
# Mechanical properties :
#
#
# Convention : Reuss Voigt Hill
#
# Bulk Modulus (GPa) = 37.55712 46.12601 41.84157
# Shear Modulus (GPa) = 14.78334 25.68708 20.23521
#
# Velocity S-wave (km/s) = 2.73795 3.60908 3.20327
# Velocity P-wave (km/s) = 5.38885 6.38412 5.90748
#
# Compressibility (1/GPa) = 0.02662611
#
# Stress axis : x y z
#
# Youngs Moduli (GPa) = 57.23372 134.23276 76.13240
#
# Poissons Ratio (x) = 0.29631 0.08029
# Poissons Ratio (y) = 0.12634 0.18678
# Poissons Ratio (z) = 0.06036 0.32932
#
# Static dielectric constant tensor:
#      x y z
#    x 3.193990 0.000000 0.205180 
#    y 0.000000 4.017280 0.000000 
#    z 0.205180 0.000000 3.909670 
# 
# 
# High freq. dielectric constant tensor:
#      x y z
#    x 1.725410 0.000000 0.017900 
#    y 0.000000 1.786270 0.000000 
#    z 0.017900 0.000000 1.785580 
# 
# From -- ./inp_files/166675.got.cif
#   From: 2010.06.25/outbox.cif.g09.slc.cpg/sg15_84_cif.got.tgz:166675.got - 2010.06.28 07:06:18.
