data_PCOD8136129
_publ_section_title
;
Structure prediction by ZEFSAII (Michael W. Deem and Ramdas Pophale) SiO2 
 PCOD8136129
Probable space group: C 2/C
;
_chemical_formula_sum "Si O2"
_cell_formula_units_Z 56
_cell_length_a 9.043684
_cell_length_b 25.249656
_cell_length_c 13.976114
_cell_angle_alpha 90.000000
_cell_angle_beta 56.895789
_cell_angle_gamma 90.000000
_cell_volume 2673.404585
_symmetry_space_group_name_H-M "C 2/C"
_symmetry_group_IT_number 15
_symmetry_cell_setting 'monoclinic'
loop_
_space_group_symop_operation_xyz
x,y,z
-x,y,1/2-z
-x,-y,-z
x,-y,1/2+z
1/2+x,1/2+y,z
1/2-x,1/2+y,1/2-z
1/2-x,1/2-y,-z
1/2+x,1/2-y,1/2+z
loop_
_atom_site_type_symbol
_atom_site_label
_atom_site_fract_x
_atom_site_fract_y
_atom_site_fract_z
Si Si1 0.697591 0.848519 0.193421
Si Si2 0.911195 0.975778 0.382931
Si Si3 0.011666 0.330068 0.880526
Si Si4 0.900693 0.928639 0.007112
Si Si5 0.721007 0.126675 0.898090
Si Si6 0.205138 0.850161 0.858803
Si Si7 0.962337 0.209854 0.923881
O O1 0.500000 0.827392 0.250000
O O2 0.722334 0.879364 0.284408
O O3 0.826973 0.798405 0.150424
O O4 0.747760 0.886895 0.087270
O O5 0.762749 0.930838 0.426628
O O6 0.000000 0.986927 0.250000
O O7 0.056656 0.958147 0.408759
O O8 0.827303 0.030530 0.453315
O O9 0.216124 0.335487 0.774964
O O10 0.934504 0.270132 0.902496
O O11 0.878479 0.363639 0.860417
O O12 0.975643 0.353959 0.998891
O O13 0.075042 0.900247 0.901300
O O14 0.867774 0.168937 0.884228
O O15 0.104520 0.800498 0.943674
#
# Coordination Sequence:
#
# PCOD8136129 Si02
#       7
#     8   8   8   8   8   8   8
#     4  11  23  40  60  87 129 161 203 261 304 363
#     4  11  19  38  66  92 112 164 211 247 315 380
#     4  10  20  31  61  97 121 153 206 258 295 356
#     4  10  21  39  63  86 125 159 202 262 311 367
#     4  11  19  38  63  92 119 157 211 253 303 372
#     4   9  18  34  53  92 127 149 197 256 306 341
#     4  10  20  35  63  91 120 164 205 246 303 371
#
# _framework density 20.947071999999999
#
# number of rings (size 3 to 8) (size 9 to 14) (size 15 to 20)
#    0.000    1.714    5.714    2.143    6.000    0.000 
#    2.571    4.286    0.000    0.000    0.000    0.000 
#    0.000    0.000    0.000    0.000    0.000    0.000 
#
# Total GULP energy -346913.357370 kJ/mol
# GULP energy per Si atom -12389.762763 kJ/mol
# Density = 2.089940 g / cm^3
# Si number density = 20.947072 Si / 1000 Ang^3
#
#
#
# Elastic Constant Matrix: (Units=GPa)
#
#
# Indices 1 2 3 4 5 6 
#
# 1 60.5585 27.2020 38.5878 0.0000 -15.1777 0.0000
# 2 27.2020 100.1879 50.8032 0.0000 3.3782 0.0000
# 3 38.5878 50.8032 153.4063 0.0000 -13.7656 0.0000
# 4 0.0000 0.0000 0.0000 21.3220 0.0000 -4.5948
# 5 -15.1777 3.3782 -13.7656 0.0000 26.8511 0.0000
# 6 0.0000 0.0000 0.0000 -4.5948 0.0000 15.4095
#
#
#
# Elastic Compliance Matrix: (Units=1/GPa)
#
#
# Indices 1 2 3 4 5 6 
#
# 1 0.024116 -0.005381 -0.003145 0.000000 0.012696 0.000000
# 2 -0.005381 0.013561 -0.003735 0.000000 -0.006663 0.000000
# 3 -0.003145 -0.003735 0.008836 0.000000 0.003222 0.000000
# 4 0.000000 0.000000 0.000000 0.050120 0.000000 0.014945
# 5 0.012696 -0.006663 0.003222 0.000000 0.046909 0.000000
# 6 0.000000 0.000000 0.000000 0.014945 0.000000 0.069352
#
#
# Mechanical properties :
#
#
# Convention : Reuss Voigt Hill
#
# Bulk Modulus (GPa) = 45.47439 60.81541 53.14490
# Shear Modulus (GPa) = 20.42929 25.88718 23.15823
#
# Velocity S-wave (km/s) = 3.12634 3.51926 3.32860
# Velocity P-wave (km/s) = 5.89816 6.75348 6.34026
#
# Compressibility (1/GPa) = 0.02199040
#
# Stress axis : x y z
#
# Youngs Moduli (GPa) = 41.46615 73.74070 113.17601
#
# Poissons Ratio (x) = 0.39681 0.35591
# Poissons Ratio (y) = 0.22314 0.42274
# Poissons Ratio (z) = 0.13040 0.27544
#
# Static dielectric constant tensor:
#      x y z
#    x 3.325140 0.000000 -0.117430 
#    y 0.000000 3.716070 0.000000 
#    z -0.117430 0.000000 4.508630 
# 
# 
# High freq. dielectric constant tensor:
#      x y z
#    x 1.768770 0.000000 -0.007660 
#    y 0.000000 1.803910 0.000000 
#    z -0.007660 0.000000 1.844470 
# 
# From -- ./inp_files/138527.got.cif
#   From: 2010.06.25/outbox.cif.g09.slc.cpg/sg15_70_cif.got.tgz:138527.got - 2010.06.28 07:06:18.
