data_PCOD8136044
_publ_section_title
;
Structure prediction by ZEFSAII (Michael W. Deem and Ramdas Pophale) SiO2 
 PCOD8136044
Probable space group: C 2/C
;
_chemical_formula_sum "Si O2"
_cell_formula_units_Z 56
_cell_length_a 14.362775
_cell_length_b 24.598216
_cell_length_c 12.270300
_cell_angle_alpha 90.000000
_cell_angle_beta 37.093309
_cell_angle_gamma 90.000000
_cell_volume 2614.551284
_symmetry_space_group_name_H-M "C 2/C"
_symmetry_group_IT_number 15
_symmetry_cell_setting 'monoclinic'
loop_
_space_group_symop_operation_xyz
x,y,z
-x,y,1/2-z
-x,-y,-z
x,-y,1/2+z
1/2+x,1/2+y,z
1/2-x,1/2+y,1/2-z
1/2-x,1/2-y,-z
1/2+x,1/2-y,1/2+z
loop_
_atom_site_type_symbol
_atom_site_label
_atom_site_fract_x
_atom_site_fract_y
_atom_site_fract_z
Si Si1 0.414720 0.083483 0.080794
Si Si2 0.793235 0.646048 0.729211
Si Si3 0.173211 0.100285 0.628254
Si Si4 0.605590 0.008925 0.057904
Si Si5 0.975984 0.257727 0.979603
Si Si6 0.764080 0.673173 0.356335
Si Si7 0.630428 0.713289 0.046063
O O1 0.549621 0.114531 0.888719
O O2 0.335919 0.039017 0.076196
O O3 0.495484 0.053681 0.105738
O O4 0.287695 0.126315 0.242333
O O5 0.684102 0.612860 0.747318
O O6 0.831502 0.702728 0.633680
O O7 0.706987 0.658969 0.923178
O O8 0.244871 0.040711 0.537400
O O9 0.266821 0.146136 0.473096
O O10 0.000000 0.097944 0.750000
O O11 0.500000 0.982180 0.250000
O O12 0.096024 0.283292 0.780336
O O13 0.903751 0.201084 0.004194
O O14 0.061300 0.250161 0.014780
O O15 0.500000 0.692346 0.250000
O O16 0.750000 0.750000 0.000000
#
# Coordination Sequence:
#
# PCOD8136044 Si02
#       7
#     8   8   8   8   8   8   8
#     4   9  21  39  72  92 125 170 222 273 330 400
#     4  10  22  41  60  96 127 174 225 265 320 405
#     4  11  24  41  70  96 138 168 214 281 345 393
#     4  10  19  43  68  95 124 167 222 278 334 394
#     4  11  22  39  62  92 134 175 225 259 318 392
#     4  11  22  42  63 100 137 178 214 271 329 403
#     4  12  22  40  60  81 127 181 218 269 314 370
#
# _framework density 21.418589000000001
#
# number of rings (size 3 to 8) (size 9 to 14) (size 15 to 20)
#    0.000    1.429    4.286    0.857    0.000    0.571 
#   10.286    0.714    3.143    0.000    0.000    0.000 
#    0.000    0.000    0.000    0.000    0.000    0.000 
#
# Total GULP energy -347184.293190 kJ/mol
# GULP energy per Si atom -12399.439043 kJ/mol
# Density = 2.136984 g / cm^3
# Si number density = 21.418589 Si / 1000 Ang^3
#
#
#
# Elastic Constant Matrix: (Units=GPa)
#
#
# Indices 1 2 3 4 5 6 
#
# 1 77.7247 40.5284 37.6818 0.0001 -2.6465 0.0002
# 2 40.5284 111.0191 47.4079 0.0000 -3.7479 0.0000
# 3 37.6818 47.4079 134.0122 -0.0001 4.2809 0.0001
# 4 0.0001 0.0000 -0.0001 29.9086 -0.0001 1.4116
# 5 -2.6465 -3.7479 4.2809 -0.0001 22.7457 -0.0001
# 6 0.0002 0.0000 0.0001 1.4116 -0.0001 40.0665
#
#
#
# Elastic Compliance Matrix: (Units=1/GPa)
#
#
# Indices 1 2 3 4 5 6 
#
# 1 0.016939 -0.004789 -0.003125 0.000000 0.001770 0.000000
# 2 -0.004789 0.012104 -0.002999 0.000000 0.002002 0.000000
# 3 -0.003125 -0.002999 0.009486 0.000000 -0.002643 0.000000
# 4 0.000000 0.000000 0.000000 0.033491 0.000000 -0.001180
# 5 0.001770 0.002002 -0.002643 0.000000 0.044998 0.000000
# 6 0.000000 0.000000 0.000000 -0.001180 0.000000 0.025000
#
#
# Mechanical properties :
#
#
# Convention : Reuss Voigt Hill
#
# Bulk Modulus (GPa) = 59.87440 63.77691 61.82566
# Shear Modulus (GPa) = 29.51385 31.68669 30.60027
#
# Velocity S-wave (km/s) = 3.71611 3.85047 3.78389
# Velocity P-wave (km/s) = 6.81379 7.04338 6.92954
#
# Compressibility (1/GPa) = 0.01670163
#
# Stress axis : x y z
#
# Youngs Moduli (GPa) = 59.03685 82.61630 105.41681
#
# Poissons Ratio (x) = 0.39568 0.32944
# Poissons Ratio (y) = 0.28275 0.31617
# Poissons Ratio (z) = 0.18450 0.24778
#
# Static dielectric constant tensor:
#      x y z
#    x 3.625590 0.000000 0.012210 
#    y 0.000000 3.917870 0.000000 
#    z 0.012210 0.000000 3.981900 
# 
# 
# High freq. dielectric constant tensor:
#      x y z
#    x 1.824950 0.000000 0.001420 
#    y 0.000000 1.833290 0.000000 
#    z 0.001420 0.000000 1.841650 
# 
# From -- ./inp_files/101091.got.cif
#   From: 2010.06.25/outbox.cif.g09.slc.cpg/sg15_51_cif.got.tgz:101091.got - 2010.06.28 07:06:18.
