data_PCOD8136161
_publ_section_title
;
Structure prediction by ZEFSAII (Michael W. Deem and Ramdas Pophale) SiO2 
 PCOD8136161
Probable space group: C 2/C
;
_chemical_formula_sum "Si O2"
_cell_formula_units_Z 56
_cell_length_a 14.550661
_cell_length_b 18.980103
_cell_length_c 14.905140
_cell_angle_alpha 90.000000
_cell_angle_beta 49.577659
_cell_angle_gamma 90.000000
_cell_volume 3133.754160
_symmetry_space_group_name_H-M "C 2/C"
_symmetry_group_IT_number 15
_symmetry_cell_setting 'monoclinic'
loop_
_space_group_symop_operation_xyz
x,y,z
-x,y,1/2-z
-x,-y,-z
x,-y,1/2+z
1/2+x,1/2+y,z
1/2-x,1/2+y,1/2-z
1/2-x,1/2-y,-z
1/2+x,1/2-y,1/2+z
loop_
_atom_site_type_symbol
_atom_site_label
_atom_site_fract_x
_atom_site_fract_y
_atom_site_fract_z
Si Si1 0.953005 0.707086 0.032477
Si Si2 0.711492 0.329867 0.759996
Si Si3 0.992892 0.932221 0.650205
Si Si4 0.503931 0.597867 0.643885
Si Si5 0.590549 0.193591 0.772981
Si Si6 0.345446 0.645721 0.587664
Si Si7 0.662874 0.716119 0.483083
O O1 0.847471 0.656035 0.137725
O O2 0.889026 0.776453 0.033223
O O3 0.048045 0.731075 0.048846
O O4 0.023519 0.669226 0.906771
O O5 0.633602 0.402090 0.810016
O O6 0.637465 0.274018 0.746956
O O7 0.727838 0.292987 0.846377
O O8 0.000000 0.911448 0.750000
O O9 0.105848 0.903377 0.522565
O O10 0.004134 0.014943 0.628807
O O11 0.500000 0.618590 0.750000
O O12 0.391166 0.626676 0.658504
O O13 0.624514 0.636580 0.533103
O O14 0.500000 0.185131 0.750000
O O15 0.701229 0.140661 0.683847
O O16 0.750000 0.750000 0.500000
#
# Coordination Sequence:
#
# PCOD8136161 Si02
#       7
#     8   8   8   8   8   8   8
#     4   9  20  33  50  84 111 143 180 228 293 335
#     4  10  20  34  53  81 114 143 184 235 285 335
#     4  11  21  36  57  85 108 148 192 233 286 334
#     4  10  22  36  58  83 108 148 192 239 283 333
#     4  10  20  32  51  81 109 148 175 223 291 333
#     4  10  20  35  56  78 113 141 186 237 275 345
#     4  10  21  34  57  83 111 147 186 239 292 341
#
# _framework density 17.869941000000001
#
# number of rings (size 3 to 8) (size 9 to 14) (size 15 to 20)
#    0.000    2.000    4.286    0.857   10.000    1.143 
#    0.000    0.000    0.000    2.571    0.000    0.000 
#    0.000    0.000    0.000    0.000    0.000    0.000 
#
# Total GULP energy -347052.383781 kJ/mol
# GULP energy per Si atom -12394.727992 kJ/mol
# Density = 1.782927 g / cm^3
# Si number density = 17.869941 Si / 1000 Ang^3
#
#
#
# Elastic Constant Matrix: (Units=GPa)
#
#
# Indices 1 2 3 4 5 6 
#
# 1 137.4471 43.0187 74.1704 0.0000 -2.2646 0.0000
# 2 43.0187 62.1991 44.2891 0.0000 -2.6144 0.0000
# 3 74.1704 44.2891 138.3648 0.0000 -15.9700 0.0000
# 4 0.0000 0.0000 0.0000 21.1309 0.0000 2.3313
# 5 -2.2646 -2.6144 -15.9700 0.0000 33.3316 0.0000
# 6 0.0000 0.0000 0.0000 2.3313 0.0000 18.9200
#
#
#
# Elastic Compliance Matrix: (Units=1/GPa)
#
#
# Indices 1 2 3 4 5 6 
#
# 1 0.011229 -0.004409 -0.004827 0.000000 -0.001896 0.000000
# 2 -0.004409 0.022641 -0.004989 0.000000 -0.000914 0.000000
# 3 -0.004827 -0.004989 0.011992 0.000000 0.005026 0.000000
# 4 0.000000 0.000000 0.000000 0.047976 0.000000 -0.005912
# 5 -0.001896 -0.000914 0.005026 0.000000 0.032209 0.000000
# 6 0.000000 0.000000 0.000000 -0.005912 0.000000 0.053582
#
#
# Mechanical properties :
#
#
# Convention : Reuss Voigt Hill
#
# Bulk Modulus (GPa) = 57.43253 73.44080 65.43666
# Shear Modulus (GPa) = 23.37721 26.44535 24.91128
#
# Velocity S-wave (km/s) = 3.62081 3.85109 3.73773
# Velocity P-wave (km/s) = 7.04906 7.80776 7.43809
#
# Compressibility (1/GPa) = 0.01741174
#
# Stress axis : x y z
#
# Youngs Moduli (GPa) = 89.05595 44.16774 83.39050
#
# Poissons Ratio (x) = 0.19474 0.40251
# Poissons Ratio (y) = 0.39265 0.41605
# Poissons Ratio (z) = 0.42985 0.22036
#
# Static dielectric constant tensor:
#      x y z
#    x 3.353030 0.000000 0.017190 
#    y 0.000000 3.070720 0.000000 
#    z 0.017190 0.000000 3.636510 
# 
# 
# High freq. dielectric constant tensor:
#      x y z
#    x 1.689260 0.000000 0.007310 
#    y 0.000000 1.655780 0.000000 
#    z 0.007310 0.000000 1.704990 
# 
# From -- ./inp_files/155122.got.cif
#   From: 2010.06.25/outbox.cif.g09.slc.cpg/sg15_78_cif.got.tgz:155122.got - 2010.06.28 07:06:18.
