data_PCOD8136461
_publ_section_title
;
Structure prediction by ZEFSAII (Michael W. Deem and Ramdas Pophale) SiO2 
 PCOD8136461
Probable space group: C 2/C
;
_chemical_formula_sum "Si O2"
_cell_formula_units_Z 64
_cell_length_a 14.831335
_cell_length_b 7.888468
_cell_length_c 28.115747
_cell_angle_alpha 90.000000
_cell_angle_beta 75.707248
_cell_angle_gamma 90.000000
_cell_volume 3187.626048
_symmetry_space_group_name_H-M "C 2/C"
_symmetry_group_IT_number 15
_symmetry_cell_setting 'monoclinic'
loop_
_space_group_symop_operation_xyz
x,y,z
-x,y,1/2-z
-x,-y,-z
x,-y,1/2+z
1/2+x,1/2+y,z
1/2-x,1/2+y,1/2-z
1/2-x,1/2-y,-z
1/2+x,1/2-y,1/2+z
loop_
_atom_site_type_symbol
_atom_site_label
_atom_site_fract_x
_atom_site_fract_y
_atom_site_fract_z
Si Si1 0.982003 0.732051 0.635388
Si Si2 0.646449 0.457923 0.793654
Si Si3 0.477811 0.504640 0.947915
Si Si4 0.803393 0.454939 0.121830
Si Si5 0.897256 0.219218 0.628548
Si Si6 0.817664 0.223255 0.790060
Si Si7 0.199221 0.195051 0.553855
Si Si8 0.574899 0.104664 0.143580
O O1 0.894386 0.627392 0.630573
O O2 0.011732 0.835073 0.584667
O O3 0.061908 0.599919 0.641529
O O4 0.949276 0.850047 0.684597
O O5 0.660107 0.567209 0.839651
O O6 0.736184 0.335132 0.775299
O O7 0.633132 0.597234 0.753883
O O8 0.548528 0.650588 0.923639
O O9 0.372190 0.552772 0.952659
O O10 0.500000 0.500000 0.000000
O O11 0.817787 0.655659 0.120186
O O12 0.717296 0.408040 0.166118
O O13 0.782631 0.391115 0.071964
O O14 0.974511 0.303960 0.653121
O O15 0.887964 0.350263 0.808186
O O16 0.250000 0.250000 0.500000
O O17 0.146961 0.339748 0.592252
#
# Coordination Sequence:
#
# PCOD8136461 Si02
#       8
#     8   8   8   8   8   8   8   8
#     4   9  19  37  58  80 108 145 185 226 275 331
#     4  10  20  35  56  81 111 142 178 224 277 335
#     4  10  20  34  53  79 111 143 182 228 273 328
#     4   9  18  35  57  77 106 143 179 221 272 327
#     4   9  19  36  55  76 106 146 182 220 275 330
#     4  10  20  35  56  82 110 140 178 228 278 329
#     4  10  20  34  54  81 110 144 183 225 278 330
#     4   9  20  38  57  77 108 147 187 231 274 331
#
# _framework density 20.077638
#
# number of rings (size 3 to 8) (size 9 to 14) (size 15 to 20)
#    0.000    2.500    0.000    1.500    0.000    3.500 
#    0.000    8.750    0.000    3.000    0.000    0.000 
#    0.000    0.000    0.000    0.000    0.000    0.000 
#
# Total GULP energy -396487.672637 kJ/mol
# GULP energy per Si atom -12390.239770 kJ/mol
# Density = 2.003194 g / cm^3
# Si number density = 20.077638 Si / 1000 Ang^3
#
#
#
# Elastic Constant Matrix: (Units=GPa)
#
#
# Indices 1 2 3 4 5 6 
#
# 1 44.4776 33.8756 36.6943 0.0000 1.8962 0.0000
# 2 33.8756 122.6106 47.1945 0.0000 -0.7787 0.0000
# 3 36.6943 47.1945 109.7406 0.0000 8.3006 0.0000
# 4 0.0000 0.0000 0.0000 28.3450 0.0000 5.4554
# 5 1.8962 -0.7787 8.3006 0.0000 22.6878 0.0000
# 6 0.0000 0.0000 0.0000 5.4554 0.0000 29.2046
#
#
#
# Elastic Compliance Matrix: (Units=1/GPa)
#
#
# Indices 1 2 3 4 5 6 
#
# 1 0.034474 -0.006090 -0.008922 0.000000 0.000174 0.000000
# 2 -0.006090 0.010932 -0.002810 0.000000 0.001912 0.000000
# 3 -0.008922 -0.002810 0.013632 0.000000 -0.004338 0.000000
# 4 0.000000 0.000000 0.000000 0.036595 0.000000 -0.006836
# 5 0.000174 0.001912 -0.004338 0.000000 0.045715 0.000000
# 6 0.000000 0.000000 0.000000 -0.006836 0.000000 0.035518
#
#
# Mechanical properties :
#
#
# Convention : Reuss Voigt Hill
#
# Bulk Modulus (GPa) = 42.74165 56.92862 49.83513
# Shear Modulus (GPa) = 22.69557 26.65178 24.67368
#
# Velocity S-wave (km/s) = 3.36578 3.64735 3.50939
# Velocity P-wave (km/s) = 6.03647 6.79363 6.42621
#
# Compressibility (1/GPa) = 0.02339638
#
# Stress axis : x y z
#
# Youngs Moduli (GPa) = 29.00717 91.47410 73.35662
#
# Poissons Ratio (x) = 0.55704 0.65445
# Poissons Ratio (y) = 0.17664 0.20612
# Poissons Ratio (z) = 0.25879 0.25702
#
# Static dielectric constant tensor:
#      x y z
#    x 3.662860 0.000000 -0.086770 
#    y 0.000000 4.231090 0.000000 
#    z -0.086770 0.000000 3.564640 
# 
# 
# High freq. dielectric constant tensor:
#      x y z
#    x 1.775650 0.000000 -0.007070 
#    y 0.000000 1.789790 0.000000 
#    z -0.007070 0.000000 1.779580 
# 
# From -- ./inp_files/295133.got.cif
#   From: 2010.06.25/outbox.cif.g09.slc.cpg/sg15_148_cif.got.tgz:295133.got - 2010.06.28 07:06:18.
