data_PCOD8136281
_publ_section_title
;
Structure prediction by ZEFSAII (Michael W. Deem and Ramdas Pophale) SiO2 
 PCOD8136281
Probable space group: C 2/C
;
_chemical_formula_sum "Si O2"
_cell_formula_units_Z 48
_cell_length_a 14.378202
_cell_length_b 10.641743
_cell_length_c 17.542879
_cell_angle_alpha 90.000000
_cell_angle_beta 117.869581
_cell_angle_gamma 90.000000
_cell_volume 2372.888470
_symmetry_space_group_name_H-M "C 2/C"
_symmetry_group_IT_number 15
_symmetry_cell_setting 'monoclinic'
loop_
_space_group_symop_operation_xyz
x,y,z
-x,y,1/2-z
-x,-y,-z
x,-y,1/2+z
1/2+x,1/2+y,z
1/2-x,1/2+y,1/2-z
1/2-x,1/2-y,-z
1/2+x,1/2-y,1/2+z
loop_
_atom_site_type_symbol
_atom_site_label
_atom_site_fract_x
_atom_site_fract_y
_atom_site_fract_z
Si Si1 0.000000 0.917354 0.750000
Si Si2 0.643054 0.877624 0.063167
Si Si3 0.557371 0.626921 0.576918
Si Si4 0.500000 0.834979 0.750000
Si Si5 0.376285 0.375043 0.125247
Si Si6 0.436240 0.892415 0.882425
Si Si7 0.565747 0.640950 0.114680
O O1 0.964772 0.832807 0.808846
O O2 0.902717 0.004402 0.687283
O O3 0.752218 0.875952 0.059005
O O4 0.639108 0.754332 0.115323
O O5 0.639894 0.001287 0.114894
O O6 0.548216 0.885307 0.967806
O O7 0.440837 0.622893 0.571207
O O8 0.617278 0.753206 0.628368
O O9 0.539532 0.634486 0.478875
O O10 0.618980 0.499241 0.625770
O O11 0.595382 0.749069 0.816389
O O12 0.456182 0.922193 0.801202
#
# Coordination Sequence:
#
# PCOD8136281 Si02
#       7
#     4   8   8   4   8   8   8
#     4   9  18  33  50  72 106 136 164 212 256 288
#     4  10  20  33  52  77 104 133 165 206 257 305
#     4   8  16  33  54  70  94 133 170 201 243 301
#     4   9  18  33  52  72  98 134 174 210 242 292
#     4   9  18  33  53  75  99 133 174 209 246 296
#     4   9  19  34  52  74 106 134 161 208 260 297
#     4   9  17  30  52  74  95 128 169 204 243 295
#
# _framework density 20.228511000000001
#
# number of rings (size 3 to 8) (size 9 to 14) (size 15 to 20)
#    0.000    3.000    0.000    1.000    0.000    8.000 
#    0.000    0.000    0.000   57.000    0.000    0.000 
#    0.000    0.000    0.000    0.000    0.000    0.000 
#
# Total GULP energy -297363.933779 kJ/mol
# GULP energy per Si atom -12390.163907 kJ/mol
# Density = 2.018247 g / cm^3
# Si number density = 20.228511 Si / 1000 Ang^3
#
#
#
# Elastic Constant Matrix: (Units=GPa)
#
#
# Indices 1 2 3 4 5 6 
#
# 1 58.4504 27.4146 14.6032 0.0000 -2.0198 0.0000
# 2 27.4146 130.6205 7.7508 0.0000 -13.4657 0.0000
# 3 14.6032 7.7508 77.6702 0.0000 -33.9347 0.0000
# 4 0.0000 0.0000 0.0000 17.2899 0.0000 -10.9322
# 5 -2.0198 -13.4657 -33.9347 0.0000 34.8746 0.0000
# 6 0.0000 0.0000 0.0000 -10.9322 0.0000 12.1496
#
#
#
# Elastic Compliance Matrix: (Units=1/GPa)
#
#
# Indices 1 2 3 4 5 6 
#
# 1 0.020659 -0.004660 -0.006406 0.000000 -0.006836 0.000000
# 2 -0.004660 0.009065 0.002406 0.000000 0.005571 0.000000
# 3 -0.006406 0.002406 0.024498 0.000000 0.024395 0.000000
# 4 0.000000 0.000000 0.000000 0.134172 0.000000 0.120728
# 5 -0.006836 0.005571 0.024395 0.000000 0.054167 0.000000
# 6 0.000000 0.000000 0.000000 0.120728 0.000000 0.190938
#
#
# Mechanical properties :
#
#
# Convention : Reuss Voigt Hill
#
# Bulk Modulus (GPa) = 27.09970 40.69759 33.89865
# Shear Modulus (GPa) = 10.79634 27.32767 19.06200
#
# Velocity S-wave (km/s) = 2.31274 3.67951 3.07308
# Velocity P-wave (km/s) = 4.53405 6.18178 5.42088
#
# Compressibility (1/GPa) = 0.03690077
#
# Stress axis : x y z
#
# Youngs Moduli (GPa) = 48.40608 110.30842 40.81995
#
# Poissons Ratio (x) = 0.51409 0.26149
# Poissons Ratio (y) = 0.22559 -0.09820
# Poissons Ratio (z) = 0.31008 -0.26537
#
# Static dielectric constant tensor:
#      x y z
#    x 3.119170 0.000000 -0.295000 
#    y 0.000000 4.065590 0.000000 
#    z -0.295000 0.000000 3.699990 
# 
# 
# High freq. dielectric constant tensor:
#      x y z
#    x 1.735300 0.000000 -0.029410 
#    y 0.000000 1.792380 0.000000 
#    z -0.029410 0.000000 1.792250 
# 
# From -- ./inp_files/181735.got.cif
#   From: 2010.06.25/outbox.cif.g09.slc.cpg/sg15_91_cif.got.tgz:181735.got - 2010.06.28 07:06:18.
