data_PCOD8136764
_publ_section_title
;
Structure prediction by ZEFSAII (Michael W. Deem and Ramdas Pophale) SiO2 
 PCOD8136764
Probable space group: C 2/C
;
_chemical_formula_sum "Si O2"
_cell_formula_units_Z 48
_cell_length_a 24.889045
_cell_length_b 8.540858
_cell_length_c 19.445743
_cell_angle_alpha 90.000000
_cell_angle_beta 143.105075
_cell_angle_gamma 90.000000
_cell_volume 2481.637540
_symmetry_space_group_name_H-M "C 2/C"
_symmetry_group_IT_number 15
_symmetry_cell_setting 'monoclinic'
loop_
_space_group_symop_operation_xyz
x,y,z
-x,y,1/2-z
-x,-y,-z
x,-y,1/2+z
1/2+x,1/2+y,z
1/2-x,1/2+y,1/2-z
1/2-x,1/2-y,-z
1/2+x,1/2-y,1/2+z
loop_
_atom_site_type_symbol
_atom_site_label
_atom_site_fract_x
_atom_site_fract_y
_atom_site_fract_z
Si Si1 0.351949 0.187523 0.408637
Si Si2 0.333540 0.847260 0.732511
Si Si3 0.493993 0.303633 0.324383
Si Si4 0.162023 0.687554 0.728074
Si Si5 0.009798 0.911888 0.583624
Si Si6 0.846971 0.344078 0.437665
O O1 0.369700 0.169844 0.346223
O O2 0.267986 0.297757 0.333724
O O3 0.441028 0.270602 0.526426
O O4 0.326803 0.028952 0.423940
O O5 0.395694 0.759165 0.742068
O O6 0.234464 0.771621 0.624696
O O7 0.344811 0.033713 0.730633
O O8 0.500000 0.327753 0.250000
O O9 0.511298 0.468002 0.378095
O O10 0.569939 0.185004 0.427446
O O11 0.108160 0.839016 0.700139
O O12 0.123285 0.675786 0.610959
O O13 0.000000 0.000000 0.500000
#
# Coordination Sequence:
#
# PCOD8136764 Si02
#       6
#     8   8   8   8   8   8
#     4  10  20  34  63  94 117 145 195 254 296 338
#     4  10  20  37  61  89 118 151 195 245 297 349
#     4  12  25  39  57  83 121 164 196 238 297 356
#     4  10  20  34  63  94 117 145 195 254 296 338
#     4  12  21  37  60  87 120 155 197 246 288 343
#     4  10  20  37  61  89 118 151 195 245 297 349
#
# _framework density 19.342067
#
# number of rings (size 3 to 8) (size 9 to 14) (size 15 to 20)
#    0.000    1.333    3.333    3.000    4.667    3.333 
#    0.000    3.333    0.000    4.000    0.000    0.000 
#    0.000    0.000    0.000    0.000    0.000    0.000 
#
# Total GULP energy -297444.361152 kJ/mol
# GULP energy per Si atom -12393.515048 kJ/mol
# Density = 1.929804 g / cm^3
# Si number density = 19.342067 Si / 1000 Ang^3
#
#
#
# Elastic Constant Matrix: (Units=GPa)
#
#
# Indices 1 2 3 4 5 6 
#
# 1 81.0497 32.5702 35.0171 0.0000 1.0925 0.0000
# 2 32.5702 106.2571 15.5063 0.0000 -1.6305 0.0000
# 3 35.0171 15.5063 55.5779 0.0000 3.4500 0.0000
# 4 0.0000 0.0000 0.0000 27.4853 0.0000 11.3845
# 5 1.0925 -1.6305 3.4500 0.0000 24.5707 0.0000
# 6 0.0000 0.0000 0.0000 11.3845 0.0000 27.2969
#
#
#
# Elastic Compliance Matrix: (Units=1/GPa)
#
#
# Indices 1 2 3 4 5 6 
#
# 1 0.018561 -0.004142 -0.010563 0.000000 0.000383 0.000000
# 2 -0.004142 0.010762 -0.000452 0.000000 0.000962 0.000000
# 3 -0.010563 -0.000452 0.024964 0.000000 -0.003066 0.000000
# 4 0.000000 0.000000 0.000000 0.043981 0.000000 -0.018343
# 5 0.000383 0.000962 -0.003066 0.000000 0.041176 0.000000
# 6 0.000000 0.000000 0.000000 -0.018343 0.000000 0.044284
#
#
# Mechanical properties :
#
#
# Convention : Reuss Voigt Hill
#
# Bulk Modulus (GPa) = 41.71422 45.45244 43.58333
# Shear Modulus (GPa) = 22.51920 26.52333 24.52126
#
# Velocity S-wave (km/s) = 3.41583 3.70709 3.56444
# Velocity P-wave (km/s) = 6.09677 6.47099 6.28666
#
# Compressibility (1/GPa) = 0.02397264
#
# Stress axis : x y z
#
# Youngs Moduli (GPa) = 53.87653 92.92335 40.05720
#
# Poissons Ratio (x) = 0.38489 0.42311
# Poissons Ratio (y) = 0.22316 0.01812
# Poissons Ratio (z) = 0.56907 0.04204
#
# Static dielectric constant tensor:
#      x y z
#    x 3.234080 0.000000 0.197660 
#    y 0.000000 3.818720 0.000000 
#    z 0.197660 0.000000 3.375800 
# 
# 
# High freq. dielectric constant tensor:
#      x y z
#    x 1.720840 0.000000 0.035380 
#    y 0.000000 1.773170 0.000000 
#    z 0.035380 0.000000 1.739280 
# 
# From -- ./inp_files/257255.got.cif
#   From: 2010.06.25/outbox.cif.g09.slc.cpg/sg15_129_cif.got.tgz:257255.got - 2010.06.28 07:06:18.
