data_PCOD8136479
_publ_section_title
;
Structure prediction by ZEFSAII (Michael W. Deem and Ramdas Pophale) SiO2 
 PCOD8136479
Probable space group: C 2/C
;
_chemical_formula_sum "Si O2"
_cell_formula_units_Z 60
_cell_length_a 8.722033
_cell_length_b 11.362491
_cell_length_c 31.682104
_cell_angle_alpha 90.000000
_cell_angle_beta 79.951166
_cell_angle_gamma 90.000000
_cell_volume 3091.657109
_symmetry_space_group_name_H-M "C 2/C"
_symmetry_group_IT_number 15
_symmetry_cell_setting 'monoclinic'
loop_
_space_group_symop_operation_xyz
x,y,z
-x,y,1/2-z
-x,-y,-z
x,-y,1/2+z
1/2+x,1/2+y,z
1/2-x,1/2+y,1/2-z
1/2-x,1/2-y,-z
1/2+x,1/2-y,1/2+z
loop_
_atom_site_type_symbol
_atom_site_label
_atom_site_fract_x
_atom_site_fract_y
_atom_site_fract_z
Si Si1 0.756050 0.533013 0.681348
Si Si2 0.656499 0.752694 0.047834
Si Si3 0.613593 0.675736 0.486914
Si Si4 0.545788 0.259680 0.812756
Si Si5 0.077675 0.936251 0.614704
Si Si6 0.247372 0.800644 0.726063
Si Si7 0.500000 0.360068 0.250000
Si Si8 0.873429 0.941889 0.060617
O O1 0.885522 0.634095 0.675972
O O2 0.705931 0.505760 0.635828
O O3 0.820881 0.417310 0.701677
O O4 0.598937 0.559929 0.714177
O O5 0.674000 0.630798 0.073184
O O6 0.716791 0.862283 0.073475
O O7 0.750000 0.750000 0.000000
O O8 0.474587 0.759573 0.043023
O O9 0.750000 0.750000 0.500000
O O10 0.680086 0.560252 0.460569
O O11 0.496958 0.634687 0.528828
O O12 0.522736 0.341839 0.854195
O O13 0.666907 0.324117 0.775411
O O14 0.379644 0.238949 0.798289
O O15 0.952816 0.028192 0.601545
O O16 0.392777 0.715800 0.724309
#
# Coordination Sequence:
#
# PCOD8136479 Si02
#       8
#     8   8   8   8   8   8   4   8
#     4  10  20  36  56  78 109 141 172 220 267 307
#     4   9  19  37  56  76 104 139 181 222 265 319
#     4   9  18  34  57  79  99 130 176 219 264 320
#     4   9  19  36  55  79 111 142 177 220 263 313
#     4  10  20  34  54  79 109 140 178 220 268 319
#     4   9  19  36  56  80 108 142 182 215 257 319
#     4  10  20  34  58  82 102 140 182 214 264 320
#     4   9  19  35  53  74 105 138 167 218 268 306
#
# _framework density 19.407066
#
# number of rings (size 3 to 8) (size 9 to 14) (size 15 to 20)
#    0.000    2.667    0.000    2.400    0.000    6.933 
#    0.000    6.667    0.000    0.000    0.000    0.000 
#    0.000    0.000    0.000    0.000    0.000    0.000 
#
# Total GULP energy -371849.172555 kJ/mol
# GULP energy per Si atom -12394.972419 kJ/mol
# Density = 1.936290 g / cm^3
# Si number density = 19.407066 Si / 1000 Ang^3
#
#
#
# Elastic Constant Matrix: (Units=GPa)
#
#
# Indices 1 2 3 4 5 6 
#
# 1 87.0976 55.8792 24.1257 0.0000 25.9782 0.0000
# 2 55.8792 98.0636 34.1405 0.0000 24.1572 0.0000
# 3 24.1257 34.1405 85.7018 0.0000 23.9040 0.0000
# 4 0.0000 0.0000 0.0000 31.0337 0.0000 9.8839
# 5 25.9782 24.1572 23.9040 0.0000 27.9008 0.0000
# 6 0.0000 0.0000 0.0000 9.8839 0.0000 37.0761
#
#
#
# Elastic Compliance Matrix: (Units=1/GPa)
#
#
# Indices 1 2 3 4 5 6 
#
# 1 0.020741 -0.009203 0.001303 0.000000 -0.012460 0.000000
# 2 -0.009203 0.017529 -0.003349 0.000000 -0.003738 0.000000
# 3 0.001303 -0.003349 0.015985 0.000000 -0.012008 0.000000
# 4 0.000000 0.000000 0.000000 0.035213 0.000000 -0.009387
# 5 -0.012460 -0.003738 -0.012008 0.000000 0.060967 0.000000
# 6 0.000000 0.000000 0.000000 -0.009387 0.000000 0.029474
#
#
# Mechanical properties :
#
#
# Convention : Reuss Voigt Hill
#
# Bulk Modulus (GPa) = 31.49050 55.46152 43.47601
# Shear Modulus (GPa) = 23.47487 29.64997 26.56242
#
# Velocity S-wave (km/s) = 3.48171 3.91294 3.70361
# Velocity P-wave (km/s) = 5.69426 7.00392 6.38277
#
# Compressibility (1/GPa) = 0.03175560
#
# Stress axis : x y z
#
# Youngs Moduli (GPa) = 48.21308 57.04989 62.55758
#
# Poissons Ratio (x) = 0.52503 -0.08149
# Poissons Ratio (y) = 0.44371 0.20953
# Poissons Ratio (z) = -0.06280 0.19108
#
# Static dielectric constant tensor:
#      x y z
#    x 3.592510 0.000000 0.247210 
#    y 0.000000 3.673440 0.000000 
#    z 0.247210 0.000000 3.605770 
# 
# 
# High freq. dielectric constant tensor:
#      x y z
#    x 1.745250 0.000000 0.019960 
#    y 0.000000 1.753280 0.000000 
#    z 0.019960 0.000000 1.754310 
# 
# From -- ./inp_files/307135.got.cif
#   From: 2010.06.25/outbox.cif.g09.slc.cpg/sg15_154_cif.got.tgz:307135.got - 2010.06.28 07:06:18.
