data_PCOD8136288
_publ_section_title
;
Structure prediction by ZEFSAII (Michael W. Deem and Ramdas Pophale) SiO2 
 PCOD8136288
Probable space group: C 2/C
;
_chemical_formula_sum "Si O2"
_cell_formula_units_Z 44
_cell_length_a 11.694634
_cell_length_b 25.450309
_cell_length_c 9.259876
_cell_angle_alpha 90.000000
_cell_angle_beta 49.693835
_cell_angle_gamma 90.000000
_cell_volume 2101.749455
_symmetry_space_group_name_H-M "C 2/C"
_symmetry_group_IT_number 15
_symmetry_cell_setting 'monoclinic'
loop_
_space_group_symop_operation_xyz
x,y,z
-x,y,1/2-z
-x,-y,-z
x,-y,1/2+z
1/2+x,1/2+y,z
1/2-x,1/2+y,1/2-z
1/2-x,1/2-y,-z
1/2+x,1/2-y,1/2+z
loop_
_atom_site_type_symbol
_atom_site_label
_atom_site_fract_x
_atom_site_fract_y
_atom_site_fract_z
Si Si1 0.500000 0.751068 0.750000
Si Si2 0.660124 0.655985 0.293359
Si Si3 0.180077 0.044095 0.769614
Si Si4 0.691425 0.355693 0.442736
Si Si5 0.211200 0.273218 0.342473
Si Si6 0.824816 0.945532 0.549415
O O1 0.635047 0.713660 0.695663
O O2 0.568113 0.785599 0.562215
O O3 0.481229 0.659008 0.439156
O O4 0.721453 0.712292 0.290302
O O5 0.718113 0.612024 0.357218
O O6 0.725599 0.639875 0.083988
O O7 0.237106 0.090857 0.825581
O O8 0.244888 0.049031 0.554158
O O9 0.241023 0.990176 0.790297
O O10 0.001904 0.045775 0.903725
O O11 0.796195 0.309533 0.292281
#
# Coordination Sequence:
#
# PCOD8136288 Si02
#       6
#     4   8   8   8   8   8
#     4  10  24  34  58  78 116 138 194 222 276 312
#     4  10  20  33  52  78 113 147 181 224 274 326
#     4   9  17  28  46  72 107 144 179 222 275 324
#     4  10  20  33  52  78 113 147 181 224 274 326
#     4  11  21  38  54  82 112 148 180 230 268 334
#     4   9  17  28  46  72 107 144 179 222 275 324
#
# _framework density 20.934939
#
# number of rings (size 3 to 8) (size 9 to 14) (size 15 to 20)
#    0.000    2.182    1.818    1.636    5.091    4.364 
#    0.000    0.000    0.000    0.000    0.000    1.273 
#    0.000    0.000    0.000    0.000    0.000    0.000 
#
# Total GULP energy -272740.222028 kJ/mol
# GULP energy per Si atom -12397.282819 kJ/mol
# Density = 2.088729 g / cm^3
# Si number density = 20.934939 Si / 1000 Ang^3
#
#
#
# Elastic Constant Matrix: (Units=GPa)
#
#
# Indices 1 2 3 4 5 6 
#
# 1 40.4499 22.6903 37.4428 0.0000 20.5459 0.0000
# 2 22.6903 158.1519 63.5586 0.0000 32.9365 0.0000
# 3 37.4428 63.5586 155.7408 0.0000 43.5237 0.0000
# 4 0.0000 0.0000 0.0000 38.8754 0.0000 7.9971
# 5 20.5459 32.9365 43.5237 0.0000 43.5860 0.0000
# 6 0.0000 0.0000 0.0000 7.9971 0.0000 15.0769
#
#
#
# Elastic Compliance Matrix: (Units=1/GPa)
#
#
# Indices 1 2 3 4 5 6 
#
# 1 0.035510 -0.000723 -0.005156 0.000000 -0.011044 0.000000
# 2 -0.000723 0.008022 -0.002082 0.000000 -0.003642 0.000000
# 3 -0.005156 -0.002082 0.010252 0.000000 -0.006234 0.000000
# 4 0.000000 0.000000 0.000000 0.028874 0.000000 -0.015315
# 5 -0.011044 -0.003642 -0.006234 0.000000 0.037126 0.000000
# 6 0.000000 0.000000 0.000000 -0.015315 0.000000 0.074450
#
#
# Mechanical properties :
#
#
# Convention : Reuss Voigt Hill
#
# Bulk Modulus (GPa) = 26.41118 66.85845 46.63481
# Shear Modulus (GPa) = 22.44404 34.88438 28.66421
#
# Velocity S-wave (km/s) = 3.27782 4.08649 3.70429
# Velocity P-wave (km/s) = 5.19314 7.36692 6.37339
#
# Compressibility (1/GPa) = 0.03786276
#
# Stress axis : x y z
#
# Youngs Moduli (GPa) = 28.16145 124.65672 97.53823
#
# Poissons Ratio (x) = 0.09007 0.50289
# Poissons Ratio (y) = 0.02035 0.20310
# Poissons Ratio (z) = 0.14519 0.25957
#
# Static dielectric constant tensor:
#      x y z
#    x 3.405560 0.000000 0.432150 
#    y 0.000000 3.661050 0.000000 
#    z 0.432150 0.000000 3.993430 
# 
# 
# High freq. dielectric constant tensor:
#      x y z
#    x 1.776880 0.000000 0.041940 
#    y 0.000000 1.813280 0.000000 
#    z 0.041940 0.000000 1.821340 
# 
# From -- ./inp_files/32714.got.cif
#   From: 2010.06.25/outbox.cif.g09.slc.cpg/sg15_17_cif.got.tgz:32714.got - 2010.06.28 07:06:18.
