data_PCOD8136313
_publ_section_title
;
Structure prediction by ZEFSAII (Michael W. Deem and Ramdas Pophale) SiO2 
 PCOD8136313
Probable space group: C 2/C
;
_chemical_formula_sum "Si O2"
_cell_formula_units_Z 56
_cell_length_a 15.377100
_cell_length_b 16.009726
_cell_length_c 12.346220
_cell_angle_alpha 90.000000
_cell_angle_beta 112.407702
_cell_angle_gamma 90.000000
_cell_volume 2809.938547
_symmetry_space_group_name_H-M "C 2/C"
_symmetry_group_IT_number 15
_symmetry_cell_setting 'monoclinic'
loop_
_space_group_symop_operation_xyz
x,y,z
-x,y,1/2-z
-x,-y,-z
x,-y,1/2+z
1/2+x,1/2+y,z
1/2-x,1/2+y,1/2-z
1/2-x,1/2-y,-z
1/2+x,1/2-y,1/2+z
loop_
_atom_site_type_symbol
_atom_site_label
_atom_site_fract_x
_atom_site_fract_y
_atom_site_fract_z
Si Si1 0.394118 0.173353 0.518048
Si Si2 0.945357 0.153884 0.113735
Si Si3 0.104583 0.448145 0.287856
Si Si4 0.778518 0.077053 0.141373
Si Si5 0.604596 0.160177 0.580623
Si Si6 0.867461 0.146169 0.392469
Si Si7 0.274073 0.071253 0.021354
O O1 0.385645 0.271057 0.535003
O O2 0.390603 0.130593 0.632185
O O3 0.306788 0.142928 0.405899
O O4 0.492955 0.155298 0.505099
O O5 0.865256 0.086758 0.098747
O O6 0.000000 0.181156 0.250000
O O7 0.021921 0.120737 0.062334
O O8 0.129442 0.410708 0.181877
O O9 0.179817 0.518632 0.358199
O O10 0.000000 0.487628 0.250000
O O11 0.813835 0.090096 0.278891
O O12 0.744748 0.984844 0.094226
O O13 0.637571 0.253624 0.631746
O O14 0.653607 0.140175 0.489380
O O15 0.820321 0.119008 0.483504
#
# Coordination Sequence:
#
# PCOD8136313 Si02
#       7
#     8   8   8   8   8   8   8
#     4   9  17  31  54  81 103 131 172 213 255 304
#     4   9  17  32  53  75 102 135 172 215 255 295
#     4   9  18  32  53  79 107 134 166 213 261 299
#     4  10  20  33  54  79 102 129 173 220 255 297
#     4  10  20  36  54  75 107 140 169 204 255 313
#     4  10  21  37  54  73 104 142 173 207 253 305
#     4  11  22  33  52  80 107 138 170 206 256 308
#
# _framework density 19.929261
#
# number of rings (size 3 to 8) (size 9 to 14) (size 15 to 20)
#    0.000    2.286    0.000    4.714    0.000    8.000 
#    0.000    0.000    0.000    3.429    0.000    0.000 
#    0.000    0.000    0.000    0.000    0.000    0.000 
#
# Total GULP energy -346942.180113 kJ/mol
# GULP energy per Si atom -12390.792147 kJ/mol
# Density = 1.988390 g / cm^3
# Si number density = 19.929261 Si / 1000 Ang^3
#
#
#
# Elastic Constant Matrix: (Units=GPa)
#
#
# Indices 1 2 3 4 5 6 
#
# 1 117.0409 30.5644 24.2628 0.0000 -8.9509 0.0000
# 2 30.5644 56.0990 17.6806 0.0000 -0.4367 0.0000
# 3 24.2628 17.6806 31.5734 0.0000 -0.6720 0.0000
# 4 0.0000 0.0000 0.0000 9.0051 0.0000 -5.5398
# 5 -8.9509 -0.4367 -0.6720 0.0000 25.0926 0.0000
# 6 0.0000 0.0000 0.0000 -5.5398 0.0000 30.7822
#
#
#
# Elastic Compliance Matrix: (Units=1/GPa)
#
#
# Indices 1 2 3 4 5 6 
#
# 1 0.011194 -0.004109 -0.006221 0.000000 0.003755 0.000000
# 2 -0.004109 0.023154 -0.009837 0.000000 -0.001326 0.000000
# 3 -0.006221 -0.009837 0.041934 0.000000 -0.001267 0.000000
# 4 0.000000 0.000000 0.000000 0.124873 0.000000 0.022473
# 5 0.003755 -0.001326 -0.001267 0.000000 0.041135 0.000000
# 6 0.000000 0.000000 0.000000 0.022473 0.000000 0.036531
#
#
# Mechanical properties :
#
#
# Convention : Reuss Voigt Hill
#
# Bulk Modulus (GPa) = 27.81727 38.85875 33.33801
# Shear Modulus (GPa) = 15.09948 21.78969 18.44458
#
# Velocity S-wave (km/s) = 2.75554 3.31017 3.04551
# Velocity P-wave (km/s) = 4.91043 5.84383 5.39734
#
# Compressibility (1/GPa) = 0.03594889
#
# Stress axis : x y z
#
# Youngs Moduli (GPa) = 89.33491 43.18889 23.84682
#
# Poissons Ratio (x) = 0.17745 0.14836
# Poissons Ratio (y) = 0.36706 0.23457
# Poissons Ratio (z) = 0.55577 0.42484
#
# Static dielectric constant tensor:
#      x y z
#    x 4.011640 0.000000 0.129630 
#    y 0.000000 3.423270 0.000000 
#    z 0.129630 0.000000 3.281580 
# 
# 
# High freq. dielectric constant tensor:
#      x y z
#    x 1.800090 0.000000 -0.004020 
#    y 0.000000 1.763560 0.000000 
#    z -0.004020 0.000000 1.741330 
# 
# From -- ./inp_files/98383.got.cif
#   From: 2010.06.25/outbox.cif.g09.slc.cpg/sg15_50_cif.got.tgz:98383.got - 2010.06.28 07:06:18.
