data_PCOD8136042
_publ_section_title
;
Structure prediction by ZEFSAII (Michael W. Deem and Ramdas Pophale) SiO2 
 PCOD8136042
Probable space group: C 2/C
;
_chemical_formula_sum "Si O2"
_cell_formula_units_Z 48
_cell_length_a 27.087960
_cell_length_b 8.849710
_cell_length_c 15.441767
_cell_angle_alpha 90.000000
_cell_angle_beta 144.079421
_cell_angle_gamma 90.000000
_cell_volume 2171.656975
_symmetry_space_group_name_H-M "C 2/C"
_symmetry_group_IT_number 15
_symmetry_cell_setting 'monoclinic'
loop_
_space_group_symop_operation_xyz
x,y,z
-x,y,1/2-z
-x,-y,-z
x,-y,1/2+z
1/2+x,1/2+y,z
1/2-x,1/2+y,1/2-z
1/2-x,1/2-y,-z
1/2+x,1/2-y,1/2+z
loop_
_atom_site_type_symbol
_atom_site_label
_atom_site_fract_x
_atom_site_fract_y
_atom_site_fract_z
Si Si1 0.560771 0.065376 0.011751
Si Si2 0.743993 0.951264 0.319383
Si Si3 0.270600 0.924307 0.514438
Si Si4 0.491352 0.674527 0.493787
Si Si5 0.803469 0.877511 0.746973
Si Si6 0.459697 0.850302 0.774066
O O1 0.540261 0.245167 0.982907
O O2 0.528209 0.986555 0.878917
O O3 0.500000 0.000000 0.000000
O O4 0.656284 0.022779 0.163613
O O5 0.756480 0.769791 0.328855
O O6 0.759144 0.990178 0.441164
O O7 0.809756 0.031236 0.346832
O O8 0.250000 0.750000 0.500000
O O9 0.369567 0.929891 0.635682
O O10 0.223829 0.005821 0.367495
O O11 0.500000 0.500000 0.500000
O O12 0.391849 0.706688 0.352954
O O13 0.540544 0.731416 0.648575
O O14 0.500000 0.760733 0.750000
#
# Coordination Sequence:
#
# PCOD8136042 Si02
#       6
#     8   8   8   8   8   8
#     4  10  19  43  68  86 125 180 218 261 342 405
#     4  12  24  44  67 100 138 180 226 286 350 414
#     4  12  25  42  67 102 138 175 225 288 347 407
#     4  11  23  43  68  96 134 179 222 279 345 405
#     4  12  26  42  69 103 138 179 233 284 349 420
#     4  11  22  42  69  94 128 176 228 272 332 417
#
# _framework density 22.102938000000002
#
# number of rings (size 3 to 8) (size 9 to 14) (size 15 to 20)
#    0.000    0.667    6.667    3.500    4.667    0.000 
#    0.000    0.833    0.000    0.000    0.000    0.000 
#    0.000    0.000    0.000    0.000    0.000    0.000 
#
# Total GULP energy -297352.131976 kJ/mol
# GULP energy per Si atom -12389.672166 kJ/mol
# Density = 2.205263 g / cm^3
# Si number density = 22.102938 Si / 1000 Ang^3
#
#
#
# Elastic Constant Matrix: (Units=GPa)
#
#
# Indices 1 2 3 4 5 6 
#
# 1 74.9468 23.4307 27.0507 0.0000 -20.6293 0.0000
# 2 23.4307 153.4233 -3.9327 0.0000 -12.4051 0.0000
# 3 27.0507 -3.9327 57.3032 0.0000 2.9676 0.0000
# 4 0.0000 0.0000 0.0000 35.3687 0.0000 1.6479
# 5 -20.6293 -12.4051 2.9676 0.0000 28.9354 0.0000
# 6 0.0000 0.0000 0.0000 1.6479 0.0000 32.9161
#
#
#
# Elastic Compliance Matrix: (Units=1/GPa)
#
#
# Indices 1 2 3 4 5 6 
#
# 1 0.022938 -0.002472 -0.011853 0.000000 0.016509 0.000000
# 2 -0.002472 0.007024 0.001593 0.000000 0.001086 0.000000
# 3 -0.011853 0.001593 0.023684 0.000000 -0.010196 0.000000
# 4 0.000000 0.000000 0.000000 0.028340 0.000000 -0.001419
# 5 0.016509 0.001086 -0.010196 0.000000 0.047841 0.000000
# 6 0.000000 0.000000 0.000000 -0.001419 0.000000 0.030451
#
#
# Mechanical properties :
#
#
# Convention : Reuss Voigt Hill
#
# Bulk Modulus (GPa) = 35.48416 42.08564 38.78490
# Shear Modulus (GPa) = 25.62324 35.38566 30.50445
#
# Velocity S-wave (km/s) = 3.40850 4.00553 3.71901
# Velocity P-wave (km/s) = 5.61955 6.36195 6.00224
#
# Compressibility (1/GPa) = 0.02818159
#
# Stress axis : x y z
#
# Youngs Moduli (GPa) = 43.59607 142.36816 42.22323
#
# Poissons Ratio (x) = 0.35194 0.50046
# Poissons Ratio (y) = 0.10777 -0.06725
# Poissons Ratio (z) = 0.51673 -0.22676
#
# Static dielectric constant tensor:
#      x y z
#    x 3.616270 0.000000 -0.090980 
#    y 0.000000 4.555300 0.000000 
#    z -0.090980 0.000000 4.243860 
# 
# 
# High freq. dielectric constant tensor:
#      x y z
#    x 1.873850 0.000000 0.003640 
#    y 0.000000 1.881470 0.000000 
#    z 0.003640 0.000000 1.859440 
# 
# From -- ./inp_files/177001.got.cif
#   From: 2010.06.25/outbox.cif.g09.slc.cpg/sg15_89_cif.got.tgz:177001.got - 2010.06.28 07:06:18.
