data_PCOD8136916
_publ_section_title
;
Structure prediction by ZEFSAII (Michael W. Deem and Ramdas Pophale) SiO2 
 PCOD8136916
Probable space group: C 2/C
;
_chemical_formula_sum "Si O2"
_cell_formula_units_Z 64
_cell_length_a 29.130641
_cell_length_b 8.769734
_cell_length_c 16.789279
_cell_angle_alpha 90.000000
_cell_angle_beta 128.944197
_cell_angle_gamma 90.000000
_cell_volume 3335.901999
_symmetry_space_group_name_H-M "C 2/C"
_symmetry_group_IT_number 15
_symmetry_cell_setting 'monoclinic'
loop_
_space_group_symop_operation_xyz
x,y,z
-x,y,1/2-z
-x,-y,-z
x,-y,1/2+z
1/2+x,1/2+y,z
1/2-x,1/2+y,1/2-z
1/2-x,1/2-y,-z
1/2+x,1/2-y,1/2+z
loop_
_atom_site_type_symbol
_atom_site_label
_atom_site_fract_x
_atom_site_fract_y
_atom_site_fract_z
Si Si1 0.721894 0.287972 0.347689
Si Si2 0.144394 0.957505 0.816185
Si Si3 0.135382 0.458607 0.816939
Si Si4 0.812620 0.721093 0.527224
Si Si5 0.068247 0.191528 0.809124
Si Si6 0.713315 0.357722 0.158442
Si Si7 0.654792 0.677264 0.048212
Si Si8 0.649921 0.186997 0.705250
O O1 0.704889 0.446218 0.371616
O O2 0.689272 0.150245 0.354511
O O3 0.701870 0.292852 0.233496
O O4 0.791652 0.266976 0.435620
O O5 0.146997 0.862210 0.900328
O O6 0.138462 0.848979 0.734123
O O7 0.088881 0.072352 0.763336
O O8 0.157821 0.564728 0.913256
O O9 0.080011 0.362105 0.789398
O O10 0.114484 0.557492 0.716541
O O11 0.750000 0.750000 0.500000
O O12 0.810645 0.730033 0.429378
O O13 0.000000 0.168508 0.750000
O O14 0.103205 0.155312 0.928690
O O15 0.680717 0.519363 0.111560
O O16 0.782833 0.372601 0.217519
O O17 0.629870 0.785086 0.092535
#
# Coordination Sequence:
#
# PCOD8136916 Si02
#       8
#     8   8   8   8   8   8   8   8
#     4  10  21  32  55  90 121 155 176 227 304 367
#     4  10  20  35  59  82 120 149 191 235 295 350
#     4  10  22  38  57  85 122 153 190 240 300 349
#     4  11  19  32  56  91 123 146 182 229 294 364
#     4  11  26  43  59  79 113 159 216 255 280 327
#     4  11  19  32  56  93 133 145 181 228 293 377
#     4  11  21  35  60  89 123 156 190 231 296 354
#     4  10  20  35  56  93 123 149 180 230 301 365
#
# _framework density 19.185217000000002
#
# number of rings (size 3 to 8) (size 9 to 14) (size 15 to 20)
#    0.000    1.500    6.250    0.000    1.750    2.000 
#    0.000    3.750    0.000    0.000    0.000    0.000 
#    0.000    0.000    0.000    0.000    0.000    0.000 
#
# Total GULP energy -396681.175959 kJ/mol
# GULP energy per Si atom -12396.286749 kJ/mol
# Density = 1.914155 g / cm^3
# Si number density = 19.185217 Si / 1000 Ang^3
#
#
#
# Elastic Constant Matrix: (Units=GPa)
#
#
# Indices 1 2 3 4 5 6 
#
# 1 61.4845 24.0983 46.8967 0.0000 4.2407 0.0000
# 2 24.0983 93.7967 27.7218 0.0000 1.1580 0.0000
# 3 46.8967 27.7218 73.5815 0.0000 -3.9970 0.0000
# 4 0.0000 0.0000 0.0000 17.3798 0.0000 -3.9956
# 5 4.2407 1.1580 -3.9970 0.0000 31.1193 0.0000
# 6 0.0000 0.0000 0.0000 -3.9956 0.0000 18.3293
#
#
#
# Elastic Compliance Matrix: (Units=1/GPa)
#
#
# Indices 1 2 3 4 5 6 
#
# 1 0.033678 -0.002368 -0.020963 0.000000 -0.007194 0.000000
# 2 -0.002368 0.012197 -0.003115 0.000000 -0.000531 0.000000
# 3 -0.020963 -0.003115 0.028485 0.000000 0.006631 0.000000
# 4 0.000000 0.000000 0.000000 0.060574 0.000000 0.013204
# 5 -0.007194 -0.000531 0.006631 0.000000 0.033986 0.000000
# 6 0.000000 0.000000 0.000000 0.013204 0.000000 0.057436
#
#
# Mechanical properties :
#
#
# Convention : Reuss Voigt Hill
#
# Bulk Modulus (GPa) = 46.58130 47.36626 46.97378
# Shear Modulus (GPa) = 17.45795 22.04209 19.75002
#
# Velocity S-wave (km/s) = 3.01984 3.39323 3.21197
# Velocity P-wave (km/s) = 6.04084 6.33203 6.18815
#
# Compressibility (1/GPa) = 0.02146784
#
# Stress axis : x y z
#
# Youngs Moduli (GPa) = 29.69313 81.98813 35.10666
#
# Poissons Ratio (x) = 0.19415 0.73594
# Poissons Ratio (y) = 0.07032 0.10935
# Poissons Ratio (z) = 0.62245 0.25537
#
# Static dielectric constant tensor:
#      x y z
#    x 3.553900 0.000000 -0.460210 
#    y 0.000000 3.822220 0.000000 
#    z -0.460210 0.000000 3.266210 
# 
# 
# High freq. dielectric constant tensor:
#      x y z
#    x 1.728620 0.000000 -0.043240 
#    y 0.000000 1.766910 0.000000 
#    z -0.043240 0.000000 1.707940 
# 
# From -- ./inp_files/224642.got.cif
#   From: 2010.06.25/outbox.cif.g09.slc.cpg/sg15_113_cif.got.tgz:224642.got - 2010.06.28 07:06:18.
