data_PCOD8136062
_publ_section_title
;
Structure prediction by ZEFSAII (Michael W. Deem and Ramdas Pophale) SiO2 
 PCOD8136062
Probable space group: C 2/C
;
_chemical_formula_sum "Si O2"
_cell_formula_units_Z 44
_cell_length_a 15.552248
_cell_length_b 12.199300
_cell_length_c 10.799777
_cell_angle_alpha 90.000000
_cell_angle_beta 82.347360
_cell_angle_gamma 90.000000
_cell_volume 2030.755086
_symmetry_space_group_name_H-M "C 2/C"
_symmetry_group_IT_number 15
_symmetry_cell_setting 'monoclinic'
loop_
_space_group_symop_operation_xyz
x,y,z
-x,y,1/2-z
-x,-y,-z
x,-y,1/2+z
1/2+x,1/2+y,z
1/2-x,1/2+y,1/2-z
1/2-x,1/2-y,-z
1/2+x,1/2-y,1/2+z
loop_
_atom_site_type_symbol
_atom_site_label
_atom_site_fract_x
_atom_site_fract_y
_atom_site_fract_z
Si Si1 0.906189 0.451541 0.044509
Si Si2 0.949768 0.209913 0.001866
Si Si3 0.088699 0.224859 0.157472
Si Si4 0.175079 0.453208 0.180541
Si Si5 0.500000 0.627706 0.750000
Si Si6 0.135767 0.037200 0.316868
O O1 0.872935 0.495504 0.184678
O O2 0.906400 0.321086 0.057655
O O3 0.847311 0.478738 0.937876
O O4 0.000000 0.500000 0.000000
O O5 0.947838 0.205764 0.853825
O O6 0.889191 0.111338 0.060885
O O7 0.051394 0.204177 0.026510
O O8 0.154113 0.326615 0.154018
O O9 0.138425 0.116352 0.195330
O O10 0.000000 0.247750 0.250000
O O11 0.276241 0.470886 0.183115
O O12 0.437946 0.552792 0.680765
#
# Coordination Sequence:
#
# PCOD8136062 Si02
#       6
#     8   8   8   8   4   8
#     4  12  25  46  74 104 147 188 245 294 365 429
#     4  11  24  45  75  99 142 195 239 287 364 435
#     4  10  19  47  71  94 142 197 223 280 373 422
#     4  12  26  42  75 107 139 188 242 304 354 419
#     4  12  26  42  74 106 138 192 246 284 360 446
#     4  11  25  45  73 100 146 185 240 295 363 422
#
# _framework density 21.666817000000002
#
# number of rings (size 3 to 8) (size 9 to 14) (size 15 to 20)
#    0.000    0.727    8.182    1.091    5.091    2.182 
#    0.000    1.818    0.000    0.000    0.000    0.000 
#    0.000    0.000    0.000    0.000    0.000    0.000 
#
# Total GULP energy -272730.780741 kJ/mol
# GULP energy per Si atom -12396.853670 kJ/mol
# Density = 2.161750 g / cm^3
# Si number density = 21.666817 Si / 1000 Ang^3
#
#
#
# Elastic Constant Matrix: (Units=GPa)
#
#
# Indices 1 2 3 4 5 6 
#
# 1 102.8645 36.3413 -2.0720 0.0000 -6.2525 0.0000
# 2 36.3413 76.1842 15.3866 0.0000 2.8442 0.0000
# 3 -2.0720 15.3866 117.6537 0.0000 1.6634 0.0000
# 4 0.0000 0.0000 0.0000 34.5625 0.0000 3.2032
# 5 -6.2525 2.8442 1.6634 0.0000 24.0179 0.0000
# 6 0.0000 0.0000 0.0000 3.2032 0.0000 45.0131
#
#
#
# Elastic Compliance Matrix: (Units=1/GPa)
#
#
# Indices 1 2 3 4 5 6 
#
# 1 0.012137 -0.006126 0.000961 0.000000 0.003819 0.000000
# 2 -0.006126 0.016627 -0.002234 0.000000 -0.003409 0.000000
# 3 0.000961 -0.002234 0.008810 0.000000 -0.000095 0.000000
# 4 0.000000 0.000000 0.000000 0.029125 0.000000 -0.002073
# 5 0.003819 -0.003409 -0.000095 0.000000 0.043040 0.000000
# 6 0.000000 0.000000 0.000000 -0.002073 0.000000 0.022363
#
#
# Mechanical properties :
#
#
# Convention : Reuss Voigt Hill
#
# Bulk Modulus (GPa) = 43.90744 44.00157 43.95451
# Shear Modulus (GPa) = 32.36376 37.18846 34.77611
#
# Velocity S-wave (km/s) = 3.86904 4.14741 4.01064
# Velocity P-wave (km/s) = 6.34571 6.57929 6.46356
#
# Compressibility (1/GPa) = 0.02277518
#
# Stress axis : x y z
#
# Youngs Moduli (GPa) = 82.38988 60.14321 113.50776
#
# Poissons Ratio (x) = 0.36846 -0.10908
# Poissons Ratio (y) = 0.50475 0.25359
# Poissons Ratio (z) = -0.07917 0.13437
#
# Static dielectric constant tensor:
#      x y z
#    x 4.175760 0.000000 0.486840 
#    y 0.000000 4.013550 0.000000 
#    z 0.486840 0.000000 4.409740 
# 
# 
# High freq. dielectric constant tensor:
#      x y z
#    x 1.834610 0.000000 0.018640 
#    y 0.000000 1.853830 0.000000 
#    z 0.018640 0.000000 1.862420 
# 
# From -- ./inp_files/94988.got.cif
#   From: 2010.06.25/outbox.cif.g09.slc.cpg/sg15_48_cif.got.tgz:94988.got - 2010.06.28 07:06:18.
