data_PCOD8136894
_publ_section_title
;
Structure prediction by ZEFSAII (Michael W. Deem and Ramdas Pophale) SiO2 
 PCOD8136894
Probable space group: C 2/C
;
_chemical_formula_sum "Si O2"
_cell_formula_units_Z 40
_cell_length_a 8.341473
_cell_length_b 31.147723
_cell_length_c 11.857667
_cell_angle_alpha 90.000000
_cell_angle_beta 40.370359
_cell_angle_gamma 90.000000
_cell_volume 1995.535824
_symmetry_space_group_name_H-M "C 2/C"
_symmetry_group_IT_number 15
_symmetry_cell_setting 'monoclinic'
loop_
_space_group_symop_operation_xyz
x,y,z
-x,y,1/2-z
-x,-y,-z
x,-y,1/2+z
1/2+x,1/2+y,z
1/2-x,1/2+y,1/2-z
1/2-x,1/2-y,-z
1/2+x,1/2-y,1/2+z
loop_
_atom_site_type_symbol
_atom_site_label
_atom_site_fract_x
_atom_site_fract_y
_atom_site_fract_z
Si Si1 0.495250 0.545337 0.064173
Si Si2 0.295540 0.106636 0.763289
Si Si3 0.390859 0.953205 0.548648
Si Si4 0.725077 0.698361 0.712685
Si Si5 0.737118 0.772944 0.889210
O O1 0.233253 0.557291 0.263344
O O2 0.697715 0.544940 0.052031
O O3 0.500000 0.500000 0.000000
O O4 0.559377 0.580764 0.936306
O O5 0.500000 0.112061 0.750000
O O6 0.403290 0.082372 0.594593
O O7 0.185700 0.152751 0.791871
O O8 0.500000 0.000000 0.500000
O O9 0.500000 0.707349 0.750000
O O10 0.725559 0.737119 0.799461
O O11 0.995477 0.696924 0.506254
O O12 0.000000 0.799475 0.750000
O O13 0.750000 0.750000 0.000000
#
# Coordination Sequence:
#
# PCOD8136894 Si02
#       5
#     8   8   8   8   8
#     4  10  20  35  57  82 112 156 199 250 301 356
#     4  10  21  38  56  83 119 160 203 248 298 369
#     4  10  20  35  56  83 112 153 204 246 299 360
#     4  11  22  39  62  93 124 153 196 258 307 356
#     4   9  19  39  65  87 114 160 197 233 300 378
#
# _framework density 20.044743
#
# number of rings (size 3 to 8) (size 9 to 14) (size 15 to 20)
#    0.000    2.000    2.000    2.400    0.000    1.600 
#   14.400    0.000    0.000    0.000    0.000    0.000 
#    0.000    0.000    0.000    0.000    0.000    0.000 
#
# Total GULP energy -247836.432698 kJ/mol
# GULP energy per Si atom -12391.821635 kJ/mol
# Density = 1.999912 g / cm^3
# Si number density = 20.044743 Si / 1000 Ang^3
#
#
#
# Elastic Constant Matrix: (Units=GPa)
#
#
# Indices 1 2 3 4 5 6 
#
# 1 75.6901 29.0394 48.8964 0.0000 -11.0471 0.0000
# 2 29.0394 100.0060 46.8564 0.0000 0.1060 0.0000
# 3 48.8964 46.8564 163.4512 0.0000 -7.3097 0.0000
# 4 0.0000 0.0000 0.0000 34.0804 0.0000 1.7343
# 5 -11.0471 0.1060 -7.3097 0.0000 30.9365 0.0000
# 6 0.0000 0.0000 0.0000 1.7343 0.0000 29.1304
#
#
#
# Elastic Compliance Matrix: (Units=1/GPa)
#
#
# Indices 1 2 3 4 5 6 
#
# 1 0.017966 -0.003256 -0.004198 0.000000 0.005435 0.000000
# 2 -0.003256 0.012162 -0.002594 0.000000 -0.001817 0.000000
# 3 -0.004198 -0.002594 0.008137 0.000000 0.000432 0.000000
# 4 0.000000 0.000000 0.000000 0.029432 0.000000 -0.001752
# 5 0.005435 -0.001817 0.000432 0.000000 0.034373 0.000000
# 6 0.000000 0.000000 0.000000 -0.001752 0.000000 0.034433
#
#
# Mechanical properties :
#
#
# Convention : Reuss Voigt Hill
#
# Bulk Modulus (GPa) = 55.03712 65.41463 60.22588
# Shear Modulus (GPa) = 30.74002 33.11981 31.92992
#
# Velocity S-wave (km/s) = 3.92033 4.06925 3.99549
# Velocity P-wave (km/s) = 6.92883 7.40159 7.16911
#
# Compressibility (1/GPa) = 0.01816955
#
# Stress axis : x y z
#
# Youngs Moduli (GPa) = 55.66031 82.22336 122.89813
#
# Poissons Ratio (x) = 0.26769 0.51595
# Poissons Ratio (y) = 0.18121 0.31877
# Poissons Ratio (z) = 0.23367 0.21327
#
# Static dielectric constant tensor:
#      x y z
#    x 3.645340 0.000000 -0.223380 
#    y 0.000000 3.437820 0.000000 
#    z -0.223380 0.000000 4.757530 
# 
# 
# High freq. dielectric constant tensor:
#      x y z
#    x 1.774710 0.000000 -0.002100 
#    y 0.000000 1.765770 0.000000 
#    z -0.002100 0.000000 1.802840 
# 
# From -- ./inp_files/23621.got.cif
#   From: 2010.06.25/outbox.cif.g09.slc.cpg/sg15_12_cif.got.tgz:23621.got - 2010.06.28 07:06:18.
