data_PCOD8136802
_publ_section_title
;
Structure prediction by ZEFSAII (Michael W. Deem and Ramdas Pophale) SiO2 
 PCOD8136802
Probable space group: C 2/C
;
_chemical_formula_sum "Si O2"
_cell_formula_units_Z 52
_cell_length_a 8.362618
_cell_length_b 30.351260
_cell_length_c 13.865892
_cell_angle_alpha 90.000000
_cell_angle_beta 47.754836
_cell_angle_gamma 90.000000
_cell_volume 2605.312403
_symmetry_space_group_name_H-M "C 2/C"
_symmetry_group_IT_number 15
_symmetry_cell_setting 'monoclinic'
loop_
_space_group_symop_operation_xyz
x,y,z
-x,y,1/2-z
-x,-y,-z
x,-y,1/2+z
1/2+x,1/2+y,z
1/2-x,1/2+y,1/2-z
1/2-x,1/2-y,-z
1/2+x,1/2-y,1/2+z
loop_
_atom_site_type_symbol
_atom_site_label
_atom_site_fract_x
_atom_site_fract_y
_atom_site_fract_z
Si Si1 0.125480 0.536760 0.007880
Si Si2 0.450433 0.457855 0.081986
Si Si3 0.154713 0.283322 0.900859
Si Si4 0.022317 0.117169 0.401843
Si Si5 0.345219 0.882480 0.600641
Si Si6 0.550565 0.283534 0.887240
Si Si7 0.500000 0.992294 0.250000
O O1 0.081582 0.525794 0.136579
O O2 0.044226 0.584685 0.010239
O O3 0.388483 0.538583 0.890010
O O4 0.000000 0.500000 0.000000
O O5 0.194440 0.460430 0.211610
O O6 0.500000 0.500000 0.000000
O O7 0.512986 0.413803 0.998426
O O8 0.062213 0.332859 0.932118
O O9 0.351100 0.281703 0.895485
O O10 0.236743 0.269993 0.760489
O O11 0.972090 0.249643 0.012994
O O12 0.797504 0.112324 0.436987
O O13 0.212158 0.104547 0.250498
O O14 0.064530 0.166841 0.422233
#
# Coordination Sequence:
#
# PCOD8136802 Si02
#       7
#     8   8   8   8   8   8   4
#     4  11  22  35  54  78 105 139 178 220 267 317
#     4  10  20  35  52  74 104 135 172 216 261 316
#     4   8  14  25  44  69 100 132 173 223 269 317
#     4   9  17  30  50  74 103 138 179 220 262 316
#     4   9  16  29  50  75 102 136 177 221 265 315
#     4   8  14  26  44  70  99 134 176 222 268 314
#     4  10  22  38  54  76 106 138 176 218 268 320
#
# _framework density 19.959219000000001
#
# number of rings (size 3 to 8) (size 9 to 14) (size 15 to 20)
#    0.000    2.769    0.000    5.538    0.000    1.846 
#    0.000    6.154    0.000    0.923    0.000    0.000 
#    0.000    0.000    0.000    0.000    0.000   10.769 
#
# Total GULP energy -322140.728305 kJ/mol
# GULP energy per Si atom -12390.028012 kJ/mol
# Density = 1.991379 g / cm^3
# Si number density = 19.959219 Si / 1000 Ang^3
#
#
#
# Elastic Constant Matrix: (Units=GPa)
#
#
# Indices 1 2 3 4 5 6 
#
# 1 92.6233 36.5398 25.5254 0.0000 -24.5585 0.0000
# 2 36.5398 132.7018 55.9334 0.0000 -8.3012 0.0000
# 3 25.5254 55.9334 67.5410 0.0000 -9.2282 0.0000
# 4 0.0000 0.0000 0.0000 36.7511 0.0000 4.1458
# 5 -24.5585 -8.3012 -9.2282 0.0000 23.0609 0.0000
# 6 0.0000 0.0000 0.0000 4.1458 0.0000 25.3409
#
#
#
# Elastic Compliance Matrix: (Units=1/GPa)
#
#
# Indices 1 2 3 4 5 6 
#
# 1 0.016643 -0.002845 -0.001747 0.000000 0.016000 0.000000
# 2 -0.002845 0.012066 -0.009243 0.000000 -0.002385 0.000000
# 3 -0.001747 -0.009243 0.023708 0.000000 0.004299 0.000000
# 4 0.000000 0.000000 0.000000 0.027722 0.000000 -0.004535
# 5 0.016000 -0.002385 0.004299 0.000000 0.061264 0.000000
# 6 0.000000 0.000000 0.000000 -0.004535 0.000000 0.040204
#
#
# Mechanical properties :
#
#
# Convention : Reuss Voigt Hill
#
# Bulk Modulus (GPa) = 40.41103 58.76258 49.58680
# Shear Modulus (GPa) = 22.98583 28.68842 25.83713
#
# Velocity S-wave (km/s) = 3.39726 3.79536 3.60181
# Velocity P-wave (km/s) = 5.97321 6.97936 6.49580
#
# Compressibility (1/GPa) = 0.02474572
#
# Stress axis : x y z
#
# Youngs Moduli (GPa) = 60.08628 82.87964 42.18017
#
# Poissons Ratio (x) = 0.23581 0.07370
# Poissons Ratio (y) = 0.17096 0.38986
# Poissons Ratio (z) = 0.10499 0.76603
#
# Static dielectric constant tensor:
#      x y z
#    x 3.897120 0.000000 -0.297890 
#    y 0.000000 4.435580 0.000000 
#    z -0.297890 0.000000 3.775800 
# 
# 
# High freq. dielectric constant tensor:
#      x y z
#    x 1.759490 0.000000 -0.005040 
#    y 0.000000 1.778130 0.000000 
#    z -0.005040 0.000000 1.756080 
# 
# From -- ./inp_files/139238.got.cif
#   From: 2010.06.25/outbox.cif.g09.slc.cpg/sg15_70_cif.got.tgz:139238.got - 2010.06.28 07:06:18.
