data_PCOD8136889
_publ_section_title
;
Structure prediction by ZEFSAII (Michael W. Deem and Ramdas Pophale) SiO2 
 PCOD8136889
Probable space group: C 2/C
;
_chemical_formula_sum "Si O2"
_cell_formula_units_Z 48
_cell_length_a 27.838684
_cell_length_b 15.071282
_cell_length_c 8.320736
_cell_angle_alpha 90.000000
_cell_angle_beta 135.693550
_cell_angle_gamma 90.000000
_cell_volume 2438.509602
_symmetry_space_group_name_H-M "C 2/C"
_symmetry_group_IT_number 15
_symmetry_cell_setting 'monoclinic'
loop_
_space_group_symop_operation_xyz
x,y,z
-x,y,1/2-z
-x,-y,-z
x,-y,1/2+z
1/2+x,1/2+y,z
1/2-x,1/2+y,1/2-z
1/2-x,1/2-y,-z
1/2+x,1/2-y,1/2+z
loop_
_atom_site_type_symbol
_atom_site_label
_atom_site_fract_x
_atom_site_fract_y
_atom_site_fract_z
Si Si1 0.792985 0.436247 0.048903
Si Si2 0.673631 0.237701 0.746154
Si Si3 0.140363 0.089673 0.310177
Si Si4 0.076992 0.928492 0.993030
Si Si5 0.795995 0.382075 0.688076
Si Si6 0.841624 0.212787 0.658944
O O1 0.844352 0.364844 0.257257
O O2 0.822912 0.534855 0.146357
O O3 0.717735 0.436910 0.949835
O O4 0.788173 0.412216 0.851767
O O5 0.624421 0.309202 0.716163
O O6 0.668512 0.253865 0.545678
O O7 0.750000 0.250000 0.000000
O O8 0.131263 0.082446 0.478636
O O9 0.086052 0.024369 0.095301
O O10 0.000000 0.917889 0.750000
O O11 0.091771 0.849640 0.157197
O O12 0.848296 0.299371 0.790352
O O13 0.723002 0.348214 0.445323
#
# Coordination Sequence:
#
# PCOD8136889 Si02
#       6
#     8   8   8   8   8   8
#     4  11  20  35  54  88 115 151 176 231 294 354
#     4  10  20  35  56  82 113 146 185 231 296 344
#     4  11  21  36  53  79 112 151 193 235 272 339
#     4  12  25  39  56  79 114 162 203 235 274 325
#     4  11  21  32  57  83 119 144 184 227 298 345
#     4  11  22  36  54  83 114 153 190 236 280 343
#
# _framework density 19.684155000000001
#
# number of rings (size 3 to 8) (size 9 to 14) (size 15 to 20)
#    0.000    1.000    5.000    4.500    7.000    0.000 
#    0.000    0.000    0.000    0.000    0.000   11.667 
#    0.000    0.000    0.000    0.000    0.000    0.000 
#
# Total GULP energy -297528.759409 kJ/mol
# GULP energy per Si atom -12397.031642 kJ/mol
# Density = 1.963935 g / cm^3
# Si number density = 19.684155 Si / 1000 Ang^3
#
#
#
# Elastic Constant Matrix: (Units=GPa)
#
#
# Indices 1 2 3 4 5 6 
#
# 1 53.9292 28.4828 29.2535 0.0000 -26.4768 0.0000
# 2 28.4828 198.3493 59.1327 0.0000 -9.2346 0.0000
# 3 29.2535 59.1327 93.4843 0.0000 -10.6324 0.0000
# 4 0.0000 0.0000 0.0000 34.7778 0.0000 -12.1500
# 5 -26.4768 -9.2346 -10.6324 0.0000 29.0153 0.0000
# 6 0.0000 0.0000 0.0000 -12.1500 0.0000 24.6482
#
#
#
# Elastic Compliance Matrix: (Units=1/GPa)
#
#
# Indices 1 2 3 4 5 6 
#
# 1 0.039817 -0.001955 -0.007473 0.000000 0.032973 0.000000
# 2 -0.001955 0.006318 -0.003505 0.000000 -0.001057 0.000000
# 3 -0.007473 -0.003505 0.014974 0.000000 -0.002448 0.000000
# 4 0.000000 0.000000 0.000000 0.034736 0.000000 0.017123
# 5 0.032973 -0.001057 -0.002448 0.000000 0.063319 0.000000
# 6 0.000000 0.000000 0.000000 0.017123 0.000000 0.049011
#
#
# Mechanical properties :
#
#
# Convention : Reuss Voigt Hill
#
# Bulk Modulus (GPa) = 28.37384 64.38897 46.38140
# Shear Modulus (GPa) = 20.34259 32.94784 26.64522
#
# Velocity S-wave (km/s) = 3.21822 4.09568 3.68317
# Velocity P-wave (km/s) = 5.31555 7.42618 6.45768
#
# Compressibility (1/GPa) = 0.03524373
#
# Stress axis : x y z
#
# Youngs Moduli (GPa) = 25.11474 158.27806 66.78154
#
# Poissons Ratio (x) = 0.30937 0.49908
# Poissons Ratio (y) = 0.04909 0.23407
# Poissons Ratio (z) = 0.18769 0.55476
#
# Static dielectric constant tensor:
#      x y z
#    x 3.351000 0.000000 -0.350990 
#    y 0.000000 4.650930 0.000000 
#    z -0.350990 0.000000 3.290720 
# 
# 
# High freq. dielectric constant tensor:
#      x y z
#    x 1.733520 0.000000 -0.052100 
#    y 0.000000 1.797410 0.000000 
#    z -0.052100 0.000000 1.734430 
# 
# From -- ./inp_files/70014.got.cif
#   From: 2010.06.25/outbox.cif.g09.slc.cpg/sg15_36_cif.got.tgz:70014.got - 2010.06.28 07:06:18.
