data_PCOD8136119
_publ_section_title
;
Structure prediction by ZEFSAII (Michael W. Deem and Ramdas Pophale) SiO2 
 PCOD8136119
Probable space group: C 2/C
;
_chemical_formula_sum "Si O2"
_cell_formula_units_Z 48
_cell_length_a 24.545635
_cell_length_b 19.570763
_cell_length_c 8.633573
_cell_angle_alpha 90.000000
_cell_angle_beta 149.551124
_cell_angle_gamma 90.000000
_cell_volume 2101.759073
_symmetry_space_group_name_H-M "C 2/C"
_symmetry_group_IT_number 15
_symmetry_cell_setting 'monoclinic'
loop_
_space_group_symop_operation_xyz
x,y,z
-x,y,1/2-z
-x,-y,-z
x,-y,1/2+z
1/2+x,1/2+y,z
1/2-x,1/2+y,1/2-z
1/2-x,1/2-y,-z
1/2+x,1/2-y,1/2+z
loop_
_atom_site_type_symbol
_atom_site_label
_atom_site_fract_x
_atom_site_fract_y
_atom_site_fract_z
Si Si1 0.500000 0.518709 0.750000
Si Si2 0.000000 0.364589 0.250000
Si Si3 0.434321 0.593412 0.308382
Si Si4 0.839286 0.840572 0.114361
Si Si5 0.205074 0.413935 0.237651
Si Si6 0.351939 0.812558 0.632314
Si Si7 0.804491 0.438126 0.926659
O O1 0.425585 0.566934 0.463470
O O2 0.573495 0.472535 0.820974
O O3 0.052135 0.315881 0.507751
O O4 0.088814 0.413229 0.395810
O O5 0.540638 0.637972 0.534696
O O6 0.318657 0.628747 0.004296
O O7 0.844488 0.765040 0.052908
O O8 0.760597 0.838320 0.068725
O O9 0.798013 0.894168 0.884791
O O10 0.174483 0.429724 0.338910
O O11 0.211133 0.483086 0.153112
O O12 0.122008 0.361985 0.950135
#
# Coordination Sequence:
#
# PCOD8136119 Si02
#       7
#     4   4   8   8   8   8   8
#     4  10  20  31  54  89 124 160 198 236 304 387
#     4  10  24  47  68  87 122 172 222 272 326 379
#     4  11  20  35  59  90 128 163 196 250 321 380
#     4  10  22  41  64  94 131 170 213 258 315 389
#     4  12  24  40  65  97 129 164 213 271 327 387
#     4  10  24  43  64  92 127 172 222 264 315 381
#     4  11  24  42  67  97 128 166 218 271 321 385
#
# _framework density 22.838013
#
# number of rings (size 3 to 8) (size 9 to 14) (size 15 to 20)
#    0.000    1.333    0.000    7.000    0.000    8.667 
#    0.000    3.333    0.000    0.000    0.000    0.000 
#    0.000    0.000    0.000    0.000    0.000    0.000 
#
# Total GULP energy -297483.804259 kJ/mol
# GULP energy per Si atom -12395.158511 kJ/mol
# Density = 2.278603 g / cm^3
# Si number density = 22.838013 Si / 1000 Ang^3
#
#
#
# Elastic Constant Matrix: (Units=GPa)
#
#
# Indices 1 2 3 4 5 6 
#
# 1 48.8527 12.6677 37.4863 0.0000 -9.3300 0.0000
# 2 12.6677 129.3999 35.2670 0.0000 -13.7563 0.0000
# 3 37.4863 35.2670 91.6878 0.0000 -4.0220 0.0000
# 4 0.0000 0.0000 0.0000 27.8367 0.0000 -7.5514
# 5 -9.3300 -13.7563 -4.0220 0.0000 46.1355 0.0000
# 6 0.0000 0.0000 0.0000 -7.5514 0.0000 33.2421
#
#
#
# Elastic Compliance Matrix: (Units=1/GPa)
#
#
# Indices 1 2 3 4 5 6 
#
# 1 0.031139 0.001049 -0.012894 0.000000 0.005486 0.000000
# 2 0.001049 0.008917 -0.003747 0.000000 0.002544 0.000000
# 3 -0.012894 -0.003747 0.017523 0.000000 -0.002197 0.000000
# 4 0.000000 0.000000 0.000000 0.038283 0.000000 0.008696
# 5 0.005486 0.002544 -0.002197 0.000000 0.023352 0.000000
# 6 0.000000 0.000000 0.000000 0.008696 0.000000 0.032058
#
#
# Mechanical properties :
#
#
# Convention : Reuss Voigt Hill
#
# Bulk Modulus (GPa) = 37.88566 48.97583 43.43075
# Shear Modulus (GPa) = 26.14309 33.74417 29.94363
#
# Velocity S-wave (km/s) = 3.38704 3.84805 3.62488
# Velocity P-wave (km/s) = 5.64986 6.42143 6.04796
#
# Compressibility (1/GPa) = 0.02639521
#
# Stress axis : x y z
#
# Youngs Moduli (GPa) = 32.11357 112.14505 57.06714
#
# Poissons Ratio (x) = -0.11764 0.73583
# Poissons Ratio (y) = -0.03369 0.21384
# Poissons Ratio (z) = 0.41408 0.42022
#
# Static dielectric constant tensor:
#      x y z
#    x 4.007720 0.000000 -0.114430 
#    y 0.000000 3.902040 0.000000 
#    z -0.114430 0.000000 4.375090 
# 
# 
# High freq. dielectric constant tensor:
#      x y z
#    x 1.901760 0.000000 -0.005540 
#    y 0.000000 1.884950 0.000000 
#    z -0.005540 0.000000 1.913820 
# 
# From -- ./inp_files/67557.got.cif
#   From: 2010.06.25/outbox.cif.g09.slc.cpg/sg15_34_cif.got.tgz:67557.got - 2010.06.28 07:06:18.
