data_PCOD8136248
_publ_section_title
;
Structure prediction by ZEFSAII (Michael W. Deem and Ramdas Pophale) SiO2 
 PCOD8136248
Probable space group: C 2/C
;
_chemical_formula_sum "Si O2"
_cell_formula_units_Z 56
_cell_length_a 10.720338
_cell_length_b 17.932147
_cell_length_c 17.767622
_cell_angle_alpha 90.000000
_cell_angle_beta 126.564726
_cell_angle_gamma 90.000000
_cell_volume 2743.375986
_symmetry_space_group_name_H-M "C 2/C"
_symmetry_group_IT_number 15
_symmetry_cell_setting 'monoclinic'
loop_
_space_group_symop_operation_xyz
x,y,z
-x,y,1/2-z
-x,-y,-z
x,-y,1/2+z
1/2+x,1/2+y,z
1/2-x,1/2+y,1/2-z
1/2-x,1/2-y,-z
1/2+x,1/2-y,1/2+z
loop_
_atom_site_type_symbol
_atom_site_label
_atom_site_fract_x
_atom_site_fract_y
_atom_site_fract_z
Si Si1 0.238676 0.732291 0.857147
Si Si2 0.245613 0.010552 0.246764
Si Si3 0.436058 0.417029 0.598506
Si Si4 0.467769 0.259030 0.857590
Si Si5 0.563981 0.896185 0.107294
Si Si6 0.780839 0.428208 0.112700
Si Si7 0.148849 0.382800 0.598929
O O1 0.134469 0.763812 0.753160
O O2 0.284843 0.645451 0.866037
O O3 0.379855 0.792527 0.910328
O O4 0.144785 0.736077 0.901908
O O5 0.280316 0.942944 0.318623
O O6 0.301376 0.992996 0.181871
O O7 0.344718 0.080898 0.315432
O O8 0.061222 0.025087 0.176486
O O9 0.524931 0.341122 0.602129
O O10 0.345496 0.452613 0.495100
O O11 0.317553 0.397817 0.622679
O O12 0.398627 0.192477 0.884358
O O13 0.448032 0.913171 0.135611
O O14 0.488285 0.919949 0.000133
#
# Coordination Sequence:
#
# PCOD8136248 Si02
#       7
#     8   8   8   8   8   8   8
#     4   9  15  29  51  72  95 125 157 197 246 293
#     4  12  20  30  46  72 106 134 160 194 236 296
#     4  10  20  33  50  73 101 131 162 198 242 290
#     4   9  15  29  51  72  95 125 157 197 246 293
#     4  10  20  33  50  73 101 131 162 198 242 290
#     4  10  20  33  50  73 101 131 162 198 242 290
#     4  10  20  33  50  73 101 131 162 198 242 290
#
# _framework density 20.412806
#
# number of rings (size 3 to 8) (size 9 to 14) (size 15 to 20)
#    0.000    2.000    2.857    2.571    0.000    3.429 
#    0.000    0.000    0.000    0.000    0.000   16.000 
#    0.000   36.571    0.000    0.000    0.000    0.000 
#
# Total GULP energy -346872.657896 kJ/mol
# GULP energy per Si atom -12388.309211 kJ/mol
# Density = 2.036635 g / cm^3
# Si number density = 20.412806 Si / 1000 Ang^3
#
#
#
# Elastic Constant Matrix: (Units=GPa)
#
#
# Indices 1 2 3 4 5 6 
#
# 1 20.4985 24.7766 22.4427 0.0000 1.1250 0.0000
# 2 24.7766 102.1386 37.1287 0.0000 4.7120 0.0000
# 3 22.4427 37.1287 104.9159 0.0000 7.0556 0.0000
# 4 0.0000 0.0000 0.0000 32.1527 0.0000 1.5301
# 5 1.1250 4.7120 7.0556 0.0000 25.4192 0.0000
# 6 0.0000 0.0000 0.0000 1.5301 0.0000 26.8497
#
#
#
# Elastic Compliance Matrix: (Units=1/GPa)
#
#
# Indices 1 2 3 4 5 6 
#
# 1 0.080079 -0.015211 -0.011921 0.000000 0.002584 0.000000
# 2 -0.015211 0.014150 -0.001654 0.000000 -0.001491 0.000000
# 3 -0.011921 -0.001654 0.012850 0.000000 -0.002733 0.000000
# 4 0.000000 0.000000 0.000000 0.031186 0.000000 -0.001777
# 5 0.002584 -0.001491 -0.002733 0.000000 0.040261 0.000000
# 6 0.000000 0.000000 0.000000 -0.001777 0.000000 0.037346
#
#
# Mechanical properties :
#
#
# Convention : Reuss Voigt Hill
#
# Bulk Modulus (GPa) = 20.19831 44.02768 32.11300
# Shear Modulus (GPa) = 17.24454 26.43132 21.83793
#
# Velocity S-wave (km/s) = 2.90968 3.60229 3.27435
# Velocity P-wave (km/s) = 4.60486 6.23839 5.48280
#
# Compressibility (1/GPa) = 0.04950909
#
# Stress axis : x y z
#
# Youngs Moduli (GPa) = 12.48762 70.66912 77.81903
#
# Poissons Ratio (x) = 1.07498 0.92764
# Poissons Ratio (y) = 0.18996 0.12868
# Poissons Ratio (z) = 0.14886 0.11685
#
# Static dielectric constant tensor:
#      x y z
#    x 2.984710 0.000000 0.052370 
#    y 0.000000 3.972250 0.000000 
#    z 0.052370 0.000000 3.916830 
# 
# 
# High freq. dielectric constant tensor:
#      x y z
#    x 1.693750 0.000000 0.003810 
#    y 0.000000 1.799730 0.000000 
#    z 0.003810 0.000000 1.831990 
# 
# From -- ./inp_files/153447.got.cif
#   From: 2010.06.25/outbox.cif.g09.slc.cpg/sg15_77_cif.got.tgz:153447.got - 2010.06.28 07:06:18.
