data_PCOD8136529
_publ_section_title
;
Structure prediction by ZEFSAII (Michael W. Deem and Ramdas Pophale) SiO2 
 PCOD8136529
Probable space group: C 2/C
;
_chemical_formula_sum "Si O2"
_cell_formula_units_Z 52
_cell_length_a 30.359629
_cell_length_b 11.447261
_cell_length_c 12.847066
_cell_angle_alpha 90.000000
_cell_angle_beta 141.931389
_cell_angle_gamma 90.000000
_cell_volume 2753.016459
_symmetry_space_group_name_H-M "C 2/C"
_symmetry_group_IT_number 15
_symmetry_cell_setting 'monoclinic'
loop_
_space_group_symop_operation_xyz
x,y,z
-x,y,1/2-z
-x,-y,-z
x,-y,1/2+z
1/2+x,1/2+y,z
1/2-x,1/2+y,1/2-z
1/2-x,1/2-y,-z
1/2+x,1/2-y,1/2+z
loop_
_atom_site_type_symbol
_atom_site_label
_atom_site_fract_x
_atom_site_fract_y
_atom_site_fract_z
Si Si1 0.681337 0.546701 0.209106
Si Si2 0.700836 0.913579 0.959142
Si Si3 0.567149 0.054410 0.685319
Si Si4 0.759813 0.179024 0.368106
Si Si5 0.164709 0.774367 0.849576
Si Si6 0.500000 0.176692 0.750000
Si Si7 0.366934 0.311720 0.471036
O O1 0.759826 0.506031 0.392951
O O2 0.687651 0.621229 0.116423
O O3 0.643814 0.624429 0.228343
O O4 0.634628 0.433919 0.093300
O O5 0.739891 0.914974 0.919674
O O6 0.618822 0.945377 0.795018
O O7 0.698263 0.785083 0.001848
O O8 0.615001 0.161864 0.726422
O O9 0.540824 0.093400 0.747960
O O10 0.500000 0.000000 0.500000
O O11 0.689383 0.221657 0.179489
O O12 0.250000 0.750000 0.000000
O O13 0.146230 0.823006 0.929688
O O14 0.444189 0.260174 0.587590
#
# Coordination Sequence:
#
# PCOD8136529 Si02
#       7
#     8   8   8   8   8   4   8
#     4  11  20  34  59  87 110 154 190 247 293 340
#     4  10  21  35  55  85 117 147 191 241 291 353
#     4  11  23  38  61  84 119 156 192 242 302 355
#     4  10  20  34  55  86 115 144 189 244 293 343
#     4  11  20  38  59  92 116 146 208 246 288 364
#     4  10  22  42  54  80 118 160 196 230 294 368
#     4  10  21  37  58  80 119 155 192 242 299 345
#
# _framework density 18.888372
#
# number of rings (size 3 to 8) (size 9 to 14) (size 15 to 20)
#    0.000    1.538    3.077    2.769    0.000    1.231 
#    0.000    4.615    0.000    0.000    0.000    0.000 
#    0.000    0.000    0.000    0.000    0.000    0.000 
#
# Total GULP energy -322340.380408 kJ/mol
# GULP energy per Si atom -12397.706939 kJ/mol
# Density = 1.884538 g / cm^3
# Si number density = 18.888372 Si / 1000 Ang^3
#
#
#
# Elastic Constant Matrix: (Units=GPa)
#
#
# Indices 1 2 3 4 5 6 
#
# 1 78.7153 41.6974 29.6366 0.0000 -8.0482 0.0000
# 2 41.6974 93.9774 50.4770 0.0000 3.7661 0.0000
# 3 29.6366 50.4770 101.3579 0.0000 7.2804 0.0000
# 4 0.0000 0.0000 0.0000 26.3129 0.0000 -9.7786
# 5 -8.0482 3.7661 7.2804 0.0000 36.3699 0.0000
# 6 0.0000 0.0000 0.0000 -9.7786 0.0000 19.3974
#
#
#
# Elastic Compliance Matrix: (Units=1/GPa)
#
#
# Indices 1 2 3 4 5 6 
#
# 1 0.017672 -0.006926 -0.002080 0.000000 0.005044 0.000000
# 2 -0.006926 0.017241 -0.006415 0.000000 -0.002034 0.000000
# 3 -0.002080 -0.006415 0.013854 0.000000 -0.002569 0.000000
# 4 0.000000 0.000000 0.000000 0.046765 0.000000 0.023575
# 5 0.005044 -0.002034 -0.002569 0.000000 0.029336 0.000000
# 6 0.000000 0.000000 0.000000 0.023575 0.000000 0.063438
#
#
# Mechanical properties :
#
#
# Convention : Reuss Voigt Hill
#
# Bulk Modulus (GPa) = 55.79072 57.51915 56.65494
# Shear Modulus (GPa) = 22.21018 26.56538 24.38778
#
# Velocity S-wave (km/s) = 3.43281 3.75432 3.59716
# Velocity P-wave (km/s) = 6.73153 7.02222 6.87841
#
# Compressibility (1/GPa) = 0.01792413
#
# Stress axis : x y z
#
# Youngs Moduli (GPa) = 56.58783 58.00201 72.18346
#
# Poissons Ratio (x) = 0.40169 0.15017
# Poissons Ratio (y) = 0.39190 0.46305
# Poissons Ratio (z) = 0.11773 0.37208
#
# Static dielectric constant tensor:
#      x y z
#    x 3.478150 0.000000 -0.066610 
#    y 0.000000 3.715050 0.000000 
#    z -0.066610 0.000000 3.640370 
# 
# 
# High freq. dielectric constant tensor:
#      x y z
#    x 1.727190 0.000000 -0.012870 
#    y 0.000000 1.745440 0.000000 
#    z -0.012870 0.000000 1.729710 
# 
# From -- ./inp_files/126410.got.cif
#   From: 2010.06.25/outbox.cif.g09.slc.cpg/sg15_64_cif.got.tgz:126410.got - 2010.06.28 07:06:18.
