data_PCOD8136768
_publ_section_title
;
Structure prediction by ZEFSAII (Michael W. Deem and Ramdas Pophale) SiO2 
 PCOD8136768
Probable space group: C 2/C
;
_chemical_formula_sum "Si O2"
_cell_formula_units_Z 64
_cell_length_a 35.494453
_cell_length_b 8.191363
_cell_length_c 17.135538
_cell_angle_alpha 90.000000
_cell_angle_beta 40.634628
_cell_angle_gamma 90.000000
_cell_volume 3244.522507
_symmetry_space_group_name_H-M "C 2/C"
_symmetry_group_IT_number 15
_symmetry_cell_setting 'monoclinic'
loop_
_space_group_symop_operation_xyz
x,y,z
-x,y,1/2-z
-x,-y,-z
x,-y,1/2+z
1/2+x,1/2+y,z
1/2-x,1/2+y,1/2-z
1/2-x,1/2-y,-z
1/2+x,1/2-y,1/2+z
loop_
_atom_site_type_symbol
_atom_site_label
_atom_site_fract_x
_atom_site_fract_y
_atom_site_fract_z
Si Si1 0.680781 0.377764 0.900125
Si Si2 0.413228 0.288704 0.569948
Si Si3 0.605341 0.617411 0.822644
Si Si4 0.761232 0.436656 0.498318
Si Si5 0.145269 0.968181 0.607968
Si Si6 0.383538 0.873260 0.280385
Si Si7 0.525596 0.887096 0.895877
Si Si8 0.772561 0.891280 0.299363
O O1 0.638309 0.273778 0.911371
O O2 0.728411 0.257043 0.860198
O O3 0.714962 0.521822 0.802442
O O4 0.638972 0.462178 0.030712
O O5 0.422132 0.478291 0.578425
O O6 0.393585 0.194783 0.678313
O O7 0.472694 0.214228 0.439296
O O8 0.604570 0.559167 0.733635
O O9 0.564876 0.772493 0.887905
O O10 0.667833 0.671584 0.756281
O O11 0.750000 0.250000 0.500000
O O12 0.711056 0.521572 0.526970
O O13 0.825568 0.484879 0.369281
O O14 0.754927 0.474281 0.599863
O O15 0.128017 0.774627 0.639745
O O16 0.435912 0.997488 0.223060
O O17 0.500000 0.000000 0.000000
#
# Coordination Sequence:
#
# PCOD8136768 Si02
#       8
#     8   8   8   8   8   8   8   8
#     4  11  23  36  55  85 130 155 188 230 310 356
#     4   9  20  39  55  87 115 156 189 241 296 340
#     4   9  19  38  57  84 112 147 201 233 284 345
#     4   9  18  35  59  83 115 150 192 231 283 336
#     4   9  20  34  57  82 117 153 183 231 289 358
#     4   9  19  34  62  85 110 148 201 240 281 330
#     4  10  20  34  64  86 104 143 205 257 276 324
#     4  10  24  35  57  90 117 159 187 237 292 362
#
# _framework density 19.725553999999999
#
# number of rings (size 3 to 8) (size 9 to 14) (size 15 to 20)
#    0.000    2.500    0.000    2.625    8.750    2.000 
#    0.000    0.625    0.000    0.000    6.500    0.000 
#    0.000    0.000    0.000    0.000    0.000    0.000 
#
# Total GULP energy -396475.612395 kJ/mol
# GULP energy per Si atom -12389.862887 kJ/mol
# Density = 1.968066 g / cm^3
# Si number density = 19.725554 Si / 1000 Ang^3
#
#
#
# Elastic Constant Matrix: (Units=GPa)
#
#
# Indices 1 2 3 4 5 6 
#
# 1 69.7527 44.9226 43.2629 -0.0044 -9.4358 0.0009
# 2 44.9226 92.9722 49.2487 0.0172 -11.9633 -0.0034
# 3 43.2629 49.2487 94.2465 0.0023 -15.3420 -0.0005
# 4 -0.0044 0.0172 0.0023 41.5253 -0.0008 -9.8928
# 5 -9.4358 -11.9633 -15.3420 -0.0008 37.9241 0.0001
# 6 0.0009 -0.0034 -0.0005 -9.8928 0.0001 32.3579
#
#
#
# Elastic Compliance Matrix: (Units=1/GPa)
#
#
# Indices 1 2 3 4 5 6 
#
# 1 0.023555 -0.007775 -0.006632 0.000006 0.000725 0.000000
# 2 -0.007775 0.017537 -0.005362 -0.000008 0.001428 0.000000
# 3 -0.006632 -0.005362 0.017035 0.000001 0.003550 0.000000
# 4 0.000006 -0.000008 0.000001 0.025974 0.000000 0.007941
# 5 0.000725 0.001428 0.003550 0.000000 0.028435 0.000000
# 6 0.000000 0.000000 0.000000 0.007941 0.000000 0.033332
#
#
# Mechanical properties :
#
#
# Convention : Reuss Voigt Hill
#
# Bulk Modulus (GPa) = 53.79761 59.09329 56.44545
# Shear Modulus (GPa) = 26.09566 30.33061 28.21313
#
# Velocity S-wave (km/s) = 3.64117 3.92552 3.78601
# Velocity P-wave (km/s) = 6.70893 7.11119 6.91298
#
# Compressibility (1/GPa) = 0.01858819
#
# Stress axis : x y z
#
# Youngs Moduli (GPa) = 42.45357 57.02202 58.70376
#
# Poissons Ratio (x) = 0.44336 0.38931
# Poissons Ratio (y) = 0.33009 0.31479
# Poissons Ratio (z) = 0.28154 0.30577
#
# Static dielectric constant tensor:
#      x y z
#    x 3.837400 0.000010 -0.662350 
#    y 0.000010 3.750520 -0.000010 
#    z -0.662350 -0.000010 4.355210 
# 
# 
# High freq. dielectric constant tensor:
#      x y z
#    x 1.739800 0.000000 -0.017600 
#    y 0.000000 1.771200 0.000000 
#    z -0.017600 0.000000 1.771130 
# 
# From -- ./inp_files/181155.got.cif
#   From: 2010.06.25/outbox.cif.g09.slc.cpg/sg15_91_cif.got.tgz:181155.got - 2010.06.28 07:06:18.
