data_PCOD8136585
_publ_section_title
;
Structure prediction by ZEFSAII (Michael W. Deem and Ramdas Pophale) SiO2 
 PCOD8136585
Probable space group: C 2/C
;
_chemical_formula_sum "Si O2"
_cell_formula_units_Z 44
_cell_length_a 13.071973
_cell_length_b 24.538500
_cell_length_c 8.857670
_cell_angle_alpha 90.000000
_cell_angle_beta 124.448307
_cell_angle_gamma 90.000000
_cell_volume 2342.995203
_symmetry_space_group_name_H-M "C 2/C"
_symmetry_group_IT_number 15
_symmetry_cell_setting 'monoclinic'
loop_
_space_group_symop_operation_xyz
x,y,z
-x,y,1/2-z
-x,-y,-z
x,-y,1/2+z
1/2+x,1/2+y,z
1/2-x,1/2+y,1/2-z
1/2-x,1/2-y,-z
1/2+x,1/2-y,1/2+z
loop_
_atom_site_type_symbol
_atom_site_label
_atom_site_fract_x
_atom_site_fract_y
_atom_site_fract_z
Si Si1 0.521829 0.662059 0.093233
Si Si2 0.931024 0.955827 0.848919
Si Si3 0.625344 0.290729 0.267169
Si Si4 0.500000 0.983392 0.250000
Si Si5 0.269731 0.823492 0.659642
Si Si6 0.651902 0.058423 0.154360
O O1 0.500000 0.665825 0.250000
O O2 0.549158 0.601682 0.053278
O O3 0.647252 0.694145 0.152507
O O4 0.393622 0.682285 0.912311
O O5 0.784042 0.967011 0.715507
O O6 0.000000 0.953920 0.750000
O O7 0.000000 0.000000 0.000000
O O8 0.500000 0.302364 0.250000
O O9 0.637182 0.226592 0.243777
O O10 0.735126 0.321599 0.450699
O O11 0.566909 0.944928 0.431704
O O12 0.597485 0.022163 0.244765
O O13 0.334199 0.879388 0.771547
#
# Coordination Sequence:
#
# PCOD8136585 Si02
#       6
#     8   8   8   4   8   8
#     4   9  19  34  51  78 110 135 169 223 275 322
#     4  10  20  34  57  81 108 139 179 229 276 325
#     4   9  18  34  56  77 105 137 181 223 273 322
#     4  10  22  38  56  78 116 156 182 228 268 338
#     4   9  19  35  55  77 103 142 180 224 264 327
#     4  10  21  38  56  81 114 147 190 225 278 332
#
# _framework density 18.779381999999998
#
# number of rings (size 3 to 8) (size 9 to 14) (size 15 to 20)
#    0.000    2.545    0.000    1.091    1.273    5.818 
#    1.636    3.636    0.000    0.000    0.000    0.000 
#    0.000    0.000    0.000    0.000    0.000    0.000 
#
# Total GULP energy -272541.714275 kJ/mol
# GULP energy per Si atom -12388.259740 kJ/mol
# Density = 1.873664 g / cm^3
# Si number density = 18.779382 Si / 1000 Ang^3
#
#
#
# Elastic Constant Matrix: (Units=GPa)
#
#
# Indices 1 2 3 4 5 6 
#
# 1 77.9876 27.1933 34.9688 0.0000 2.1284 0.0000
# 2 27.1933 88.0829 82.7043 0.0000 2.5528 0.0000
# 3 34.9688 82.7043 146.6079 0.0000 3.1862 0.0000
# 4 0.0000 0.0000 0.0000 35.3618 0.0000 7.3979
# 5 2.1284 2.5528 3.1862 0.0000 25.1648 0.0000
# 6 0.0000 0.0000 0.0000 7.3979 0.0000 23.6094
#
#
#
# Elastic Compliance Matrix: (Units=1/GPa)
#
#
# Indices 1 2 3 4 5 6 
#
# 1 0.014654 -0.002628 -0.001997 0.000000 -0.000720 0.000000
# 2 -0.002628 0.024623 -0.013250 0.000000 -0.000598 0.000000
# 3 -0.001997 -0.013250 0.014780 0.000000 -0.000358 0.000000
# 4 0.000000 0.000000 0.000000 0.030263 0.000000 -0.009483
# 5 -0.000720 -0.000598 -0.000358 0.000000 0.039905 0.000000
# 6 0.000000 0.000000 0.000000 -0.009483 0.000000 0.045327
#
#
# Mechanical properties :
#
#
# Convention : Reuss Voigt Hill
#
# Bulk Modulus (GPa) = 54.62778 66.93458 60.78118
# Shear Modulus (GPa) = 23.65126 28.01466 25.83296
#
# Velocity S-wave (km/s) = 3.55269 3.86654 3.71294
# Velocity P-wave (km/s) = 6.78094 7.46013 7.12863
#
# Compressibility (1/GPa) = 0.01830570
#
# Stress axis : x y z
#
# Youngs Moduli (GPa) = 68.24060 40.61254 67.65960
#
# Poissons Ratio (x) = 0.10673 0.13512
# Poissons Ratio (y) = 0.17934 0.89652
# Poissons Ratio (z) = 0.13628 0.53813
#
# Static dielectric constant tensor:
#      x y z
#    x 2.981310 0.000000 0.471400 
#    y 0.000000 3.632460 0.000000 
#    z 0.471400 0.000000 3.338030 
# 
# 
# High freq. dielectric constant tensor:
#      x y z
#    x 1.730660 0.000000 -0.000010 
#    y 0.000000 1.723310 0.000000 
#    z -0.000010 0.000000 1.734980 
# 
# From -- ./inp_files/32736.got.cif
#   From: 2010.06.25/outbox.cif.g09.slc.cpg/sg15_17_cif.got.tgz:32736.got - 2010.06.28 07:06:18.
