data_PCOD8136196
_publ_section_title
;
Structure prediction by ZEFSAII (Michael W. Deem and Ramdas Pophale) SiO2 
 PCOD8136196
Probable space group: C 2/C
;
_chemical_formula_sum "Si O2"
_cell_formula_units_Z 64
_cell_length_a 13.331507
_cell_length_b 16.795566
_cell_length_c 15.851813
_cell_angle_alpha 90.000000
_cell_angle_beta 116.560499
_cell_angle_gamma 90.000000
_cell_volume 3174.790511
_symmetry_space_group_name_H-M "C 2/C"
_symmetry_group_IT_number 15
_symmetry_cell_setting 'monoclinic'
loop_
_space_group_symop_operation_xyz
x,y,z
-x,y,1/2-z
-x,-y,-z
x,-y,1/2+z
1/2+x,1/2+y,z
1/2-x,1/2+y,1/2-z
1/2-x,1/2-y,-z
1/2+x,1/2-y,1/2+z
loop_
_atom_site_type_symbol
_atom_site_label
_atom_site_fract_x
_atom_site_fract_y
_atom_site_fract_z
Si Si1 0.566408 0.177212 0.973103
Si Si2 0.739684 0.600092 0.367247
Si Si3 0.917622 0.849538 0.552815
Si Si4 0.332533 0.641397 0.339557
Si Si5 0.630237 0.558540 0.779220
Si Si6 0.325445 0.523168 0.895615
Si Si7 0.378535 0.127675 0.685708
Si Si8 0.182957 0.683925 0.659012
O O1 0.587974 0.269857 0.008493
O O2 0.615552 0.179309 0.896523
O O3 0.434295 0.153684 0.926501
O O4 0.630775 0.111992 0.054686
O O5 0.669706 0.656523 0.403436
O O6 0.740741 0.624265 0.270374
O O7 0.686719 0.511778 0.356132
O O8 0.902719 0.929010 0.490438
O O9 0.038699 0.853049 0.641972
O O10 0.322097 0.572728 0.407662
O O11 0.292919 0.725879 0.362147
O O12 0.500000 0.575420 0.750000
O O13 0.629889 0.536811 0.681369
O O14 0.709172 0.633914 0.829512
O O15 0.198781 0.551725 0.858981
O O16 0.500000 0.091207 0.750000
O O17 0.330764 0.181408 0.744226
#
# Coordination Sequence:
#
# PCOD8136196 Si02
#       8
#     8   8   8   8   8   8   8   8
#     4  10  20  32  56  91 113 138 173 223 289 341
#     4  11  20  32  56  87 117 139 175 227 288 333
#     4  11  20  33  56  85 115 139 179 227 283 334
#     4  10  21  34  51  81 113 150 183 224 268 322
#     4  10  22  39  57  79 109 149 191 223 268 320
#     4  10  20  34  56  81 107 145 181 226 277 323
#     4   9  17  33  54  82 111 139 172 222 284 339
#     4   9  20  37  57  76 113 150 185 222 264 327
#
# _framework density 20.158809999999999
#
# number of rings (size 3 to 8) (size 9 to 14) (size 15 to 20)
#    0.000    2.000    1.250    3.375    3.500    2.500 
#    0.000    0.625    0.000    6.750    0.000    0.000 
#    0.000    0.000    0.000    0.000    0.000    0.000 
#
# Total GULP energy -396563.996588 kJ/mol
# GULP energy per Si atom -12392.624893 kJ/mol
# Density = 2.011293 g / cm^3
# Si number density = 20.158810 Si / 1000 Ang^3
#
#
#
# Elastic Constant Matrix: (Units=GPa)
#
#
# Indices 1 2 3 4 5 6 
#
# 1 78.7884 57.5994 25.2397 0.0000 24.3499 0.0000
# 2 57.5994 131.5055 38.0492 0.0000 27.1560 0.0000
# 3 25.2397 38.0492 87.7721 0.0000 25.3376 0.0000
# 4 0.0000 0.0000 0.0000 18.7318 0.0000 -2.0573
# 5 24.3499 27.1560 25.3376 0.0000 25.4699 0.0000
# 6 0.0000 0.0000 0.0000 -2.0573 0.0000 12.4254
#
#
#
# Elastic Compliance Matrix: (Units=1/GPa)
#
#
# Indices 1 2 3 4 5 6 
#
# 1 0.021903 -0.006849 0.000852 0.000000 -0.014485 0.000000
# 2 -0.006849 0.012081 -0.002019 0.000000 -0.004325 0.000000
# 3 0.000852 -0.002019 0.016325 0.000000 -0.014902 0.000000
# 4 0.000000 0.000000 0.000000 0.054374 0.000000 0.009003
# 5 -0.014485 -0.004325 -0.014902 0.000000 0.072546 0.000000
# 6 0.000000 0.000000 0.000000 0.009003 0.000000 0.081971
#
#
# Mechanical properties :
#
#
# Convention : Reuss Voigt Hill
#
# Bulk Modulus (GPa) = 29.17382 59.98250 44.57816
# Shear Modulus (GPa) = 17.44237 23.13727 20.28982
#
# Velocity S-wave (km/s) = 2.94470 3.39152 3.17598
# Velocity P-wave (km/s) = 5.10540 6.71983 5.96746
#
# Compressibility (1/GPa) = 0.03427731
#
# Stress axis : x y z
#
# Youngs Moduli (GPa) = 45.65605 82.77225 61.25433
#
# Poissons Ratio (x) = 0.56689 -0.05219
# Poissons Ratio (y) = 0.31269 0.12370
# Poissons Ratio (z) = -0.03890 0.16715
#
# Static dielectric constant tensor:
#      x y z
#    x 3.467390 0.000000 0.256430 
#    y 0.000000 3.865600 0.000000 
#    z 0.256430 0.000000 3.651370 
# 
# 
# High freq. dielectric constant tensor:
#      x y z
#    x 1.760310 0.000000 0.028050 
#    y 0.000000 1.783880 0.000000 
#    z 0.028050 0.000000 1.782440 
# 
# From -- ./inp_files/205458.got.cif
#   From: 2010.06.25/outbox.cif.g09.slc.cpg/sg15_103_cif.got.tgz:205458.got - 2010.06.28 07:06:18.
