data_PCOD8136384
_publ_section_title
;
Structure prediction by ZEFSAII (Michael W. Deem and Ramdas Pophale) SiO2 
 PCOD8136384
Probable space group: C 2/C
;
_chemical_formula_sum "Si O2"
_cell_formula_units_Z 52
_cell_length_a 23.855417
_cell_length_b 11.744235
_cell_length_c 14.142186
_cell_angle_alpha 90.000000
_cell_angle_beta 141.512036
_cell_angle_gamma 90.000000
_cell_volume 2465.830040
_symmetry_space_group_name_H-M "C 2/C"
_symmetry_group_IT_number 15
_symmetry_cell_setting 'monoclinic'
loop_
_space_group_symop_operation_xyz
x,y,z
-x,y,1/2-z
-x,-y,-z
x,-y,1/2+z
1/2+x,1/2+y,z
1/2-x,1/2+y,1/2-z
1/2-x,1/2-y,-z
1/2+x,1/2-y,1/2+z
loop_
_atom_site_type_symbol
_atom_site_label
_atom_site_fract_x
_atom_site_fract_y
_atom_site_fract_z
Si Si1 0.070101 0.484074 0.955170
Si Si2 0.376092 0.992311 0.267686
Si Si3 0.694523 0.607910 0.442843
Si Si4 0.281477 0.783989 0.681688
Si Si5 0.194886 0.691766 0.071006
Si Si6 0.637829 0.633484 0.857380
Si Si7 0.000000 0.288522 0.750000
O O1 0.075110 0.370496 0.897408
O O2 0.966173 0.525993 0.824809
O O3 0.109380 0.444846 0.107554
O O4 0.126934 0.585562 0.983498
O O5 0.359418 0.127480 0.254099
O O6 0.292465 0.928762 0.111059
O O7 0.713075 0.658397 0.362808
O O8 0.650927 0.702027 0.455181
O O9 0.625071 0.502926 0.341828
O O10 0.278292 0.765612 0.789479
O O11 0.303530 0.665022 0.658129
O O12 0.186623 0.831999 0.519827
O O13 0.544747 0.703241 0.732336
#
# Coordination Sequence:
#
# PCOD8136384 Si02
#       7
#     8   8   8   8   8   8   4
#     4  10  20  33  59  90 117 153 198 255 291 345
#     4   9  18  36  58  87 119 148 199 249 298 343
#     4  10  22  40  56  88 122 161 196 241 293 366
#     4   9  19  37  59  90 112 154 193 248 291 353
#     4  10  22  37  61  86 118 157 202 240 299 343
#     4  10  22  36  60  86 122 152 197 238 300 351
#     4  12  22  36  60  92 118 156 196 250 296 346
#
# _framework density 21.088234
#
# number of rings (size 3 to 8) (size 9 to 14) (size 15 to 20)
#    0.000    2.154    1.538    0.923    6.462    2.462 
#    0.000    3.846    0.000    1.846    0.000    0.000 
#    0.000    0.000    0.000    0.000    0.000    0.000 
#
# Total GULP energy -322311.022007 kJ/mol
# GULP energy per Si atom -12396.577769 kJ/mol
# Density = 2.104024 g / cm^3
# Si number density = 21.088234 Si / 1000 Ang^3
#
#
#
# Elastic Constant Matrix: (Units=GPa)
#
#
# Indices 1 2 3 4 5 6 
#
# 1 102.8876 53.1689 21.9763 0.0000 -22.3039 0.0000
# 2 53.1689 142.6346 15.3552 0.0000 -13.9011 0.0000
# 3 21.9763 15.3552 49.8022 0.0000 -15.4295 0.0000
# 4 0.0000 0.0000 0.0000 23.5330 0.0000 4.5448
# 5 -22.3039 -13.9011 -15.4295 0.0000 29.1282 0.0000
# 6 0.0000 0.0000 0.0000 4.5448 0.0000 31.2210
#
#
#
# Elastic Compliance Matrix: (Units=1/GPa)
#
#
# Indices 1 2 3 4 5 6 
#
# 1 0.014067 -0.004245 -0.002619 0.000000 0.007359 0.000000
# 2 -0.004245 0.008718 -0.000637 0.000000 0.000572 0.000000
# 3 -0.002619 -0.000637 0.024783 0.000000 0.010818 0.000000
# 4 0.000000 0.000000 0.000000 0.043723 0.000000 -0.006365
# 5 0.007359 0.000572 0.010818 0.000000 0.045969 0.000000
# 6 0.000000 0.000000 0.000000 -0.006365 0.000000 0.032956
#
#
# Mechanical properties :
#
#
# Convention : Reuss Voigt Hill
#
# Bulk Modulus (GPa) = 30.70675 52.92504 41.81590
# Shear Modulus (GPa) = 25.50052 30.43136 27.96594
#
# Velocity S-wave (km/s) = 3.48117 3.80287 3.64557
# Velocity P-wave (km/s) = 5.54534 6.66587 6.13126
#
# Compressibility (1/GPa) = 0.03256613
#
# Stress axis : x y z
#
# Youngs Moduli (GPa) = 71.08586 114.71028 40.34971
#
# Poissons Ratio (x) = 0.48691 0.10568
# Poissons Ratio (y) = 0.30174 0.02572
# Poissons Ratio (z) = 0.18618 0.07312
#
# Static dielectric constant tensor:
#      x y z
#    x 3.743940 0.000000 -0.236760 
#    y 0.000000 3.914820 0.000000 
#    z -0.236760 0.000000 3.639520 
# 
# 
# High freq. dielectric constant tensor:
#      x y z
#    x 1.827560 0.000000 -0.019730 
#    y 0.000000 1.827630 0.000000 
#    z -0.019730 0.000000 1.797270 
# 
# From -- ./inp_files/173197.got.cif
#   From: 2010.06.25/outbox.cif.g09.slc.cpg/sg15_87_cif.got.tgz:173197.got - 2010.06.28 07:06:18.
