data_PCOD8136537
_publ_section_title
;
Structure prediction by ZEFSAII (Michael W. Deem and Ramdas Pophale) SiO2 
 PCOD8136537
Probable space group: C 2/C
;
_chemical_formula_sum "Si O2"
_cell_formula_units_Z 52
_cell_length_a 9.987735
_cell_length_b 16.089212
_cell_length_c 22.103004
_cell_angle_alpha 90.000000
_cell_angle_beta 132.192667
_cell_angle_gamma 90.000000
_cell_volume 2631.522871
_symmetry_space_group_name_H-M "C 2/C"
_symmetry_group_IT_number 15
_symmetry_cell_setting 'monoclinic'
loop_
_space_group_symop_operation_xyz
x,y,z
-x,y,1/2-z
-x,-y,-z
x,-y,1/2+z
1/2+x,1/2+y,z
1/2-x,1/2+y,1/2-z
1/2-x,1/2-y,-z
1/2+x,1/2-y,1/2+z
loop_
_atom_site_type_symbol
_atom_site_label
_atom_site_fract_x
_atom_site_fract_y
_atom_site_fract_z
Si Si1 0.942899 0.273016 0.663851
Si Si2 0.575554 0.608112 0.672518
Si Si3 0.705232 0.420670 0.076574
Si Si4 0.047892 0.679339 0.696496
Si Si5 0.202498 0.142368 0.242100
Si Si6 0.000000 0.017078 0.250000
Si Si7 0.659270 0.597111 0.095419
O O1 0.751303 0.318414 0.599088
O O2 0.000000 0.258419 0.750000
O O3 0.933702 0.184366 0.628161
O O4 0.098456 0.327855 0.680175
O O5 0.615226 0.586929 0.615594
O O6 0.762516 0.635248 0.763460
O O7 0.475842 0.536992 0.681632
O O8 0.752320 0.519012 0.088700
O O9 0.877098 0.363234 0.110454
O O10 0.554177 0.397542 0.981477
O O11 0.064710 0.778752 0.692369
O O12 0.000000 0.657556 0.750000
O O13 0.195133 0.088944 0.178099
O O14 0.163214 0.081000 0.286189
#
# Coordination Sequence:
#
# PCOD8136537 Si02
#       7
#     8   8   8   8   8   4   8
#     4   9  19  35  55  80 104 136 178 217 261 308
#     4  10  20  34  56  80 106 134 174 222 263 308
#     4  10  21  36  55  78 107 142 178 214 257 313
#     4   9  19  35  55  80 104 136 178 217 261 308
#     4  10  20  34  56  80 106 134 174 222 263 308
#     4  12  20  32  56  86 100 132 170 232 262 306
#     4  10  21  36  55  78 107 142 178 214 257 313
#
# _framework density 19.76042
#
# number of rings (size 3 to 8) (size 9 to 14) (size 15 to 20)
#    0.000    2.154    3.077    0.000    2.154    3.077 
#    0.000    0.000    0.000    1.846    0.000    0.000 
#    0.000    0.000    0.000    0.000    0.000    0.000 
#
# Total GULP energy -322136.725140 kJ/mol
# GULP energy per Si atom -12389.874044 kJ/mol
# Density = 1.971544 g / cm^3
# Si number density = 19.760420 Si / 1000 Ang^3
#
#
#
# Elastic Constant Matrix: (Units=GPa)
#
#
# Indices 1 2 3 4 5 6 
#
# 1 70.0705 28.0372 -0.1422 0.0000 5.5655 0.0000
# 2 28.0372 80.2521 26.4863 0.0000 11.7625 0.0000
# 3 -0.1422 26.4863 40.9943 0.0000 12.6583 0.0000
# 4 0.0000 0.0000 0.0000 19.8750 0.0000 0.4777
# 5 5.5655 11.7625 12.6583 0.0000 20.4602 0.0000
# 6 0.0000 0.0000 0.0000 0.4777 0.0000 26.9104
#
#
#
# Elastic Compliance Matrix: (Units=1/GPa)
#
#
# Indices 1 2 3 4 5 6 
#
# 1 0.017682 -0.007631 0.006332 0.000000 -0.004340 0.000000
# 2 -0.007631 0.019329 -0.012021 0.000000 -0.001599 0.000000
# 3 0.006332 -0.012021 0.037802 0.000000 -0.018199 0.000000
# 4 0.000000 0.000000 0.000000 0.050336 0.000000 -0.000894
# 5 -0.004340 -0.001599 -0.018199 0.000000 0.062234 0.000000
# 6 0.000000 0.000000 0.000000 -0.000894 0.000000 0.037176
#
#
# Mechanical properties :
#
#
# Convention : Reuss Voigt Hill
#
# Bulk Modulus (GPa) = 20.75877 33.34217 27.05047
# Shear Modulus (GPa) = 18.70861 22.57816 20.64339
#
# Velocity S-wave (km/s) = 3.08030 3.38390 3.23566
# Velocity P-wave (km/s) = 4.81446 5.67252 5.26102
#
# Compressibility (1/GPa) = 0.04817242
#
# Stress axis : x y z
#
# Youngs Moduli (GPa) = 56.55336 51.73694 26.45392
#
# Poissons Ratio (x) = 0.39482 -0.16751
# Poissons Ratio (y) = 0.43157 0.31800
# Poissons Ratio (z) = -0.35810 0.62192
#
# Static dielectric constant tensor:
#      x y z
#    x 3.753110 0.000000 0.183050 
#    y 0.000000 3.853440 0.000000 
#    z 0.183050 0.000000 3.214330 
# 
# 
# High freq. dielectric constant tensor:
#      x y z
#    x 1.767830 0.000000 0.007600 
#    y 0.000000 1.791010 0.000000 
#    z 0.007600 0.000000 1.717500 
# 
# From -- ./inp_files/292742.got.cif
#   From: 2010.06.25/outbox.cif.g09.slc.cpg/sg15_147_cif.got.tgz:292742.got - 2010.06.28 07:06:18.
