data_PCOD8136372
_publ_section_title
;
Structure prediction by ZEFSAII (Michael W. Deem and Ramdas Pophale) SiO2 
 PCOD8136372
Probable space group: C 2/C
;
_chemical_formula_sum "Si O2"
_cell_formula_units_Z 64
_cell_length_a 18.166257
_cell_length_b 20.499273
_cell_length_c 10.693006
_cell_angle_alpha 90.000000
_cell_angle_beta 59.878250
_cell_angle_gamma 90.000000
_cell_volume 3444.294196
_symmetry_space_group_name_H-M "C 2/C"
_symmetry_group_IT_number 15
_symmetry_cell_setting 'monoclinic'
loop_
_space_group_symop_operation_xyz
x,y,z
-x,y,1/2-z
-x,-y,-z
x,-y,1/2+z
1/2+x,1/2+y,z
1/2-x,1/2+y,1/2-z
1/2-x,1/2-y,-z
1/2+x,1/2-y,1/2+z
loop_
_atom_site_type_symbol
_atom_site_label
_atom_site_fract_x
_atom_site_fract_y
_atom_site_fract_z
Si Si1 0.189903 0.358780 0.361892
Si Si2 0.407505 0.966499 0.768654
Si Si3 0.256915 0.864978 0.601117
Si Si4 0.593069 0.836986 0.213375
Si Si5 0.323629 0.997862 0.589168
Si Si6 0.407656 0.695221 0.356961
Si Si7 0.173806 0.242246 0.829545
Si Si8 0.599372 0.178606 0.181812
O O1 0.111104 0.366707 0.333564
O O2 0.222964 0.431857 0.364185
O O3 0.267807 0.320747 0.235097
O O4 0.152817 0.318092 0.509024
O O5 0.500000 0.968819 0.750000
O O6 0.379903 0.891257 0.773994
O O7 0.395120 0.996602 0.639924
O O8 0.355945 0.006427 0.918240
O O9 0.335914 0.863187 0.440421
O O10 0.165894 0.856874 0.611009
O O11 0.267926 0.804432 0.685267
O O12 0.259112 0.936685 0.664420
O O13 0.500000 0.861390 0.250000
O O14 0.598229 0.758927 0.225428
O O15 0.500000 0.662483 0.250000
O O16 0.396917 0.722816 0.507172
O O17 0.126949 0.260253 0.742090
O O18 0.500000 0.187587 0.250000
#
# Coordination Sequence:
#
# PCOD8136372 Si02
#       8
#     8   8   8   8   8   8   8   8
#     4  11  22  37  54  85 117 159 191 233 289 351
#     4  10  21  37  53  83 121 162 194 228 279 351
#     4  11  20  37  59  85 114 152 190 243 289 342
#     4  10  20  33  58  89 117 148 189 234 282 346
#     4  11  23  35  57  81 118 157 195 237 288 345
#     4  10  21  36  62  91 108 143 195 254 301 332
#     4  11  20  39  60  80 119 148 197 241 289 345
#     4  10  23  35  55  82 118 159 196 230 283 347
#
# _framework density 18.581454000000001
#
# number of rings (size 3 to 8) (size 9 to 14) (size 15 to 20)
#    0.000    1.500    3.750    2.250    5.250    3.000 
#    0.000    0.000    0.000    1.500    0.000    0.000 
#    0.000    0.000    0.000    0.000    0.000    0.000 
#
# Total GULP energy -396523.310473 kJ/mol
# GULP energy per Si atom -12391.353452 kJ/mol
# Density = 1.853916 g / cm^3
# Si number density = 18.581454 Si / 1000 Ang^3
#
#
#
# Elastic Constant Matrix: (Units=GPa)
#
#
# Indices 1 2 3 4 5 6 
#
# 1 95.1110 40.9996 42.0373 0.0000 -3.9625 0.0000
# 2 40.9996 86.4618 28.5229 0.0000 -9.5039 0.0000
# 3 42.0373 28.5229 77.8570 0.0000 -4.0795 0.0000
# 4 0.0000 0.0000 0.0000 19.2964 0.0000 2.4292
# 5 -3.9625 -9.5039 -4.0795 0.0000 33.6948 0.0000
# 6 0.0000 0.0000 0.0000 2.4292 0.0000 21.1608
#
#
#
# Elastic Compliance Matrix: (Units=1/GPa)
#
#
# Indices 1 2 3 4 5 6 
#
# 1 0.015682 -0.005329 -0.006539 0.000000 -0.000450 0.000000
# 2 -0.005329 0.015307 -0.002553 0.000000 0.003382 0.000000
# 3 -0.006539 -0.002553 0.017342 0.000000 0.000610 0.000000
# 4 0.000000 0.000000 0.000000 0.052583 0.000000 -0.006036
# 5 -0.000450 0.003382 0.000610 0.000000 0.030653 0.000000
# 6 0.000000 0.000000 0.000000 -0.006036 0.000000 0.047950
#
#
# Mechanical properties :
#
#
# Convention : Reuss Voigt Hill
#
# Bulk Modulus (GPa) = 51.31027 53.61659 52.46343
# Shear Modulus (GPa) = 23.27148 24.68840 23.97994
#
# Velocity S-wave (km/s) = 3.54277 3.64903 3.59629
# Velocity P-wave (km/s) = 6.66398 6.83165 6.74833
#
# Compressibility (1/GPa) = 0.01948928
#
# Stress axis : x y z
#
# Youngs Moduli (GPa) = 63.76565 65.33078 57.66389
#
# Poissons Ratio (x) = 0.34814 0.37705
# Poissons Ratio (y) = 0.33980 0.14723
# Poissons Ratio (z) = 0.41695 0.16680
#
# Static dielectric constant tensor:
#      x y z
#    x 3.338190 0.000000 0.122220 
#    y 0.000000 3.450060 0.000000 
#    z 0.122220 0.000000 3.448740 
# 
# 
# High freq. dielectric constant tensor:
#      x y z
#    x 1.701850 0.000000 0.017240 
#    y 0.000000 1.718100 0.000000 
#    z 0.017240 0.000000 1.716100 
# 
# From -- ./inp_files/107310.got.cif
#   From: 2010.06.25/outbox.cif.g09.slc.cpg/sg15_54_cif.got.tgz:107310.got - 2010.06.28 07:06:18.
