data_PCOD8136346
_publ_section_title
;
Structure prediction by ZEFSAII (Michael W. Deem and Ramdas Pophale) SiO2 
 PCOD8136346
Probable space group: C 2/C
;
_chemical_formula_sum "Si O2"
_cell_formula_units_Z 48
_cell_length_a 21.277074
_cell_length_b 18.345497
_cell_length_c 8.195483
_cell_angle_alpha 90.000000
_cell_angle_beta 50.373137
_cell_angle_gamma 90.000000
_cell_volume 2463.925198
_symmetry_space_group_name_H-M "C 2/C"
_symmetry_group_IT_number 15
_symmetry_cell_setting 'monoclinic'
loop_
_space_group_symop_operation_xyz
x,y,z
-x,y,1/2-z
-x,-y,-z
x,-y,1/2+z
1/2+x,1/2+y,z
1/2-x,1/2+y,1/2-z
1/2-x,1/2-y,-z
1/2+x,1/2-y,1/2+z
loop_
_atom_site_type_symbol
_atom_site_label
_atom_site_fract_x
_atom_site_fract_y
_atom_site_fract_z
Si Si1 0.459955 0.331291 0.138677
Si Si2 0.071393 0.943066 0.848291
Si Si3 0.348363 0.936347 0.786915
Si Si4 0.659797 0.558519 0.526854
Si Si5 0.574027 0.932064 0.516010
Si Si6 0.471863 0.176040 0.979699
O O1 0.500000 0.331865 0.250000
O O2 0.378090 0.380845 0.287530
O O3 0.523512 0.366742 0.901162
O O4 0.440646 0.250630 0.112113
O O5 0.124443 0.976299 0.614099
O O6 0.136967 0.926374 0.880006
O O7 0.000000 0.000000 0.000000
O O8 0.353957 0.917072 0.971218
O O9 0.392339 0.874730 0.606926
O O10 0.395687 0.011618 0.670107
O O11 0.255943 0.941378 0.886359
O O12 0.500000 0.963679 0.750000
O O13 0.543977 0.859122 0.471748
O O14 0.500000 0.189986 0.750000
#
# Coordination Sequence:
#
# PCOD8136346 Si02
#       6
#     8   8   8   8   8   8
#     4   9  19  36  55  76 105 142 179 214 257 314
#     4   9  18  34  55  79 107 140 179 214 254 313
#     4  11  20  34  56  81 110 136 170 221 269 313
#     4  10  20  33  56  84 109 137 171 220 270 311
#     4  10  20  35  55  78 106 140 178 214 257 318
#     4  11  22  36  55  76 102 141 184 219 257 314
#
# _framework density 19.481110999999999
#
# number of rings (size 3 to 8) (size 9 to 14) (size 15 to 20)
#    0.000    2.000    0.000    7.500    0.000    3.333 
#    0.000    0.000    0.000    6.000    0.000    0.000 
#    0.000    0.000    0.000    0.000    0.000    0.000 
#
# Total GULP energy -297342.970647 kJ/mol
# GULP energy per Si atom -12389.290444 kJ/mol
# Density = 1.943677 g / cm^3
# Si number density = 19.481111 Si / 1000 Ang^3
#
#
#
# Elastic Constant Matrix: (Units=GPa)
#
#
# Indices 1 2 3 4 5 6 
#
# 1 84.9824 3.3258 15.5756 0.0000 -13.6754 0.0000
# 2 3.3258 90.3203 24.1598 0.0000 -5.8122 0.0000
# 3 15.5756 24.1598 54.4287 0.0000 -5.2041 0.0000
# 4 0.0000 0.0000 0.0000 17.5091 0.0000 15.3143
# 5 -13.6754 -5.8122 -5.2041 0.0000 29.8691 0.0000
# 6 0.0000 0.0000 0.0000 15.3143 0.0000 12.6409
#
#
#
# Elastic Compliance Matrix: (Units=1/GPa)
#
#
# Indices 1 2 3 4 5 6 
#
# 1 0.013307 0.000847 -0.003647 0.000000 0.005622 0.000000
# 2 0.000847 0.012684 -0.005694 0.000000 0.001864 0.000000
# 3 -0.003647 -0.005694 0.022045 0.000000 0.001063 0.000000
# 4 0.000000 0.000000 0.000000 -0.957783 0.000000 1.160346
# 5 0.005622 0.001864 0.001063 0.000000 0.036601 0.000000
# 6 0.000000 0.000000 0.000000 1.160346 0.000000 -1.326640
#
#
# Mechanical properties :
#
#
# Convention : Reuss Voigt Hill
#
# Bulk Modulus (GPa) = 32.20721 35.09485 33.65103
# Shear Modulus (GPa) = -2.30155 24.44848 11.07347
#
# Velocity S-wave (km/s) = -1.08811 3.54642 2.38674
# Velocity P-wave (km/s) = 3.87166 5.90113 4.99065
#
# Compressibility (1/GPa) = 0.03104895
#
# Stress axis : x y z
#
# Youngs Moduli (GPa) = 75.14823 78.84191 45.36090
#
# Poissons Ratio (x) = -0.06680 0.16541
# Poissons Ratio (y) = -0.06367 0.25830
# Poissons Ratio (z) = 0.27403 0.44894
#
# Static dielectric constant tensor:
#      x y z
#    x 3.631440 0.000000 0.130940 
#    y 0.000000 3.711280 0.000000 
#    z 0.130940 0.000000 3.656740 
# 
# 
# High freq. dielectric constant tensor:
#      x y z
#    x 1.762080 0.000000 0.007300 
#    y 0.000000 1.747650 0.000000 
#    z 0.007300 0.000000 1.743770 
# 
# From -- ./inp_files/56412.got.cif
#   From: 2010.06.25/outbox.cif.g09.slc.cpg/sg15_29_cif.got.tgz:56412.got - 2010.06.28 07:06:18.
