data_PCOD8136604
_publ_section_title
;
Structure prediction by ZEFSAII (Michael W. Deem and Ramdas Pophale) SiO2 
 PCOD8136604
Probable space group: C 2/C
;
_chemical_formula_sum "Si O2"
_cell_formula_units_Z 44
_cell_length_a 18.062407
_cell_length_b 14.501139
_cell_length_c 9.552951
_cell_angle_alpha 90.000000
_cell_angle_beta 45.449364
_cell_angle_gamma 90.000000
_cell_volume 1783.116984
_symmetry_space_group_name_H-M "C 2/C"
_symmetry_group_IT_number 15
_symmetry_cell_setting 'monoclinic'
loop_
_space_group_symop_operation_xyz
x,y,z
-x,y,1/2-z
-x,-y,-z
x,-y,1/2+z
1/2+x,1/2+y,z
1/2-x,1/2+y,1/2-z
1/2-x,1/2-y,-z
1/2+x,1/2-y,1/2+z
loop_
_atom_site_type_symbol
_atom_site_label
_atom_site_fract_x
_atom_site_fract_y
_atom_site_fract_z
Si Si1 0.421036 0.418194 0.598920
Si Si2 0.216064 0.483760 0.281253
Si Si3 0.284659 0.712746 0.602783
Si Si4 0.167272 0.389929 0.611285
Si Si5 0.000000 0.187127 0.250000
Si Si6 0.142654 0.204849 0.535486
O O1 0.500000 0.500000 0.500000
O O2 0.304798 0.452022 0.728909
O O3 0.428456 0.369759 0.737835
O O4 0.448375 0.348731 0.430521
O O5 0.266369 0.397881 0.132033
O O6 0.143809 0.449413 0.503821
O O7 0.142266 0.547005 0.279253
O O8 0.250000 0.750000 0.500000
O O9 0.408574 0.739779 0.456198
O O10 0.223834 0.761009 0.808588
O O11 0.102763 0.293299 0.679376
O O12 0.291642 0.363635 0.450602
#
# Coordination Sequence:
#
# PCOD8136604 Si02
#       6
#     8   8   8   8   4   8
#     4  11  21  34  56  93 135 162 203 267 335 381
#     4  10  20  34  57  90 124 167 212 268 316 391
#     4  11  21  36  57  88 132 175 216 266 325 382
#     4   9  19  35  58  84 123 166 221 257 318 389
#     4  12  22  36  58  92 136 164 214 268 318 392
#     4   9  20  37  55  83 134 175 212 259 327 400
#
# _framework density 24.675889999999999
#
# number of rings (size 3 to 8) (size 9 to 14) (size 15 to 20)
#    0.000    1.818    3.636    1.091    5.091    0.000 
#    0.000    0.000    0.000    0.000    0.000   11.455 
#    0.000    0.000    0.000    0.000    0.000    0.000 
#
# Total GULP energy -272547.030250 kJ/mol
# GULP energy per Si atom -12388.501375 kJ/mol
# Density = 2.461973 g / cm^3
# Si number density = 24.675890 Si / 1000 Ang^3
#
#
#
# Elastic Constant Matrix: (Units=GPa)
#
#
# Indices 1 2 3 4 5 6 
#
# 1 121.1918 62.3317 13.5554 0.0000 26.1770 0.0000
# 2 62.3317 120.0274 7.0196 0.0000 16.9797 0.0000
# 3 13.5554 7.0196 40.8628 0.0000 7.5407 0.0000
# 4 0.0000 0.0000 0.0000 22.5011 0.0000 12.4057
# 5 26.1770 16.9797 7.5407 0.0000 38.1042 0.0000
# 6 0.0000 0.0000 0.0000 12.4057 0.0000 72.6093
#
#
#
# Elastic Compliance Matrix: (Units=1/GPa)
#
#
# Indices 1 2 3 4 5 6 
#
# 1 0.012622 -0.005616 -0.002163 0.000000 -0.005740 0.000000
# 2 -0.005616 0.011418 0.000133 0.000000 -0.001256 0.000000
# 3 -0.002163 0.000133 0.025847 0.000000 -0.003689 0.000000
# 4 0.000000 0.000000 0.000000 0.049064 0.000000 -0.008383
# 5 -0.005740 -0.001256 -0.003689 0.000000 0.031477 0.000000
# 6 0.000000 0.000000 0.000000 -0.008383 0.000000 0.015205
#
#
# Mechanical properties :
#
#
# Convention : Reuss Voigt Hill
#
# Bulk Modulus (GPa) = 28.90528 49.76616 39.33572
# Shear Modulus (GPa) = 28.99299 39.92128 34.45713
#
# Velocity S-wave (km/s) = 3.43148 4.02658 3.74088
# Velocity P-wave (km/s) = 5.23827 6.46758 5.88511
#
# Compressibility (1/GPa) = 0.03459576
#
# Stress axis : x y z
#
# Youngs Moduli (GPa) = 79.22898 87.58244 38.68858
#
# Poissons Ratio (x) = 0.49187 0.08368
# Poissons Ratio (y) = 0.44495 -0.00516
# Poissons Ratio (z) = 0.17137 -0.01168
#
# Static dielectric constant tensor:
#      x y z
#    x 4.612390 0.000000 0.042730 
#    y 0.000000 5.089390 0.000000 
#    z 0.042730 0.000000 4.107340 
# 
# 
# High freq. dielectric constant tensor:
#      x y z
#    x 1.990670 0.000000 0.036770 
#    y 0.000000 1.990420 0.000000 
#    z 0.036770 0.000000 1.945170 
# 
# From -- ./inp_files/47401.got.cif
#   From: 2010.06.25/outbox.cif.g09.slc.cpg/sg15_24_cif.got.tgz:47401.got - 2010.06.28 07:06:18.
