data_PCOD8136497
_publ_section_title
;
Structure prediction by ZEFSAII (Michael W. Deem and Ramdas Pophale) SiO2 
 PCOD8136497
Probable space group: C 2/C
;
_chemical_formula_sum "Si O2"
_cell_formula_units_Z 64
_cell_length_a 28.305875
_cell_length_b 11.302550
_cell_length_c 22.802175
_cell_angle_alpha 90.000000
_cell_angle_beta 154.470439
_cell_angle_gamma 90.000000
_cell_volume 3144.004101
_symmetry_space_group_name_H-M "C 2/C"
_symmetry_group_IT_number 15
_symmetry_cell_setting 'monoclinic'
loop_
_space_group_symop_operation_xyz
x,y,z
-x,y,1/2-z
-x,-y,-z
x,-y,1/2+z
1/2+x,1/2+y,z
1/2-x,1/2+y,1/2-z
1/2-x,1/2-y,-z
1/2+x,1/2-y,1/2+z
loop_
_atom_site_type_symbol
_atom_site_label
_atom_site_fract_x
_atom_site_fract_y
_atom_site_fract_z
Si Si1 0.031991 0.642933 0.490664
Si Si2 0.190140 0.364727 0.367857
Si Si3 0.450962 0.057696 0.581367
Si Si4 0.604463 0.248206 0.065173
Si Si5 0.278393 0.935192 0.224567
Si Si6 0.119348 0.887480 0.583740
Si Si7 0.256648 0.905061 0.946387
Si Si8 0.935887 0.939819 0.849995
O O1 0.010757 0.564385 0.408653
O O2 0.094590 0.567767 0.612273
O O3 0.114338 0.748710 0.565197
O O4 0.926396 0.706656 0.402683
O O5 0.231853 0.426891 0.356269
O O6 0.242173 0.234945 0.421774
O O7 0.238506 0.432546 0.478765
O O8 0.057740 0.371034 0.223084
O O9 0.377116 0.132611 0.453232
O O10 0.368052 0.040281 0.542986
O O11 0.711006 0.332294 0.183610
O O12 0.504114 0.318150 0.921749
O O13 0.233805 0.066233 0.186573
O O14 0.128236 0.928536 0.661013
O O15 0.015270 0.948102 0.436634
O O16 0.148920 0.963499 0.797556
#
# Coordination Sequence:
#
# PCOD8136497 Si02
#       8
#     8   8   8   8   8   8   8   8
#     4  11  23  35  60  85 121 152 183 229 292 346
#     4  11  23  37  56  87 115 146 193 240 283 341
#     4  12  22  37  56  85 116 150 183 239 282 342
#     4  10  20  34  54  86 115 146 178 233 282 335
#     4  11  21  36  58  85 121 147 188 237 280 341
#     4   9  20  35  57  87 113 152 186 230 281 349
#     4  11  22  38  60  81 114 153 189 235 294 337
#     4   9  17  38  58  80 117 144 189 233 280 337
#
# _framework density 20.356207999999999
#
# number of rings (size 3 to 8) (size 9 to 14) (size 15 to 20)
#    0.000    1.500    3.750    3.000    1.750    0.000 
#    0.000    2.500    0.000    4.500    0.000    0.000 
#    0.000    0.000    0.000    0.000    0.000    0.000 
#
# Total GULP energy -396585.592842 kJ/mol
# GULP energy per Si atom -12393.299776 kJ/mol
# Density = 2.030988 g / cm^3
# Si number density = 20.356208 Si / 1000 Ang^3
#
#
#
# Elastic Constant Matrix: (Units=GPa)
#
#
# Indices 1 2 3 4 5 6 
#
# 1 101.4681 18.3549 43.5514 0.0000 -4.6865 0.0000
# 2 18.3549 35.9616 8.1253 0.0000 -3.5443 0.0000
# 3 43.5514 8.1253 102.2252 0.0000 -4.7774 0.0000
# 4 0.0000 0.0000 0.0000 19.2916 0.0000 -0.4788
# 5 -4.6865 -3.5443 -4.7774 0.0000 25.2458 0.0000
# 6 0.0000 0.0000 0.0000 -0.4788 0.0000 24.1885
#
#
#
# Elastic Compliance Matrix: (Units=1/GPa)
#
#
# Indices 1 2 3 4 5 6 
#
# 1 0.013061 -0.005446 -0.005099 0.000000 0.000695 0.000000
# 2 -0.005446 0.030911 0.000019 0.000000 0.003332 0.000000
# 3 -0.005099 0.000019 0.012015 0.000000 0.001330 0.000000
# 4 0.000000 0.000000 0.000000 0.051861 0.000000 0.001026
# 5 0.000695 0.003332 0.001330 0.000000 0.040459 0.000000
# 6 0.000000 0.000000 0.000000 0.001026 0.000000 0.041362
#
#
# Mechanical properties :
#
#
# Convention : Reuss Voigt Hill
#
# Bulk Modulus (GPa) = 28.62415 42.19090 35.40753
# Shear Modulus (GPa) = 22.48527 25.05341 23.76934
#
# Velocity S-wave (km/s) = 3.32714 3.51201 3.42083
# Velocity P-wave (km/s) = 5.37141 6.10057 5.74756
#
# Compressibility (1/GPa) = 0.03493553
#
# Stress axis : x y z
#
# Youngs Moduli (GPa) = 76.56291 32.35077 83.22659
#
# Poissons Ratio (x) = 0.17618 0.42439
# Poissons Ratio (y) = 0.41695 -0.00157
# Poissons Ratio (z) = 0.39041 -0.00061
#
# Static dielectric constant tensor:
#      x y z
#    x 3.714170 0.000000 0.118330 
#    y 0.000000 3.719530 0.000000 
#    z 0.118330 0.000000 3.767850 
# 
# 
# High freq. dielectric constant tensor:
#      x y z
#    x 1.784560 0.000000 0.021940 
#    y 0.000000 1.779460 0.000000 
#    z 0.021940 0.000000 1.790860 
# 
# From -- ./inp_files/257521.got.cif
#   From: 2010.06.25/outbox.cif.g09.slc.cpg/sg15_129_cif.got.tgz:257521.got - 2010.06.28 07:06:18.
