data_PCOD8136350
_publ_section_title
;
Structure prediction by ZEFSAII (Michael W. Deem and Ramdas Pophale) SiO2 
 PCOD8136350
Probable space group: C 2/C
;
_chemical_formula_sum "Si O2"
_cell_formula_units_Z 48
_cell_length_a 19.999649
_cell_length_b 18.621208
_cell_length_c 13.401632
_cell_angle_alpha 90.000000
_cell_angle_beta 28.368360
_cell_angle_gamma 90.000000
_cell_volume 2371.417505
_symmetry_space_group_name_H-M "C 2/C"
_symmetry_group_IT_number 15
_symmetry_cell_setting 'monoclinic'
loop_
_space_group_symop_operation_xyz
x,y,z
-x,y,1/2-z
-x,-y,-z
x,-y,1/2+z
1/2+x,1/2+y,z
1/2-x,1/2+y,1/2-z
1/2-x,1/2-y,-z
1/2+x,1/2-y,1/2+z
loop_
_atom_site_type_symbol
_atom_site_label
_atom_site_fract_x
_atom_site_fract_y
_atom_site_fract_z
Si Si1 0.786484 0.366331 0.980496
Si Si2 0.539811 0.732524 0.801803
Si Si3 0.820338 0.279691 0.238729
Si Si4 0.341792 0.069066 0.216615
Si Si5 0.145335 0.429193 0.402384
Si Si6 0.556006 0.184608 0.574833
O O1 0.916006 0.315691 0.774185
O O2 0.735701 0.406621 0.945307
O O3 0.665037 0.314443 0.185310
O O4 0.829170 0.421184 0.012296
O O5 0.500000 0.695843 0.750000
O O6 0.401494 0.731822 0.050313
O O7 0.796533 0.360657 0.232733
O O8 0.668705 0.245395 0.457583
O O9 0.919209 0.278392 0.205935
O O10 0.276851 0.999751 0.245414
O O11 0.482332 0.053484 0.096327
O O12 0.370528 0.129257 0.095898
O O13 0.500000 0.146865 0.750000
#
# Coordination Sequence:
#
# PCOD8136350 Si02
#       6
#     8   8   8   8   8   8
#     4  11  19  34  56  88 120 149 187 242 301 343
#     4  11  19  31  60  90 115 142 189 251 296 344
#     4  11  21  38  59  87 114 149 199 243 294 343
#     4  10  21  35  55  85 122 150 192 241 293 350
#     4  10  20  33  56  87 120 150 188 241 296 343
#     4  11  23  39  58  82 116 156 197 240 288 349
#
# _framework density 20.241059
#
# number of rings (size 3 to 8) (size 9 to 14) (size 15 to 20)
#    0.000    1.333    5.000    3.000    0.000    4.000 
#    0.000    0.000    0.000   12.000    0.000    0.000 
#    0.000    0.000    0.000    0.000    0.000    0.000 
#
# Total GULP energy -297461.020114 kJ/mol
# GULP energy per Si atom -12394.209171 kJ/mol
# Density = 2.019499 g / cm^3
# Si number density = 20.241059 Si / 1000 Ang^3
#
#
#
# Elastic Constant Matrix: (Units=GPa)
#
#
# Indices 1 2 3 4 5 6 
#
# 1 131.4678 56.1412 47.0442 0.0019 20.2907 -0.0005
# 2 56.1412 99.0633 36.4744 -0.0002 13.0894 0.0002
# 3 47.0442 36.4744 46.8457 0.0027 16.5121 -0.0014
# 4 0.0019 -0.0002 0.0027 16.3046 -0.0016 4.3134
# 5 20.2907 13.0894 16.5121 -0.0016 27.3020 0.0006
# 6 -0.0005 0.0002 -0.0014 4.3134 0.0006 31.8057
#
#
#
# Elastic Compliance Matrix: (Units=1/GPa)
#
#
# Indices 1 2 3 4 5 6 
#
# 1 0.012785 -0.003523 -0.009331 0.000000 -0.002169 0.000000
# 2 -0.003523 0.015123 -0.008393 0.000002 0.000444 -0.000001
# 3 -0.009331 -0.008393 0.042436 -0.000008 -0.014706 0.000003
# 4 0.000000 0.000002 -0.000008 0.063615 0.000008 -0.008627
# 5 -0.002169 0.000444 -0.014706 0.000008 0.046921 -0.000003
# 6 0.000000 -0.000001 0.000003 -0.008627 -0.000003 0.032611
#
#
# Mechanical properties :
#
#
# Convention : Reuss Voigt Hill
#
# Bulk Modulus (GPa) = 35.90864 61.85513 48.88189
# Shear Modulus (GPa) = 18.84884 24.26360 21.55622
#
# Velocity S-wave (km/s) = 3.05490 3.46603 3.26694
# Velocity P-wave (km/s) = 5.49747 6.82959 6.19942
#
# Compressibility (1/GPa) = 0.02784845
#
# Stress axis : x y z
#
# Youngs Moduli (GPa) = 78.21812 66.12534 23.56472
#
# Poissons Ratio (x) = 0.23296 0.21989
# Poissons Ratio (y) = 0.27557 0.19779
# Poissons Ratio (z) = 0.72988 0.55501
#
# Static dielectric constant tensor:
#      x y z
#    x 3.885300 0.000000 0.136040 
#    y 0.000000 3.696650 0.000000 
#    z 0.136040 0.000000 3.407620 
# 
# 
# High freq. dielectric constant tensor:
#      x y z
#    x 1.803220 0.000000 0.014480 
#    y 0.000000 1.769220 0.000000 
#    z 0.014480 0.000000 1.760560 
# 
# From -- ./inp_files/168842.got.cif
#   From: 2010.06.25/outbox.cif.g09.slc.cpg/sg15_85_cif.got.tgz:168842.got - 2010.06.28 07:06:18.
