data_PCOD8136173
_publ_section_title
;
Structure prediction by ZEFSAII (Michael W. Deem and Ramdas Pophale) SiO2 
 PCOD8136173
Probable space group: C 2/C
;
_chemical_formula_sum "Si O2"
_cell_formula_units_Z 48
_cell_length_a 29.822681
_cell_length_b 8.382522
_cell_length_c 9.803375
_cell_angle_alpha 90.000000
_cell_angle_beta 98.298911
_cell_angle_gamma 90.000000
_cell_volume 2425.075824
_symmetry_space_group_name_H-M "C 2/C"
_symmetry_group_IT_number 15
_symmetry_cell_setting 'monoclinic'
loop_
_space_group_symop_operation_xyz
x,y,z
-x,y,1/2-z
-x,-y,-z
x,-y,1/2+z
1/2+x,1/2+y,z
1/2-x,1/2+y,1/2-z
1/2-x,1/2-y,-z
1/2+x,1/2-y,1/2+z
loop_
_atom_site_type_symbol
_atom_site_label
_atom_site_fract_x
_atom_site_fract_y
_atom_site_fract_z
Si Si1 0.796625 0.605800 0.892290
Si Si2 0.873100 0.896632 0.201217
Si Si3 0.382370 0.312353 0.898976
Si Si4 0.787063 0.680631 0.190952
Si Si5 0.480532 0.707815 0.378879
Si Si6 0.466241 0.331431 0.346144
O O1 0.846590 0.670079 0.883553
O O2 0.791027 0.435125 0.820829
O O3 0.760728 0.730917 0.816777
O O4 0.789350 0.581807 0.050931
O O5 0.826393 0.811157 0.214981
O O6 0.914324 0.793856 0.284580
O O7 0.871651 0.071666 0.267156
O O8 0.880723 0.911402 0.041051
O O9 0.431228 0.226032 0.901210
O O10 0.500000 0.786985 0.250000
O O11 0.473056 0.520230 0.357234
O O12 0.519660 0.747948 0.505134
O O13 0.500000 0.257157 0.250000
#
# Coordination Sequence:
#
# PCOD8136173 Si02
#       6
#     8   8   8   8   8   8
#     4  10  22  40  60  81 111 139 178 222 270 322
#     4  10  20  32  53  82 112 142 182 221 269 317
#     4  10  20  33  52  82 112 143 179 226 266 317
#     4  10  22  40  59  83 109 141 177 222 268 325
#     4   9  17  27  45  74 108 141 180 222 261 309
#     4   9  15  27  45  72 106 143 175 221 265 304
#
# _framework density 19.793195999999998
#
# number of rings (size 3 to 8) (size 9 to 14) (size 15 to 20)
#    0.000    2.333    1.667    1.000    7.000    2.000 
#    0.000    0.000    0.000    2.000    0.000    0.000 
#    0.000    0.000    0.000    0.000    0.000    0.000 
#
# Total GULP energy -297557.889530 kJ/mol
# GULP energy per Si atom -12398.245397 kJ/mol
# Density = 1.974815 g / cm^3
# Si number density = 19.793196 Si / 1000 Ang^3
#
#
#
# Elastic Constant Matrix: (Units=GPa)
#
#
# Indices 1 2 3 4 5 6 
#
# 1 112.4056 1.1736 25.7933 0.0000 1.3526 0.0000
# 2 1.1736 18.1879 3.7307 0.0000 0.1616 0.0000
# 3 25.7933 3.7307 82.2624 0.0000 4.1212 0.0000
# 4 0.0000 0.0000 0.0000 24.8955 0.0000 4.6226
# 5 1.3526 0.1616 4.1212 0.0000 33.5984 0.0000
# 6 0.0000 0.0000 0.0000 4.6226 0.0000 15.8641
#
#
#
# Elastic Compliance Matrix: (Units=1/GPa)
#
#
# Indices 1 2 3 4 5 6 
#
# 1 0.009586 -0.000002 -0.003005 0.000000 -0.000017 0.000000
# 2 -0.000002 0.055498 -0.002518 0.000000 0.000042 0.000000
# 3 -0.003005 -0.002518 0.013288 0.000000 -0.001497 0.000000
# 4 0.000000 0.000000 0.000000 0.042466 0.000000 -0.012374
# 5 -0.000017 0.000042 -0.001497 0.000000 0.029947 0.000000
# 6 0.000000 0.000000 0.000000 -0.012374 0.000000 0.066641
#
#
# Mechanical properties :
#
#
# Convention : Reuss Voigt Hill
#
# Bulk Modulus (GPa) = 14.85415 30.47236 22.66326
# Shear Modulus (GPa) = 19.92696 27.01547 23.47122
#
# Velocity S-wave (km/s) = 3.17639 3.69845 3.44731
# Velocity P-wave (km/s) = 4.57969 5.80231 5.22687
#
# Compressibility (1/GPa) = 0.06732126
#
# Stress axis : x y z
#
# Youngs Moduli (GPa) = 104.31798 18.01866 75.25839
#
# Poissons Ratio (x) = 0.00004 0.22613
# Poissons Ratio (y) = 0.00022 0.18953
# Poissons Ratio (z) = 0.31345 0.04538
#
# Static dielectric constant tensor:
#      x y z
#    x 3.971020 0.000000 0.030220 
#    y 0.000000 2.898250 0.000000 
#    z 0.030220 0.000000 3.878680 
# 
# 
# High freq. dielectric constant tensor:
#      x y z
#    x 1.795200 0.000000 0.003320 
#    y 0.000000 1.708100 0.000000 
#    z 0.003320 0.000000 1.785430 
# 
# From -- ./inp_files/68552.got.cif
#   From: 2010.06.25/outbox.cif.g09.slc.cpg/sg15_35_cif.got.tgz:68552.got - 2010.06.28 07:06:18.
