data_PCOD8136330
_publ_section_title
;
Structure prediction by ZEFSAII (Michael W. Deem and Ramdas Pophale) SiO2 
 PCOD8136330
Probable space group: C 2/C
;
_chemical_formula_sum "Si O2"
_cell_formula_units_Z 56
_cell_length_a 13.172072
_cell_length_b 14.763177
_cell_length_c 27.764050
_cell_angle_alpha 90.000000
_cell_angle_beta 32.577683
_cell_angle_gamma 90.000000
_cell_volume 2907.074468
_symmetry_space_group_name_H-M "C 2/C"
_symmetry_group_IT_number 15
_symmetry_cell_setting 'monoclinic'
loop_
_space_group_symop_operation_xyz
x,y,z
-x,y,1/2-z
-x,-y,-z
x,-y,1/2+z
1/2+x,1/2+y,z
1/2-x,1/2+y,1/2-z
1/2-x,1/2-y,-z
1/2+x,1/2-y,1/2+z
loop_
_atom_site_type_symbol
_atom_site_label
_atom_site_fract_x
_atom_site_fract_y
_atom_site_fract_z
Si Si1 0.806553 0.842126 0.756998
Si Si2 0.187964 0.986967 0.457292
Si Si3 0.904404 0.027726 0.394365
Si Si4 0.390497 0.836517 0.893635
Si Si5 0.827290 0.647100 0.083659
Si Si6 0.903074 0.687857 0.837714
Si Si7 0.238415 0.652917 0.946011
O O1 0.614203 0.823940 0.806148
O O2 0.775063 0.874695 0.824646
O O3 0.892419 0.929896 0.696574
O O4 0.941523 0.752944 0.697756
O O5 0.125824 0.977083 0.536879
O O6 0.327302 0.902003 0.393416
O O7 0.320300 0.074053 0.394227
O O8 0.000000 0.000000 0.500000
O O9 0.750105 0.089594 0.429663
O O10 0.890432 0.926901 0.377394
O O11 0.317360 0.747781 0.894476
O O12 0.304200 0.838581 0.980893
O O13 0.787274 0.753792 0.092716
O O14 0.048127 0.627642 0.994310
O O15 0.000000 0.655122 0.750000
#
# Coordination Sequence:
#
# PCOD8136330 Si02
#       7
#     8   8   8   8   8   8   8
#     4   9  19  35  56  82 108 135 177 225 274 328
#     4  11  23  36  53  79 109 146 186 218 259 319
#     4  10  20  33  55  81 106 139 173 222 275 317
#     4   9  19  34  52  77 105 139 181 223 262 319
#     4   9  17  34  57  82 105 133 177 225 271 325
#     4   9  19  35  57  77 103 144 178 216 268 319
#     4   9  17  32  55  77 102 135 177 222 272 322
#
# _framework density 19.263354
#
# number of rings (size 3 to 8) (size 9 to 14) (size 15 to 20)
#    0.000    2.571    0.000    2.571    0.000    8.000 
#    0.000    0.000    0.000    8.571    0.000    0.000 
#    0.000    0.000    0.000    0.000    0.000    0.000 
#
# Total GULP energy -346909.135311 kJ/mol
# GULP energy per Si atom -12389.611975 kJ/mol
# Density = 1.921951 g / cm^3
# Si number density = 19.263354 Si / 1000 Ang^3
#
#
#
# Elastic Constant Matrix: (Units=GPa)
#
#
# Indices 1 2 3 4 5 6 
#
# 1 87.0140 40.6006 32.8252 -0.0008 -4.6494 0.0008
# 2 40.6006 150.4808 62.7503 0.0016 -7.0291 0.0015
# 3 32.8252 62.7503 72.9966 0.0065 -15.6739 0.0053
# 4 -0.0008 0.0016 0.0065 20.3395 0.0050 0.5727
# 5 -4.6494 -7.0291 -15.6739 0.0050 22.7494 -0.0014
# 6 0.0008 0.0015 0.0053 0.5727 -0.0014 24.6725
#
#
#
# Elastic Compliance Matrix: (Units=1/GPa)
#
#
# Indices 1 2 3 4 5 6 
#
# 1 0.014177 -0.001740 -0.005132 0.000003 -0.001176 0.000001
# 2 -0.001740 0.010807 -0.009233 0.000003 -0.003378 0.000001
# 3 -0.005132 -0.009233 0.027118 -0.000012 0.014782 -0.000004
# 4 0.000003 0.000003 -0.000012 0.049198 -0.000017 -0.001142
# 5 -0.001176 -0.003378 0.014782 -0.000017 0.052858 0.000000
# 6 0.000001 0.000001 -0.000004 -0.001142 0.000000 0.040557
#
#
# Mechanical properties :
#
#
# Convention : Reuss Voigt Hill
#
# Bulk Modulus (GPa) = 50.27017 64.76040 57.51529
# Shear Modulus (GPa) = 21.40803 25.17329 23.29066
#
# Velocity S-wave (km/s) = 3.33729 3.61889 3.48093
# Velocity P-wave (km/s) = 6.40335 7.15215 6.78808
#
# Compressibility (1/GPa) = 0.01989251
#
# Stress axis : x y z
#
# Youngs Moduli (GPa) = 70.53431 92.53056 36.87561
#
# Poissons Ratio (x) = 0.16101 0.18925
# Poissons Ratio (y) = 0.12273 0.34048
# Poissons Ratio (z) = 0.36199 0.85434
#
# Static dielectric constant tensor:
#      x y z
#    x 3.439190 0.000000 -0.191510 
#    y 0.000000 3.804590 0.000010 
#    z -0.191510 0.000010 3.411330 
# 
# 
# High freq. dielectric constant tensor:
#      x y z
#    x 1.739670 0.000000 -0.021840 
#    y 0.000000 1.761230 0.000000 
#    z -0.021840 0.000000 1.731190 
# 
# From -- ./inp_files/292855.got.cif
#   From: 2010.06.25/outbox.cif.g09.slc.cpg/sg15_147_cif.got.tgz:292855.got - 2010.06.28 07:06:18.
