data_PCOD8136546
_publ_section_title
;
Structure prediction by ZEFSAII (Michael W. Deem and Ramdas Pophale) SiO2 
 PCOD8136546
Probable space group: C 2/C
;
_chemical_formula_sum "Si O2"
_cell_formula_units_Z 44
_cell_length_a 27.268276
_cell_length_b 11.866198
_cell_length_c 13.873339
_cell_angle_alpha 90.000000
_cell_angle_beta 28.244193
_cell_angle_gamma 90.000000
_cell_volume 2124.334453
_symmetry_space_group_name_H-M "C 2/C"
_symmetry_group_IT_number 15
_symmetry_cell_setting 'monoclinic'
loop_
_space_group_symop_operation_xyz
x,y,z
-x,y,1/2-z
-x,-y,-z
x,-y,1/2+z
1/2+x,1/2+y,z
1/2-x,1/2+y,1/2-z
1/2-x,1/2-y,-z
1/2+x,1/2-y,1/2+z
loop_
_atom_site_type_symbol
_atom_site_label
_atom_site_fract_x
_atom_site_fract_y
_atom_site_fract_z
Si Si1 0.723744 0.418773 0.607125
Si Si2 0.302307 0.604832 0.980705
Si Si3 0.090445 0.325879 0.747314
Si Si4 0.797398 0.497629 0.675285
Si Si5 0.865064 0.678603 0.706015
Si Si6 0.500000 0.015966 0.250000
O O1 0.657034 0.493744 0.646975
O O2 0.747605 0.502018 0.655180
O O3 0.828339 0.378381 0.369881
O O4 0.662198 0.310185 0.749911
O O5 0.189912 0.635414 0.133496
O O6 0.279958 0.581525 0.131290
O O7 0.390333 0.698566 0.821900
O O8 0.075647 0.404318 0.680888
O O9 0.988914 0.332675 0.989994
O O10 0.810903 0.618156 0.706870
O O11 0.915723 0.445304 0.458617
#
# Coordination Sequence:
#
# PCOD8136546 Si02
#       6
#     8   8   8   8   8   4
#     4  10  20  39  58  82 118 151 190 235 289 339
#     4  10  22  36  58  85 115 151 191 235 281 341
#     4  10  21  37  57  86 116 145 193 234 282 338
#     4  10  21  33  59  83 111 147 193 234 285 333
#     4   9  22  37  58  83 116 153 188 236 287 340
#     4  10  20  34  56  82 110 148 184 242 280 330
#
# _framework density 20.71237
#
# number of rings (size 3 to 8) (size 9 to 14) (size 15 to 20)
#    0.000    2.182    1.818    0.000    7.636    2.909 
#    0.000    0.000    0.000    0.000    0.000    0.000 
#    0.000    0.000    0.000    0.000    0.000    0.000 
#
# Total GULP energy -272553.271041 kJ/mol
# GULP energy per Si atom -12388.785047 kJ/mol
# Density = 2.066523 g / cm^3
# Si number density = 20.712370 Si / 1000 Ang^3
#
#
#
# Elastic Constant Matrix: (Units=GPa)
#
#
# Indices 1 2 3 4 5 6 
#
# 1 80.9306 9.3099 20.8554 0.0000 20.7138 0.0000
# 2 9.3099 66.4823 12.7113 0.0000 12.4225 0.0000
# 3 20.8554 12.7113 53.9042 0.0000 13.2274 0.0000
# 4 0.0000 0.0000 0.0000 18.6603 0.0000 5.0074
# 5 20.7138 12.4225 13.2274 0.0000 28.0963 0.0000
# 6 0.0000 0.0000 0.0000 5.0074 0.0000 20.5978
#
#
#
# Elastic Compliance Matrix: (Units=1/GPa)
#
#
# Indices 1 2 3 4 5 6 
#
# 1 0.015863 0.000382 -0.003750 0.000000 -0.010099 0.000000
# 2 0.000382 0.016675 -0.002489 0.000000 -0.006483 0.000000
# 3 -0.003750 -0.002489 0.022206 0.000000 -0.006589 0.000000
# 4 0.000000 0.000000 0.000000 0.057330 0.000000 -0.013937
# 5 -0.010099 -0.006483 -0.006589 0.000000 0.049006 0.000000
# 6 0.000000 0.000000 0.000000 -0.013937 0.000000 0.051937
#
#
# Mechanical properties :
#
#
# Convention : Reuss Voigt Hill
#
# Bulk Modulus (GPa) = 23.23862 31.89670 27.56766
# Shear Modulus (GPa) = 20.91402 24.03358 22.47380
#
# Velocity S-wave (km/s) = 3.18108 3.41009 3.29757
# Velocity P-wave (km/s) = 4.97357 5.56221 5.27611
#
# Compressibility (1/GPa) = 0.04303182
#
# Stress axis : x y z
#
# Youngs Moduli (GPa) = 63.03872 59.96880 45.03265
#
# Poissons Ratio (x) = -0.02294 0.16885
# Poissons Ratio (y) = -0.02411 0.11211
# Poissons Ratio (z) = 0.23636 0.14929
#
# Static dielectric constant tensor:
#      x y z
#    x 3.621850 0.000000 0.354140 
#    y 0.000000 3.898530 0.000000 
#    z 0.354140 0.000000 3.864570 
# 
# 
# High freq. dielectric constant tensor:
#      x y z
#    x 1.798880 0.000000 0.029690 
#    y 0.000000 1.797800 0.000000 
#    z 0.029690 0.000000 1.814650 
# 
# From -- ./inp_files/151339.got.cif
#   From: 2010.06.25/outbox.cif.g09.slc.cpg/sg15_76_cif.got.tgz:151339.got - 2010.06.28 07:06:18.
