data_PCOD8136765
_publ_section_title
;
Structure prediction by ZEFSAII (Michael W. Deem and Ramdas Pophale) SiO2 
 PCOD8136765
Probable space group: C 2/C
;
_chemical_formula_sum "Si O2"
_cell_formula_units_Z 60
_cell_length_a 23.023868
_cell_length_b 12.888522
_cell_length_c 24.801020
_cell_angle_alpha 90.000000
_cell_angle_beta 22.402111
_cell_angle_gamma 90.000000
_cell_volume 2804.755155
_symmetry_space_group_name_H-M "C 2/C"
_symmetry_group_IT_number 15
_symmetry_cell_setting 'monoclinic'
loop_
_space_group_symop_operation_xyz
x,y,z
-x,y,1/2-z
-x,-y,-z
x,-y,1/2+z
1/2+x,1/2+y,z
1/2-x,1/2+y,1/2-z
1/2-x,1/2-y,-z
1/2+x,1/2-y,1/2+z
loop_
_atom_site_type_symbol
_atom_site_label
_atom_site_fract_x
_atom_site_fract_y
_atom_site_fract_z
Si Si1 0.450054 0.050987 0.656272
Si Si2 0.433176 0.173370 0.453803
Si Si3 0.328321 0.666598 0.564157
Si Si4 0.644642 0.443770 0.774918
Si Si5 0.758830 0.642188 0.064989
Si Si6 0.071462 0.653556 0.447328
Si Si7 0.408712 0.364682 0.234653
Si Si8 0.000000 0.012384 0.250000
O O1 0.280974 0.074895 0.822478
O O2 0.564871 0.113660 0.597511
O O3 0.470275 0.086867 0.576432
O O4 0.480308 0.929941 0.638716
O O5 0.467310 0.190708 0.487597
O O6 0.492645 0.264915 0.364634
O O7 0.251878 0.168007 0.601158
O O8 0.490906 0.620234 0.410297
O O9 0.253037 0.732371 0.578584
O O10 0.355388 0.744325 0.589898
O O11 0.722607 0.418892 0.650994
O O12 0.778631 0.412859 0.702547
O O13 0.614772 0.567624 0.800171
O O14 0.643724 0.592560 0.120097
O O15 0.500041 0.438205 0.197975
#
# Coordination Sequence:
#
# PCOD8136765 Si02
#       8
#     8   8   8   8   8   8   8   4
#     4  10  20  39  60  89 128 165 193 250 305 370
#     4  12  25  40  61  89 121 164 219 255 297 373
#     4  10  20  34  63  98 129 158 198 244 303 381
#     4   9  19  39  57  90 130 160 192 254 304 365
#     4   9  17  38  64  85 118 158 201 237 320 368
#     4  10  20  37  61  86 130 169 195 239 316 369
#     4  11  26  43  63  87 118 162 220 262 310 357
#     4  10  20  46  70  84 120 166 200 268 324 352
#
# _framework density 21.392240999999999
#
# number of rings (size 3 to 8) (size 9 to 14) (size 15 to 20)
#    0.000    2.133    4.000    3.600    5.600    0.533 
#    0.000    7.333    0.000    0.000    0.000    0.000 
#    0.000    0.000    0.000    0.000    0.000    0.000 
#
# Total GULP energy -371720.887291 kJ/mol
# GULP energy per Si atom -12390.696243 kJ/mol
# Density = 2.134355 g / cm^3
# Si number density = 21.392241 Si / 1000 Ang^3
#
#
#
# Elastic Constant Matrix: (Units=GPa)
#
#
# Indices 1 2 3 4 5 6 
#
# 1 47.1739 11.3988 23.2809 -0.0038 -12.2707 -0.0027
# 2 11.3988 100.3419 30.4541 -0.0259 7.2083 -0.0039
# 3 23.2809 30.4541 81.1629 -0.0176 -14.6523 -0.0037
# 4 -0.0038 -0.0259 -0.0176 39.4169 0.0022 -2.6355
# 5 -12.2707 7.2083 -14.6523 0.0022 15.1819 0.0038
# 6 -0.0027 -0.0039 -0.0037 -2.6355 0.0038 23.4176
#
#
#
# Elastic Compliance Matrix: (Units=1/GPa)
#
#
# Indices 1 2 3 4 5 6 
#
# 1 0.029622 -0.004223 -0.002698 -0.000003 0.023343 -0.000002
# 2 -0.004223 0.013754 -0.006956 0.000007 -0.016657 0.000004
# 3 -0.002698 -0.006956 0.019264 0.000003 0.019714 -0.000001
# 4 -0.000003 0.000007 0.000003 0.025562 -0.000007 0.002877
# 5 0.023343 -0.016657 0.019714 -0.000007 0.111671 -0.000016
# 6 -0.000002 0.000004 -0.000001 0.002877 -0.000016 0.043027
#
#
# Mechanical properties :
#
#
# Convention : Reuss Voigt Hill
#
# Bulk Modulus (GPa) = 28.66608 39.88291 34.27449
# Shear Modulus (GPa) = 17.71276 26.50627 22.10951
#
# Velocity S-wave (km/s) = 2.88062 3.52385 3.21834
# Velocity P-wave (km/s) = 4.94907 5.93639 5.46507
#
# Compressibility (1/GPa) = 0.03488444
#
# Stress axis : x y z
#
# Youngs Moduli (GPa) = 33.75867 72.70833 51.91006
#
# Poissons Ratio (x) = 0.30705 0.14006
# Poissons Ratio (y) = 0.14256 0.36111
# Poissons Ratio (z) = 0.09109 0.50579
#
# Static dielectric constant tensor:
#      x y z
#    x 3.813620 -0.000010 -0.559200 
#    y -0.000010 4.081140 0.000020 
#    z -0.559200 0.000020 3.996440 
# 
# 
# High freq. dielectric constant tensor:
#      x y z
#    x 1.800930 0.000000 -0.031010 
#    y 0.000000 1.849950 0.000000 
#    z -0.031010 0.000000 1.837030 
# 
# From -- ./inp_files/319571.got.cif
#   From: 2010.06.25/outbox.cif.g09.slc.cpg/sg15_160_cif.got.tgz:319571.got - 2010.06.28 07:06:18.
