data_PCOD8136567
_publ_section_title
;
Structure prediction by ZEFSAII (Michael W. Deem and Ramdas Pophale) SiO2 
 PCOD8136567
Probable space group: C 2/C
;
_chemical_formula_sum "Si O2"
_cell_formula_units_Z 52
_cell_length_a 12.430253
_cell_length_b 22.390883
_cell_length_c 12.318457
_cell_angle_alpha 90.000000
_cell_angle_beta 45.514334
_cell_angle_gamma 90.000000
_cell_volume 2445.999127
_symmetry_space_group_name_H-M "C 2/C"
_symmetry_group_IT_number 15
_symmetry_cell_setting 'monoclinic'
loop_
_space_group_symop_operation_xyz
x,y,z
-x,y,1/2-z
-x,-y,-z
x,-y,1/2+z
1/2+x,1/2+y,z
1/2-x,1/2+y,1/2-z
1/2-x,1/2-y,-z
1/2+x,1/2-y,1/2+z
loop_
_atom_site_type_symbol
_atom_site_label
_atom_site_fract_x
_atom_site_fract_y
_atom_site_fract_z
Si Si1 0.500000 0.201205 0.250000
Si Si2 0.376039 0.136988 0.540763
Si Si3 0.806070 0.660461 0.107226
Si Si4 0.664970 0.548230 0.583467
Si Si5 0.931483 0.126276 0.043486
Si Si6 0.138397 0.916994 0.571476
Si Si7 0.650362 0.278172 0.313524
O O1 0.399698 0.163413 0.404238
O O2 0.624270 0.239181 0.225094
O O3 0.538061 0.125469 0.480161
O O4 0.279920 0.076778 0.589799
O O5 0.291018 0.179783 0.686766
O O6 0.686483 0.641678 0.281308
O O7 0.749307 0.637424 0.029449
O O8 0.821838 0.732940 0.103658
O O9 0.500000 0.548443 0.750000
O O10 0.656646 0.584956 0.478211
O O11 0.722043 0.481149 0.517142
O O12 0.078451 0.093968 0.992147
O O13 0.995391 0.186036 0.942933
O O14 0.000000 0.919178 0.750000
#
# Coordination Sequence:
#
# PCOD8136567 Si02
#       7
#     4   8   8   8   8   8   8
#     4  10  20  34  56  88 122 154 188 238 302 360
#     4  11  21  35  59  90 121 149 190 247 305 340
#     4  10  22  39  58  87 121 155 195 236 298 359
#     4  11  20  37  62  88 117 148 201 253 292 348
#     4  11  21  39  62  87 113 159 202 239 293 348
#     4   9  22  40  60  82 115 164 204 238 284 353
#     4  11  20  35  60  88 123 151 194 244 297 354
#
# _framework density 21.259205000000001
#
# number of rings (size 3 to 8) (size 9 to 14) (size 15 to 20)
#    0.000    1.538    1.538    5.538    0.000    1.231 
#    0.000    2.308    6.769    0.000    0.000    0.000 
#    0.000    0.000    0.000    0.000    0.000    0.000 
#
# Total GULP energy -322302.996968 kJ/mol
# GULP energy per Si atom -12396.269114 kJ/mol
# Density = 2.121082 g / cm^3
# Si number density = 21.259205 Si / 1000 Ang^3
#
#
#
# Elastic Constant Matrix: (Units=GPa)
#
#
# Indices 1 2 3 4 5 6 
#
# 1 99.7382 41.9700 8.4093 0.0000 -10.7865 0.0000
# 2 41.9700 111.0970 4.1445 0.0000 -5.1366 0.0000
# 3 8.4093 4.1445 46.3231 0.0000 -17.6194 0.0000
# 4 0.0000 0.0000 0.0000 -7.2992 0.0000 -7.4346
# 5 -10.7865 -5.1366 -17.6194 0.0000 28.5383 0.0000
# 6 0.0000 0.0000 0.0000 -7.4346 0.0000 30.8721
#
#
#
# Elastic Compliance Matrix: (Units=1/GPa)
#
#
# Indices 1 2 3 4 5 6 
#
# 1 0.012336 -0.004478 -0.000486 0.000000 0.003557 0.000000
# 2 -0.004478 0.010704 -0.000073 0.000000 0.000189 0.000000
# 3 -0.000486 -0.000073 0.028239 0.000000 0.017238 0.000000
# 4 0.000000 0.000000 0.000000 -0.110016 0.000000 -0.026494
# 5 0.003557 0.000189 0.017238 0.000000 0.047061 0.000000
# 6 0.000000 0.000000 0.000000 -0.026494 0.000000 0.026011
#
#
# Mechanical properties :
#
#
# Convention : Reuss Voigt Hill
#
# Bulk Modulus (GPa) = 24.26840 40.68954 32.47897
# Shear Modulus (GPa) = 131.08051 23.93121 77.50586
#
# Velocity S-wave (km/s) = 7.86079 3.35877 6.04456
# Velocity P-wave (km/s) = 9.68657 5.85004 8.00165
#
# Compressibility (1/GPa) = 0.04120585
#
# Stress axis : x y z
#
# Youngs Moduli (GPa) = 81.06281 93.42129 35.41228
#
# Poissons Ratio (x) = 0.41832 0.01721
# Poissons Ratio (y) = 0.36298 0.00258
# Poissons Ratio (z) = 0.03940 0.00681
#
# Static dielectric constant tensor:
#      x y z
#    x 2.052830 0.000000 2.003940 
#    y 0.000000 4.167440 0.000000 
#    z 2.003940 0.000000 1.804620 
# 
# 
# High freq. dielectric constant tensor:
#      x y z
#    x 1.832130 0.000000 -0.005150 
#    y 0.000000 1.829230 0.000000 
#    z -0.005150 0.000000 1.822150 
# 
# From -- ./inp_files/91205.got.cif
#   From: 2010.06.25/outbox.cif.g09.slc.cpg/sg15_46_cif.got.tgz:91205.got - 2010.06.28 07:06:18.
