data_PCOD8136472
_publ_section_title
;
Structure prediction by ZEFSAII (Michael W. Deem and Ramdas Pophale) SiO2 
 PCOD8136472
Probable space group: C 2/C
;
_chemical_formula_sum "Si O2"
_cell_formula_units_Z 60
_cell_length_a 25.178408
_cell_length_b 9.783441
_cell_length_c 13.163650
_cell_angle_alpha 90.000000
_cell_angle_beta 76.606030
_cell_angle_gamma 90.000000
_cell_volume 3154.422798
_symmetry_space_group_name_H-M "C 2/C"
_symmetry_group_IT_number 15
_symmetry_cell_setting 'monoclinic'
loop_
_space_group_symop_operation_xyz
x,y,z
-x,y,1/2-z
-x,-y,-z
x,-y,1/2+z
1/2+x,1/2+y,z
1/2-x,1/2+y,1/2-z
1/2-x,1/2-y,-z
1/2+x,1/2-y,1/2+z
loop_
_atom_site_type_symbol
_atom_site_label
_atom_site_fract_x
_atom_site_fract_y
_atom_site_fract_z
Si Si1 0.000000 0.535907 0.250000
Si Si2 0.555106 0.421075 0.505388
Si Si3 0.403597 0.935797 0.674166
Si Si4 0.764664 0.118909 0.559956
Si Si5 0.149066 0.349925 0.166748
Si Si6 0.646776 0.347720 0.314119
Si Si7 0.646715 0.461137 0.625190
Si Si8 0.056568 0.620112 0.553319
O O1 0.052539 0.621573 0.261195
O O2 0.011824 0.444079 0.146100
O O3 0.500000 0.500000 0.500000
O O4 0.596074 0.420961 0.391924
O O5 0.589040 0.475175 0.589219
O O6 0.534205 0.268948 0.535625
O O7 0.360015 0.815533 0.689360
O O8 0.433132 0.966399 0.553729
O O9 0.378975 0.080015 0.723052
O O10 0.750000 0.250000 0.500000
O O11 0.705700 0.067242 0.623887
O O12 0.797544 0.143805 0.648507
O O13 0.801574 0.019192 0.473929
O O14 0.152650 0.185471 0.180859
O O15 0.115446 0.371035 0.079199
O O16 0.651934 0.416225 0.202098
#
# Coordination Sequence:
#
# PCOD8136472 Si02
#       8
#     4   8   8   8   8   8   8   8
#     4  10  20  34  54  74 100 140 174 212 260 306
#     4   9  19  33  52  75 105 144 179 214 266 319
#     4  10  20  35  52  77 106 135 172 215 262 313
#     4   9  18  36  58  76 104 144 179 215 264 319
#     4   9  19  35  57  77 100 141 180 211 259 315
#     4  10  21  34  52  80 109 136 173 221 270 312
#     4   9  19  36  53  78 109 137 179 225 259 316
#     4   9  19  35  52  77 105 133 176 219 254 310
#
# _framework density 19.020911999999999
#
# number of rings (size 3 to 8) (size 9 to 14) (size 15 to 20)
#    0.000    2.667    0.000    2.800    0.000    9.067 
#    0.000    6.000    0.000    0.000    0.000    0.000 
#    0.000    0.000    0.000    0.000    0.000    0.000 
#
# Total GULP energy -371658.059135 kJ/mol
# GULP energy per Si atom -12388.601971 kJ/mol
# Density = 1.897762 g / cm^3
# Si number density = 19.020912 Si / 1000 Ang^3
#
#
#
# Elastic Constant Matrix: (Units=GPa)
#
#
# Indices 1 2 3 4 5 6 
#
# 1 111.2931 24.8439 33.0089 0.0000 5.3450 0.0000
# 2 24.8439 50.8783 42.9891 0.0000 1.9165 0.0000
# 3 33.0089 42.9891 119.3427 0.0000 3.8458 0.0000
# 4 0.0000 0.0000 0.0000 32.3403 0.0000 5.7653
# 5 5.3450 1.9165 3.8458 0.0000 24.4665 0.0000
# 6 0.0000 0.0000 0.0000 5.7653 0.0000 20.8359
#
#
#
# Elastic Compliance Matrix: (Units=1/GPa)
#
#
# Indices 1 2 3 4 5 6 
#
# 1 0.010337 -0.003757 -0.001450 0.000000 -0.001736 0.000000
# 2 -0.003757 0.029629 -0.009634 0.000000 0.000014 0.000000
# 3 -0.001450 -0.009634 0.012278 0.000000 -0.000859 0.000000
# 4 0.000000 0.000000 0.000000 0.032526 0.000000 -0.009000
# 5 -0.001736 0.000014 -0.000859 0.000000 0.041385 0.000000
# 6 0.000000 0.000000 0.000000 -0.009000 0.000000 0.050484
#
#
# Mechanical properties :
#
#
# Convention : Reuss Voigt Hill
#
# Bulk Modulus (GPa) = 44.32178 53.68868 49.00523
# Shear Modulus (GPa) = 23.38161 27.57337 25.47749
#
# Velocity S-wave (km/s) = 3.50988 3.81154 3.66382
# Velocity P-wave (km/s) = 6.30697 6.90346 6.61195
#
# Compressibility (1/GPa) = 0.02256227
#
# Stress axis : x y z
#
# Youngs Moduli (GPa) = 96.73589 33.75054 81.44487
#
# Poissons Ratio (x) = 0.12681 0.11808
# Poissons Ratio (y) = 0.36347 0.78465
# Poissons Ratio (z) = 0.14025 0.32516
#
# Static dielectric constant tensor:
#      x y z
#    x 3.912290 0.000000 -0.091130 
#    y 0.000000 3.191410 0.000000 
#    z -0.091130 0.000000 3.629260 
# 
# 
# High freq. dielectric constant tensor:
#      x y z
#    x 1.755740 0.000000 0.004510 
#    y 0.000000 1.701600 0.000000 
#    z 0.004510 0.000000 1.745990 
# 
# From -- ./inp_files/176185.got.cif
#   From: 2010.06.25/outbox.cif.g09.slc.cpg/sg15_89_cif.got.tgz:176185.got - 2010.06.28 07:06:18.
