data_PCOD8136138
_publ_section_title
;
Structure prediction by ZEFSAII (Michael W. Deem and Ramdas Pophale) SiO2 
 PCOD8136138
Probable space group: C 2/C
;
_chemical_formula_sum "Si O2"
_cell_formula_units_Z 64
_cell_length_a 27.053837
_cell_length_b 16.721983
_cell_length_c 23.680015
_cell_angle_alpha 90.000000
_cell_angle_beta 19.713392
_cell_angle_gamma 90.000000
_cell_volume 3613.554961
_symmetry_space_group_name_H-M "C 2/C"
_symmetry_group_IT_number 15
_symmetry_cell_setting 'monoclinic'
loop_
_space_group_symop_operation_xyz
x,y,z
-x,y,1/2-z
-x,-y,-z
x,-y,1/2+z
1/2+x,1/2+y,z
1/2-x,1/2+y,1/2-z
1/2-x,1/2-y,-z
1/2+x,1/2-y,1/2+z
loop_
_atom_site_type_symbol
_atom_site_label
_atom_site_fract_x
_atom_site_fract_y
_atom_site_fract_z
Si Si1 0.385445 0.257258 0.127362
Si Si2 0.766929 0.591461 0.750169
Si Si3 0.747649 0.042934 0.314402
Si Si4 0.028091 0.008163 0.073325
Si Si5 0.281061 0.758873 0.400804
Si Si6 0.488520 0.355368 0.828974
Si Si7 0.516079 0.148661 0.892941
Si Si8 0.364288 0.645533 0.089098
O O1 0.261304 0.320693 0.243492
O O2 0.290089 0.187707 0.260908
O O3 0.465363 0.224489 0.985175
O O4 0.503052 0.291757 0.045007
O O5 0.829186 0.531401 0.635545
O O6 0.879000 0.593627 0.681437
O O7 0.609318 0.556818 0.936926
O O8 0.621092 0.095618 0.479736
O O9 0.842463 0.098712 0.170993
O O10 0.855202 0.006472 0.245972
O O11 0.056648 0.057285 0.100394
O O12 0.091223 0.917507 0.008318
O O13 0.250000 0.750000 0.500000
O O14 0.360977 0.673538 0.301221
O O15 0.400192 0.825801 0.254407
O O16 0.132366 0.784228 0.528090
O O17 0.500000 0.364299 0.750000
#
# Coordination Sequence:
#
# PCOD8136138 Si02
#       8
#     8   8   8   8   8   8   8   8
#     4  11  19  30  47  73 103 132 174 204 252 311
#     4  11  18  33  48  70 107 137 172 213 253 321
#     4  10  21  31  49  74 103 139 175 206 260 317
#     4  11  19  35  53  70 105 136 171 211 266 310
#     4  10  22  37  51  73 102 134 182 223 255 297
#     4  10  22  37  55  75  99 135 179 222 262 306
#     4  11  22  30  50  72 104 141 174 212 261 302
#     4  10  20  32  47  73 103 137 165 208 248 316
#
# _framework density 17.711089999999999
#
# number of rings (size 3 to 8) (size 9 to 14) (size 15 to 20)
#    0.000    1.500    5.000    1.875    1.750    0.000 
#    0.000    0.000    0.000    0.000    0.000    0.875 
#    0.000    0.000    0.000    0.000    0.000    0.000 
#
# Total GULP energy -396450.518787 kJ/mol
# GULP energy per Si atom -12389.078712 kJ/mol
# Density = 1.767078 g / cm^3
# Si number density = 17.711090 Si / 1000 Ang^3
#
#
#
# Elastic Constant Matrix: (Units=GPa)
#
#
# Indices 1 2 3 4 5 6 
#
# 1 43.4233 32.4454 32.1906 0.0088 -4.7800 -0.0011
# 2 32.4454 98.3657 50.4793 0.0251 2.1310 -0.0232
# 3 32.1906 50.4793 83.7096 0.0247 -2.3936 -0.0202
# 4 0.0088 0.0251 0.0247 34.1481 -0.0130 -1.9008
# 5 -4.7800 2.1310 -2.3936 -0.0130 22.2072 0.0096
# 6 -0.0011 -0.0232 -0.0202 -1.9008 0.0096 27.9969
#
#
#
# Elastic Compliance Matrix: (Units=1/GPa)
#
#
# Indices 1 2 3 4 5 6 
#
# 1 0.036229 -0.007346 -0.009287 0.000005 0.007502 -0.000014
# 2 -0.007346 0.016338 -0.007139 -0.000006 -0.003919 0.000009
# 3 -0.009287 -0.007139 0.019846 -0.000006 0.000825 0.000007
# 4 0.000005 -0.000006 -0.000006 0.029395 0.000017 0.001996
# 5 0.007502 -0.003919 0.000825 0.000017 0.047110 -0.000017
# 6 -0.000014 0.000009 0.000007 0.001996 -0.000017 0.035854
#
#
# Mechanical properties :
#
#
# Convention : Reuss Voigt Hill
#
# Bulk Modulus (GPa) = 40.21343 50.63658 45.42500
# Shear Modulus (GPa) = 20.78075 24.22932 22.50504
#
# Velocity S-wave (km/s) = 3.42909 3.70270 3.56852
# Velocity P-wave (km/s) = 6.19941 6.85072 6.53319
#
# Compressibility (1/GPa) = 0.02486731
#
# Stress axis : x y z
#
# Youngs Moduli (GPa) = 27.60229 61.20727 50.38737
#
# Poissons Ratio (x) = 0.44965 0.46796
# Poissons Ratio (y) = 0.20278 0.35973
# Poissons Ratio (z) = 0.25635 0.43697
#
# Static dielectric constant tensor:
#      x y z
#    x 2.866010 -0.000040 -0.173230 
#    y -0.000040 3.502950 0.000040 
#    z -0.173230 0.000040 3.559140 
# 
# 
# High freq. dielectric constant tensor:
#      x y z
#    x 1.634450 0.000000 -0.028960 
#    y 0.000000 1.682640 0.000000 
#    z -0.028960 0.000000 1.693620 
# 
# From -- ./inp_files/283720.got.cif
#   From: 2010.06.25/outbox.cif.g09.slc.cpg/sg15_142_cif.got.tgz:283720.got - 2010.06.28 07:06:18.
