data_PCOD8136362
_publ_section_title
;
Structure prediction by ZEFSAII (Michael W. Deem and Ramdas Pophale) SiO2 
 PCOD8136362
Probable space group: C 2/C
;
_chemical_formula_sum "Si O2"
_cell_formula_units_Z 44
_cell_length_a 21.129539
_cell_length_b 13.869419
_cell_length_c 12.043158
_cell_angle_alpha 90.000000
_cell_angle_beta 140.213952
_cell_angle_gamma 90.000000
_cell_volume 2258.479333
_symmetry_space_group_name_H-M "C 2/C"
_symmetry_group_IT_number 15
_symmetry_cell_setting 'monoclinic'
loop_
_space_group_symop_operation_xyz
x,y,z
-x,y,1/2-z
-x,-y,-z
x,-y,1/2+z
1/2+x,1/2+y,z
1/2-x,1/2+y,1/2-z
1/2-x,1/2-y,-z
1/2+x,1/2-y,1/2+z
loop_
_atom_site_type_symbol
_atom_site_label
_atom_site_fract_x
_atom_site_fract_y
_atom_site_fract_z
Si Si1 0.980927 0.780066 0.598491
Si Si2 0.686502 0.004949 0.127024
Si Si3 0.321323 0.633054 0.179815
Si Si4 0.552358 0.897847 0.590348
Si Si5 0.766274 0.828915 0.360276
Si Si6 0.500000 0.941167 0.750000
O O1 0.000194 0.688292 0.546341
O O2 0.871483 0.822397 0.439440
O O3 0.000000 0.745620 0.750000
O O4 0.059633 0.862393 0.668598
O O5 0.698817 0.898460 0.194426
O O6 0.785710 0.037567 0.196643
O O7 0.663717 0.084164 0.193677
O O8 0.591267 0.006623 0.916609
O O9 0.282108 0.724419 0.195950
O O10 0.275550 0.627123 0.995446
O O11 0.545367 0.874519 0.712351
O O12 0.500000 0.000000 0.500000
#
# Coordination Sequence:
#
# PCOD8136362 Si02
#       6
#     8   8   8   8   8   4
#     4  10  21  37  62  87 113 149 198 245 284 340
#     4  11  21  35  59  86 117 152 193 243 292 343
#     4  10  20  37  61  87 117 151 195 247 287 343
#     4  10  20  33  57  84 113 146 190 243 290 336
#     4  10  21  37  58  90 116 152 200 238 290 344
#     4  10  22  34  54  86 116 150 192 236 292 344
#
# _framework density 19.482136000000001
#
# number of rings (size 3 to 8) (size 9 to 14) (size 15 to 20)
#    0.000    1.818    1.818    3.273    5.091    0.727 
#    0.000    0.909    4.000    0.000    2.364    0.000 
#    0.000    0.000    0.000    0.000    0.000    0.000 
#
# Total GULP energy -272668.777281 kJ/mol
# GULP energy per Si atom -12394.035331 kJ/mol
# Density = 1.943779 g / cm^3
# Si number density = 19.482136 Si / 1000 Ang^3
#
#
#
# Elastic Constant Matrix: (Units=GPa)
#
#
# Indices 1 2 3 4 5 6 
#
# 1 139.6554 33.3917 44.4227 0.0000 -4.9897 0.0000
# 2 33.3917 63.6361 31.8546 0.0000 -10.2145 0.0000
# 3 44.4227 31.8546 73.5619 0.0000 1.0078 0.0000
# 4 0.0000 0.0000 0.0000 21.9133 0.0000 0.4739
# 5 -4.9897 -10.2145 1.0078 0.0000 32.3505 0.0000
# 6 0.0000 0.0000 0.0000 0.4739 0.0000 34.8941
#
#
#
# Elastic Compliance Matrix: (Units=1/GPa)
#
#
# Indices 1 2 3 4 5 6 
#
# 1 0.009209 -0.002447 -0.004512 0.000000 0.000788 0.000000
# 2 -0.002447 0.022233 -0.008244 0.000000 0.006899 0.000000
# 3 -0.004512 -0.008244 0.019943 0.000000 -0.003920 0.000000
# 4 0.000000 0.000000 0.000000 0.045648 0.000000 -0.000620
# 5 0.000788 0.006899 -0.003920 0.000000 0.033334 0.000000
# 6 0.000000 0.000000 0.000000 -0.000620 0.000000 0.028667
#
#
# Mechanical properties :
#
#
# Convention : Reuss Voigt Hill
#
# Bulk Modulus (GPa) = 47.67091 55.13238 51.40164
# Shear Modulus (GPa) = 25.45411 28.97720 27.21566
#
# Velocity S-wave (km/s) = 3.61853 3.86083 3.74164
# Velocity P-wave (km/s) = 6.47923 6.94515 6.71623
#
# Compressibility (1/GPa) = 0.02097716
#
# Stress axis : x y z
#
# Youngs Moduli (GPa) = 108.58880 44.97897 50.14364
#
# Poissons Ratio (x) = 0.11006 0.22627
# Poissons Ratio (y) = 0.26571 0.41340
# Poissons Ratio (z) = 0.49000 0.37082
#
# Static dielectric constant tensor:
#      x y z
#    x 4.415110 0.000000 -0.047500 
#    y 0.000000 3.113460 0.000000 
#    z -0.047500 0.000000 3.360990 
# 
# 
# High freq. dielectric constant tensor:
#      x y z
#    x 1.790000 0.000000 0.006000 
#    y 0.000000 1.722130 0.000000 
#    z 0.006000 0.000000 1.730920 
# 
# From -- ./inp_files/96095.got.cif
#   From: 2010.06.25/outbox.cif.g09.slc.cpg/sg15_49_cif.got.tgz:96095.got - 2010.06.28 07:06:18.
