data_PCOD8136973
_publ_section_title
;
Structure prediction by ZEFSAII (Michael W. Deem and Ramdas Pophale) SiO2 
 PCOD8136973
Probable space group: C 2/C
;
_chemical_formula_sum "Si O2"
_cell_formula_units_Z 52
_cell_length_a 9.480129
_cell_length_b 11.027951
_cell_length_c 27.768961
_cell_angle_alpha 90.000000
_cell_angle_beta 64.181351
_cell_angle_gamma 90.000000
_cell_volume 2613.344402
_symmetry_space_group_name_H-M "C 2/C"
_symmetry_group_IT_number 15
_symmetry_cell_setting 'monoclinic'
loop_
_space_group_symop_operation_xyz
x,y,z
-x,y,1/2-z
-x,-y,-z
x,-y,1/2+z
1/2+x,1/2+y,z
1/2-x,1/2+y,1/2-z
1/2-x,1/2-y,-z
1/2+x,1/2-y,1/2+z
loop_
_atom_site_type_symbol
_atom_site_label
_atom_site_fract_x
_atom_site_fract_y
_atom_site_fract_z
Si Si1 0.273043 0.979255 0.495470
Si Si2 0.500000 0.602970 0.250000
Si Si3 0.221505 0.060338 0.658434
Si Si4 0.988658 0.996656 0.393874
Si Si5 0.068028 0.610728 0.434712
Si Si6 0.263617 0.645297 0.598077
Si Si7 0.946759 0.243993 0.163580
O O1 0.370627 0.903748 0.520106
O O2 0.232893 0.889483 0.458205
O O3 0.112813 0.027148 0.542839
O O4 0.379470 0.093268 0.461751
O O5 0.353971 0.520123 0.288032
O O6 0.425375 0.686859 0.219485
O O7 0.288471 0.187194 0.669847
O O8 0.361843 0.990295 0.611332
O O9 0.084270 0.081421 0.639341
O O10 0.995140 0.139696 0.381603
O O11 0.165907 0.959037 0.378396
O O12 0.121573 0.741458 0.408778
O O13 0.088671 0.661064 0.643533
#
# Coordination Sequence:
#
# PCOD8136973 Si02
#       7
#     8   4   8   8   8   8   8
#     4  10  20  35  57  94 126 165 206 235 293 356
#     4  10  22  42  64  92 108 150 208 252 316 360
#     4  10  21  44  62  87 123 154 196 256 310 358
#     4  10  24  38  59  96 125 163 204 237 296 365
#     4  10  20  35  62  89 123 168 200 243 300 352
#     4  12  21  37  63  88 127 161 203 247 288 357
#     4  11  23  43  66  86 120 158 195 259 306 361
#
# _framework density 19.897873000000001
#
# number of rings (size 3 to 8) (size 9 to 14) (size 15 to 20)
#    0.000    1.538    6.154    0.923    0.000    4.308 
#    0.000    0.000    0.000    0.000    0.000    0.000 
#    0.000    0.000    0.000    0.000    0.000    0.000 
#
# Total GULP energy -322351.344549 kJ/mol
# GULP energy per Si atom -12398.128636 kJ/mol
# Density = 1.985258 g / cm^3
# Si number density = 19.897873 Si / 1000 Ang^3
#
#
#
# Elastic Constant Matrix: (Units=GPa)
#
#
# Indices 1 2 3 4 5 6 
#
# 1 95.1762 50.0243 45.6036 0.0000 -9.9808 0.0000
# 2 50.0243 57.4382 25.1467 0.0000 1.3925 0.0000
# 3 45.6036 25.1467 102.8308 0.0000 7.6483 0.0000
# 4 0.0000 0.0000 0.0000 12.5333 0.0000 -5.9447
# 5 -9.9808 1.3925 7.6483 0.0000 10.7544 0.0000
# 6 0.0000 0.0000 0.0000 -5.9447 0.0000 44.3605
#
#
#
# Elastic Compliance Matrix: (Units=1/GPa)
#
#
# Indices 1 2 3 4 5 6 
#
# 1 0.034645 -0.025845 -0.012337 0.000000 0.044274 0.000000
# 2 -0.025845 0.038787 0.004365 0.000000 -0.032113 0.000000
# 3 -0.012337 0.004365 0.015861 0.000000 -0.023295 0.000000
# 4 0.000000 0.000000 0.000000 0.085203 0.000000 0.011418
# 5 0.044274 -0.032113 -0.023295 0.000000 0.154799 0.000000
# 6 0.000000 0.000000 0.000000 0.011418 0.000000 0.024073
#
#
# Mechanical properties :
#
#
# Convention : Reuss Voigt Hill
#
# Bulk Modulus (GPa) = 46.17076 55.22161 50.69618
# Shear Modulus (GPa) = 11.67617 22.50769 17.09193
#
# Velocity S-wave (km/s) = 2.42503 3.36692 2.93402
# Velocity P-wave (km/s) = 5.57632 6.55192 6.08371
#
# Compressibility (1/GPa) = 0.02165873
#
# Stress axis : x y z
#
# Youngs Moduli (GPa) = 28.86393 25.78199 63.04716
#
# Poissons Ratio (x) = 0.66635 0.77783
# Poissons Ratio (y) = 0.74600 -0.27523
# Poissons Ratio (z) = 0.35610 -0.11255
#
# Static dielectric constant tensor:
#      x y z
#    x 3.602270 0.000000 -0.020710 
#    y 0.000000 3.445960 0.000000 
#    z -0.020710 0.000000 3.627530 
# 
# 
# High freq. dielectric constant tensor:
#      x y z
#    x 1.774900 0.000000 -0.000670 
#    y 0.000000 1.760080 0.000000 
#    z -0.000670 0.000000 1.774870 
# 
# From -- ./inp_files/287741.got.cif
#   From: 2010.06.25/outbox.cif.g09.slc.cpg/sg15_144_cif.got.tgz:287741.got - 2010.06.28 07:06:18.
