data_PCOD8136949
_publ_section_title
;
Structure prediction by ZEFSAII (Michael W. Deem and Ramdas Pophale) SiO2 
 PCOD8136949
Probable space group: C 2/C
;
_chemical_formula_sum "Si O2"
_cell_formula_units_Z 32
_cell_length_a 12.382484
_cell_length_b 23.664328
_cell_length_c 14.353559
_cell_angle_alpha 90.000000
_cell_angle_beta 159.021559
_cell_angle_gamma 90.000000
_cell_volume 1505.791231
_symmetry_space_group_name_H-M "C 2/C"
_symmetry_group_IT_number 15
_symmetry_cell_setting 'monoclinic'
loop_
_space_group_symop_operation_xyz
x,y,z
-x,y,1/2-z
-x,-y,-z
x,-y,1/2+z
1/2+x,1/2+y,z
1/2-x,1/2+y,1/2-z
1/2-x,1/2-y,-z
1/2+x,1/2-y,1/2+z
loop_
_atom_site_type_symbol
_atom_site_label
_atom_site_fract_x
_atom_site_fract_y
_atom_site_fract_z
Si Si1 0.500000 0.787664 0.750000
Si Si2 0.000000 0.038634 0.250000
Si Si3 0.201942 0.873537 0.650026
Si Si4 0.669208 0.647027 0.473665
Si Si5 0.688013 0.569455 0.815423
O O1 0.331116 0.825112 0.689509
O O2 0.250000 0.750000 0.500000
O O3 0.202912 0.079463 0.478711
O O4 0.200627 0.998410 0.343643
O O5 0.015480 0.842827 0.580889
O O6 0.984789 0.916160 0.419006
O O7 0.472636 0.908255 0.915266
O O8 0.000000 0.673848 0.750000
O O9 0.500000 0.677135 0.250000
O O10 0.500000 0.598017 0.750000
#
# Coordination Sequence:
#
# PCOD8136949 Si02
#       5
#     4   4   8   8   8
#     4  12  24  41  68  94 114 134 192 251 310 374
#     4   8  22  35  52  88 122 158 216 231 270 326
#     4  12  22  41  62  86 121 162 182 251 309 341
#     4  10  23  39  56  84 122 167 206 232 273 345
#     4  10  20  35  57  85 129 150 203 234 291 339
#
# _framework density 21.251287000000001
#
# number of rings (size 3 to 8) (size 9 to 14) (size 15 to 20)
#    1.500    0.000    2.500    3.000    3.500    2.000 
#    0.000    0.000    0.000    4.500    0.000    0.000 
#    0.000    0.000    0.000    0.000    0.000    0.000 
#
# Total GULP energy -198304.577052 kJ/mol
# GULP energy per Si atom -12394.036066 kJ/mol
# Density = 2.120292 g / cm^3
# Si number density = 21.251287 Si / 1000 Ang^3
#
#
#
# Elastic Constant Matrix: (Units=GPa)
#
#
# Indices 1 2 3 4 5 6 
#
# 1 137.6000 6.1690 41.7083 0.0007 6.0950 0.0017
# 2 6.1690 49.8297 12.6400 -0.0431 -7.4397 -0.0058
# 3 41.7083 12.6400 166.2348 -0.1367 -11.4887 -0.0261
# 4 0.0007 -0.0431 -0.1367 6.9480 -0.0553 -3.1474
# 5 6.0950 -7.4397 -11.4887 -0.0553 36.5659 -0.0095
# 6 0.0017 -0.0058 -0.0261 -3.1474 -0.0095 1.3419
#
#
#
# Elastic Compliance Matrix: (Units=1/GPa)
#
#
# Indices 1 2 3 4 5 6 
#
# 1 0.008036 -0.000781 -0.002104 0.001532 -0.002156 0.003524
# 2 -0.000781 0.021053 -0.001128 -0.002972 0.004053 -0.006871
# 3 -0.002104 -0.001128 0.006780 -0.003367 0.002244 -0.007751
# 4 0.001532 -0.002972 -0.003367 -2.299828 -0.006798 -5.394301
# 5 -0.002156 0.004053 0.002244 -0.006798 0.029223 -0.015674
# 6 0.003524 -0.006871 -0.007751 -5.394301 -0.015674-11.907256
#
#
# Mechanical properties :
#
#
# Convention : Reuss Voigt Hill
#
# Bulk Modulus (GPa) = 35.91677 52.74434 44.33056
# Shear Modulus (GPa) = -0.35399 28.51431 14.08016
#
# Velocity S-wave (km/s) = -0.40858 3.66699 2.57681
# Velocity P-wave (km/s) = 4.08841 6.54235 5.45515
#
# Compressibility (1/GPa) = 0.02784214
#
# Stress axis : x y z
#
# Youngs Moduli (GPa) = 124.44527 47.49913 147.48436
#
# Poissons Ratio (x) = 0.03711 0.31030
# Poissons Ratio (y) = 0.09723 0.16639
# Poissons Ratio (z) = 0.26183 0.05359
#
# Static dielectric constant tensor:
#      x y z
#    x 3.772470 0.000000 -0.081200 
#    y 0.000000 3.427010 0.000090 
#    z -0.081200 0.000090 3.801030 
# 
# 
# High freq. dielectric constant tensor:
#      x y z
#    x 1.838820 0.000000 -0.006190 
#    y 0.000000 1.798150 0.000000 
#    z -0.006190 0.000000 1.839840 
# 
# From -- ./inp_files/149092.got.cif
#   From: 2010.06.25/outbox.cif.g09.slc.cpg/sg15_75_cif.got.tgz:149092.got - 2010.06.28 07:06:18.
