data_PCOD8136376
_publ_section_title
;
Structure prediction by ZEFSAII (Michael W. Deem and Ramdas Pophale) SiO2 
 PCOD8136376
Probable space group: C 2/C
;
_chemical_formula_sum "Si O2"
_cell_formula_units_Z 64
_cell_length_a 8.732600
_cell_length_b 23.544356
_cell_length_c 30.096286
_cell_angle_alpha 90.000000
_cell_angle_beta 150.606322
_cell_angle_gamma 90.000000
_cell_volume 3037.068493
_symmetry_space_group_name_H-M "C 2/C"
_symmetry_group_IT_number 15
_symmetry_cell_setting 'monoclinic'
loop_
_space_group_symop_operation_xyz
x,y,z
-x,y,1/2-z
-x,-y,-z
x,-y,1/2+z
1/2+x,1/2+y,z
1/2-x,1/2+y,1/2-z
1/2-x,1/2-y,-z
1/2+x,1/2-y,1/2+z
loop_
_atom_site_type_symbol
_atom_site_label
_atom_site_fract_x
_atom_site_fract_y
_atom_site_fract_z
Si Si1 0.933677 0.243532 0.660797
Si Si2 0.130533 0.520302 0.657198
Si Si3 0.248413 0.629015 0.956172
Si Si4 0.015851 0.657035 0.991590
Si Si5 0.557406 0.141061 0.375250
Si Si6 0.663905 0.059186 0.245905
Si Si7 0.502753 0.248171 0.867105
Si Si8 0.861651 0.425844 0.905695
O O1 0.811034 0.185013 0.607391
O O2 0.931274 0.290786 0.621611
O O3 0.691540 0.262160 0.637690
O O4 0.281082 0.239497 0.768316
O O5 0.500000 0.528767 0.750000
O O6 0.041097 0.485701 0.678594
O O7 0.010738 0.485131 0.583036
O O8 0.973636 0.581263 0.620400
O O9 0.203273 0.631317 0.997642
O O10 0.176498 0.688968 0.915880
O O11 0.600396 0.613741 0.031939
O O12 0.239786 0.702302 0.073661
O O13 0.930248 0.605067 0.003645
O O14 0.429940 0.122043 0.294658
O O15 0.329979 0.118200 0.356455
O O16 0.500000 0.043178 0.250000
O O17 0.033719 0.059814 0.345615
#
# Coordination Sequence:
#
# PCOD8136376 Si02
#       8
#     8   8   8   8   8   8   8   8
#     4  10  20  33  58  91 117 163 202 249 307 364
#     4   9  22  41  60  89 122 163 208 255 317 362
#     4  11  21  37  63  86 121 164 203 258 309 367
#     4  11  20  38  59  90 121 157 214 250 300 378
#     4  11  20  36  60  89 125 154 203 254 314 366
#     4  10  21  39  64  88 116 160 212 254 303 368
#     4  10  20  35  58  91 122 155 211 256 298 370
#     4  10  23  39  59  89 123 160 202 259 312 364
#
# _framework density 21.072952999999998
#
# number of rings (size 3 to 8) (size 9 to 14) (size 15 to 20)
#    0.000    1.750    2.500    3.375    5.250    3.000 
#    0.000    2.500    0.000    0.000    0.000    0.000 
#    0.000    0.000    0.000    0.000    0.000    0.000 
#
# Total GULP energy -396696.556680 kJ/mol
# GULP energy per Si atom -12396.767396 kJ/mol
# Density = 2.102499 g / cm^3
# Si number density = 21.072953 Si / 1000 Ang^3
#
#
#
# Elastic Constant Matrix: (Units=GPa)
#
#
# Indices 1 2 3 4 5 6 
#
# 1 89.9677 21.7168 17.9086 0.0031 -5.4950 0.0025
# 2 21.7168 64.2045 6.8329 0.0003 -9.5740 -0.0047
# 3 17.9086 6.8329 72.8499 -0.0204 -13.6469 -0.0087
# 4 0.0031 0.0003 -0.0204 39.6683 -0.0056 -0.1194
# 5 -5.4950 -9.5740 -13.6469 -0.0056 19.1164 -0.0022
# 6 0.0025 -0.0047 -0.0087 -0.1194 -0.0022 13.8839
#
#
#
# Elastic Compliance Matrix: (Units=1/GPa)
#
#
# Indices 1 2 3 4 5 6 
#
# 1 0.012621 -0.004029 -0.002797 -0.000002 -0.000387 -0.000005
# 2 -0.004029 0.018118 0.000893 0.000002 0.008554 0.000009
# 3 -0.002797 0.000893 0.016466 0.000010 0.011398 0.000013
# 4 -0.000002 0.000002 0.000010 0.025210 0.000015 0.000217
# 5 -0.000387 0.008554 0.011398 0.000015 0.064621 0.000020
# 6 -0.000005 0.000009 0.000013 0.000217 0.000020 0.072028
#
#
# Mechanical properties :
#
#
# Convention : Reuss Voigt Hill
#
# Bulk Modulus (GPa) = 28.29662 35.54872 31.92267
# Shear Modulus (GPa) = 21.48608 26.57130 24.02869
#
# Velocity S-wave (km/s) = 3.19659 3.55480 3.38044
# Velocity P-wave (km/s) = 5.20397 5.80988 5.51525
#
# Compressibility (1/GPa) = 0.03533991
#
# Stress axis : x y z
#
# Youngs Moduli (GPa) = 79.23444 55.19238 60.73161
#
# Poissons Ratio (x) = 0.22236 0.16987
# Poissons Ratio (y) = 0.31923 -0.05426
# Poissons Ratio (z) = 0.22163 -0.04931
#
# Static dielectric constant tensor:
#      x y z
#    x 3.605440 -0.000040 -0.025390 
#    y -0.000040 3.787260 -0.000050 
#    z -0.025390 -0.000050 3.799270 
# 
# 
# High freq. dielectric constant tensor:
#      x y z
#    x 1.806120 0.000000 -0.001350 
#    y 0.000000 1.823360 -0.000010 
#    z -0.001350 -0.000010 1.818390 
# 
# From -- ./inp_files/309125.got.cif
#   From: 2010.06.25/outbox.cif.g09.slc.cpg/sg15_155_cif.got.tgz:309125.got - 2010.06.28 07:06:18.
