data_PCOD8136431
_publ_section_title
;
Structure prediction by ZEFSAII (Michael W. Deem and Ramdas Pophale) SiO2 
 PCOD8136431
Probable space group: C 2/C
;
_chemical_formula_sum "Si O2"
_cell_formula_units_Z 64
_cell_length_a 22.346523
_cell_length_b 18.130295
_cell_length_c 8.580132
_cell_angle_alpha 90.000000
_cell_angle_beta 89.342912
_cell_angle_gamma 90.000000
_cell_volume 3476.003765
_symmetry_space_group_name_H-M "C 2/C"
_symmetry_group_IT_number 15
_symmetry_cell_setting 'monoclinic'
loop_
_space_group_symop_operation_xyz
x,y,z
-x,y,1/2-z
-x,-y,-z
x,-y,1/2+z
1/2+x,1/2+y,z
1/2-x,1/2+y,1/2-z
1/2-x,1/2-y,-z
1/2+x,1/2-y,1/2+z
loop_
_atom_site_type_symbol
_atom_site_label
_atom_site_fract_x
_atom_site_fract_y
_atom_site_fract_z
Si Si1 0.752438 0.667239 0.663795
Si Si2 0.028946 0.216511 0.089146
Si Si3 0.307565 0.182025 0.333671
Si Si4 0.857332 0.757648 0.754756
Si Si5 0.715250 0.599369 0.171279
Si Si6 0.685256 0.456544 0.337557
Si Si7 0.561468 0.382107 0.312627
Si Si8 0.084639 0.752367 0.070579
O O1 0.704914 0.731786 0.702280
O O2 0.767013 0.659259 0.481711
O O3 0.813349 0.687444 0.755503
O O4 0.725120 0.590409 0.717433
O O5 0.086716 0.264861 0.136741
O O6 0.000000 0.185408 0.250000
O O7 0.049368 0.146767 0.987304
O O8 0.982144 0.267141 0.991020
O O9 0.284198 0.127413 0.198327
O O10 0.380011 0.180489 0.358716
O O11 0.826669 0.829353 0.827900
O O12 0.876062 0.779462 0.577888
O O13 0.694935 0.542501 0.304924
O O14 0.710089 0.559672 0.007272
O O15 0.614525 0.441201 0.319278
O O16 0.500000 0.419342 0.250000
O O17 0.579957 0.315345 0.199406
#
# Coordination Sequence:
#
# PCOD8136431 Si02
#       8
#     8   8   8   8   8   8   8   8
#     4   9  18  31  55  74 104 132 174 211 273 313
#     4   9  17  32  51  77 104 132 175 220 265 305
#     4   9  17  34  52  81  98 136 170 221 268 316
#     4   9  18  34  52  80 101 138 168 221 262 319
#     4  11  24  33  51  71 109 136 182 216 266 307
#     4  12  23  37  50  75 103 148 178 226 260 314
#     4  10  20  34  51  74  99 138 181 218 256 305
#     4   9  17  30  57  75 105 132 168 220 264 310
#
# _framework density 18.411949
#
# number of rings (size 3 to 8) (size 9 to 14) (size 15 to 20)
#    0.000    2.250    2.500    1.500    1.750    3.000 
#    0.000    2.500    0.000    0.000    0.000    0.875 
#    0.000    7.000    0.000    2.375    0.000    0.875 
#
# Total GULP energy -396514.156531 kJ/mol
# GULP energy per Si atom -12391.067392 kJ/mol
# Density = 1.837004 g / cm^3
# Si number density = 18.411949 Si / 1000 Ang^3
#
#
#
# Elastic Constant Matrix: (Units=GPa)
#
#
# Indices 1 2 3 4 5 6 
#
# 1 115.6241 38.6541 21.5341 0.0000 28.0103 0.0000
# 2 38.6541 41.5454 8.9216 0.0000 10.7599 0.0000
# 3 21.5341 8.9216 57.0459 0.0000 18.2491 0.0000
# 4 0.0000 0.0000 0.0000 20.8510 0.0000 -0.1962
# 5 28.0103 10.7599 18.2491 0.0000 32.2462 0.0000
# 6 0.0000 0.0000 0.0000 -0.1962 0.0000 18.6626
#
#
#
# Elastic Compliance Matrix: (Units=1/GPa)
#
#
# Indices 1 2 3 4 5 6 
#
# 1 0.014620 -0.011207 -0.001099 0.000000 -0.008338 0.000000
# 2 -0.011207 0.035057 -0.000762 0.000000 -0.001532 0.000000
# 3 -0.001099 -0.000762 0.021585 0.000000 -0.011007 0.000000
# 4 0.000000 0.000000 0.000000 0.047964 0.000000 0.000504
# 5 -0.008338 -0.001532 -0.011007 0.000000 0.044994 0.000000
# 6 0.000000 0.000000 0.000000 0.000504 0.000000 0.053588
#
#
# Mechanical properties :
#
#
# Convention : Reuss Voigt Hill
#
# Bulk Modulus (GPa) = 22.16006 39.15945 30.65975
# Shear Modulus (GPa) = 19.30599 24.02566 21.66582
#
# Velocity S-wave (km/s) = 3.24166 3.61625 3.43407
# Velocity P-wave (km/s) = 5.10617 6.22503 5.69315
#
# Compressibility (1/GPa) = 0.04512623
#
# Stress axis : x y z
#
# Youngs Moduli (GPa) = 68.40016 28.52457 46.32884
#
# Poissons Ratio (x) = 0.31967 0.05090
# Poissons Ratio (y) = 0.76656 0.03531
# Poissons Ratio (z) = 0.07516 0.02174
#
# Static dielectric constant tensor:
#      x y z
#    x 3.878960 0.000000 0.251660 
#    y 0.000000 2.916060 0.000000 
#    z 0.251660 0.000000 3.553670 
# 
# 
# High freq. dielectric constant tensor:
#      x y z
#    x 1.727150 0.000000 0.016460 
#    y 0.000000 1.649260 0.000000 
#    z 0.016460 0.000000 1.729160 
# 
# From -- ./inp_files/62491.got.cif
#   From: 2010.06.25/outbox.cif.g09.slc.cpg/sg15_32_cif.got.tgz:62491.got - 2010.06.28 07:06:18.
