data_PCOD8136535
_publ_section_title
;
Structure prediction by ZEFSAII (Michael W. Deem and Ramdas Pophale) SiO2 
 PCOD8136535
Probable space group: C 2/C
;
_chemical_formula_sum "Si O2"
_cell_formula_units_Z 64
_cell_length_a 21.344180
_cell_length_b 19.217996
_cell_length_c 13.489219
_cell_angle_alpha 90.000000
_cell_angle_beta 146.949602
_cell_angle_gamma 90.000000
_cell_volume 3017.663583
_symmetry_space_group_name_H-M "C 2/C"
_symmetry_group_IT_number 15
_symmetry_cell_setting 'monoclinic'
loop_
_space_group_symop_operation_xyz
x,y,z
-x,y,1/2-z
-x,-y,-z
x,-y,1/2+z
1/2+x,1/2+y,z
1/2-x,1/2+y,1/2-z
1/2-x,1/2-y,-z
1/2+x,1/2-y,1/2+z
loop_
_atom_site_type_symbol
_atom_site_label
_atom_site_fract_x
_atom_site_fract_y
_atom_site_fract_z
Si Si1 0.400537 0.407636 0.696701
Si Si2 0.728575 0.306698 0.113454
Si Si3 0.087938 0.431318 0.720238
Si Si4 0.508778 0.199388 0.491455
Si Si5 0.210058 0.044157 0.867622
Si Si6 0.561091 0.653859 0.568183
Si Si7 0.373310 0.025500 0.448950
Si Si8 0.393598 0.827717 0.042125
O O1 0.500000 0.421198 0.750000
O O2 0.308156 0.353870 0.528665
O O3 0.341829 0.480513 0.640761
O O4 0.451386 0.377505 0.866188
O O5 0.861736 0.318393 0.307859
O O6 0.659069 0.326358 0.119805
O O7 0.707861 0.225020 0.060939
O O8 0.139127 0.453950 0.681931
O O9 0.027424 0.355502 0.640855
O O10 0.995659 0.488985 0.632303
O O11 0.190247 0.423281 0.933161
O O12 0.485546 0.279553 0.430763
O O13 0.426443 0.183890 0.473060
O O14 0.110435 0.099924 0.713974
O O15 0.266068 0.023211 0.835901
O O16 0.359579 0.091368 0.506076
O O17 0.500000 0.806165 0.250000
#
# Coordination Sequence:
#
# PCOD8136535 Si02
#       8
#     8   8   8   8   8   8   8   8
#     4  10  24  41  61  92 127 165 209 258 319 376
#     4  10  21  38  64  87 125 169 198 259 330 363
#     4  10  23  41  62  95 125 165 208 268 308 375
#     4  10  22  39  61  86 126 163 208 257 310 365
#     4  12  24  39  67  89 126 174 204 256 319 376
#     4  10  23  42  58  93 122 160 216 254 300 388
#     4  10  23  38  62  96 130 156 215 259 319 374
#     4  10  20  34  55  93 125 152 208 265 304 386
#
# _framework density 21.208459999999999
#
# number of rings (size 3 to 8) (size 9 to 14) (size 15 to 20)
#    0.000    1.750    0.000    4.125   12.250    1.500 
#    0.000    0.000    0.000    1.500    0.000    0.000 
#    0.000    0.000    0.000    0.000    0.000    0.000 
#
# Total GULP energy -396810.495209 kJ/mol
# GULP energy per Si atom -12400.327975 kJ/mol
# Density = 2.116019 g / cm^3
# Si number density = 21.208460 Si / 1000 Ang^3
#
#
#
# Elastic Constant Matrix: (Units=GPa)
#
#
# Indices 1 2 3 4 5 6 
#
# 1 31.9889 33.8915 28.9411 0.0000 -3.5888 0.0000
# 2 33.8915 158.3345 84.6479 0.0000 -4.6787 0.0000
# 3 28.9411 84.6479 134.2945 0.0000 3.5235 0.0000
# 4 0.0000 0.0000 0.0000 70.4899 0.0000 -49.5229
# 5 -3.5888 -4.6787 3.5235 0.0000 21.7886 0.0000
# 6 0.0000 0.0000 0.0000 -49.5229 0.0000 110.2468
#
#
#
# Elastic Compliance Matrix: (Units=1/GPa)
#
#
# Indices 1 2 3 4 5 6 
#
# 1 0.043668 -0.006061 -0.005769 0.000000 0.006824 0.000000
# 2 -0.006061 0.010570 -0.005413 0.000000 0.002147 0.000000
# 3 -0.005769 -0.005413 0.012209 0.000000 -0.004087 0.000000
# 4 0.000000 0.000000 0.000000 0.020728 0.000000 0.009311
# 5 0.006824 0.002147 -0.004087 0.000000 0.048141 0.000000
# 6 0.000000 0.000000 0.000000 0.009311 0.000000 0.013253
#
#
# Mechanical properties :
#
#
# Convention : Reuss Voigt Hill
#
# Bulk Modulus (GPa) = 31.28877 68.84211 50.06544
# Shear Modulus (GPa) = 25.81199 52.31423 39.06311
#
# Velocity S-wave (km/s) = 3.49242 4.97194 4.29635
# Velocity P-wave (km/s) = 5.57205 8.09262 6.94760
#
# Compressibility (1/GPa) = 0.03196035
#
# Stress axis : x y z
#
# Youngs Moduli (GPa) = 22.90027 94.60482 81.90967
#
# Poissons Ratio (x) = 0.57341 0.47255
# Poissons Ratio (y) = 0.13880 0.44336
# Poissons Ratio (z) = 0.13212 0.51207
#
# Static dielectric constant tensor:
#      x y z
#    x 3.690610 0.000000 0.071580 
#    y 0.000000 4.396040 0.000000 
#    z 0.071580 0.000000 3.657010 
# 
# 
# High freq. dielectric constant tensor:
#      x y z
#    x 1.818960 0.000000 0.009900 
#    y 0.000000 1.845680 0.000000 
#    z 0.009900 0.000000 1.823520 
# 
# From -- ./inp_files/174254.got.cif
#   From: 2010.06.25/outbox.cif.g09.slc.cpg/sg15_88_cif.got.tgz:174254.got - 2010.06.28 07:06:18.
