data_PCOD8136401
_publ_section_title
;
Structure prediction by ZEFSAII (Michael W. Deem and Ramdas Pophale) SiO2 
 PCOD8136401
Probable space group: C 2/C
;
_chemical_formula_sum "Si O2"
_cell_formula_units_Z 64
_cell_length_a 7.686767
_cell_length_b 29.314764
_cell_length_c 23.302680
_cell_angle_alpha 90.000000
_cell_angle_beta 147.799356
_cell_angle_gamma 90.000000
_cell_volume 2798.144432
_symmetry_space_group_name_H-M "C 2/C"
_symmetry_group_IT_number 15
_symmetry_cell_setting 'monoclinic'
loop_
_space_group_symop_operation_xyz
x,y,z
-x,y,1/2-z
-x,-y,-z
x,-y,1/2+z
1/2+x,1/2+y,z
1/2-x,1/2+y,1/2-z
1/2-x,1/2-y,-z
1/2+x,1/2-y,1/2+z
loop_
_atom_site_type_symbol
_atom_site_label
_atom_site_fract_x
_atom_site_fract_y
_atom_site_fract_z
Si Si1 0.028551 0.821484 0.880631
Si Si2 0.680903 0.760527 0.241443
Si Si3 0.155701 0.990847 0.234981
Si Si4 0.659654 0.674076 0.548441
Si Si5 0.513908 0.415170 0.820089
Si Si6 0.330736 0.081180 0.642034
Si Si7 0.748746 0.576612 0.949707
Si Si8 0.267134 0.679755 0.554347
O O1 0.917129 0.872098 0.831721
O O2 0.770140 0.786430 0.780146
O O3 0.008753 0.818219 0.943780
O O4 0.385807 0.808102 0.954583
O O5 0.500000 0.750170 0.250000
O O6 0.459103 0.792051 0.139566
O O7 0.027923 0.784832 0.349918
O O8 0.492319 0.963113 0.334854
O O9 0.000000 0.007348 0.250000
O O10 0.877425 0.958963 0.131619
O O11 0.209436 0.041252 0.221913
O O12 0.827531 0.623961 0.598475
O O13 0.379596 0.681992 0.518709
O O14 0.500000 0.399597 0.750000
O O15 0.878101 0.432097 0.934547
O O16 0.500000 0.095057 0.750000
O O17 0.955594 0.067564 0.548934
O O18 0.678378 0.628274 0.907779
#
# Coordination Sequence:
#
# PCOD8136401 Si02
#       8
#     8   8   8   8   8   8   8   8
#     4  11  23  39  66  88 124 173 208 251 320 377
#     4  10  20  38  61  92 126 159 200 260 310 372
#     4  10  20  33  61  94 122 155 206 268 312 370
#     4  10  20  37  62  96 125 152 210 267 304 371
#     4  10  22  40  58  86 128 170 211 252 312 384
#     4   9  18  36  62  90 124 159 198 265 323 367
#     4   9  18  38  65  86 120 162 203 263 315 369
#     4   9  21  40  63  93 125 160 206 258 321 370
#
# _framework density 22.872299999999999
#
# number of rings (size 3 to 8) (size 9 to 14) (size 15 to 20)
#    0.000    2.250    0.000    3.750    3.500    2.500 
#    0.000    6.250   44.000    7.500    0.000    0.000 
#    0.000    0.000    0.000    0.000    0.000    0.000 
#
# Total GULP energy -396619.301473 kJ/mol
# GULP energy per Si atom -12394.353171 kJ/mol
# Density = 2.282024 g / cm^3
# Si number density = 22.872300 Si / 1000 Ang^3
#
#
#
# Elastic Constant Matrix: (Units=GPa)
#
#
# Indices 1 2 3 4 5 6 
#
# 1 64.0395 43.4933 23.4015 -0.0003 -9.3618 -0.0001
# 2 43.4933 163.2687 58.8885 0.0003 -8.2309 -0.0006
# 3 23.4015 58.8885 51.5402 -0.0003 -17.9466 -0.0038
# 4 -0.0003 0.0003 -0.0003 31.7783 -0.0004 4.5324
# 5 -9.3618 -8.2309 -17.9466 -0.0004 34.5628 0.0000
# 6 -0.0001 -0.0006 -0.0038 4.5324 0.0000 8.5784
#
#
#
# Elastic Compliance Matrix: (Units=1/GPa)
#
#
# Indices 1 2 3 4 5 6 
#
# 1 0.019973 -0.003807 -0.003846 0.000000 0.002506 -0.000002
# 2 -0.003807 0.011756 -0.013534 0.000000 -0.005259 -0.000005
# 3 -0.003846 -0.013534 0.042881 -0.000002 0.018001 0.000019
# 4 0.000000 0.000000 -0.000002 0.034032 0.000000 -0.017981
# 5 0.002506 -0.005259 0.018001 0.000000 0.037706 0.000008
# 6 -0.000002 -0.000005 0.000019 -0.017981 0.000008 0.126071
#
#
# Mechanical properties :
#
#
# Convention : Reuss Voigt Hill
#
# Bulk Modulus (GPa) = 31.02307 58.93502 44.97904
# Shear Modulus (GPa) = 15.35918 25.18825 20.27372
#
# Velocity S-wave (km/s) = 2.59418 3.32212 2.98046
# Velocity P-wave (km/s) = 4.75038 6.36696 5.61713
#
# Compressibility (1/GPa) = 0.03223408
#
# Stress axis : x y z
#
# Youngs Moduli (GPa) = 50.06826 85.06640 23.32059
#
# Poissons Ratio (x) = 0.32385 0.08969
# Poissons Ratio (y) = 0.19061 0.31563
# Poissons Ratio (z) = 0.19256 1.15132
#
# Static dielectric constant tensor:
#      x y z
#    x 3.949310 0.000000 0.135420 
#    y 0.000000 4.332490 0.000000 
#    z 0.135420 0.000000 4.191130 
# 
# 
# High freq. dielectric constant tensor:
#      x y z
#    x 1.882890 0.000000 0.002890 
#    y 0.000000 1.921680 0.000000 
#    z 0.002890 0.000000 1.890720 
# 
# From -- ./inp_files/266756.got.cif
#   From: 2010.06.25/outbox.cif.g09.slc.cpg/sg15_134_cif.got.tgz:266756.got - 2010.06.28 07:06:18.
