data_PCOD8136056
_publ_section_title
;
Structure prediction by ZEFSAII (Michael W. Deem and Ramdas Pophale) SiO2 
 PCOD8136056
Probable space group: C 2/C
;
_chemical_formula_sum "Si O2"
_cell_formula_units_Z 60
_cell_length_a 9.647385
_cell_length_b 19.034235
_cell_length_c 17.304264
_cell_angle_alpha 90.000000
_cell_angle_beta 58.872592
_cell_angle_gamma 90.000000
_cell_volume 2720.082205
_symmetry_space_group_name_H-M "C 2/C"
_symmetry_group_IT_number 15
_symmetry_cell_setting 'monoclinic'
loop_
_space_group_symop_operation_xyz
x,y,z
-x,y,1/2-z
-x,-y,-z
x,-y,1/2+z
1/2+x,1/2+y,z
1/2-x,1/2+y,1/2-z
1/2-x,1/2-y,-z
1/2+x,1/2-y,1/2+z
loop_
_atom_site_type_symbol
_atom_site_label
_atom_site_fract_x
_atom_site_fract_y
_atom_site_fract_z
Si Si1 0.700786 0.555817 0.527099
Si Si2 0.130664 0.681820 0.956987
Si Si3 0.856881 0.880831 0.126791
Si Si4 0.000000 0.365959 0.750000
Si Si5 0.415636 0.428903 0.858137
Si Si6 0.722494 0.470924 0.851307
Si Si7 0.536532 0.259435 0.129351
Si Si8 0.703020 0.829702 0.015629
O O1 0.844727 0.609352 0.504014
O O2 0.539930 0.598886 0.551858
O O3 0.681431 0.502815 0.605571
O O4 0.749152 0.514993 0.434865
O O5 0.071000 0.745203 0.029265
O O6 0.993063 0.666393 0.933249
O O7 0.305925 0.706771 0.872487
O O8 0.882142 0.813651 0.177329
O O9 0.773985 0.950708 0.189328
O O10 0.751253 0.862347 0.083029
O O11 0.850884 0.417611 0.779714
O O12 0.001969 0.315721 0.823346
O O13 0.500000 0.419117 0.750000
O O14 0.552400 0.432816 0.884539
O O15 0.292047 0.366513 0.916326
O O16 0.750000 0.750000 0.000000
#
# Coordination Sequence:
#
# PCOD8136056 Si02
#       8
#     8   8   8   4   8   8   8   8
#     4  10  19  44  71  90 126 186 227 271 334 432
#     4  10  22  38  66  97 130 171 234 278 334 420
#     4  10  20  43  67  92 131 179 228 267 349 420
#     4  12  26  40  72 102 134 178 246 300 332 396
#     4  11  25  41  66  99 138 170 226 290 351 402
#     4  11  22  43  71  94 134 184 230 284 346 421
#     4  10  22  42  66  95 132 179 231 282 338 413
#     4  12  23  37  68  98 131 176 222 285 348 412
#
# _framework density 22.058157000000001
#
# number of rings (size 3 to 8) (size 9 to 14) (size 15 to 20)
#    0.000    1.333    5.333    0.800    3.733    0.533 
#   13.200    0.000    1.467    0.000    0.000    0.000 
#    0.000    0.000    0.000    0.000    0.000    0.000 
#
# Total GULP energy -371692.742611 kJ/mol
# GULP energy per Si atom -12389.758087 kJ/mol
# Density = 2.200795 g / cm^3
# Si number density = 22.058157 Si / 1000 Ang^3
#
#
#
# Elastic Constant Matrix: (Units=GPa)
#
#
# Indices 1 2 3 4 5 6 
#
# 1 140.7280 67.8456 22.7216 0.0000 -6.4228 0.0000
# 2 67.8456 168.9108 35.1919 0.0000 -14.0381 0.0000
# 3 22.7216 35.1919 60.6252 0.0000 3.6763 0.0000
# 4 0.0000 0.0000 0.0000 36.1659 0.0000 -9.6965
# 5 -6.4228 -14.0381 3.6763 0.0000 18.5089 0.0000
# 6 0.0000 0.0000 0.0000 -9.6965 0.0000 38.9599
#
#
#
# Elastic Compliance Matrix: (Units=1/GPa)
#
#
# Indices 1 2 3 4 5 6 
#
# 1 0.008938 -0.003181 -0.001564 0.000000 0.000999 0.000000
# 2 -0.003181 0.008585 -0.004169 0.000000 0.006235 0.000000
# 3 -0.001564 -0.004169 0.019966 0.000000 -0.007671 0.000000
# 4 0.000000 0.000000 0.000000 0.029627 0.000000 0.007374
# 5 0.000999 0.006235 -0.007671 0.000000 0.060628 0.000000
# 6 0.000000 0.000000 0.000000 0.007374 0.000000 0.027503
#
#
# Mechanical properties :
#
#
# Convention : Reuss Voigt Hill
#
# Bulk Modulus (GPa) = 50.86337 69.08690 59.97514
# Shear Modulus (GPa) = 27.83528 35.02725 31.43127
#
# Velocity S-wave (km/s) = 3.55618 3.98923 3.77892
# Velocity P-wave (km/s) = 6.32224 7.25307 6.80359
#
# Compressibility (1/GPa) = 0.01966051
#
# Stress axis : x y z
#
# Youngs Moduli (GPa) = 111.88678 116.48376 50.08462
#
# Poissons Ratio (x) = 0.37054 0.07832
# Poissons Ratio (y) = 0.35592 0.20882
# Poissons Ratio (z) = 0.17496 0.48565
#
# Static dielectric constant tensor:
#      x y z
#    x 4.299290 0.000000 0.004790 
#    y 0.000000 4.339720 0.000000 
#    z 0.004790 0.000000 3.685740 
# 
# 
# High freq. dielectric constant tensor:
#      x y z
#    x 1.866000 0.000000 -0.002340 
#    y 0.000000 1.892460 0.000000 
#    z -0.002340 0.000000 1.820190 
# 
# From -- ./inp_files/192519.got.cif
#   From: 2010.06.25/outbox.cif.g09.slc.cpg/sg15_97_cif.got.tgz:192519.got - 2010.06.28 07:06:18.
