data_PCOD8136910
_publ_section_title
;
Structure prediction by ZEFSAII (Michael W. Deem and Ramdas Pophale) SiO2 
 PCOD8136910
Probable space group: C 2/C
;
_chemical_formula_sum "Si O2"
_cell_formula_units_Z 60
_cell_length_a 18.088701
_cell_length_b 24.142343
_cell_length_c 13.879860
_cell_angle_alpha 90.000000
_cell_angle_beta 150.225423
_cell_angle_gamma 90.000000
_cell_volume 3010.016418
_symmetry_space_group_name_H-M "C 2/C"
_symmetry_group_IT_number 15
_symmetry_cell_setting 'monoclinic'
loop_
_space_group_symop_operation_xyz
x,y,z
-x,y,1/2-z
-x,-y,-z
x,-y,1/2+z
1/2+x,1/2+y,z
1/2-x,1/2+y,1/2-z
1/2-x,1/2-y,-z
1/2+x,1/2-y,1/2+z
loop_
_atom_site_type_symbol
_atom_site_label
_atom_site_fract_x
_atom_site_fract_y
_atom_site_fract_z
Si Si1 0.283775 0.353696 0.238357
Si Si2 0.702771 0.699140 0.553183
Si Si3 0.477398 0.286856 0.333872
Si Si4 0.035932 0.308945 0.387429
Si Si5 0.265782 0.641838 0.295322
Si Si6 0.500000 0.608578 0.250000
Si Si7 0.012032 0.938056 0.550137
Si Si8 0.468511 0.156473 0.324097
O O1 0.348653 0.316415 0.397833
O O2 0.325016 0.318623 0.189422
O O3 0.364713 0.412293 0.336170
O O4 0.108556 0.365122 0.044110
O O5 0.625353 0.757043 0.440878
O O6 0.645126 0.649193 0.418331
O O7 0.880031 0.707054 0.759205
O O8 0.500000 0.303102 0.250000
O O9 0.614164 0.309253 0.553299
O O10 0.453746 0.222171 0.321825
O O11 0.137593 0.339543 0.578022
O O12 0.000000 0.345346 0.250000
O O13 0.342581 0.588196 0.336408
O O14 0.180825 0.628370 0.300639
O O15 0.484884 0.570206 0.329333
O O16 0.000000 0.000000 0.500000
O O17 0.500000 0.138900 0.250000
#
# Coordination Sequence:
#
# PCOD8136910 Si02
#       8
#     8   8   8   8   8   4   8   8
#     4  10  21  36  58  83 120 158 203 246 305 357
#     4  11  22  35  57  91 133 170 195 241 296 381
#     4  10  20  35  56  88 128 172 210 242 293 369
#     4  12  23  33  56  92 133 172 201 232 299 381
#     4  11  23  37  61  92 127 167 216 257 303 376
#     4  10  22  44  68  90 126 158 210 260 324 366
#     4  10  24  47  67  86 110 155 211 272 315 367
#     4  11  20  35  56  90 134 164 193 245 306 364
#
# _framework density 19.933446
#
# number of rings (size 3 to 8) (size 9 to 14) (size 15 to 20)
#    0.000    1.333    2.000    4.400    5.600    2.133 
#    7.200    0.667    0.000    0.800    0.000    0.000 
#    0.000    0.000    0.000    0.000    0.000    0.000 
#
# Total GULP energy -371837.712813 kJ/mol
# GULP energy per Si atom -12394.590427 kJ/mol
# Density = 1.988808 g / cm^3
# Si number density = 19.933446 Si / 1000 Ang^3
#
#
#
# Elastic Constant Matrix: (Units=GPa)
#
#
# Indices 1 2 3 4 5 6 
#
# 1 116.0248 46.9356 28.1887 0.0000 5.4301 0.0000
# 2 46.9356 84.8632 34.5230 0.0000 -1.1900 0.0000
# 3 28.1887 34.5230 92.8658 0.0000 11.7157 0.0000
# 4 0.0000 0.0000 0.0000 14.8487 0.0000 -4.3278
# 5 5.4301 -1.1900 11.7157 0.0000 39.2304 0.0000
# 6 0.0000 0.0000 0.0000 -4.3278 0.0000 22.2374
#
#
#
# Elastic Compliance Matrix: (Units=1/GPa)
#
#
# Indices 1 2 3 4 5 6 
#
# 1 0.011308 -0.005833 -0.001085 0.000000 -0.001418 0.000000
# 2 -0.005833 0.017051 -0.004921 0.000000 0.002794 0.000000
# 3 -0.001085 -0.004921 0.013433 0.000000 -0.004011 0.000000
# 4 0.000000 0.000000 0.000000 0.071396 0.000000 0.013895
# 5 -0.001418 0.002794 -0.004011 0.000000 0.026969 0.000000
# 6 0.000000 0.000000 0.000000 0.013895 0.000000 0.047673
#
#
# Mechanical properties :
#
#
# Convention : Reuss Voigt Hill
#
# Bulk Modulus (GPa) = 55.20441 57.00538 56.10489
# Shear Modulus (GPa) = 22.98365 27.53705 25.26035
#
# Velocity S-wave (km/s) = 3.39930 3.72082 3.56369
# Velocity P-wave (km/s) = 6.56974 6.86435 6.71866
#
# Compressibility (1/GPa) = 0.01811449
#
# Stress axis : x y z
#
# Youngs Moduli (GPa) = 88.42954 58.64928 74.44427
#
# Poissons Ratio (x) = 0.34209 0.08080
# Poissons Ratio (y) = 0.51579 0.36631
# Poissons Ratio (z) = 0.09598 0.28859
#
# Static dielectric constant tensor:
#      x y z
#    x 4.020860 0.000000 0.047510 
#    y 0.000000 3.094140 0.000000 
#    z 0.047510 0.000000 3.815500 
# 
# 
# High freq. dielectric constant tensor:
#      x y z
#    x 1.803930 0.000000 -0.001070 
#    y 0.000000 1.711620 0.000000 
#    z -0.001070 0.000000 1.797210 
# 
# From -- ./inp_files/164126.got.cif
#   From: 2010.06.25/outbox.cif.g09.slc.cpg/sg15_83_cif.got.tgz:164126.got - 2010.06.28 07:06:18.
