data_PCOD8136394
_publ_section_title
;
Structure prediction by ZEFSAII (Michael W. Deem and Ramdas Pophale) SiO2 
 PCOD8136394
Probable space group: C 2/C
;
_chemical_formula_sum "Si O2"
_cell_formula_units_Z 60
_cell_length_a 10.532561
_cell_length_b 15.176730
_cell_length_c 21.429139
_cell_angle_alpha 90.000000
_cell_angle_beta 58.145182
_cell_angle_gamma 90.000000
_cell_volume 2909.531771
_symmetry_space_group_name_H-M "C 2/C"
_symmetry_group_IT_number 15
_symmetry_cell_setting 'monoclinic'
loop_
_space_group_symop_operation_xyz
x,y,z
-x,y,1/2-z
-x,-y,-z
x,-y,1/2+z
1/2+x,1/2+y,z
1/2-x,1/2+y,1/2-z
1/2-x,1/2-y,-z
1/2+x,1/2-y,1/2+z
loop_
_atom_site_type_symbol
_atom_site_label
_atom_site_fract_x
_atom_site_fract_y
_atom_site_fract_z
Si Si1 0.457560 0.547696 0.948604
Si Si2 0.831406 0.591098 0.426760
Si Si3 0.339524 0.370175 0.314854
Si Si4 0.411321 0.030425 0.680092
Si Si5 0.552295 0.273398 0.096829
Si Si6 0.500000 0.164859 0.750000
Si Si7 0.754545 0.269692 0.737770
Si Si8 0.200323 0.061496 0.325799
O O1 0.500451 0.653618 0.940754
O O2 0.545659 0.496071 0.870330
O O3 0.500000 0.500000 0.000000
O O4 0.275714 0.541409 0.995337
O O5 0.846680 0.690788 0.450992
O O6 0.752922 0.597543 0.379166
O O7 0.987893 0.541183 0.380671
O O8 0.500000 0.405830 0.250000
O O9 0.213772 0.445286 0.339159
O O10 0.356157 0.339151 0.381309
O O11 0.280461 0.287624 0.291889
O O12 0.511185 0.110725 0.681482
O O13 0.331229 0.999793 0.764934
O O14 0.415527 0.220527 0.163964
O O15 0.646634 0.225597 0.714964
O O16 0.681328 0.360791 0.780219
#
# Coordination Sequence:
#
# PCOD8136394 Si02
#       8
#     8   8   8   8   8   4   8   8
#     4  10  24  38  60  88 123 161 198 248 304 361
#     4  11  21  36  62  89 116 158 205 248 296 357
#     4   9  19  33  57  88 120 153 197 252 309 343
#     4  11  20  35  62  90 119 158 198 252 297 356
#     4  11  20  39  60  87 118 156 207 248 298 355
#     4  10  20  34  54  90 124 146 196 244 298 352
#     4  10  20  33  60  91 117 155 195 256 301 348
#     4  11  19  38  57  88 120 155 202 247 300 354
#
# _framework density 20.621873999999998
#
# number of rings (size 3 to 8) (size 9 to 14) (size 15 to 20)
#    0.000    1.600    4.000    2.800    1.867    0.000 
#    3.600    0.667    0.000    6.400    0.000    0.000 
#    0.000    0.000    0.000    0.000    0.000    0.000 
#
# Total GULP energy -371645.722678 kJ/mol
# GULP energy per Si atom -12388.190756 kJ/mol
# Density = 2.057494 g / cm^3
# Si number density = 20.621874 Si / 1000 Ang^3
#
#
#
# Elastic Constant Matrix: (Units=GPa)
#
#
# Indices 1 2 3 4 5 6 
#
# 1 88.4939 55.1663 32.6805 0.0000 -15.0627 0.0000
# 2 55.1663 135.4061 55.5396 0.0000 -18.6557 0.0000
# 3 32.6805 55.5396 102.3123 0.0000 -26.1976 0.0000
# 4 0.0000 0.0000 0.0000 36.2628 0.0000 -9.2272
# 5 -15.0627 -18.6557 -26.1976 0.0000 19.0589 0.0000
# 6 0.0000 0.0000 0.0000 -9.2272 0.0000 31.6361
#
#
#
# Elastic Compliance Matrix: (Units=1/GPa)
#
#
# Indices 1 2 3 4 5 6 
#
# 1 0.015976 -0.005397 -0.000452 0.000000 0.006722 0.000000
# 2 -0.005397 0.011470 -0.004197 0.000000 0.001193 0.000000
# 3 -0.000452 -0.004197 0.017057 0.000000 0.018980 0.000000
# 4 0.000000 0.000000 0.000000 0.029787 0.000000 0.008688
# 5 0.006722 0.001193 0.018980 0.000000 0.085038 0.000000
# 6 0.000000 0.000000 0.000000 0.008688 0.000000 0.034143
#
#
# Mechanical properties :
#
#
# Convention : Reuss Voigt Hill
#
# Bulk Modulus (GPa) = 40.96714 68.10946 54.53830
# Shear Modulus (GPa) = 22.55303 29.57997 26.06650
#
# Velocity S-wave (km/s) = 3.31062 3.79145 3.55917
# Velocity P-wave (km/s) = 5.87559 7.22954 6.58745
#
# Compressibility (1/GPa) = 0.02440981
#
# Stress axis : x y z
#
# Youngs Moduli (GPa) = 62.59443 87.18454 58.62845
#
# Poissons Ratio (x) = 0.47056 0.02650
# Poissons Ratio (y) = 0.33784 0.24606
# Poissons Ratio (z) = 0.02829 0.36591
#
# Static dielectric constant tensor:
#      x y z
#    x 3.849260 0.000000 -0.295870 
#    y 0.000000 3.998790 0.000000 
#    z -0.295870 0.000000 3.818550 
# 
# 
# High freq. dielectric constant tensor:
#      x y z
#    x 1.785330 0.000000 -0.019470 
#    y 0.000000 1.811680 0.000000 
#    z -0.019470 0.000000 1.797660 
# 
# From -- ./inp_files/292697.got.cif
#   From: 2010.06.25/outbox.cif.g09.slc.cpg/sg15_147_cif.got.tgz:292697.got - 2010.06.28 07:06:18.
