data_PCOD8136091
_publ_section_title
;
Structure prediction by ZEFSAII (Michael W. Deem and Ramdas Pophale) SiO2 
 PCOD8136091
Probable space group: C 2/C
;
_chemical_formula_sum "Si O2"
_cell_formula_units_Z 56
_cell_length_a 12.172915
_cell_length_b 29.419701
_cell_length_c 8.718587
_cell_angle_alpha 90.000000
_cell_angle_beta 57.201781
_cell_angle_gamma 90.000000
_cell_volume 2624.579791
_symmetry_space_group_name_H-M "C 2/C"
_symmetry_group_IT_number 15
_symmetry_cell_setting 'monoclinic'
loop_
_space_group_symop_operation_xyz
x,y,z
-x,y,1/2-z
-x,-y,-z
x,-y,1/2+z
1/2+x,1/2+y,z
1/2-x,1/2+y,1/2-z
1/2-x,1/2-y,-z
1/2+x,1/2-y,1/2+z
loop_
_atom_site_type_symbol
_atom_site_label
_atom_site_fract_x
_atom_site_fract_y
_atom_site_fract_z
Si Si1 0.538015 0.350320 0.393780
Si Si2 0.725605 0.693886 0.334968
Si Si3 0.603905 0.444221 0.455480
Si Si4 0.982707 0.645843 0.080508
Si Si5 0.549476 0.045425 0.382394
Si Si6 0.218706 0.294798 0.351934
Si Si7 0.172546 0.973243 0.735124
O O1 0.500000 0.364431 0.250000
O O2 0.406439 0.335741 0.582030
O O3 0.616525 0.390971 0.416425
O O4 0.642352 0.309894 0.321918
O O5 0.840532 0.668514 0.153092
O O6 0.771816 0.702309 0.472628
O O7 0.695382 0.744822 0.298001
O O8 0.679119 0.460589 0.551353
O O9 0.450125 0.452281 0.585483
O O10 0.664358 0.471936 0.265446
O O11 0.995265 0.593649 0.009955
O O12 0.000000 0.645693 0.250000
O O13 0.094014 0.673727 0.904532
O O14 0.500000 0.041664 0.250000
O O15 0.705335 0.047074 0.268043
O O16 0.500000 0.000000 0.500000
#
# Coordination Sequence:
#
# PCOD8136091 Si02
#       7
#     8   8   8   8   8   8   8
#     4  10  20  30  53  85 115 148 195 244 291 343
#     4   9  16  31  50  77 115 147 183 235 299 349
#     4  10  22  37  59  83 116 154 194 247 287 347
#     4   9  18  31  49  77 111 147 182 228 287 342
#     4  11  23  38  58  82 117 155 194 237 284 347
#     4   9  17  29  50  80 113 146 183 238 295 347
#     4  10  22  39  56  83 113 159 196 238 294 343
#
# _framework density 21.336748
#
# number of rings (size 3 to 8) (size 9 to 14) (size 15 to 20)
#    0.000    2.286    0.000    2.571    6.000    4.571 
#    0.000    0.000    0.000    0.000    0.000   18.000 
#    0.000    0.000    0.000    0.000    0.000    0.000 
#
# Total GULP energy -347033.174995 kJ/mol
# GULP energy per Si atom -12394.041964 kJ/mol
# Density = 2.128818 g / cm^3
# Si number density = 21.336748 Si / 1000 Ang^3
#
#
#
# Elastic Constant Matrix: (Units=GPa)
#
#
# Indices 1 2 3 4 5 6 
#
# 1 117.6948 45.5493 39.3280 0.0000 -16.8656 0.0000
# 2 45.5493 178.5343 36.0611 0.0000 -2.4951 0.0000
# 3 39.3280 36.0611 47.7816 0.0000 -9.8892 0.0000
# 4 0.0000 0.0000 0.0000 20.1018 0.0000 -3.3237
# 5 -16.8656 -2.4951 -9.8892 0.0000 29.1656 0.0000
# 6 0.0000 0.0000 0.0000 -3.3237 0.0000 17.1951
#
#
#
# Elastic Compliance Matrix: (Units=1/GPa)
#
#
# Indices 1 2 3 4 5 6 
#
# 1 0.012424 -0.001443 -0.008255 0.000000 0.004262 0.000000
# 2 -0.001443 0.006816 -0.004311 0.000000 -0.001713 0.000000
# 3 -0.008255 -0.004311 0.032170 0.000000 0.005765 0.000000
# 4 0.000000 0.000000 0.000000 0.051389 0.000000 0.009933
# 5 0.004262 -0.001713 0.005765 0.000000 0.038560 0.000000
# 6 0.000000 0.000000 0.000000 0.009933 0.000000 0.060076
#
#
# Mechanical properties :
#
#
# Convention : Reuss Voigt Hill
#
# Bulk Modulus (GPa) = 42.74925 65.09862 53.92393
# Shear Modulus (GPa) = 21.07475 28.16399 24.61937
#
# Velocity S-wave (km/s) = 3.14621 3.63709 3.40052
# Velocity P-wave (km/s) = 5.76864 6.94365 6.38324
#
# Compressibility (1/GPa) = 0.02339223
#
# Stress axis : x y z
#
# Youngs Moduli (GPa) = 80.48861 146.71120 31.08488
#
# Poissons Ratio (x) = 0.21168 0.25661
# Poissons Ratio (y) = 0.11613 0.13401
# Poissons Ratio (z) = 0.66444 0.63249
#
# Static dielectric constant tensor:
#      x y z
#    x 3.754700 0.000000 -0.336770 
#    y 0.000000 4.250510 0.000000 
#    z -0.336770 0.000000 3.435730 
# 
# 
# High freq. dielectric constant tensor:
#      x y z
#    x 1.826140 0.000000 -0.033610 
#    y 0.000000 1.852760 0.000000 
#    z -0.033610 0.000000 1.796550 
# 
# From -- ./inp_files/35556.got.cif
#   From: 2010.06.25/outbox.cif.g09.slc.cpg/sg15_18_cif.got.tgz:35556.got - 2010.06.28 07:06:18.
