data_PCOD8136444
_publ_section_title
;
Structure prediction by ZEFSAII (Michael W. Deem and Ramdas Pophale) SiO2 
 PCOD8136444
Probable space group: C 2/C
;
_chemical_formula_sum "Si O2"
_cell_formula_units_Z 56
_cell_length_a 13.115074
_cell_length_b 18.504451
_cell_length_c 16.082828
_cell_angle_alpha 90.000000
_cell_angle_beta 45.706586
_cell_angle_gamma 90.000000
_cell_volume 2793.731636
_symmetry_space_group_name_H-M "C 2/C"
_symmetry_group_IT_number 15
_symmetry_cell_setting 'monoclinic'
loop_
_space_group_symop_operation_xyz
x,y,z
-x,y,1/2-z
-x,-y,-z
x,-y,1/2+z
1/2+x,1/2+y,z
1/2-x,1/2+y,1/2-z
1/2-x,1/2-y,-z
1/2+x,1/2-y,1/2+z
loop_
_atom_site_type_symbol
_atom_site_label
_atom_site_fract_x
_atom_site_fract_y
_atom_site_fract_z
Si Si1 0.242708 0.175041 0.549897
Si Si2 0.592144 0.937915 0.376124
Si Si3 0.267294 0.802479 0.232076
Si Si4 0.490552 0.376217 0.426311
Si Si5 0.513540 0.086210 0.390707
Si Si6 0.185619 0.857815 0.806993
Si Si7 0.606607 0.499222 0.766099
O O1 0.250000 0.250000 0.500000
O O2 0.249539 0.188287 0.643497
O O3 0.094631 0.138264 0.610345
O O4 0.370319 0.124538 0.441998
O O5 0.623878 0.866673 0.302203
O O6 0.479967 0.916313 0.511951
O O7 0.527673 0.001563 0.354357
O O8 0.737559 0.966347 0.340575
O O9 0.332256 0.724187 0.217084
O O10 0.116597 0.816609 0.363284
O O11 0.389314 0.368238 0.562384
O O12 0.549824 0.457570 0.380216
O O13 0.645798 0.130114 0.277719
O O14 0.118449 0.914190 0.780392
O O15 0.500000 0.507427 0.750000
#
# Coordination Sequence:
#
# PCOD8136444 Si02
#       7
#     8   8   8   8   8   8   8
#     4  11  19  32  52  81 117 144 172 217 272 334
#     4   8  17  34  54  76 103 141 183 218 262 325
#     4  10  20  34  52  79 111 149 175 216 276 322
#     4  11  21  35  54  82 117 141 176 221 275 327
#     4   9  18  31  50  78 107 141 180 212 264 326
#     4  11  22  33  54  85 109 143 179 228 271 323
#     4  10  20  38  59  79 103 143 188 226 270 322
#
# _framework density 20.044875000000001
#
# number of rings (size 3 to 8) (size 9 to 14) (size 15 to 20)
#    0.000    2.000    1.429    4.286    2.000    0.571 
#    0.000    0.000    0.000    0.857   11.143    0.000 
#    0.000    0.000    0.000    0.000    0.000    0.000 
#
# Total GULP energy -346974.555782 kJ/mol
# GULP energy per Si atom -12391.948421 kJ/mol
# Density = 1.999925 g / cm^3
# Si number density = 20.044875 Si / 1000 Ang^3
#
#
#
# Elastic Constant Matrix: (Units=GPa)
#
#
# Indices 1 2 3 4 5 6 
#
# 1 26.3605 25.8514 11.7692 -0.0008 -5.2000 0.0005
# 2 25.8514 180.0109 44.5750 -0.0004 -14.1977 0.0002
# 3 11.7692 44.5750 119.4834 -0.0016 -15.1003 0.0011
# 4 -0.0008 -0.0004 -0.0016 28.4900 0.0012 -2.8952
# 5 -5.2000 -14.1977 -15.1003 0.0012 18.8148 -0.0007
# 6 0.0005 0.0002 0.0011 -2.8952 -0.0007 27.6021
#
#
#
# Elastic Compliance Matrix: (Units=1/GPa)
#
#
# Indices 1 2 3 4 5 6 
#
# 1 0.045505 -0.005602 -0.001488 0.000001 0.007155 0.000000
# 2 -0.005602 0.006977 -0.001760 0.000000 0.002304 0.000000
# 3 -0.001488 -0.001760 0.009963 0.000000 0.006257 0.000000
# 4 0.000001 0.000000 0.000000 0.035478 -0.000002 0.003721
# 5 0.007155 0.002304 0.006257 -0.000002 0.061888 0.000001
# 6 0.000000 0.000000 0.000000 0.003721 0.000001 0.036619
#
#
# Mechanical properties :
#
#
# Convention : Reuss Voigt Hill
#
# Bulk Modulus (GPa) = 22.34862 54.47177 38.41020
# Shear Modulus (GPa) = 21.82958 31.22534 26.52746
#
# Velocity S-wave (km/s) = 3.30363 3.95114 3.64181
# Velocity P-wave (km/s) = 5.07203 6.93176 6.07350
#
# Compressibility (1/GPa) = 0.04474549
#
# Stress axis : x y z
#
# Youngs Moduli (GPa) = 21.97538 143.32193 100.36871
#
# Poissons Ratio (x) = 0.80292 0.14936
# Poissons Ratio (y) = 0.12311 0.17664
# Poissons Ratio (z) = 0.03270 0.25224
#
# Static dielectric constant tensor:
#      x y z
#    x 3.483050 0.000000 -0.364630 
#    y 0.000000 4.288730 0.000000 
#    z -0.364630 0.000000 3.721530 
# 
# 
# High freq. dielectric constant tensor:
#      x y z
#    x 1.713970 0.000000 -0.026250 
#    y 0.000000 1.806810 0.000000 
#    z -0.026250 0.000000 1.794510 
# 
# From -- ./inp_files/206246.got.cif
#   From: 2010.06.25/outbox.cif.g09.slc.cpg/sg15_104_cif.got.tgz:206246.got - 2010.06.28 07:06:18.
