data_PCOD8136733
_publ_section_title
;
Structure prediction by ZEFSAII (Michael W. Deem and Ramdas Pophale) SiO2 
 PCOD8136733
Probable space group: C 2/C
;
_chemical_formula_sum "Si O2"
_cell_formula_units_Z 60
_cell_length_a 14.509853
_cell_length_b 20.708465
_cell_length_c 12.700477
_cell_angle_alpha 90.000000
_cell_angle_beta 127.175920
_cell_angle_gamma 90.000000
_cell_volume 3040.685676
_symmetry_space_group_name_H-M "C 2/C"
_symmetry_group_IT_number 15
_symmetry_cell_setting 'monoclinic'
loop_
_space_group_symop_operation_xyz
x,y,z
-x,y,1/2-z
-x,-y,-z
x,-y,1/2+z
1/2+x,1/2+y,z
1/2-x,1/2+y,1/2-z
1/2-x,1/2-y,-z
1/2+x,1/2-y,1/2+z
loop_
_atom_site_type_symbol
_atom_site_label
_atom_site_fract_x
_atom_site_fract_y
_atom_site_fract_z
Si Si1 0.117834 0.959741 0.771174
Si Si2 0.747553 0.010368 0.939724
Si Si3 0.460979 0.072388 0.949706
Si Si4 0.569780 0.835354 0.693647
Si Si5 0.026531 0.187708 0.647840
Si Si6 0.823910 0.882363 0.891287
Si Si7 0.500000 0.043990 0.750000
Si Si8 0.297878 0.417415 0.271057
O O1 0.143205 0.904394 0.703762
O O2 0.000000 0.944280 0.750000
O O3 0.112020 0.029904 0.712649
O O4 0.223016 0.961186 0.926204
O O5 0.814729 0.944390 0.961332
O O6 0.610369 0.996472 0.836839
O O7 0.779630 0.066801 0.880538
O O8 0.488521 0.088747 0.846050
O O9 0.323641 0.080394 0.876064
O O10 0.533237 0.119117 0.073057
O O11 0.500000 0.000000 0.000000
O O12 0.500000 0.853797 0.750000
O O13 0.543265 0.762980 0.639261
O O14 0.705590 0.842519 0.809031
O O15 0.145865 0.152728 0.699299
O O16 0.000000 0.171962 0.750000
O O17 0.922232 0.164322 0.502554
#
# Coordination Sequence:
#
# PCOD8136733 Si02
#       8
#     8   8   8   8   8   8   4   8
#     4  11  21  36  63  93 126 160 199 256 313 367
#     4  10  20  34  61  92 125 156 202 256 314 365
#     4  11  23  38  65  94 127 162 208 262 318 367
#     4  11  27  41  65  93 126 165 210 259 315 374
#     4  11  25  41  62  87 124 170 206 252 311 372
#     4  11  24  40  62  93 126 162 211 255 314 376
#     4  10  20  36  60  92 128 158 200 256 316 370
#     4  10  21  36  60  92 125 162 205 254 312 370
#
# _framework density 19.732391
#
# number of rings (size 3 to 8) (size 9 to 14) (size 15 to 20)
#    0.000    1.333    0.000    6.800    9.333    3.200 
#    0.000    0.000    4.400    4.800    0.000    0.000 
#    0.000    0.000    0.000    0.000    0.000    0.000 
#
# Total GULP energy -372105.459995 kJ/mol
# GULP energy per Si atom -12403.515333 kJ/mol
# Density = 1.968748 g / cm^3
# Si number density = 19.732391 Si / 1000 Ang^3
#
#
#
# Elastic Constant Matrix: (Units=GPa)
#
#
# Indices 1 2 3 4 5 6 
#
# 1 122.1793 45.7136 55.3715 0.0000 8.0179 0.0000
# 2 45.7136 103.2477 62.0212 0.0000 -0.1662 0.0000
# 3 55.3715 62.0212 149.0740 0.0000 3.3075 0.0000
# 4 0.0000 0.0000 0.0000 24.3922 0.0000 5.0786
# 5 8.0179 -0.1662 3.3075 0.0000 37.1348 0.0000
# 6 0.0000 0.0000 0.0000 5.0786 0.0000 24.0180
#
#
#
# Elastic Compliance Matrix: (Units=1/GPa)
#
#
# Indices 1 2 3 4 5 6 
#
# 1 0.010689 -0.003171 -0.002604 0.000000 -0.002090 0.000000
# 2 -0.003171 0.013864 -0.004616 0.000000 0.001158 0.000000
# 3 -0.002604 -0.004616 0.009603 0.000000 -0.000314 0.000000
# 4 0.000000 0.000000 0.000000 0.042885 0.000000 -0.009068
# 5 -0.002090 0.001158 -0.000314 0.000000 0.027413 0.000000
# 6 0.000000 0.000000 0.000000 -0.009068 0.000000 0.043553
#
#
# Mechanical properties :
#
#
# Convention : Reuss Voigt Hill
#
# Bulk Modulus (GPa) = 74.78028 77.85707 76.31867
# Shear Modulus (GPa) = 28.86048 31.20199 30.03123
#
# Velocity S-wave (km/s) = 3.82854 3.98082 3.90542
# Velocity P-wave (km/s) = 7.58440 7.78918 7.68747
#
# Compressibility (1/GPa) = 0.01337251
#
# Stress axis : x y z
#
# Youngs Moduli (GPa) = 93.55639 72.12810 104.13656
#
# Poissons Ratio (x) = 0.22875 0.27121
# Poissons Ratio (y) = 0.29671 0.48068
# Poissons Ratio (z) = 0.24365 0.33293
#
# Static dielectric constant tensor:
#      x y z
#    x 3.860740 0.000000 -0.064910 
#    y 0.000000 3.336770 0.000000 
#    z -0.064910 0.000000 3.792730 
# 
# 
# High freq. dielectric constant tensor:
#      x y z
#    x 1.784950 0.000000 0.002430 
#    y 0.000000 1.737550 0.000000 
#    z 0.002430 0.000000 1.788720 
# 
# From -- ./inp_files/100686.got.cif
#   From: 2010.06.25/outbox.cif.g09.slc.cpg/sg15_51_cif.got.tgz:100686.got - 2010.06.28 07:06:18.
