data_PCOD8136691
_publ_section_title
;
Structure prediction by ZEFSAII (Michael W. Deem and Ramdas Pophale) SiO2 
 PCOD8136691
Probable space group: C 2/C
;
_chemical_formula_sum "Si O2"
_cell_formula_units_Z 52
_cell_length_a 21.188625
_cell_length_b 27.205538
_cell_length_c 8.947903
_cell_angle_alpha 90.000000
_cell_angle_beta 28.587677
_cell_angle_gamma 90.000000
_cell_volume 2468.118673
_symmetry_space_group_name_H-M "C 2/C"
_symmetry_group_IT_number 15
_symmetry_cell_setting 'monoclinic'
loop_
_space_group_symop_operation_xyz
x,y,z
-x,y,1/2-z
-x,-y,-z
x,-y,1/2+z
1/2+x,1/2+y,z
1/2-x,1/2+y,1/2-z
1/2-x,1/2-y,-z
1/2+x,1/2-y,1/2+z
loop_
_atom_site_type_symbol
_atom_site_label
_atom_site_fract_x
_atom_site_fract_y
_atom_site_fract_z
Si Si1 0.112650 0.593800 0.208085
Si Si2 0.232313 0.683285 0.549987
Si Si3 0.677790 0.076775 0.732780
Si Si4 0.000000 0.999058 0.250000
Si Si5 0.076671 0.295613 0.841052
Si Si6 0.254660 0.241682 0.248030
Si Si7 0.681137 0.475384 0.121811
O O1 0.140178 0.651342 0.171624
O O2 0.963071 0.578680 0.558165
O O3 0.151333 0.575826 0.963411
O O4 0.203210 0.564031 0.135353
O O5 0.256758 0.625871 0.524110
O O6 0.298446 0.712303 0.551559
O O7 0.295921 0.698606 0.258908
O O8 0.078883 0.699837 0.856881
O O9 0.762065 0.030698 0.502845
O O10 0.899826 0.032563 0.555525
O O11 0.083168 0.964830 0.188525
O O12 0.132939 0.256375 0.606181
O O13 0.120307 0.277747 0.915421
#
# Coordination Sequence:
#
# PCOD8136691 Si02
#       7
#     8   8   8   4   8   8   8
#     4  10  20  37  65  95 116 149 191 258 307 343
#     4  10  20  37  62  86 118 151 192 240 304 340
#     4  10  20  37  65  95 116 149 191 258 307 343
#     4  10  24  38  62  78 116 186 184 232 280 346
#     4  10  20  37  62  86 118 151 192 240 304 340
#     4  10  20  34  60  82 116 156 186 234 288 350
#     4  11  21  42  64  86 123 157 204 232 288 365
#
# _framework density 21.068677999999998
#
# number of rings (size 3 to 8) (size 9 to 14) (size 15 to 20)
#    0.000    1.846    3.077    1.385    0.000    1.231 
#    0.000    1.538   67.692    0.000    0.000    0.000 
#    0.000    0.000    0.000    0.000    0.000    0.000 
#
# Total GULP energy -322307.432838 kJ/mol
# GULP energy per Si atom -12396.439725 kJ/mol
# Density = 2.102072 g / cm^3
# Si number density = 21.068678 Si / 1000 Ang^3
#
#
#
# Elastic Constant Matrix: (Units=GPa)
#
#
# Indices 1 2 3 4 5 6 
#
# 1 89.6441 20.1525 30.8819 0.0011 3.6751 -0.0005
# 2 20.1525 100.1742 38.8012 0.0001 -8.1836 0.0000
# 3 30.8819 38.8012 61.4872 0.0023 4.1600 -0.0008
# 4 0.0011 0.0001 0.0023 23.4641 -0.0012 -5.8174
# 5 3.6751 -8.1836 4.1600 -0.0012 32.5588 0.0006
# 6 -0.0005 0.0000 -0.0008 -5.8174 0.0006 27.1194
#
#
#
# Elastic Compliance Matrix: (Units=1/GPa)
#
#
# Indices 1 2 3 4 5 6 
#
# 1 0.013507 -0.000224 -0.006592 0.000000 -0.000739 0.000000
# 2 -0.000224 0.013879 -0.008961 0.000001 0.004659 0.000000
# 3 -0.006592 -0.008961 0.025552 -0.000002 -0.004773 0.000000
# 4 0.000000 0.000001 -0.000002 0.045012 0.000002 0.009656
# 5 -0.000739 0.004659 -0.004773 0.000002 0.032578 0.000000
# 6 0.000000 0.000000 0.000000 0.009656 0.000000 0.038945
#
#
# Mechanical properties :
#
#
# Convention : Reuss Voigt Hill
#
# Bulk Modulus (GPa) = 46.76545 47.88629 47.32587
# Shear Modulus (GPa) = 24.02033 27.39311 25.70672
#
# Velocity S-wave (km/s) = 3.38019 3.60971 3.49684
# Velocity P-wave (km/s) = 6.12202 6.33651 6.23019
#
# Compressibility (1/GPa) = 0.02138331
#
# Stress axis : x y z
#
# Youngs Moduli (GPa) = 74.03591 72.05005 39.13527
#
# Poissons Ratio (x) = 0.01615 0.25800
# Poissons Ratio (y) = 0.01659 0.35069
# Poissons Ratio (z) = 0.48808 0.64565
#
# Static dielectric constant tensor:
#      x y z
#    x 4.076100 0.000000 0.029260 
#    y 0.000000 3.711650 0.000000 
#    z 0.029260 0.000000 3.739650 
# 
# 
# High freq. dielectric constant tensor:
#      x y z
#    x 1.836780 0.000000 0.004790 
#    y 0.000000 1.809870 0.000000 
#    z 0.004790 0.000000 1.814170 
# 
# From -- ./inp_files/59305.got.cif
#   From: 2010.06.25/outbox.cif.g09.slc.cpg/sg15_30_cif.got.tgz:59305.got - 2010.06.28 07:06:18.
