data_PCOD8136773
_publ_section_title
;
Structure prediction by ZEFSAII (Michael W. Deem and Ramdas Pophale) SiO2 
 PCOD8136773
Probable space group: C 2/C
;
_chemical_formula_sum "Si O2"
_cell_formula_units_Z 44
_cell_length_a 16.778217
_cell_length_b 9.680090
_cell_length_c 14.379151
_cell_angle_alpha 90.000000
_cell_angle_beta 96.796596
_cell_angle_gamma 90.000000
_cell_volume 2318.972964
_symmetry_space_group_name_H-M "C 2/C"
_symmetry_group_IT_number 15
_symmetry_cell_setting 'monoclinic'
loop_
_space_group_symop_operation_xyz
x,y,z
-x,y,1/2-z
-x,-y,-z
x,-y,1/2+z
1/2+x,1/2+y,z
1/2-x,1/2+y,1/2-z
1/2-x,1/2-y,-z
1/2+x,1/2-y,1/2+z
loop_
_atom_site_type_symbol
_atom_site_label
_atom_site_fract_x
_atom_site_fract_y
_atom_site_fract_z
Si Si1 0.982504 0.641323 0.552562
Si Si2 0.844259 0.341730 0.444138
Si Si3 0.825703 0.782318 0.447611
Si Si4 0.162849 0.571469 0.207277
Si Si5 0.500000 0.982367 0.250000
Si Si6 0.752797 0.936052 0.907964
O O1 0.908726 0.732758 0.505786
O O2 0.000000 0.500000 0.500000
O O3 0.065734 0.721145 0.543205
O O4 0.970891 0.614921 0.660864
O O5 0.829841 0.434104 0.351999
O O6 0.787084 0.213150 0.431074
O O7 0.822940 0.442070 0.529940
O O8 0.750000 0.750000 0.500000
O O9 0.815289 0.708844 0.346705
O O10 0.821267 0.947942 0.433994
O O11 0.224046 0.551734 0.299187
O O12 0.071675 0.584324 0.230625
#
# Coordination Sequence:
#
# PCOD8136773 Si02
#       6
#     8   8   8   8   4   8
#     4  11  20  39  61  89 122 156 212 248 305 365
#     4  10  22  41  59  88 124 166 195 258 315 359
#     4  12  22  38  64  92 121 162 207 258 298 370
#     4  11  21  38  64  89 120 159 212 249 304 370
#     4  10  20  34  64  92 112 166 202 260 290 368
#     4  11  23  38  61  90 126 160 204 255 312 364
#
# _framework density 18.973918000000001
#
# number of rings (size 3 to 8) (size 9 to 14) (size 15 to 20)
#    0.000    1.091    5.455    3.273    0.000    2.182 
#    0.000    0.000    0.000    1.091    0.000    0.000 
#    0.000    0.000    0.000    0.000    0.000    0.000 
#
# Total GULP energy -272688.504854 kJ/mol
# GULP energy per Si atom -12394.932039 kJ/mol
# Density = 1.893073 g / cm^3
# Si number density = 18.973918 Si / 1000 Ang^3
#
#
#
# Elastic Constant Matrix: (Units=GPa)
#
#
# Indices 1 2 3 4 5 6 
#
# 1 122.3565 46.2003 63.5886 0.0000 -5.2661 0.0000
# 2 46.2003 94.6557 44.0662 0.0000 -2.4312 0.0000
# 3 63.5886 44.0662 142.9998 0.0000 3.2456 0.0000
# 4 0.0000 0.0000 0.0000 26.2537 0.0000 1.8852
# 5 -5.2661 -2.4312 3.2456 0.0000 33.4641 0.0000
# 6 0.0000 0.0000 0.0000 1.8852 0.0000 28.8673
#
#
#
# Elastic Compliance Matrix: (Units=1/GPa)
#
#
# Indices 1 2 3 4 5 6 
#
# 1 0.011847 -0.003803 -0.004141 0.000000 0.001990 0.000000
# 2 -0.003803 0.013609 -0.002517 0.000000 0.000634 0.000000
# 3 -0.004141 -0.002517 0.009650 0.000000 -0.001770 0.000000
# 4 0.000000 0.000000 0.000000 0.038269 0.000000 -0.002499
# 5 0.001990 0.000634 -0.001770 0.000000 0.030414 0.000000
# 6 0.000000 0.000000 0.000000 -0.002499 0.000000 0.034805
#
#
# Mechanical properties :
#
#
# Convention : Reuss Voigt Hill
#
# Bulk Modulus (GPa) = 70.50486 74.19135 72.34810
# Shear Modulus (GPa) = 30.44260 31.46080 30.95170
#
# Velocity S-wave (km/s) = 4.00990 4.07640 4.04329
# Velocity P-wave (km/s) = 7.66019 7.83216 7.74665
#
# Compressibility (1/GPa) = 0.01418342
#
# Stress axis : x y z
#
# Youngs Moduli (GPa) = 84.41207 73.48123 103.62453
#
# Poissons Ratio (x) = 0.27947 0.42912
# Poissons Ratio (y) = 0.32104 0.26081
# Poissons Ratio (z) = 0.34956 0.18494
#
# Static dielectric constant tensor:
#      x y z
#    x 4.461440 0.000000 -0.386400 
#    y 0.000000 3.431400 0.000000 
#    z -0.386400 0.000000 3.448020 
# 
# 
# High freq. dielectric constant tensor:
#      x y z
#    x 1.748770 0.000000 -0.009300 
#    y 0.000000 1.716770 0.000000 
#    z -0.009300 0.000000 1.754620 
# 
# From -- ./inp_files/159333.got.cif
#   From: 2010.06.25/outbox.cif.g09.slc.cpg/sg15_80_cif.got.tgz:159333.got - 2010.06.28 07:06:18.
