data_PCOD8136438
_publ_section_title
;
Structure prediction by ZEFSAII (Michael W. Deem and Ramdas Pophale) SiO2 
 PCOD8136438
Probable space group: C 2/C
;
_chemical_formula_sum "Si O2"
_cell_formula_units_Z 36
_cell_length_a 13.839057
_cell_length_b 16.105489
_cell_length_c 12.018419
_cell_angle_alpha 90.000000
_cell_angle_beta 138.684897
_cell_angle_gamma 90.000000
_cell_volume 1768.491844
_symmetry_space_group_name_H-M "C 2/C"
_symmetry_group_IT_number 15
_symmetry_cell_setting 'monoclinic'
loop_
_space_group_symop_operation_xyz
x,y,z
-x,y,1/2-z
-x,-y,-z
x,-y,1/2+z
1/2+x,1/2+y,z
1/2-x,1/2+y,1/2-z
1/2-x,1/2-y,-z
1/2+x,1/2-y,1/2+z
loop_
_atom_site_type_symbol
_atom_site_label
_atom_site_fract_x
_atom_site_fract_y
_atom_site_fract_z
Si Si1 0.500000 0.409059 0.750000
Si Si2 0.812763 0.042130 0.470239
Si Si3 0.000000 0.419803 0.750000
Si Si4 0.509439 0.789694 0.573088
Si Si5 0.000000 0.833481 0.250000
Si Si6 0.317995 0.664529 0.279124
O O1 0.409560 0.461077 0.579132
O O2 0.613263 0.351315 0.782007
O O3 0.640179 0.023368 0.340132
O O4 0.858890 0.112837 0.596803
O O5 0.842271 0.080702 0.373552
O O6 0.046426 0.365567 0.898331
O O7 0.566024 0.719731 0.706771
O O8 0.385285 0.749088 0.388755
O O9 0.645393 0.819178 0.615109
#
# Coordination Sequence:
#
# PCOD8136438 Si02
#       6
#     4   8   4   8   4   8
#     4  11  22  35  48  67 102 141 164 186 234 297
#     4   9  18  33  51  73  97 128 165 198 238 284
#     4   9  16  31  56  79  96 115 158 216 246 271
#     4   9  17  31  52  79  98 120 158 203 253 282
#     4   8  14  28  54  76  98 122 154 206 246 284
#     4  10  20  34  52  72  98 128 163 203 239 286
#
# _framework density 20.356328000000001
#
# number of rings (size 3 to 8) (size 9 to 14) (size 15 to 20)
#    0.000    2.667    0.000    2.000    0.000    6.222 
#    0.000    6.667    0.000    0.000    0.000    0.000 
#    0.000    0.000    0.000    0.000    0.000    0.000 
#
# Total GULP energy -223045.772109 kJ/mol
# GULP energy per Si atom -12391.431784 kJ/mol
# Density = 2.031000 g / cm^3
# Si number density = 20.356328 Si / 1000 Ang^3
#
#
#
# Elastic Constant Matrix: (Units=GPa)
#
#
# Indices 1 2 3 4 5 6 
#
# 1 129.0645 15.9683 17.3352 0.0000 14.7086 0.0000
# 2 15.9683 32.0794 3.9406 0.0000 4.5512 0.0000
# 3 17.3352 3.9406 39.5236 0.0000 12.5277 0.0000
# 4 0.0000 0.0000 0.0000 9.1053 0.0000 2.9181
# 5 14.7086 4.5512 12.5277 0.0000 26.1419 0.0000
# 6 0.0000 0.0000 0.0000 2.9181 0.0000 22.3197
#
#
#
# Elastic Compliance Matrix: (Units=1/GPa)
#
#
# Indices 1 2 3 4 5 6 
#
# 1 0.008903 -0.003672 -0.002539 0.000000 -0.003153 0.000000
# 2 -0.003672 0.033572 -0.000635 0.000000 -0.003474 0.000000
# 3 -0.002539 -0.000635 0.030645 0.000000 -0.013147 0.000000
# 4 0.000000 0.000000 0.000000 0.114629 0.000000 -0.014987
# 5 -0.003153 -0.003474 -0.013147 0.000000 0.046932 0.000000
# 6 0.000000 0.000000 0.000000 -0.014987 0.000000 0.046763
#
#
# Mechanical properties :
#
#
# Convention : Reuss Voigt Hill
#
# Bulk Modulus (GPa) = 16.82767 30.57284 23.70026
# Shear Modulus (GPa) = 15.87577 22.40829 19.14203
#
# Velocity S-wave (km/s) = 2.79569 3.32143 3.06984
# Velocity P-wave (km/s) = 4.32500 5.45533 4.92272
#
# Compressibility (1/GPa) = 0.05942594
#
# Stress axis : x y z
#
# Youngs Moduli (GPa) = 112.32418 29.78710 32.63127
#
# Poissons Ratio (x) = 0.10939 0.08286
# Poissons Ratio (y) = 0.41250 0.02073
# Poissons Ratio (z) = 0.28522 0.01892
#
# Static dielectric constant tensor:
#      x y z
#    x 3.490270 0.000000 0.062980 
#    y 0.000000 3.401930 0.000000 
#    z 0.062980 0.000000 3.510580 
# 
# 
# High freq. dielectric constant tensor:
#      x y z
#    x 1.796630 0.000000 0.015880 
#    y 0.000000 1.762130 0.000000 
#    z 0.015880 0.000000 1.773780 
# 
# From -- ./inp_files/28758.got.cif
#   From: 2010.06.25/outbox.cif.g09.slc.cpg/sg15_15_cif.got.tgz:28758.got - 2010.06.28 07:06:18.
