data_PCOD8136702
_publ_section_title
;
Structure prediction by ZEFSAII (Michael W. Deem and Ramdas Pophale) SiO2 
 PCOD8136702
Probable space group: C 2/C
;
_chemical_formula_sum "Si O2"
_cell_formula_units_Z 52
_cell_length_a 5.146357
_cell_length_b 23.164321
_cell_length_c 26.349050
_cell_angle_alpha 90.000000
_cell_angle_beta 123.029442
_cell_angle_gamma 90.000000
_cell_volume 2633.484949
_symmetry_space_group_name_H-M "C 2/C"
_symmetry_group_IT_number 15
_symmetry_cell_setting 'monoclinic'
loop_
_space_group_symop_operation_xyz
x,y,z
-x,y,1/2-z
-x,-y,-z
x,-y,1/2+z
1/2+x,1/2+y,z
1/2-x,1/2+y,1/2-z
1/2-x,1/2-y,-z
1/2+x,1/2-y,1/2+z
loop_
_atom_site_type_symbol
_atom_site_label
_atom_site_fract_x
_atom_site_fract_y
_atom_site_fract_z
Si Si1 0.411960 0.064435 0.973037
Si Si2 0.367178 0.171391 0.791529
Si Si3 0.500000 0.884927 0.750000
Si Si4 0.186499 0.424904 0.391787
Si Si5 0.354599 0.950790 0.646800
Si Si6 0.005761 0.800273 0.811410
Si Si7 0.701968 0.106675 0.098068
O O1 0.517339 0.073172 0.927256
O O2 0.051455 0.078977 0.939395
O O3 0.584612 0.111179 0.027611
O O4 0.500000 0.000000 0.000000
O O5 0.500000 0.163719 0.750000
O O6 0.545213 0.129284 0.847701
O O7 0.443807 0.235050 0.821715
O O8 0.000000 0.160479 0.750000
O O9 0.607046 0.925979 0.714463
O O10 0.739999 0.842428 0.802515
O O11 0.119030 0.480439 0.350023
O O12 0.436404 0.928908 0.599461
O O13 0.016804 0.931200 0.630969
O O14 0.000000 0.805500 0.750000
O O15 0.289429 0.829960 0.872857
#
# Coordination Sequence:
#
# PCOD8136702 Si02
#       7
#     8   8   4   8   8   8   8
#     4  12  22  41  62  89 128 165 206 246 307 370
#     4  11  25  44  65  88 124 168 203 248 307 376
#     4  10  20  34  60  88 122 148 202 254 310 352
#     4  12  24  41  61  92 127 166 203 247 306 375
#     4  11  21  35  57  92 124 151 195 252 310 356
#     4  10  20  40  62  87 118 159 205 255 306 359
#     4  11  22  36  63  92 117 158 204 254 300 357
#
# _framework density 19.745697
#
# number of rings (size 3 to 8) (size 9 to 14) (size 15 to 20)
#    0.000    0.923    5.385    2.308    1.077    0.000 
#    2.769    1.538    0.000    0.000    0.000    0.000 
#    0.000    0.000    0.000    0.000    0.000    0.000 
#
# Total GULP energy -322150.808669 kJ/mol
# GULP energy per Si atom -12390.415718 kJ/mol
# Density = 1.970075 g / cm^3
# Si number density = 19.745697 Si / 1000 Ang^3
#
#
#
# Elastic Constant Matrix: (Units=GPa)
#
#
# Indices 1 2 3 4 5 6 
#
# 1 -721.6689 -459.3568 -665.4333 0.0000 101.4071 0.0000
# 2 -459.3568 -151.2413 -330.7233 0.0000 70.4595 0.0000
# 3 -665.4333 -330.7233 -479.9811 0.0000 85.2917 0.0000
# 4 0.0000 0.0000 0.0000 34.1318 0.0000 2.1557
# 5 101.4071 70.4595 85.2917 0.0000 22.6706 0.0000
# 6 0.0000 0.0000 0.0000 2.1557 0.0000 57.0821
#
#
#
# Elastic Compliance Matrix: (Units=1/GPa)
#
#
# Indices 1 2 3 4 5 6 
#
# 1 0.005178 -0.000309 -0.006540 0.000000 0.002401 0.000000
# 2 -0.000309 0.013712 -0.009798 0.000000 -0.004375 0.000000
# 3 -0.006540 -0.009798 0.014590 0.000000 0.004814 0.000000
# 4 0.000000 0.000000 0.000000 0.029368 0.000000 -0.001109
# 5 0.002401 -0.004375 0.004814 0.000000 0.028857 0.000000
# 6 0.000000 0.000000 0.000000 -0.001109 0.000000 0.017561
#
#
# Mechanical properties :
#
#
# Convention : Reuss Voigt Hill
#
# Bulk Modulus (GPa) = 5324.41762 -473.76869 2425.32446
# Shear Modulus (GPa) = 35.05796 29.61837 32.33816
#
# Velocity S-wave (km/s) = 4.21821 3.87717 4.05128
# Velocity P-wave (km/s) = 52.21181 14.84630 35.39534
#
# Compressibility (1/GPa) = 0.00018781
#
# Stress axis : x y z
#
# Youngs Moduli (GPa) = 193.11476 72.92734 68.54215
#
# Poissons Ratio (x) = 0.02251 0.44825
# Poissons Ratio (y) = 0.05962 0.67156
# Poissons Ratio (z) = 1.26292 0.71452
#
# Static dielectric constant tensor:
#      x y z
#    x 3.673740 0.000000 0.093580 
#    y 0.000000 3.724360 0.000000 
#    z 0.093580 0.000000 4.119570 
# 
# 
# High freq. dielectric constant tensor:
#      x y z
#    x 1.777210 0.000000 -0.008250 
#    y 0.000000 1.761620 0.000000 
#    z -0.008250 0.000000 1.771420 
# 
# From -- ./inp_files/261322.got.cif
#   From: 2010.06.25/outbox.cif.g09.slc.cpg/sg15_131_cif.got.tgz:261322.got - 2010.06.28 07:06:18.
