data_PCOD8136855
_publ_section_title
;
Structure prediction by ZEFSAII (Michael W. Deem and Ramdas Pophale) SiO2 
 PCOD8136855
Probable space group: C 2/C
;
_chemical_formula_sum "Si O2"
_cell_formula_units_Z 48
_cell_length_a 30.998752
_cell_length_b 8.866637
_cell_length_c 8.578540
_cell_angle_alpha 90.000000
_cell_angle_beta 90.636263
_cell_angle_gamma 90.000000
_cell_volume 2357.706497
_symmetry_space_group_name_H-M "C 2/C"
_symmetry_group_IT_number 15
_symmetry_cell_setting 'monoclinic'
loop_
_space_group_symop_operation_xyz
x,y,z
-x,y,1/2-z
-x,-y,-z
x,-y,1/2+z
1/2+x,1/2+y,z
1/2-x,1/2+y,1/2-z
1/2-x,1/2-y,-z
1/2+x,1/2-y,1/2+z
loop_
_atom_site_type_symbol
_atom_site_label
_atom_site_fract_x
_atom_site_fract_y
_atom_site_fract_z
Si Si1 0.372961 0.298992 0.207169
Si Si2 0.955860 0.617450 0.165817
Si Si3 0.455185 0.200169 0.805865
Si Si4 0.291256 0.202651 0.799123
Si Si5 0.791349 0.385812 0.656075
Si Si6 0.627021 0.385821 0.648619
O O1 0.417830 0.215242 0.239357
O O2 0.334030 0.183266 0.237339
O O3 0.369499 0.436350 0.326318
O O4 0.370045 0.363627 0.034388
O O5 0.945459 0.442229 0.194748
O O6 0.000000 0.668219 0.250000
O O7 0.959401 0.641482 0.981927
O O8 0.500000 0.275980 0.750000
O O9 0.417767 0.322795 0.783938
O O10 0.250037 0.307916 0.767107
O O11 0.333805 0.300180 0.765106
O O12 0.289778 0.064410 0.680045
O O13 0.291622 0.137653 0.972319
#
# Coordination Sequence:
#
# PCOD8136855 Si02
#       6
#     8   8   8   8   8   8
#     4  10  22  37  54  79 109 141 178 219 263 314
#     4  10  20  35  55  79 106 138 178 220 265 316
#     4  10  20  35  55  79 106 138 178 220 265 316
#     4  10  21  37  57  82 110 140 177 218 262 314
#     4  10  21  37  57  82 110 140 177 218 262 314
#     4  10  22  37  54  79 109 141 178 219 263 314
#
# _framework density 20.358768000000001
#
# number of rings (size 3 to 8) (size 9 to 14) (size 15 to 20)
#    0.000    2.000    0.000    4.000    0.000    5.333 
#    0.000    3.333    0.000    0.000    0.000    0.000 
#    0.000    0.000    0.000    0.000    0.000    0.000 
#
# Total GULP energy -297713.290712 kJ/mol
# GULP energy per Si atom -12404.720446 kJ/mol
# Density = 2.031243 g / cm^3
# Si number density = 20.358768 Si / 1000 Ang^3
#
#
#
# Elastic Constant Matrix: (Units=GPa)
#
#
# Indices 1 2 3 4 5 6 
#
# 1 130.6399 29.9783 18.3379 0.0000 -3.9912 0.0000
# 2 29.9783 57.5982 -2.1072 0.0000 -1.6375 0.0000
# 3 18.3379 -2.1072 21.3048 0.0000 -2.5194 0.0000
# 4 0.0000 0.0000 0.0000 32.2124 0.0000 -1.3853
# 5 -3.9912 -1.6375 -2.5194 0.0000 26.9607 0.0000
# 6 0.0000 0.0000 0.0000 -1.3853 0.0000 38.7518
#
#
#
# Elastic Compliance Matrix: (Units=1/GPa)
#
#
# Indices 1 2 3 4 5 6 
#
# 1 0.010286 -0.005688 -0.009380 0.000000 0.000301 0.000000
# 2 -0.005688 0.020611 0.007061 0.000000 0.001070 0.000000
# 3 -0.009380 0.007061 0.056218 0.000000 0.004294 0.000000
# 4 0.000000 0.000000 0.000000 0.031092 0.000000 0.001112
# 5 0.000301 0.001070 0.004294 0.000000 0.037602 0.000000
# 6 0.000000 0.000000 0.000000 0.001112 0.000000 0.025845
#
#
# Mechanical properties :
#
#
# Convention : Reuss Voigt Hill
#
# Bulk Modulus (GPa) = 14.06474 33.55121 23.80798
# Shear Modulus (GPa) = 22.58681 30.47393 26.53037
#
# Velocity S-wave (km/s) = 3.33444 3.87311 3.61382
# Velocity P-wave (km/s) = 4.66348 6.04293 5.39746
#
# Compressibility (1/GPa) = 0.07109977
#
# Stress axis : x y z
#
# Youngs Moduli (GPa) = 97.22131 48.51806 17.78786
#
# Poissons Ratio (x) = 0.27598 0.16686
# Poissons Ratio (y) = 0.55301 -0.12560
# Poissons Ratio (z) = 0.91198 -0.34259
#
# Static dielectric constant tensor:
#      x y z
#    x 4.092810 0.000000 -0.043550 
#    y 0.000000 3.581690 0.000000 
#    z -0.043550 0.000000 3.467440 
# 
# 
# High freq. dielectric constant tensor:
#      x y z
#    x 1.815920 0.000000 -0.003530 
#    y 0.000000 1.792420 0.000000 
#    z -0.003530 0.000000 1.785410 
# 
# From -- ./inp_files/68567.got.cif
#   From: 2010.06.25/outbox.cif.g09.slc.cpg/sg15_35_cif.got.tgz:68567.got - 2010.06.28 07:06:18.
