data_PCOD8136549
_publ_section_title
;
Structure prediction by ZEFSAII (Michael W. Deem and Ramdas Pophale) SiO2 
 PCOD8136549
Probable space group: C 2/C
;
_chemical_formula_sum "Si O2"
_cell_formula_units_Z 40
_cell_length_a 4.994144
_cell_length_b 22.610994
_cell_length_c 18.052159
_cell_angle_alpha 90.000000
_cell_angle_beta 74.264969
_cell_angle_gamma 90.000000
_cell_volume 1962.105653
_symmetry_space_group_name_H-M "C 2/C"
_symmetry_group_IT_number 15
_symmetry_cell_setting 'monoclinic'
loop_
_space_group_symop_operation_xyz
x,y,z
-x,y,1/2-z
-x,-y,-z
x,-y,1/2+z
1/2+x,1/2+y,z
1/2-x,1/2+y,1/2-z
1/2-x,1/2-y,-z
1/2+x,1/2-y,1/2+z
loop_
_atom_site_type_symbol
_atom_site_label
_atom_site_fract_x
_atom_site_fract_y
_atom_site_fract_z
Si Si1 0.520899 0.176671 0.660226
Si Si2 0.273521 0.921343 0.975890
Si Si3 0.867516 0.200417 0.936902
Si Si4 0.655161 0.470423 0.588762
Si Si5 0.207356 0.445346 0.296672
O O1 0.500000 0.189369 0.750000
O O2 0.280669 0.208800 0.631570
O O3 0.474158 0.105828 0.648589
O O4 0.804929 0.201883 0.604672
O O5 0.603663 0.923001 0.943878
O O6 0.128604 0.934228 0.906404
O O7 0.192006 0.859979 0.016893
O O8 0.165605 0.972278 0.037112
O O9 0.750000 0.250000 0.000000
O O10 0.691995 0.496423 0.667724
O O11 0.500000 0.414378 0.250000
O O12 0.000000 0.470312 0.250000
#
# Coordination Sequence:
#
# PCOD8136549 Si02
#       5
#     8   8   8   8   8
#     4  11  23  39  62  91 123 156 202 260 319 361
#     4  10  21  34  56  84 116 154 188 235 302 347
#     4  12  24  41  63  91 124 159 212 263 299 362
#     4  10  20  34  56  83 121 150 185 238 292 372
#     4  11  21  34  58  89 123 159 194 249 311 373
#
# _framework density 20.386261999999999
#
# number of rings (size 3 to 8) (size 9 to 14) (size 15 to 20)
#    0.000    1.200    2.000    6.000    5.600    0.000 
#    0.000    0.000    0.000   12.000    0.000    0.000 
#    0.000    0.000    0.000    0.000    0.000    0.000 
#
# Total GULP energy -247770.401115 kJ/mol
# GULP energy per Si atom -12388.520056 kJ/mol
# Density = 2.033986 g / cm^3
# Si number density = 20.386262 Si / 1000 Ang^3
#
#
#
# Elastic Constant Matrix: (Units=GPa)
#
#
# Indices 1 2 3 4 5 6 
#
# 1 228.6800 -110.4639 35.6742 0.0000 -8.0351 0.0000
# 2 -110.4639 312.6135 43.2025 0.0000 33.4472 0.0000
# 3 35.6742 43.2025 82.3573 0.0000 12.0279 0.0000
# 4 0.0000 0.0000 0.0000 7.3084 0.0000 3.3574
# 5 -8.0351 33.4472 12.0279 0.0000 53.1858 0.0000
# 6 0.0000 0.0000 0.0000 3.3574 0.0000 19.8481
#
#
#
# Elastic Compliance Matrix: (Units=1/GPa)
#
#
# Indices 1 2 3 4 5 6 
#
# 1 0.006425 0.002848 -0.004299 0.000000 0.000152 0.000000
# 2 0.002848 0.004891 -0.003529 0.000000 -0.001847 0.000000
# 3 -0.004299 -0.003529 0.016160 0.000000 -0.002085 0.000000
# 4 0.000000 0.000000 0.000000 0.148356 0.000000 -0.025095
# 5 0.000152 -0.001847 -0.002085 0.000000 0.020458 0.000000
# 6 0.000000 0.000000 0.000000 -0.025095 0.000000 0.054628
#
#
# Mechanical properties :
#
#
# Convention : Reuss Voigt Hill
#
# Bulk Modulus (GPa) = 57.09487 62.27518 59.68502
# Shear Modulus (GPa) = 18.74650 59.75100 39.24875
#
# Velocity S-wave (km/s) = 3.03572 5.41969 4.39253
# Velocity P-wave (km/s) = 6.35254 8.35332 7.42068
#
# Compressibility (1/GPa) = 0.01751471
#
# Stress axis : x y z
#
# Youngs Moduli (GPa) = 155.64923 204.47305 61.87989
#
# Poissons Ratio (x) = -0.58236 0.26603
# Poissons Ratio (y) = -0.44331 0.21840
# Poissons Ratio (z) = 0.66916 0.72167
#
# Static dielectric constant tensor:
#      x y z
#    x 4.895410 0.000000 0.357010 
#    y 0.000000 3.924860 0.000000 
#    z 0.357010 0.000000 3.784420 
# 
# 
# High freq. dielectric constant tensor:
#      x y z
#    x 1.832650 0.000000 0.014600 
#    y 0.000000 1.753620 0.000000 
#    z 0.014600 0.000000 1.781540 
# 
# From -- ./inp_files/227122.got.cif
#   From: 2010.06.25/outbox.cif.g09.slc.cpg/sg15_114_cif.got.tgz:227122.got - 2010.06.28 07:06:18.
