data_PCOD8136955
_publ_section_title
;
Structure prediction by ZEFSAII (Michael W. Deem and Ramdas Pophale) SiO2 
 PCOD8136955
Probable space group: C 2/C
;
_chemical_formula_sum "Si O2"
_cell_formula_units_Z 56
_cell_length_a 8.996035
_cell_length_b 26.347349
_cell_length_c 19.098994
_cell_angle_alpha 90.000000
_cell_angle_beta 35.515914
_cell_angle_gamma 90.000000
_cell_volume 2629.793522
_symmetry_space_group_name_H-M "C 2/C"
_symmetry_group_IT_number 15
_symmetry_cell_setting 'monoclinic'
loop_
_space_group_symop_operation_xyz
x,y,z
-x,y,1/2-z
-x,-y,-z
x,-y,1/2+z
1/2+x,1/2+y,z
1/2-x,1/2+y,1/2-z
1/2-x,1/2-y,-z
1/2+x,1/2-y,1/2+z
loop_
_atom_site_type_symbol
_atom_site_label
_atom_site_fract_x
_atom_site_fract_y
_atom_site_fract_z
Si Si1 0.483073 0.074551 0.554244
Si Si2 0.271650 0.347442 0.875771
Si Si3 0.552835 0.705854 0.063044
Si Si4 0.448420 0.676260 0.952174
Si Si5 0.917972 0.721582 0.166494
Si Si6 0.410662 0.499181 0.857571
Si Si7 0.731789 0.920666 0.216433
O O1 0.520282 0.118903 0.482226
O O2 0.260592 0.045186 0.602216
O O3 0.396741 0.096979 0.661673
O O4 0.744294 0.041595 0.464819
O O5 0.500000 0.378292 0.750000
O O6 0.367066 0.339958 0.918277
O O7 0.228311 0.295718 0.848397
O O8 0.261263 0.721383 0.195769
O O9 0.750000 0.750000 0.000000
O O10 0.591545 0.688723 0.969079
O O11 0.495765 0.720084 0.875978
O O12 0.555901 0.621670 0.886226
O O13 0.145931 0.679946 0.086650
O O14 0.500000 0.473354 0.750000
O O15 0.632020 0.524096 0.822349
O O16 0.500000 0.926905 0.250000
#
# Coordination Sequence:
#
# PCOD8136955 Si02
#       7
#     8   8   8   8   8   8   8
#     4  10  20  38  64  89 119 161 207 259 317 378
#     4  10  20  35  57  87 114 154 207 249 303 369
#     4  11  22  37  58  82 120 161 203 253 304 363
#     4  11  23  39  58  84 126 164 208 258 312 369
#     4  10  23  38  57  86 120 165 210 258 305 371
#     4   9  20  40  62  89 123 156 203 265 318 381
#     4  11  24  37  61  94 125 165 209 258 329 394
#
# _framework density 21.294447000000002
#
# number of rings (size 3 to 8) (size 9 to 14) (size 15 to 20)
#    0.000    1.714    1.429    2.571    4.000    0.571 
#    0.000    1.429    0.000    0.000    0.000    0.000 
#    0.000    0.000    0.000    0.000    0.000    0.000 
#
# Total GULP energy -346875.413561 kJ/mol
# GULP energy per Si atom -12388.407627 kJ/mol
# Density = 2.124598 g / cm^3
# Si number density = 21.294447 Si / 1000 Ang^3
#
#
#
# Elastic Constant Matrix: (Units=GPa)
#
#
# Indices 1 2 3 4 5 6 
#
# 1 65.6496 17.6755 18.1672 -0.0002 -6.3447 0.0002
# 2 17.6755 54.3580 33.9414 0.0001 3.3189 -0.0003
# 3 18.1672 33.9414 127.0696 -0.0008 -2.5103 -0.0013
# 4 -0.0002 0.0001 -0.0008 37.8982 0.0002 -4.2553
# 5 -6.3447 3.3189 -2.5103 0.0002 36.4924 0.0008
# 6 0.0002 -0.0003 -0.0013 -4.2553 0.0008 12.2856
#
#
#
# Elastic Compliance Matrix: (Units=1/GPa)
#
#
# Indices 1 2 3 4 5 6 
#
# 1 0.017236 -0.005179 -0.001014 0.000000 0.003398 -0.000001
# 2 -0.005179 0.023850 -0.005699 0.000000 -0.003462 0.000000
# 3 -0.001014 -0.005699 0.009557 0.000000 0.000999 0.000001
# 4 0.000000 0.000000 0.000000 0.027454 0.000000 0.009509
# 5 0.003398 -0.003462 0.000999 0.000000 0.028377 -0.000002
# 6 -0.000001 0.000000 0.000001 0.009509 -0.000002 0.084690
#
#
# Mechanical properties :
#
#
# Convention : Reuss Voigt Hill
#
# Bulk Modulus (GPa) = 37.23024 42.96058 40.09541
# Shear Modulus (GPa) = 22.33148 29.15479 25.74313
#
# Velocity S-wave (km/s) = 3.24188 3.70419 3.48071
# Velocity P-wave (km/s) = 5.61556 6.20588 5.91809
#
# Compressibility (1/GPa) = 0.02685988
#
# Stress axis : x y z
#
# Youngs Moduli (GPa) = 58.01916 41.92847 104.64072
#
# Poissons Ratio (x) = 0.21715 0.10608
# Poissons Ratio (y) = 0.30048 0.59630
# Poissons Ratio (z) = 0.05881 0.23893
#
# Static dielectric constant tensor:
#      x y z
#    x 3.745260 0.000000 -0.064420 
#    y 0.000000 3.606610 0.000000 
#    z -0.064420 0.000000 4.394360 
# 
# 
# High freq. dielectric constant tensor:
#      x y z
#    x 1.827340 0.000000 -0.006840 
#    y 0.000000 1.816070 0.000000 
#    z -0.006840 0.000000 1.857310 
# 
# From -- ./inp_files/81239.got.cif
#   From: 2010.06.25/outbox.cif.g09.slc.cpg/sg15_41_cif.got.tgz:81239.got - 2010.06.28 07:06:18.
