data_PCOD8136336
_publ_section_title
;
Structure prediction by ZEFSAII (Michael W. Deem and Ramdas Pophale) SiO2 
 PCOD8136336
Probable space group: C 2/C
;
_chemical_formula_sum "Si O2"
_cell_formula_units_Z 36
_cell_length_a 6.443476
_cell_length_b 14.623178
_cell_length_c 23.923069
_cell_angle_alpha 90.000000
_cell_angle_beta 137.791698
_cell_angle_gamma 90.000000
_cell_volume 1514.387181
_symmetry_space_group_name_H-M "C 2/C"
_symmetry_group_IT_number 15
_symmetry_cell_setting 'monoclinic'
loop_
_space_group_symop_operation_xyz
x,y,z
-x,y,1/2-z
-x,-y,-z
x,-y,1/2+z
1/2+x,1/2+y,z
1/2-x,1/2+y,1/2-z
1/2-x,1/2-y,-z
1/2+x,1/2-y,1/2+z
loop_
_atom_site_type_symbol
_atom_site_label
_atom_site_fract_x
_atom_site_fract_y
_atom_site_fract_z
Si Si1 0.500000 0.938050 0.750000
Si Si2 0.907543 0.138451 0.086790
Si Si3 0.767530 0.531946 0.009293
Si Si4 0.143805 0.454026 0.170395
Si Si5 0.619846 0.316169 0.043407
O O1 0.497787 0.003498 0.802441
O O2 0.201875 0.873381 0.685373
O O3 0.671580 0.209618 0.069877
O O4 0.000327 0.178283 0.044736
O O5 0.724166 0.040894 0.041496
O O6 0.089585 0.527316 0.108691
O O7 0.500000 0.500000 0.000000
O O8 0.643143 0.634772 0.969323
O O9 0.500000 0.430224 0.250000
O O10 0.957837 0.362467 0.117598
#
# Coordination Sequence:
#
# PCOD8136336 Si02
#       5
#     4   8   8   8   8
#     4  12  18  34  56  86 112 148 194 252 292 354
#     4   9  17  28  58  80 107 155 197 227 307 349
#     4   8  14  34  50  77 116 150 188 248 287 360
#     4  10  20  33  55  83 113 146 194 244 297 353
#     4   9  16  34  53  81 113 156 192 243 294 365
#
# _framework density 23.771991
#
# number of rings (size 3 to 8) (size 9 to 14) (size 15 to 20)
#    0.000    3.111    6.667    0.000    1.556    0.000 
#    0.000    4.444    2.444    1.333    0.000    1.556 
#    0.000    0.000    0.000    0.000    0.000    0.000 
#
# Total GULP energy -222997.936811 kJ/mol
# GULP energy per Si atom -12388.774267 kJ/mol
# Density = 2.371788 g / cm^3
# Si number density = 23.771991 Si / 1000 Ang^3
#
#
#
# Elastic Constant Matrix: (Units=GPa)
#
#
# Indices 1 2 3 4 5 6 
#
# 1 35.4092 56.8588 33.7286 0.0002 -4.1747 0.0001
# 2 56.8588 138.2441 56.8293 0.0001 13.5596 0.0000
# 3 33.7286 56.8293 181.7676 0.0004 17.6934 0.0004
# 4 0.0002 0.0001 0.0004 32.3750 0.0002 11.0670
# 5 -4.1747 13.5596 17.6934 0.0002 39.9120 0.0002
# 6 0.0001 0.0000 0.0004 11.0670 0.0002 39.7812
#
#
#
# Elastic Compliance Matrix: (Units=1/GPa)
#
#
# Indices 1 2 3 4 5 6 
#
# 1 0.119129 -0.048018 -0.010340 -0.000001 0.033358 0.000000
# 2 -0.048018 0.027773 0.001708 0.000000 -0.015215 0.000000
# 3 -0.010340 0.001708 0.007366 0.000000 -0.004927 0.000000
# 4 -0.000001 0.000000 0.000000 0.034134 0.000000 -0.009496
# 5 0.033358 -0.015215 -0.004927 0.000000 0.035898 0.000000
# 6 0.000000 0.000000 0.000000 -0.009496 0.000000 0.027779
#
#
# Mechanical properties :
#
#
# Convention : Reuss Voigt Hill
#
# Bulk Modulus (GPa) = 24.40927 72.25048 48.32987
# Shear Modulus (GPa) = 13.19142 36.28059 24.73601
#
# Velocity S-wave (km/s) = 2.35822 3.91089 3.22926
# Velocity P-wave (km/s) = 4.20777 7.13109 5.85482
#
# Compressibility (1/GPa) = 0.04096805
#
# Stress axis : x y z
#
# Youngs Moduli (GPa) = 8.39430 36.00572 135.76356
#
# Poissons Ratio (x) = 1.72893 1.40374
# Poissons Ratio (y) = 0.40308 -0.23188
# Poissons Ratio (z) = 0.08679 -0.06150
#
# Static dielectric constant tensor:
#      x y z
#    x 4.446320 0.000000 0.207260 
#    y 0.000000 5.140910 0.000000 
#    z 0.207260 0.000000 4.546950 
# 
# 
# High freq. dielectric constant tensor:
#      x y z
#    x 1.937150 0.000000 0.013610 
#    y 0.000000 1.941120 0.000000 
#    z 0.013610 0.000000 1.947310 
# 
# From -- ./inp_files/187994.got.cif
#   From: 2010.06.25/outbox.cif.g09.slc.cpg/sg15_94_cif.got.tgz:187994.got - 2010.06.28 07:06:18.
