data_PCOD8136203
_publ_section_title
;
Structure prediction by ZEFSAII (Michael W. Deem and Ramdas Pophale) SiO2 
 PCOD8136203
Probable space group: C 2/C
;
_chemical_formula_sum "Si O2"
_cell_formula_units_Z 56
_cell_length_a 27.746411
_cell_length_b 13.262996
_cell_length_c 13.421282
_cell_angle_alpha 90.000000
_cell_angle_beta 144.358380
_cell_angle_gamma 90.000000
_cell_volume 2878.044493
_symmetry_space_group_name_H-M "C 2/C"
_symmetry_group_IT_number 15
_symmetry_cell_setting 'monoclinic'
loop_
_space_group_symop_operation_xyz
x,y,z
-x,y,1/2-z
-x,-y,-z
x,-y,1/2+z
1/2+x,1/2+y,z
1/2-x,1/2+y,1/2-z
1/2-x,1/2-y,-z
1/2+x,1/2-y,1/2+z
loop_
_atom_site_type_symbol
_atom_site_label
_atom_site_fract_x
_atom_site_fract_y
_atom_site_fract_z
Si Si1 0.557420 0.529766 0.707852
Si Si2 0.857068 0.153686 0.812623
Si Si3 0.186453 0.025366 0.579349
Si Si4 0.693608 0.271051 0.997360
Si Si5 0.245199 0.815657 0.704868
Si Si6 0.944785 0.797898 0.067641
Si Si7 0.032992 0.194394 0.114196
O O1 0.620389 0.608047 0.757406
O O2 0.473534 0.586611 0.598487
O O3 0.539904 0.428939 0.613401
O O4 0.600130 0.503581 0.883691
O O5 0.829861 0.059933 0.835050
O O6 0.785637 0.240057 0.690997
O O7 0.939081 0.210935 0.994374
O O8 0.224268 0.119046 0.583230
O O9 0.251721 0.932871 0.684430
O O10 0.707102 0.193406 0.109696
O O11 0.750000 0.250000 0.000000
O O12 0.597413 0.265506 0.803761
O O13 0.149194 0.788810 0.556288
O O14 0.000000 0.747794 0.250000
O O15 0.953574 0.749904 0.970789
#
# Coordination Sequence:
#
# PCOD8136203 Si02
#       7
#     8   8   8   8   8   8   8
#     4  10  20  32  58  83 116 148 180 245 307 350
#     4  10  22  35  54  91 114 149 191 242 294 353
#     4  10  21  35  56  85 119 149 189 239 298 344
#     4  10  21  36  60  84 111 154 195 240 284 353
#     4  11  21  35  54  84 121 148 192 235 292 349
#     4  11  19  31  52  80 114 154 177 227 293 357
#     4  10  20  36  57  84 115 143 197 243 300 341
#
# _framework density 19.457657000000001
#
# number of rings (size 3 to 8) (size 9 to 14) (size 15 to 20)
#    0.000    1.714    2.857    3.429    2.000    5.143 
#    0.000    0.000    0.000    0.857   14.857    0.000 
#    0.000    0.000    0.000    0.000    0.000    0.000 
#
# Total GULP energy -346886.330362 kJ/mol
# GULP energy per Si atom -12388.797513 kJ/mol
# Density = 1.941337 g / cm^3
# Si number density = 19.457657 Si / 1000 Ang^3
#
#
#
# Elastic Constant Matrix: (Units=GPa)
#
#
# Indices 1 2 3 4 5 6 
#
# 1 67.5932 25.6847 19.1931 0.0000 10.2619 0.0000
# 2 25.6847 61.4070 31.8896 0.0000 12.5376 0.0000
# 3 19.1931 31.8896 93.5875 0.0000 5.8496 0.0000
# 4 0.0000 0.0000 0.0000 29.6234 0.0000 2.2245
# 5 10.2619 12.5376 5.8496 0.0000 34.9368 0.0000
# 6 0.0000 0.0000 0.0000 2.2245 0.0000 25.8752
#
#
#
# Elastic Compliance Matrix: (Units=1/GPa)
#
#
# Indices 1 2 3 4 5 6 
#
# 1 0.017982 -0.006224 -0.001391 0.000000 -0.002815 0.000000
# 2 -0.006224 0.023285 -0.006316 0.000000 -0.005471 0.000000
# 3 -0.001391 -0.006316 0.013092 0.000000 0.000483 0.000000
# 4 0.000000 0.000000 0.000000 0.033976 0.000000 -0.002921
# 5 -0.002815 -0.005471 0.000483 0.000000 0.031332 0.000000
# 6 0.000000 0.000000 0.000000 -0.002921 0.000000 0.038898
#
#
# Mechanical properties :
#
#
# Convention : Reuss Voigt Hill
#
# Bulk Modulus (GPa) = 37.73968 41.79139 39.76554
# Shear Modulus (GPa) = 25.60680 27.80843 26.70762
#
# Velocity S-wave (km/s) = 3.63164 3.78455 3.70888
# Velocity P-wave (km/s) = 6.08465 6.37352 6.23076
#
# Compressibility (1/GPa) = 0.02649731
#
# Stress axis : x y z
#
# Youngs Moduli (GPa) = 55.61163 42.94606 76.38038
#
# Poissons Ratio (x) = 0.26730 0.10624
# Poissons Ratio (y) = 0.34613 0.48241
# Poissons Ratio (z) = 0.07735 0.27124
#
# Static dielectric constant tensor:
#      x y z
#    x 3.678350 0.000000 -0.211340 
#    y 0.000000 3.658920 0.000000 
#    z -0.211340 0.000000 3.796030 
# 
# 
# High freq. dielectric constant tensor:
#      x y z
#    x 1.771940 0.000000 -0.014580 
#    y 0.000000 1.708900 0.000000 
#    z -0.014580 0.000000 1.758630 
# 
# From -- ./inp_files/178406.got.cif
#   From: 2010.06.25/outbox.cif.g09.slc.cpg/sg15_90_cif.got.tgz:178406.got - 2010.06.28 07:06:18.
