data_PCOD8136580
_publ_section_title
;
Structure prediction by ZEFSAII (Michael W. Deem and Ramdas Pophale) SiO2 
 PCOD8136580
Probable space group: C 2/C
;
_chemical_formula_sum "Si O2"
_cell_formula_units_Z 48
_cell_length_a 12.905829
_cell_length_b 23.678733
_cell_length_c 13.619189
_cell_angle_alpha 90.000000
_cell_angle_beta 138.540949
_cell_angle_gamma 90.000000
_cell_volume 2755.555121
_symmetry_space_group_name_H-M "C 2/C"
_symmetry_group_IT_number 15
_symmetry_cell_setting 'monoclinic'
loop_
_space_group_symop_operation_xyz
x,y,z
-x,y,1/2-z
-x,-y,-z
x,-y,1/2+z
1/2+x,1/2+y,z
1/2-x,1/2+y,1/2-z
1/2-x,1/2-y,-z
1/2+x,1/2-y,1/2+z
loop_
_atom_site_type_symbol
_atom_site_label
_atom_site_fract_x
_atom_site_fract_y
_atom_site_fract_z
Si Si1 0.499738 0.578382 0.463536
Si Si2 0.077626 0.196625 0.450226
Si Si3 0.160114 0.423400 0.628584
Si Si4 0.404467 0.477463 0.083848
Si Si5 0.925590 0.513025 0.096510
Si Si6 0.245734 0.695890 0.121346
O O1 0.569260 0.640793 0.509827
O O2 0.335328 0.566887 0.291819
O O3 0.618257 0.536376 0.491867
O O4 0.490902 0.566283 0.573225
O O5 0.133672 0.250003 0.553344
O O6 0.204015 0.184358 0.454971
O O7 0.903442 0.209813 0.291111
O O8 0.119888 0.460382 0.504612
O O9 0.147653 0.357276 0.592630
O O10 0.038582 0.440860 0.626815
O O11 0.500000 0.487167 0.250000
O O12 0.233782 0.453903 0.990288
O O13 0.000000 0.489439 0.250000
#
# Coordination Sequence:
#
# PCOD8136580 Si02
#       6
#     8   8   8   8   8   8
#     4  10  20  34  57  78 104 146 174 210 263 317
#     4   9  18  34  55  75 104 133 175 213 263 307
#     4  10  20  35  55  78 108 141 175 212 265 312
#     4  11  21  35  54  79 108 139 177 213 260 315
#     4  11  21  35  52  80 109 138 175 217 260 311
#     4   9  18  35  53  77 103 137 169 218 261 308
#
# _framework density 17.419357000000002
#
# number of rings (size 3 to 8) (size 9 to 14) (size 15 to 20)
#    0.000    2.000    3.333    1.000    2.333    0.000 
#   12.000    0.000    0.000    2.000    0.000    0.000 
#    0.000    0.000    0.000    0.000    0.000    0.000 
#
# Total GULP energy -297509.625501 kJ/mol
# GULP energy per Si atom -12396.234396 kJ/mol
# Density = 1.737971 g / cm^3
# Si number density = 17.419357 Si / 1000 Ang^3
#
#
#
# Elastic Constant Matrix: (Units=GPa)
#
#
# Indices 1 2 3 4 5 6 
#
# 1 100.2180 58.2610 34.8870 0.0000 -1.2008 0.0000
# 2 58.2610 139.7173 31.9405 0.0000 -2.6961 0.0000
# 3 34.8870 31.9405 44.4647 0.0000 -11.0990 0.0000
# 4 0.0000 0.0000 0.0000 25.8586 0.0000 8.5361
# 5 -1.2008 -2.6961 -11.0990 0.0000 29.1825 0.0000
# 6 0.0000 0.0000 0.0000 8.5361 0.0000 17.8668
#
#
#
# Elastic Compliance Matrix: (Units=1/GPa)
#
#
# Indices 1 2 3 4 5 6 
#
# 1 0.016122 -0.004416 -0.010400 0.000000 -0.003700 0.000000
# 2 -0.004416 0.009851 -0.003789 0.000000 -0.000713 0.000000
# 3 -0.010400 -0.003789 0.036658 0.000000 0.013164 0.000000
# 4 0.000000 0.000000 0.000000 0.045913 0.000000 -0.021936
# 5 -0.003700 -0.000713 0.013164 0.000000 0.039056 0.000000
# 6 0.000000 0.000000 0.000000 -0.021936 0.000000 0.066450
#
#
# Mechanical properties :
#
#
# Convention : Reuss Voigt Hill
#
# Bulk Modulus (GPa) = 39.34105 59.39745 49.36925
# Shear Modulus (GPa) = 19.25040 25.20235 22.22638
#
# Velocity S-wave (km/s) = 3.32793 3.80781 3.57593
# Velocity P-wave (km/s) = 6.11560 7.31472 6.74187
#
# Compressibility (1/GPa) = 0.02541875
#
# Stress axis : x y z
#
# Youngs Moduli (GPa) = 62.02752 101.50757 27.27931
#
# Poissons Ratio (x) = 0.44831 0.28371
# Poissons Ratio (y) = 0.27394 0.10337
# Poissons Ratio (z) = 0.64511 0.38465
#
# Static dielectric constant tensor:
#      x y z
#    x 3.357690 0.000000 0.035340 
#    y 0.000000 3.168420 0.000000 
#    z 0.035340 0.000000 3.267650 
# 
# 
# High freq. dielectric constant tensor:
#      x y z
#    x 1.673170 0.000000 0.005260 
#    y 0.000000 1.655200 0.000000 
#    z 0.005260 0.000000 1.673410 
# 
# From -- ./inp_files/31889.got.cif
#   From: 2010.06.25/outbox.cif.g09.slc.cpg/sg15_16_cif.got.tgz:31889.got - 2010.06.28 07:06:18.
