data_PCOD8136471
_publ_section_title
;
Structure prediction by ZEFSAII (Michael W. Deem and Ramdas Pophale) SiO2 
 PCOD8136471
Probable space group: C 2/C
;
_chemical_formula_sum "Si O2"
_cell_formula_units_Z 64
_cell_length_a 20.460685
_cell_length_b 26.123738
_cell_length_c 9.038463
_cell_angle_alpha 90.000000
_cell_angle_beta 46.950001
_cell_angle_gamma 90.000000
_cell_volume 3530.399214
_symmetry_space_group_name_H-M "C 2/C"
_symmetry_group_IT_number 15
_symmetry_cell_setting 'monoclinic'
loop_
_space_group_symop_operation_xyz
x,y,z
-x,y,1/2-z
-x,-y,-z
x,-y,1/2+z
1/2+x,1/2+y,z
1/2-x,1/2+y,1/2-z
1/2-x,1/2-y,-z
1/2+x,1/2-y,1/2+z
loop_
_atom_site_type_symbol
_atom_site_label
_atom_site_fract_x
_atom_site_fract_y
_atom_site_fract_z
Si Si1 0.614446 0.039554 0.448631
Si Si2 0.580873 0.351896 0.210033
Si Si3 0.777560 0.616169 0.395595
Si Si4 0.116420 0.753805 0.954981
Si Si5 0.582674 0.939188 0.326851
Si Si6 0.705024 0.771908 0.720122
Si Si7 0.595850 0.863004 0.543128
Si Si8 0.474002 0.288460 0.954463
O O1 0.696365 0.067117 0.241054
O O2 0.522737 0.065520 0.538779
O O3 0.631200 0.046193 0.598563
O O4 0.609168 0.980146 0.412397
O O5 0.500000 0.381423 0.250000
O O6 0.550998 0.341275 0.424614
O O7 0.670022 0.385436 0.073801
O O8 0.592026 0.295806 0.117604
O O9 0.810436 0.667540 0.264028
O O10 0.823588 0.613741 0.484460
O O11 0.223233 0.758966 0.760454
O O12 0.060775 0.761646 0.892040
O O13 0.095966 0.698104 0.052306
O O14 0.611326 0.884329 0.351878
O O15 0.750000 0.750000 0.500000
O O16 0.610355 0.749025 0.909462
O O17 0.500000 0.883425 0.750000
O O18 0.500000 0.303562 0.750000
#
# Coordination Sequence:
#
# PCOD8136471 Si02
#       8
#     8   8   8   8   8   8   8   8
#     4  10  21  38  52  79 106 149 177 227 266 325
#     4   9  18  37  56  75 100 148 189 229 271 327
#     4  11  19  33  58  75 105 144 192 219 274 330
#     4  10  20  34  54  72 108 150 192 222 273 329
#     4  10  22  35  54  75 117 139 183 220 271 321
#     4  11  19  35  53  75 107 150 193 229 265 330
#     4  12  19  29  50  81 106 147 182 216 268 333
#     4  11  21  32  49  74 106 143 186 237 277 310
#
# _framework density 18.128261999999999
#
# number of rings (size 3 to 8) (size 9 to 14) (size 15 to 20)
#    0.000    1.500    5.000    2.625    1.750    1.500 
#    0.000    6.250    0.000    0.000    0.000    3.500 
#    0.000    0.000    0.000    0.000    0.000    0.000 
#
# Total GULP energy -396677.940555 kJ/mol
# GULP energy per Si atom -12396.185642 kJ/mol
# Density = 1.808700 g / cm^3
# Si number density = 18.128262 Si / 1000 Ang^3
#
#
#
# Elastic Constant Matrix: (Units=GPa)
#
#
# Indices 1 2 3 4 5 6 
#
# 1 136.3397 20.5987 58.7354 0.0000 -13.3799 0.0000
# 2 20.5987 38.9516 18.3764 0.0000 -0.7461 0.0000
# 3 58.7354 18.3764 84.0477 0.0000 8.1187 0.0000
# 4 0.0000 0.0000 0.0000 19.6125 0.0000 -5.7836
# 5 -13.3799 -0.7461 8.1187 0.0000 30.9895 0.0000
# 6 0.0000 0.0000 0.0000 -5.7836 0.0000 19.5114
#
#
#
# Elastic Compliance Matrix: (Units=1/GPa)
#
#
# Indices 1 2 3 4 5 6 
#
# 1 0.012169 -0.002161 -0.008755 0.000000 0.007496 0.000000
# 2 -0.002161 0.029183 -0.004974 0.000000 0.001073 0.000000
# 3 -0.008755 -0.004974 0.019987 0.000000 -0.009136 0.000000
# 4 0.000000 0.000000 0.000000 0.055872 0.000000 0.016562
# 5 0.007496 0.001073 -0.009136 0.000000 0.037925 0.000000
# 6 0.000000 0.000000 0.000000 0.016562 0.000000 0.056161
#
#
# Mechanical properties :
#
#
# Convention : Reuss Voigt Hill
#
# Bulk Modulus (GPa) = 33.83265 50.52888 42.18077
# Shear Modulus (GPa) = 19.76840 24.79792 22.28316
#
# Velocity S-wave (km/s) = 3.30582 3.70255 3.50979
# Velocity P-wave (km/s) = 5.76842 6.79794 6.30423
#
# Compressibility (1/GPa) = 0.02955725
#
# Stress axis : x y z
#
# Youngs Moduli (GPa) = 82.17936 34.26667 50.03351
#
# Poissons Ratio (x) = 0.07405 0.43806
# Poissons Ratio (y) = 0.17758 0.24887
# Poissons Ratio (z) = 0.71951 0.17045
#
# Static dielectric constant tensor:
#      x y z
#    x 3.987410 0.000000 -0.218970 
#    y 0.000000 2.999600 0.000000 
#    z -0.218970 0.000000 3.203070 
# 
# 
# High freq. dielectric constant tensor:
#      x y z
#    x 1.718290 0.000000 -0.001280 
#    y 0.000000 1.667370 0.000000 
#    z -0.001280 0.000000 1.676780 
# 
# From -- ./inp_files/59015.got.cif
#   From: 2010.06.25/outbox.cif.g09.slc.cpg/sg15_30_cif.got.tgz:59015.got - 2010.06.28 07:06:18.
