data_PCOD8136565
_publ_section_title
;
Structure prediction by ZEFSAII (Michael W. Deem and Ramdas Pophale) SiO2 
 PCOD8136565
Probable space group: C 2/C
;
_chemical_formula_sum "Si O2"
_cell_formula_units_Z 48
_cell_length_a 10.773106
_cell_length_b 17.000302
_cell_length_c 25.106210
_cell_angle_alpha 90.000000
_cell_angle_beta 147.997352
_cell_angle_gamma 90.000000
_cell_volume 2436.803747
_symmetry_space_group_name_H-M "C 2/C"
_symmetry_group_IT_number 15
_symmetry_cell_setting 'monoclinic'
loop_
_space_group_symop_operation_xyz
x,y,z
-x,y,1/2-z
-x,-y,-z
x,-y,1/2+z
1/2+x,1/2+y,z
1/2-x,1/2+y,1/2-z
1/2-x,1/2-y,-z
1/2+x,1/2-y,1/2+z
loop_
_atom_site_type_symbol
_atom_site_label
_atom_site_fract_x
_atom_site_fract_y
_atom_site_fract_z
Si Si1 0.403933 0.270407 0.979401
Si Si2 0.638068 0.363481 0.436359
Si Si3 0.308114 0.392886 0.225173
Si Si4 0.583037 0.034605 0.085178
Si Si5 0.867871 0.826979 0.653663
Si Si6 0.521493 0.736552 0.107731
O O1 0.189452 0.217752 0.923037
O O2 0.354387 0.299333 0.900460
O O3 0.454077 0.342424 0.037814
O O4 0.626122 0.214977 0.053430
O O5 0.438663 0.408116 0.329440
O O6 0.870068 0.414440 0.531174
O O7 0.500000 0.377094 0.250000
O O8 0.151685 0.468596 0.153241
O O9 0.138787 0.318349 0.167913
O O10 0.812794 0.085362 0.154594
O O11 0.500000 0.000000 0.000000
O O12 0.036893 0.825133 0.662905
O O13 0.000000 0.782551 0.750000
O O14 0.250000 0.750000 0.000000
#
# Coordination Sequence:
#
# PCOD8136565 Si02
#       6
#     8   8   8   8   8   8
#     4   9  18  35  55  84 115 153 193 247 302 347
#     4  10  20  34  57  85 120 153 200 249 292 358
#     4  12  20  35  60  88 118 159 200 240 306 359
#     4  11  21  35  54  87 115 151 198 244 290 352
#     4  10  20  34  56  88 113 144 194 249 296 349
#     4  10  20  36  58  87 118 149 193 252 304 351
#
# _framework density 19.697934
#
# number of rings (size 3 to 8) (size 9 to 14) (size 15 to 20)
#    0.000    1.667    3.333    3.500    0.000    0.000 
#    0.000    0.000    0.000    9.000   21.667    0.000 
#    0.000    0.000    0.000    0.000    0.000    0.000 
#
# Total GULP energy -297423.919978 kJ/mol
# GULP energy per Si atom -12392.663332 kJ/mol
# Density = 1.965310 g / cm^3
# Si number density = 19.697934 Si / 1000 Ang^3
#
#
#
# Elastic Constant Matrix: (Units=GPa)
#
#
# Indices 1 2 3 4 5 6 
#
# 1 124.7573 40.7044 42.4718 0.0005 -33.6755 0.0001
# 2 40.7044 75.3823 41.0047 0.0007 -7.9451 0.0002
# 3 42.4718 41.0047 97.0501 0.0021 -18.4517 0.0005
# 4 0.0005 0.0007 0.0021 24.3107 0.0011 -5.6181
# 5 -33.6755 -7.9451 -18.4517 0.0011 37.9844 0.0003
# 6 0.0001 0.0002 0.0005 -5.6181 0.0003 23.0638
#
#
#
# Elastic Compliance Matrix: (Units=1/GPa)
#
#
# Indices 1 2 3 4 5 6 
#
# 1 0.012767 -0.004981 -0.001685 0.000000 0.009459 0.000000
# 2 -0.004981 0.019168 -0.006606 0.000000 -0.003616 0.000000
# 3 -0.001685 -0.006606 0.014638 -0.000001 0.004235 -0.000001
# 4 0.000000 0.000000 -0.000001 0.043588 -0.000002 0.010618
# 5 0.009459 -0.003616 0.004235 -0.000002 0.036014 -0.000001
# 6 0.000000 0.000000 -0.000001 0.010618 -0.000001 0.045944
#
#
# Mechanical properties :
#
#
# Convention : Reuss Voigt Hill
#
# Bulk Modulus (GPa) = 49.92632 60.61682 55.27157
# Shear Modulus (GPa) = 24.35010 28.60569 26.47790
#
# Velocity S-wave (km/s) = 3.51974 3.81493 3.67031
# Velocity P-wave (km/s) = 6.47450 7.08837 6.78837
#
# Compressibility (1/GPa) = 0.02002951
#
# Stress axis : x y z
#
# Youngs Moduli (GPa) = 78.32484 52.17139 68.31729
#
# Poissons Ratio (x) = 0.25985 0.11508
# Poissons Ratio (y) = 0.39012 0.45132
# Poissons Ratio (z) = 0.13194 0.34466
#
# Static dielectric constant tensor:
#      x y z
#    x 4.017080 0.000010 -0.267280 
#    y 0.000010 3.411490 0.000010 
#    z -0.267280 0.000010 3.763490 
# 
# 
# High freq. dielectric constant tensor:
#      x y z
#    x 1.758050 0.000000 -0.011260 
#    y 0.000000 1.732320 0.000000 
#    z -0.011260 0.000000 1.784430 
# 
# From -- ./inp_files/293139.got.cif
#   From: 2010.06.25/outbox.cif.g09.slc.cpg/sg15_147_cif.got.tgz:293139.got - 2010.06.28 07:06:18.
