data_PCOD8136804
_publ_section_title
;
Structure prediction by ZEFSAII (Michael W. Deem and Ramdas Pophale) SiO2 
 PCOD8136804
Probable space group: C 2/C
;
_chemical_formula_sum "Si O2"
_cell_formula_units_Z 44
_cell_length_a 15.778223
_cell_length_b 24.380508
_cell_length_c 13.426561
_cell_angle_alpha 90.000000
_cell_angle_beta 29.703802
_cell_angle_gamma 90.000000
_cell_volume 2559.314053
_symmetry_space_group_name_H-M "C 2/C"
_symmetry_group_IT_number 15
_symmetry_cell_setting 'monoclinic'
loop_
_space_group_symop_operation_xyz
x,y,z
-x,y,1/2-z
-x,-y,-z
x,-y,1/2+z
1/2+x,1/2+y,z
1/2-x,1/2+y,1/2-z
1/2-x,1/2-y,-z
1/2+x,1/2-y,1/2+z
loop_
_atom_site_type_symbol
_atom_site_label
_atom_site_fract_x
_atom_site_fract_y
_atom_site_fract_z
Si Si1 0.664074 0.110171 0.750557
Si Si2 0.500000 0.546321 0.750000
Si Si3 0.700401 0.687313 0.042601
Si Si4 0.178949 0.478546 0.069004
Si Si5 0.025364 0.935953 0.444267
Si Si6 0.788905 0.605406 0.124303
O O1 0.728785 0.167333 0.637184
O O2 0.641796 0.071546 0.678931
O O3 0.796658 0.085949 0.693814
O O4 0.472082 0.113920 0.993758
O O5 0.663422 0.511610 0.548534
O O6 0.453797 0.577416 0.695309
O O7 0.500000 0.677226 0.250000
O O8 0.777489 0.655034 0.057778
O O9 0.750000 0.750000 0.000000
O O10 0.000000 0.513277 0.250000
O O11 0.225732 0.454301 0.913321
O O12 0.868709 0.896873 0.638036
O O13 0.000000 0.000000 0.500000
#
# Coordination Sequence:
#
# PCOD8136804 Si02
#       6
#     8   4   8   8   8   8
#     4  10  20  35  52  77 115 150 183 233 285 338
#     4  12  22  32  48  76 102 144 206 218 272 324
#     4  11  20  35  61  91 121 144 181 234 295 351
#     4   9  17  29  48  72 103 142 184 226 267 323
#     4  12  22  34  54  74 110 160 194 234 282 333
#     4  10  20  35  52  77 115 150 183 233 285 338
#
# _framework density 17.192107
#
# number of rings (size 3 to 8) (size 9 to 14) (size 15 to 20)
#    0.000    1.455    5.455    2.727    2.545    2.182 
#    0.000    0.000    0.000    0.000    0.000    1.273 
#    0.000    0.000    0.000    0.000    0.000    0.000 
#
# Total GULP energy -272586.494077 kJ/mol
# GULP energy per Si atom -12390.295185 kJ/mol
# Density = 1.715298 g / cm^3
# Si number density = 17.192107 Si / 1000 Ang^3
#
#
#
# Elastic Constant Matrix: (Units=GPa)
#
#
# Indices 1 2 3 4 5 6 
#
# 1 117.0579 35.5993 53.2167 0.4245 -15.5269 0.0313
# 2 35.5993 59.6663 19.1331 0.2584 -5.6293 0.0181
# 3 53.2167 19.1331 88.4296 0.6250 -26.2366 0.0174
# 4 0.4245 0.2584 0.6250 52.0059 -0.3227 7.8038
# 5 -15.5269 -5.6293 -26.2366 -0.3227 44.4055 0.0120
# 6 0.0313 0.0181 0.0174 7.8038 0.0120 24.2185
#
#
#
# Elastic Compliance Matrix: (Units=1/GPa)
#
#
# Indices 1 2 3 4 5 6 
#
# 1 0.013408 -0.005816 -0.006837 0.000002 -0.000088 -0.000009
# 2 -0.005816 0.020532 -0.000938 -0.000044 0.000015 0.000007
# 3 -0.006837 -0.000938 0.018045 -0.000110 0.008151 0.000028
# 4 0.000002 -0.000044 -0.000110 0.020208 0.000079 -0.006511
# 5 -0.000088 0.000015 0.008151 0.000079 0.027308 -0.000045
# 6 -0.000009 0.000007 0.000028 -0.006511 -0.000045 0.043389
#
#
# Mechanical properties :
#
#
# Convention : Reuss Voigt Hill
#
# Bulk Modulus (GPa) = 40.31554 53.45025 46.88289
# Shear Modulus (GPa) = 28.03673 34.60628 31.32150
#
# Velocity S-wave (km/s) = 4.04269 4.49142 4.27295
# Velocity P-wave (km/s) = 6.72993 7.61936 7.18842
#
# Compressibility (1/GPa) = 0.02480433
#
# Stress axis : x y z
#
# Youngs Moduli (GPa) = 74.58350 48.70425 55.41717
#
# Poissons Ratio (x) = 0.28325 0.37887
# Poissons Ratio (y) = 0.43375 0.05197
# Poissons Ratio (z) = 0.50991 0.04568
#
# Static dielectric constant tensor:
#      x y z
#    x 3.214720 -0.000330 -0.344620 
#    y -0.000330 2.850390 0.000370 
#    z -0.344620 0.000370 3.537600 
# 
# 
# High freq. dielectric constant tensor:
#      x y z
#    x 1.660310 -0.000010 -0.031120 
#    y -0.000010 1.611430 0.000020 
#    z -0.031120 0.000020 1.677330 
# 
# From -- ./inp_files/40631.got.cif
#   From: 2010.06.25/outbox.cif.g09.slc.cpg/sg15_21_cif.got.tgz:40631.got - 2010.06.28 07:06:18.
