data_PCOD8136614
_publ_section_title
;
Structure prediction by ZEFSAII (Michael W. Deem and Ramdas Pophale) SiO2 
 PCOD8136614
Probable space group: C 2/C
;
_chemical_formula_sum "Si O2"
_cell_formula_units_Z 48
_cell_length_a 14.639520
_cell_length_b 18.086998
_cell_length_c 13.361930
_cell_angle_alpha 90.000000
_cell_angle_beta 140.398562
_cell_angle_gamma 90.000000
_cell_volume 2255.298857
_symmetry_space_group_name_H-M "C 2/C"
_symmetry_group_IT_number 15
_symmetry_cell_setting 'monoclinic'
loop_
_space_group_symop_operation_xyz
x,y,z
-x,y,1/2-z
-x,-y,-z
x,-y,1/2+z
1/2+x,1/2+y,z
1/2-x,1/2+y,1/2-z
1/2-x,1/2-y,-z
1/2+x,1/2-y,1/2+z
loop_
_atom_site_type_symbol
_atom_site_label
_atom_site_fract_x
_atom_site_fract_y
_atom_site_fract_z
Si Si1 0.221643 0.312073 0.096695
Si Si2 0.500000 0.768479 0.750000
Si Si3 0.000000 0.152918 0.250000
Si Si4 0.305740 0.737751 0.222708
Si Si5 0.690897 0.049315 0.682635
Si Si6 0.622199 0.097062 0.034191
Si Si7 0.230457 0.609150 0.920675
O O1 0.371603 0.282012 0.182272
O O2 0.166611 0.259751 0.139975
O O3 0.270684 0.392392 0.178582
O O4 0.086049 0.317928 0.905026
O O5 0.951045 0.202693 0.302573
O O6 0.127201 0.100106 0.392786
O O7 0.177381 0.678038 0.110931
O O8 0.272824 0.808293 0.125804
O O9 0.530020 0.081803 0.544874
O O10 0.738977 0.049122 0.839419
O O11 0.720717 0.968459 0.662983
O O12 0.606514 0.093239 0.899280
#
# Coordination Sequence:
#
# PCOD8136614 Si02
#       7
#     8   4   4   8   8   8   8
#     4  10  22  39  64  88 119 161 210 252 304 360
#     4  10  22  42  59  89 118 162 212 252 296 364
#     4  10  20  34  57  95 116 152 196 248 308 348
#     4  10  22  35  66  86 122 153 201 253 303 362
#     4  10  22  37  63  86 122 156 201 247 307 363
#     4  10  20  40  56  94 119 157 196 250 310 361
#     4  10  22  36  60  88 122 156 199 248 299 368
#
# _framework density 21.28321
#
# number of rings (size 3 to 8) (size 9 to 14) (size 15 to 20)
#    0.000    2.000    0.000    3.500   14.000    0.000 
#   12.000    6.667    0.000    0.000    0.000    0.000 
#    0.000    0.000    0.000    0.000    0.000    0.000 
#
# Total GULP energy -297366.728996 kJ/mol
# GULP energy per Si atom -12390.280375 kJ/mol
# Density = 2.123477 g / cm^3
# Si number density = 21.283210 Si / 1000 Ang^3
#
#
#
# Elastic Constant Matrix: (Units=GPa)
#
#
# Indices 1 2 3 4 5 6 
#
# 1 84.0693 30.2488 11.3891 0.0000 -19.1604 0.0000
# 2 30.2488 93.8547 16.4123 0.0000 -24.4684 0.0000
# 3 11.3891 16.4123 56.6351 0.0000 -29.2538 0.0000
# 4 0.0000 0.0000 0.0000 18.0328 0.0000 -7.2814
# 5 -19.1604 -24.4684 -29.2538 0.0000 40.4199 0.0000
# 6 0.0000 0.0000 0.0000 -7.2814 0.0000 26.7927
#
#
#
# Elastic Compliance Matrix: (Units=1/GPa)
#
#
# Indices 1 2 3 4 5 6 
#
# 1 0.014194 -0.003335 0.000870 0.000000 0.005339 0.000000
# 2 -0.003335 0.013442 0.000258 0.000000 0.006744 0.000000
# 3 0.000870 0.000258 0.028269 0.000000 0.021028 0.000000
# 4 0.000000 0.000000 0.000000 0.062290 0.000000 0.016929
# 5 0.005339 0.006744 0.021028 0.000000 0.046573 0.000000
# 6 0.000000 0.000000 0.000000 0.016929 0.000000 0.041924
#
#
# Mechanical properties :
#
#
# Convention : Reuss Voigt Hill
#
# Bulk Modulus (GPa) = 19.42026 38.96216 29.19121
# Shear Modulus (GPa) = 21.90395 28.81634 25.36014
#
# Velocity S-wave (km/s) = 3.21154 3.68359 3.45564
# Velocity P-wave (km/s) = 4.78503 6.03640 5.44677
#
# Compressibility (1/GPa) = 0.05149262
#
# Stress axis : x y z
#
# Youngs Moduli (GPa) = 70.45308 74.39123 35.37454
#
# Poissons Ratio (x) = 0.24807 -0.03078
# Poissons Ratio (y) = 0.23494 -0.00914
# Poissons Ratio (z) = -0.06129 -0.01923
#
# Static dielectric constant tensor:
#      x y z
#    x 4.162070 0.000000 -0.220550 
#    y 0.000000 3.810940 0.000000 
#    z -0.220550 0.000000 3.870030 
# 
# 
# High freq. dielectric constant tensor:
#      x y z
#    x 1.850140 0.000000 -0.008820 
#    y 0.000000 1.812540 0.000000 
#    z -0.008820 0.000000 1.829950 
# 
# From -- ./inp_files/113409.got.cif
#   From: 2010.06.25/outbox.cif.g09.slc.cpg/sg15_57_cif.got.tgz:113409.got - 2010.06.28 07:06:18.
