data_PCOD8136697
_publ_section_title
;
Structure prediction by ZEFSAII (Michael W. Deem and Ramdas Pophale) SiO2 
 PCOD8136697
Probable space group: C 2/C
;
_chemical_formula_sum "Si O2"
_cell_formula_units_Z 64
_cell_length_a 11.288965
_cell_length_b 21.335080
_cell_length_c 26.798998
_cell_angle_alpha 90.000000
_cell_angle_beta 148.847603
_cell_angle_gamma 90.000000
_cell_volume 3339.050685
_symmetry_space_group_name_H-M "C 2/C"
_symmetry_group_IT_number 15
_symmetry_cell_setting 'monoclinic'
loop_
_space_group_symop_operation_xyz
x,y,z
-x,y,1/2-z
-x,-y,-z
x,-y,1/2+z
1/2+x,1/2+y,z
1/2-x,1/2+y,1/2-z
1/2-x,1/2-y,-z
1/2+x,1/2-y,1/2+z
loop_
_atom_site_type_symbol
_atom_site_label
_atom_site_fract_x
_atom_site_fract_y
_atom_site_fract_z
Si Si1 0.763190 0.112002 0.147021
Si Si2 0.606801 0.335047 0.984368
Si Si3 0.607754 0.228924 0.150121
Si Si4 0.865567 0.167929 0.500056
Si Si5 0.756972 0.885268 0.144888
Si Si6 0.412515 0.773265 0.350840
Si Si7 0.775268 0.426732 0.474704
Si Si8 0.721878 0.931714 0.524663
O O1 0.750935 0.180854 0.167400
O O2 0.765197 0.114141 0.087473
O O3 0.000000 0.079779 0.250000
O O4 0.545369 0.071099 0.085769
O O5 0.463403 0.348284 0.981744
O O6 0.459104 0.291770 0.894837
O O7 0.637495 0.403105 0.970368
O O8 0.853291 0.304418 0.084227
O O9 0.390222 0.195071 0.096676
O O10 0.757753 0.259917 0.247320
O O11 0.532593 0.283251 0.086090
O O12 0.866489 0.102931 0.531181
O O13 0.716370 0.817555 0.155490
O O14 0.762924 0.881005 0.086680
O O15 0.000000 0.913303 0.250000
O O16 0.550635 0.931958 0.085784
O O17 0.693132 0.497579 0.434487
#
# Coordination Sequence:
#
# PCOD8136697 Si02
#       8
#     8   8   8   8   8   8   8   8
#     4  10  20  34  60  87 111 146 187 237 293 332
#     4  10  23  37  56  83 115 153 189 232 283 343
#     4  10  22  36  57  85 119 148 183 234 291 349
#     4  10  23  37  56  83 115 153 189 232 283 343
#     4  10  20  34  60  87 111 146 187 237 293 332
#     4  10  22  36  57  85 119 148 183 234 291 349
#     4  10  22  39  56  83 116 150 196 238 276 332
#     4  10  22  39  56  83 116 150 196 238 276 332
#
# _framework density 19.167124000000001
#
# number of rings (size 3 to 8) (size 9 to 14) (size 15 to 20)
#    0.000    2.000    0.000    3.000   14.000    2.500 
#    0.000    0.000    0.000    0.000    0.000   10.500 
#    0.000    0.000    0.000    0.000    0.000    0.000 
#
# Total GULP energy -396745.591102 kJ/mol
# GULP energy per Si atom -12398.299722 kJ/mol
# Density = 1.912350 g / cm^3
# Si number density = 19.167124 Si / 1000 Ang^3
#
#
#
# Elastic Constant Matrix: (Units=GPa)
#
#
# Indices 1 2 3 4 5 6 
#
# 1 114.9545 30.6331 10.7844 -0.0014 -1.0654 -0.0005
# 2 30.6331 81.7572 10.9330 -0.0009 -6.3942 -0.0005
# 3 10.7844 10.9330 82.4420 -0.0037 2.7087 -0.0033
# 4 -0.0014 -0.0009 -0.0037 16.8403 -0.0028 -2.6224
# 5 -1.0654 -6.3942 2.7087 -0.0028 15.5541 -0.0018
# 6 -0.0005 -0.0005 -0.0033 -2.6224 -0.0018 19.0416
#
#
#
# Elastic Compliance Matrix: (Units=1/GPa)
#
#
# Indices 1 2 3 4 5 6 
#
# 1 0.009723 -0.003592 -0.000773 0.000000 -0.000676 0.000000
# 2 -0.003592 0.014254 -0.001614 0.000001 0.005895 0.000001
# 3 -0.000773 -0.001614 0.012540 0.000002 -0.002900 0.000002
# 4 0.000000 0.000001 0.000002 0.060683 0.000012 0.008357
# 5 -0.000676 0.005895 -0.002900 0.000012 0.067174 0.000008
# 6 0.000000 0.000001 0.000002 0.008357 0.000008 0.053668
#
#
# Mechanical properties :
#
#
# Convention : Reuss Voigt Hill
#
# Bulk Modulus (GPa) = 40.72036 42.65052 41.68544
# Shear Modulus (GPa) = 20.99194 25.40741 23.19967
#
# Velocity S-wave (km/s) = 3.31298 3.64479 3.48284
# Velocity P-wave (km/s) = 5.99378 6.32557 6.16191
#
# Compressibility (1/GPa) = 0.02455774
#
# Stress axis : x y z
#
# Youngs Moduli (GPa) = 102.85237 70.15458 79.74339
#
# Poissons Ratio (x) = 0.25202 0.06166
# Poissons Ratio (y) = 0.36949 0.12871
# Poissons Ratio (z) = 0.07953 0.11323
#
# Static dielectric constant tensor:
#      x y z
#    x 3.454660 0.000000 0.088510 
#    y 0.000000 3.320410 -0.000010 
#    z 0.088510 -0.000010 3.604210 
# 
# 
# High freq. dielectric constant tensor:
#      x y z
#    x 1.741940 0.000000 0.002230 
#    y 0.000000 1.731600 0.000000 
#    z 0.002230 0.000000 1.749120 
# 
# From -- ./inp_files/293794.got.cif
#   From: 2010.06.25/outbox.cif.g09.slc.cpg/sg15_147_cif.got.tgz:293794.got - 2010.06.28 07:06:18.
