data_PCOD8136050
_publ_section_title
;
Structure prediction by ZEFSAII (Michael W. Deem and Ramdas Pophale) SiO2 
 PCOD8136050
Probable space group: C 2/C
;
_chemical_formula_sum "Si O2"
_cell_formula_units_Z 60
_cell_length_a 9.131540
_cell_length_b 19.799806
_cell_length_c 18.438523
_cell_angle_alpha 90.000000
_cell_angle_beta 124.516999
_cell_angle_gamma 90.000000
_cell_volume 2746.858076
_symmetry_space_group_name_H-M "C 2/C"
_symmetry_group_IT_number 15
_symmetry_cell_setting 'monoclinic'
loop_
_space_group_symop_operation_xyz
x,y,z
-x,y,1/2-z
-x,-y,-z
x,-y,1/2+z
1/2+x,1/2+y,z
1/2-x,1/2+y,1/2-z
1/2-x,1/2-y,-z
1/2+x,1/2-y,1/2+z
loop_
_atom_site_type_symbol
_atom_site_label
_atom_site_fract_x
_atom_site_fract_y
_atom_site_fract_z
Si Si1 0.092564 0.799809 0.980199
Si Si2 0.748400 0.274640 0.418943
Si Si3 0.774141 0.518321 0.773141
Si Si4 0.175047 0.892855 0.659604
Si Si5 0.714932 0.429239 0.412856
Si Si6 0.332766 0.019964 0.084059
Si Si7 0.852975 0.906709 0.389424
Si Si8 0.500000 0.800810 0.750000
O O1 0.920709 0.753929 0.929459
O O2 0.023174 0.859305 0.905301
O O3 0.250000 0.750000 0.000000
O O4 0.140016 0.831483 0.073308
O O5 0.750000 0.250000 0.500000
O O6 0.770788 0.353478 0.413871
O O7 0.565944 0.247957 0.332835
O O8 0.654815 0.457654 0.706165
O O9 0.695562 0.534799 0.829988
O O10 0.769523 0.583840 0.717406
O O11 0.974593 0.493564 0.829592
O O12 0.244614 0.915415 0.599173
O O13 0.331665 0.843656 0.733222
O O14 0.857326 0.466425 0.504916
O O15 0.540815 0.432364 0.413128
O O16 0.212188 0.954212 0.063504
#
# Coordination Sequence:
#
# PCOD8136050 Si02
#       8
#     8   8   8   8   8   8   8   4
#     4  11  25  45  70  98 137 187 236 277 344 424
#     4  11  24  43  70 100 129 186 231 280 350 410
#     4  11  25  39  71 108 132 174 232 294 351 411
#     4  10  19  43  71  97 135 182 232 281 357 410
#     4  12  24  42  67 103 139 175 230 290 344 414
#     4  11  22  44  70  99 132 183 223 287 352 418
#     4  11  23  44  68  92 141 181 223 278 358 414
#     4  10  20  40  70  90 132 174 236 272 332 432
#
# _framework density 21.843136999999999
#
# number of rings (size 3 to 8) (size 9 to 14) (size 15 to 20)
#    0.000    1.067    4.000    3.200    5.600    0.000 
#    0.000    0.000    0.000    1.600    0.000    0.000 
#    0.000    0.000    0.000    0.000    0.000    0.000 
#
# Total GULP energy -371705.931169 kJ/mol
# GULP energy per Si atom -12390.197706 kJ/mol
# Density = 2.179342 g / cm^3
# Si number density = 21.843137 Si / 1000 Ang^3
#
#
#
# Elastic Constant Matrix: (Units=GPa)
#
#
# Indices 1 2 3 4 5 6 
#
# 1 78.9323 49.9257 52.6233 0.0000 1.9448 0.0000
# 2 49.9257 97.7239 74.0602 0.0000 -4.6634 0.0000
# 3 52.6233 74.0602 175.5973 0.0000 -13.4768 0.0000
# 4 0.0000 0.0000 0.0000 27.8900 0.0000 3.0067
# 5 1.9448 -4.6634 -13.4768 0.0000 35.5703 0.0000
# 6 0.0000 0.0000 0.0000 3.0067 0.0000 40.7741
#
#
#
# Elastic Compliance Matrix: (Units=1/GPa)
#
#
# Indices 1 2 3 4 5 6 
#
# 1 0.019724 -0.008178 -0.002705 0.000000 -0.003176 0.000000
# 2 -0.008178 0.018438 -0.005259 0.000000 0.000872 0.000000
# 3 -0.002705 -0.005259 0.008942 0.000000 0.002846 0.000000
# 4 0.000000 0.000000 0.000000 0.036143 0.000000 -0.002665
# 5 -0.003176 0.000872 0.002846 0.000000 0.029480 0.000000
# 6 0.000000 0.000000 0.000000 -0.002665 0.000000 0.024722
#
#
# Mechanical properties :
#
#
# Convention : Reuss Voigt Hill
#
# Bulk Modulus (GPa) = 67.47836 78.38576 72.93206
# Shear Modulus (GPa) = 28.62526 32.55647 30.59087
#
# Velocity S-wave (km/s) = 3.62400 3.86484 3.74636
# Velocity P-wave (km/s) = 6.96207 7.47527 7.22323
#
# Compressibility (1/GPa) = 0.01481956
#
# Stress axis : x y z
#
# Youngs Moduli (GPa) = 50.70090 54.23679 111.83171
#
# Poissons Ratio (x) = 0.44353 0.30256
# Poissons Ratio (y) = 0.41461 0.58809
# Poissons Ratio (z) = 0.13717 0.28521
#
# Static dielectric constant tensor:
#      x y z
#    x 3.630890 0.000000 0.064520 
#    y 0.000000 4.213970 0.000000 
#    z 0.064520 0.000000 4.159860 
# 
# 
# High freq. dielectric constant tensor:
#      x y z
#    x 1.835320 0.000000 0.013470 
#    y 0.000000 1.859270 0.000000 
#    z 0.013470 0.000000 1.876500 
# 
# From -- ./inp_files/192567.got.cif
#   From: 2010.06.25/outbox.cif.g09.slc.cpg/sg15_97_cif.got.tgz:192567.got - 2010.06.28 07:06:18.
