data_PCOD8136872
_publ_section_title
;
Structure prediction by ZEFSAII (Michael W. Deem and Ramdas Pophale) SiO2 
 PCOD8136872
Probable space group: C 2/C
;
_chemical_formula_sum "Si O2"
_cell_formula_units_Z 40
_cell_length_a 25.041506
_cell_length_b 8.284455
_cell_length_c 23.651430
_cell_angle_alpha 90.000000
_cell_angle_beta 156.662848
_cell_angle_gamma 90.000000
_cell_volume 1943.710334
_symmetry_space_group_name_H-M "C 2/C"
_symmetry_group_IT_number 15
_symmetry_cell_setting 'monoclinic'
loop_
_space_group_symop_operation_xyz
x,y,z
-x,y,1/2-z
-x,-y,-z
x,-y,1/2+z
1/2+x,1/2+y,z
1/2-x,1/2+y,1/2-z
1/2-x,1/2-y,-z
1/2+x,1/2-y,1/2+z
loop_
_atom_site_type_symbol
_atom_site_label
_atom_site_fract_x
_atom_site_fract_y
_atom_site_fract_z
Si Si1 0.079570 0.145697 0.551382
Si Si2 0.513663 0.138085 0.632849
Si Si3 0.398293 0.784417 0.810075
Si Si4 0.146948 0.077398 0.024216
Si Si5 0.770353 0.791294 0.455227
O O1 0.979724 0.258597 0.418314
O O2 0.141139 0.252255 0.662430
O O3 0.184526 0.057987 0.610248
O O4 0.000000 0.000000 0.500000
O O5 0.625787 0.205273 0.784339
O O6 0.368141 0.159395 0.521421
O O7 0.527086 0.952434 0.628272
O O8 0.257903 0.781005 0.638541
O O9 0.495795 0.643986 0.881366
O O10 0.163737 0.972933 0.983485
O O11 0.750000 0.750000 0.500000
#
# Coordination Sequence:
#
# PCOD8136872 Si02
#       5
#     8   8   8   8   8
#     4   9  19  34  53  81 117 149 179 218 271 334
#     4  10  21  35  58  86 109 145 189 228 280 335
#     4  10  20  35  55  84 119 146 179 228 277 335
#     4   9  21  36  56  85 113 148 189 224 274 338
#     4  10  21  40  60  80 107 144 191 238 278 326
#
# _framework density 20.579198000000002
#
# number of rings (size 3 to 8) (size 9 to 14) (size 15 to 20)
#    0.000    2.400    0.000    1.200    0.000   16.000 
#    0.000    1.000    0.000   12.000    0.000    0.000 
#    0.000    0.000    0.000    0.000    0.000    0.000 
#
# Total GULP energy -247805.177252 kJ/mol
# GULP energy per Si atom -12390.258863 kJ/mol
# Density = 2.053236 g / cm^3
# Si number density = 20.579198 Si / 1000 Ang^3
#
#
#
# Elastic Constant Matrix: (Units=GPa)
#
#
# Indices 1 2 3 4 5 6 
#
# 1 106.4487 40.6116 30.4683 0.0001 -8.8284 0.0000
# 2 40.6116 70.5450 24.6540 0.0002 -4.5100 0.0001
# 3 30.4683 24.6540 55.9642 0.0002 2.5395 0.0002
# 4 0.0001 0.0002 0.0002 34.7625 0.0001 2.5811
# 5 -8.8284 -4.5100 2.5395 0.0001 29.2698 0.0001
# 6 0.0000 0.0001 0.0002 2.5811 0.0001 35.5925
#
#
#
# Elastic Compliance Matrix: (Units=1/GPa)
#
#
# Indices 1 2 3 4 5 6 
#
# 1 0.013257 -0.005705 -0.004865 0.000000 0.003542 0.000000
# 2 -0.005705 0.019521 -0.005574 0.000000 0.001771 0.000000
# 3 -0.004865 -0.005574 0.023169 0.000000 -0.004336 0.000000
# 4 0.000000 0.000000 0.000000 0.028922 0.000000 -0.002097
# 5 0.003542 0.001771 -0.004336 0.000000 0.035882 0.000000
# 6 0.000000 0.000000 0.000000 -0.002097 0.000000 0.028248
#
#
# Mechanical properties :
#
#
# Convention : Reuss Voigt Hill
#
# Bulk Modulus (GPa) = 42.26646 47.15840 44.71243
# Shear Modulus (GPa) = 26.43071 29.07323 27.75197
#
# Velocity S-wave (km/s) = 3.58766 3.76273 3.67624
# Velocity P-wave (km/s) = 6.14368 6.46861 6.30823
#
# Compressibility (1/GPa) = 0.02365942
#
# Stress axis : x y z
#
# Youngs Moduli (GPa) = 75.43198 51.22719 43.16058
#
# Poissons Ratio (x) = 0.29226 0.20997
# Poissons Ratio (y) = 0.43036 0.24057
# Poissons Ratio (z) = 0.36696 0.28553
#
# Static dielectric constant tensor:
#      x y z
#    x 4.687020 0.000000 0.104000 
#    y 0.000000 3.876140 0.000000 
#    z 0.104000 0.000000 3.628840 
# 
# 
# High freq. dielectric constant tensor:
#      x y z
#    x 1.802560 0.000000 0.013150 
#    y 0.000000 1.810010 0.000000 
#    z 0.013150 0.000000 1.788900 
# 
# From -- ./inp_files/116560.got.cif
#   From: 2010.06.25/outbox.cif.g09.slc.cpg/sg15_59_cif.got.tgz:116560.got - 2010.06.28 07:06:18.
