data_PCOD8136441
_publ_section_title
;
Structure prediction by ZEFSAII (Michael W. Deem and Ramdas Pophale) SiO2 
 PCOD8136441
Probable space group: C 2/C
;
_chemical_formula_sum "Si O2"
_cell_formula_units_Z 64
_cell_length_a 20.337117
_cell_length_b 9.733872
_cell_length_c 19.031926
_cell_angle_alpha 90.000000
_cell_angle_beta 63.773371
_cell_angle_gamma 90.000000
_cell_volume 3379.682467
_symmetry_space_group_name_H-M "C 2/C"
_symmetry_group_IT_number 15
_symmetry_cell_setting 'monoclinic'
loop_
_space_group_symop_operation_xyz
x,y,z
-x,y,1/2-z
-x,-y,-z
x,-y,1/2+z
1/2+x,1/2+y,z
1/2-x,1/2+y,1/2-z
1/2-x,1/2-y,-z
1/2+x,1/2-y,1/2+z
loop_
_atom_site_type_symbol
_atom_site_label
_atom_site_fract_x
_atom_site_fract_y
_atom_site_fract_z
Si Si1 0.032573 0.249948 0.387577
Si Si2 0.039563 0.017150 0.803007
Si Si3 0.702091 0.260343 0.803712
Si Si4 0.464878 0.689685 0.953777
Si Si5 0.713218 0.955939 0.473101
Si Si6 0.791281 0.003997 0.300256
Si Si7 0.547914 0.004458 0.047837
Si Si8 0.303907 0.636826 0.048707
O O1 0.117956 0.288621 0.346945
O O2 0.008333 0.199990 0.477596
O O3 0.986940 0.386263 0.386345
O O4 0.015809 0.136084 0.336776
O O5 0.124420 0.032260 0.747515
O O6 0.000000 0.061640 0.750000
O O7 0.022891 0.113390 0.877491
O O8 0.747979 0.121212 0.784886
O O9 0.725407 0.346772 0.724748
O O10 0.713523 0.373336 0.860458
O O11 0.457133 0.840335 0.921163
O O12 0.388319 0.605302 0.988636
O O13 0.769422 0.022783 0.391566
O O14 0.709019 0.795664 0.461149
O O15 0.749755 0.968376 0.533424
O O16 0.634669 0.029716 0.500323
O O17 0.500000 0.000000 0.000000
#
# Coordination Sequence:
#
# PCOD8136441 Si02
#       8
#     8   8   8   8   8   8   8   8
#     4   9  19  36  53  74 104 135 168 210 260 300
#     4  11  22  34  50  75 109 141 165 201 256 311
#     4   9  19  34  53  74 100 134 167 207 253 299
#     4   9  17  32  55  76  94 129 179 215 240 293
#     4   9  16  29  51  75  98 128 164 209 253 289
#     4  10  20  34  52  75 103 134 166 203 254 306
#     4   9  17  31  55  79  98 127 175 220 251 290
#     4   8  15  30  50  72  99 127 164 210 250 283
#
# _framework density 18.936691
#
# number of rings (size 3 to 8) (size 9 to 14) (size 15 to 20)
#    0.000    2.750    0.000    3.375    0.000    4.000 
#    0.000    3.125    0.000    2.250    0.000    0.000 
#    0.000    0.000    0.000    0.000    0.000    0.000 
#
# Total GULP energy -396500.718984 kJ/mol
# GULP energy per Si atom -12390.647468 kJ/mol
# Density = 1.889359 g / cm^3
# Si number density = 18.936691 Si / 1000 Ang^3
#
#
#
# Elastic Constant Matrix: (Units=GPa)
#
#
# Indices 1 2 3 4 5 6 
#
# 1 78.7728 26.5422 29.9900 0.0000 -12.6024 0.0000
# 2 26.5422 62.3760 30.9314 0.0000 -14.3530 0.0000
# 3 29.9900 30.9314 78.2058 0.0000 -14.6626 0.0000
# 4 0.0000 0.0000 0.0000 23.7319 0.0000 -8.7412
# 5 -12.6024 -14.3530 -14.6626 0.0000 25.3308 0.0000
# 6 0.0000 0.0000 0.0000 -8.7412 0.0000 25.3331
#
#
#
# Elastic Compliance Matrix: (Units=1/GPa)
#
#
# Indices 1 2 3 4 5 6 
#
# 1 0.016122 -0.004138 -0.003906 0.000000 0.003416 0.000000
# 2 -0.004138 0.022383 -0.005916 0.000000 0.007200 0.000000
# 3 -0.003906 -0.005916 0.017535 0.000000 0.004854 0.000000
# 4 0.000000 0.000000 0.000000 0.048273 0.000000 0.016657
# 5 0.003416 0.007200 0.004854 0.000000 0.048067 0.000000
# 6 0.000000 0.000000 0.000000 0.016657 0.000000 0.045221
#
#
# Mechanical properties :
#
#
# Convention : Reuss Voigt Hill
#
# Bulk Modulus (GPa) = 35.56080 43.80910 39.68495
# Shear Modulus (GPa) = 21.28632 23.67188 22.47910
#
# Velocity S-wave (km/s) = 3.35636 3.53945 3.44912
# Velocity P-wave (km/s) = 5.81720 6.31572 6.07158
#
# Compressibility (1/GPa) = 0.02812085
#
# Stress axis : x y z
#
# Youngs Moduli (GPa) = 62.02587 44.67709 57.03026
#
# Poissons Ratio (x) = 0.18486 0.22274
# Poissons Ratio (y) = 0.25664 0.33740
# Poissons Ratio (z) = 0.24225 0.26432
#
# Static dielectric constant tensor:
#      x y z
#    x 3.720120 0.000000 0.106490 
#    y 0.000000 3.432270 0.000000 
#    z 0.106490 0.000000 3.599330 
# 
# 
# High freq. dielectric constant tensor:
#      x y z
#    x 1.734170 0.000000 -0.008950 
#    y 0.000000 1.716100 0.000000 
#    z -0.008950 0.000000 1.724900 
# 
# From -- ./inp_files/251872.got.cif
#   From: 2010.06.25/outbox.cif.g09.slc.cpg/sg15_126_cif.got.tgz:251872.got - 2010.06.28 07:06:18.
