data_PCOD8136429
_publ_section_title
;
Structure prediction by ZEFSAII (Michael W. Deem and Ramdas Pophale) SiO2 
 PCOD8136429
Probable space group: C 2/C
;
_chemical_formula_sum "Si O2"
_cell_formula_units_Z 56
_cell_length_a 27.422206
_cell_length_b 9.233344
_cell_length_c 17.942430
_cell_angle_alpha 90.000000
_cell_angle_beta 142.184300
_cell_angle_gamma 90.000000
_cell_volume 2785.419814
_symmetry_space_group_name_H-M "C 2/C"
_symmetry_group_IT_number 15
_symmetry_cell_setting 'monoclinic'
loop_
_space_group_symop_operation_xyz
x,y,z
-x,y,1/2-z
-x,-y,-z
x,-y,1/2+z
1/2+x,1/2+y,z
1/2-x,1/2+y,1/2-z
1/2-x,1/2-y,-z
1/2+x,1/2-y,1/2+z
loop_
_atom_site_type_symbol
_atom_site_label
_atom_site_fract_x
_atom_site_fract_y
_atom_site_fract_z
Si Si1 0.759940 0.643853 0.339347
Si Si2 0.530609 0.845299 0.014538
Si Si3 0.906140 0.836209 0.785663
Si Si4 0.173948 0.197770 0.454077
Si Si5 0.697541 0.179321 0.635777
Si Si6 0.373324 0.616452 0.565294
Si Si7 0.534877 0.363155 0.179005
O O1 0.679824 0.689192 0.283509
O O2 0.832700 0.703743 0.479137
O O3 0.759156 0.724074 0.258484
O O4 0.761960 0.472394 0.333496
O O5 0.530510 0.756561 0.091745
O O6 0.616959 0.854133 0.082297
O O7 0.470304 0.772598 0.882934
O O8 0.500000 0.000000 0.000000
O O9 0.902792 0.787935 0.693877
O O10 0.928971 0.003210 0.822341
O O11 0.250000 0.250000 0.500000
O O12 0.178296 0.028938 0.484039
O O13 0.682674 0.263549 0.540383
O O14 0.406618 0.681652 0.682961
O O15 0.448136 0.584475 0.601975
#
# Coordination Sequence:
#
# PCOD8136429 Si02
#       7
#     8   8   8   8   8   8   8
#     4  10  20  34  51  74 103 133 168 209 253 305
#     4  10  21  34  50  75 104 130 165 215 257 294
#     4   9  19  35  52  72  99 133 168 204 250 304
#     4   9  18  34  53  75 103 132 165 208 251 297
#     4  10  21  35  52  75 103 135 170 209 256 308
#     4   9  18  34  54  75 101 134 170 210 252 302
#     4   9  18  34  54  74  99 133 172 207 249 306
#
# _framework density 20.104690000000002
#
# number of rings (size 3 to 8) (size 9 to 14) (size 15 to 20)
#    0.000    2.571    0.000    1.286    0.000    3.429 
#    0.000    6.429    0.000    0.000    0.000    0.000 
#    0.000    0.000    0.000    0.000    0.000    0.000 
#
# Total GULP energy -347064.216527 kJ/mol
# GULP energy per Si atom -12395.150590 kJ/mol
# Density = 2.005893 g / cm^3
# Si number density = 20.104690 Si / 1000 Ang^3
#
#
#
# Elastic Constant Matrix: (Units=GPa)
#
#
# Indices 1 2 3 4 5 6 
#
# 1 37.0246 43.1132 41.1861 0.0000 -21.4847 0.0000
# 2 43.1132 151.7763 80.3047 0.0000 -34.9499 0.0000
# 3 41.1861 80.3047 123.2630 0.0000 -45.2486 0.0000
# 4 0.0000 0.0000 0.0000 41.1627 0.0000 -7.3368
# 5 -21.4847 -34.9499 -45.2486 0.0000 29.1310 0.0000
# 6 0.0000 0.0000 0.0000 -7.3368 0.0000 37.1412
#
#
#
# Elastic Compliance Matrix: (Units=1/GPa)
#
#
# Indices 1 2 3 4 5 6 
#
# 1 0.055099 -0.007663 -0.004364 0.000000 0.024665 0.000000
# 2 -0.007663 0.011368 -0.004452 0.000000 0.001071 0.000000
# 3 -0.004364 -0.004452 0.021706 0.000000 0.025155 0.000000
# 4 0.000000 0.000000 0.000000 0.025180 0.000000 0.004974
# 5 0.024665 0.001071 0.025155 0.000000 0.092876 0.000000
# 6 0.000000 0.000000 0.000000 0.004974 0.000000 0.027907
#
#
# Mechanical properties :
#
#
# Convention : Reuss Voigt Hill
#
# Bulk Modulus (GPa) = 18.11129 71.25242 44.68185
# Shear Modulus (GPa) = 17.51327 31.31764 24.41546
#
# Velocity S-wave (km/s) = 2.95465 3.95109 3.48863
# Velocity P-wave (km/s) = 4.54620 7.50549 6.20485
#
# Compressibility (1/GPa) = 0.05521418
#
# Stress axis : x y z
#
# Youngs Moduli (GPa) = 18.14922 87.96849 46.07125
#
# Poissons Ratio (x) = 0.67407 0.20105
# Poissons Ratio (y) = 0.13907 0.20513
# Poissons Ratio (z) = 0.07920 0.39167
#
# Static dielectric constant tensor:
#      x y z
#    x 3.545180 0.000000 -0.445120 
#    y 0.000000 3.495280 0.000000 
#    z -0.445120 0.000000 4.204820 
# 
# 
# High freq. dielectric constant tensor:
#      x y z
#    x 1.764990 0.000000 -0.027100 
#    y 0.000000 1.777520 0.000000 
#    z -0.027100 0.000000 1.796510 
# 
# From -- ./inp_files/222083.got.cif
#   From: 2010.06.25/outbox.cif.g09.slc.cpg/sg15_112_cif.got.tgz:222083.got - 2010.06.28 07:06:18.
