data_PCOD8136276
_publ_section_title
;
Structure prediction by ZEFSAII (Michael W. Deem and Ramdas Pophale) SiO2 
 PCOD8136276
Probable space group: C 2/C
;
_chemical_formula_sum "Si O2"
_cell_formula_units_Z 48
_cell_length_a 16.090154
_cell_length_b 29.197156
_cell_length_c 10.722336
_cell_angle_alpha 90.000000
_cell_angle_beta 148.571849
_cell_angle_gamma 90.000000
_cell_volume 2626.547726
_symmetry_space_group_name_H-M "C 2/C"
_symmetry_group_IT_number 15
_symmetry_cell_setting 'monoclinic'
loop_
_space_group_symop_operation_xyz
x,y,z
-x,y,1/2-z
-x,-y,-z
x,-y,1/2+z
1/2+x,1/2+y,z
1/2-x,1/2+y,1/2-z
1/2-x,1/2-y,-z
1/2+x,1/2-y,1/2+z
loop_
_atom_site_type_symbol
_atom_site_label
_atom_site_fract_x
_atom_site_fract_y
_atom_site_fract_z
Si Si1 0.612891 0.872431 0.004476
Si Si2 0.595851 0.430290 0.113194
Si Si3 0.000000 0.877956 0.750000
Si Si4 0.762418 0.691097 0.629185
Si Si5 0.544616 0.036197 0.163450
Si Si6 0.500000 0.761908 0.250000
Si Si7 0.126476 0.016427 0.005399
O O1 0.774529 0.896246 0.159348
O O2 0.656472 0.828392 0.142027
O O3 0.500000 0.854144 0.750000
O O4 0.522486 0.913759 0.961696
O O5 0.456939 0.440897 0.032527
O O6 0.512903 0.407356 0.889544
O O7 0.682344 0.477602 0.176713
O O8 0.839656 0.848494 0.567820
O O9 0.636051 0.731973 0.495324
O O10 0.910027 0.706598 0.734023
O O11 0.500000 0.023209 0.250000
O O12 0.735540 0.037771 0.402561
O O13 0.500000 0.000000 0.000000
O O14 0.000000 0.992910 0.750000
#
# Coordination Sequence:
#
# PCOD8136276 Si02
#       7
#     8   8   4   8   8   4   8
#     4  10  20  38  54  78 114 151 186 229 285 334
#     4  10  20  33  52  74 104 146 189 236 274 326
#     4   9  18  34  54  82 110 138 182 230 288 332
#     4   9  19  35  60  83 109 143 170 233 286 352
#     4  11  23  37  53  77 115 157 198 243 283 329
#     4   9  18  38  60  86 112 130 182 228 300 346
#     4  11  21  33  51  72 102 148 198 236 279 321
#
# _framework density 18.274939
#
# number of rings (size 3 to 8) (size 9 to 14) (size 15 to 20)
#    0.000    2.000    2.500    2.000    2.333    1.333 
#    1.500    0.833    0.000    0.000    0.000    0.000 
#    0.000    0.000    0.000    0.000    0.000    0.000 
#
# Total GULP energy -297400.893612 kJ/mol
# GULP energy per Si atom -12391.703900 kJ/mol
# Density = 1.823334 g / cm^3
# Si number density = 18.274939 Si / 1000 Ang^3
#
#
#
# Elastic Constant Matrix: (Units=GPa)
#
#
# Indices 1 2 3 4 5 6 
#
# 1 136.3841 55.6395 58.1443 0.0000 16.3632 0.0000
# 2 55.6395 87.4766 50.3065 0.0000 -0.2978 0.0000
# 3 58.1443 50.3065 119.6211 0.0000 -2.7558 0.0000
# 4 0.0000 0.0000 0.0000 12.7741 0.0000 -3.8612
# 5 16.3632 -0.2978 -2.7558 0.0000 30.4621 0.0000
# 6 0.0000 0.0000 0.0000 -3.8612 0.0000 27.1434
#
#
#
# Elastic Compliance Matrix: (Units=1/GPa)
#
#
# Indices 1 2 3 4 5 6 
#
# 1 0.011960 -0.005536 -0.003642 0.000000 -0.006808 0.000000
# 2 -0.005536 0.017646 -0.004668 0.000000 0.002724 0.000000
# 3 -0.003642 -0.004668 0.012162 0.000000 0.003011 0.000000
# 4 0.000000 0.000000 0.000000 0.081801 0.000000 0.011636
# 5 -0.006808 0.002724 0.003011 0.000000 0.036784 0.000000
# 6 0.000000 0.000000 0.000000 0.011636 0.000000 0.038497
#
#
# Mechanical properties :
#
#
# Convention : Reuss Voigt Hill
#
# Bulk Modulus (GPa) = 71.03501 74.62916 72.83208
# Shear Modulus (GPa) = 21.62309 26.03535 23.82922
#
# Velocity S-wave (km/s) = 3.44351 3.77855 3.61491
# Velocity P-wave (km/s) = 7.40033 7.74352 7.57387
#
# Compressibility (1/GPa) = 0.01407757
#
# Stress axis : x y z
#
# Youngs Moduli (GPa) = 83.60968 56.66929 82.22048
#
# Poissons Ratio (x) = 0.31372 0.29947
# Poissons Ratio (y) = 0.46286 0.38376
# Poissons Ratio (z) = 0.30453 0.26450
#
# Static dielectric constant tensor:
#      x y z
#    x 3.268300 0.000000 0.105330 
#    y 0.000000 3.313310 0.000000 
#    z 0.105330 0.000000 3.847160 
# 
# 
# High freq. dielectric constant tensor:
#      x y z
#    x 1.692890 0.000000 0.010710 
#    y 0.000000 1.690630 0.000000 
#    z 0.010710 0.000000 1.729510 
# 
# From -- ./inp_files/108518.got.cif
#   From: 2010.06.25/outbox.cif.g09.slc.cpg/sg15_55_cif.got.tgz:108518.got - 2010.06.28 07:06:18.
