data_PCOD8136634
_publ_section_title
;
Structure prediction by ZEFSAII (Michael W. Deem and Ramdas Pophale) SiO2 
 PCOD8136634
Probable space group: C 2/C
;
_chemical_formula_sum "Si O2"
_cell_formula_units_Z 52
_cell_length_a 22.105603
_cell_length_b 14.039724
_cell_length_c 13.469549
_cell_angle_alpha 90.000000
_cell_angle_beta 138.310224
_cell_angle_gamma 90.000000
_cell_volume 2780.347332
_symmetry_space_group_name_H-M "C 2/C"
_symmetry_group_IT_number 15
_symmetry_cell_setting 'monoclinic'
loop_
_space_group_symop_operation_xyz
x,y,z
-x,y,1/2-z
-x,-y,-z
x,-y,1/2+z
1/2+x,1/2+y,z
1/2-x,1/2+y,1/2-z
1/2-x,1/2-y,-z
1/2+x,1/2-y,1/2+z
loop_
_atom_site_type_symbol
_atom_site_label
_atom_site_fract_x
_atom_site_fract_y
_atom_site_fract_z
Si Si1 0.879079 0.782447 0.001285
Si Si2 0.780925 0.919285 0.739878
Si Si3 0.047410 0.034875 0.158034
Si Si4 0.500000 0.684223 0.250000
Si Si5 0.233768 0.139379 0.758152
Si Si6 0.812048 0.257790 0.980785
Si Si7 0.580777 0.668297 0.733812
O O1 0.876737 0.782030 0.117781
O O2 0.983057 0.783539 0.086747
O O3 0.822121 0.872725 0.890320
O O4 0.829569 0.685733 0.907188
O O5 0.856430 0.917039 0.746746
O O6 0.699188 0.855683 0.595471
O O7 0.749325 0.026429 0.722108
O O8 0.988897 0.114915 0.141181
O O9 0.061946 0.941154 0.242688
O O10 0.000000 0.000000 0.000000
O O11 0.585608 0.753535 0.353754
O O12 0.209979 0.168911 0.617368
O O13 0.151176 0.173396 0.728727
O O14 0.750000 0.250000 0.000000
#
# Coordination Sequence:
#
# PCOD8136634 Si02
#       7
#     8   8   8   4   8   8   8
#     4  10  20  35  56  83 117 143 190 244 292 349
#     4  10  21  39  54  85 121 148 196 241 294 355
#     4  11  20  32  58  88 115 144 190 251 303 345
#     4  12  22  36  62  86 118 158 198 238 312 350
#     4  10  23  36  60  81 117 157 192 244 303 343
#     4  11  24  39  58  89 120 160 197 251 295 358
#     4  10  20  34  58  87 112 146 193 246 293 346
#
# _framework density 18.7027
#
# number of rings (size 3 to 8) (size 9 to 14) (size 15 to 20)
#    0.000    1.538    3.077    3.231    2.154    0.000 
#    0.000    1.538    0.000    4.615    0.000    0.000 
#    0.000    0.000    0.000    0.000    0.000    0.000 
#
# Total GULP energy -322334.282778 kJ/mol
# GULP energy per Si atom -12397.472415 kJ/mol
# Density = 1.866013 g / cm^3
# Si number density = 18.702700 Si / 1000 Ang^3
#
#
#
# Elastic Constant Matrix: (Units=GPa)
#
#
# Indices 1 2 3 4 5 6 
#
# 1 100.8354 45.7317 51.7444 0.0000 6.2599 0.0000
# 2 45.7317 120.6237 56.9002 0.0000 10.8252 0.0000
# 3 51.7444 56.9002 127.3065 0.0000 9.9638 0.0000
# 4 0.0000 0.0000 0.0000 26.1598 0.0000 2.2368
# 5 6.2599 10.8252 9.9638 0.0000 32.5813 0.0000
# 6 0.0000 0.0000 0.0000 2.2368 0.0000 29.1346
#
#
#
# Elastic Compliance Matrix: (Units=1/GPa)
#
#
# Indices 1 2 3 4 5 6 
#
# 1 0.013437 -0.003171 -0.004021 0.000000 -0.000299 0.000000
# 2 -0.003171 0.011396 -0.003643 0.000000 -0.002063 0.000000
# 3 -0.004021 -0.003643 0.011231 0.000000 -0.001452 0.000000
# 4 0.000000 0.000000 0.000000 0.038479 0.000000 -0.002954
# 5 -0.000299 -0.002063 -0.001452 0.000000 0.031879 0.000000
# 6 0.000000 0.000000 0.000000 -0.002954 0.000000 0.034550
#
#
# Mechanical properties :
#
#
# Convention : Reuss Voigt Hill
#
# Bulk Modulus (GPa) = 69.47124 73.05757 71.26440
# Shear Modulus (GPa) = 29.86113 30.53444 30.19779
#
# Velocity S-wave (km/s) = 4.00011 4.04496 4.02259
# Velocity P-wave (km/s) = 7.65246 7.80788 7.73056
#
# Compressibility (1/GPa) = 0.01439445
#
# Stress axis : x y z
#
# Youngs Moduli (GPa) = 74.42045 87.74912 89.03583
#
# Poissons Ratio (x) = 0.27824 0.35802
# Poissons Ratio (y) = 0.23597 0.32438
# Poissons Ratio (z) = 0.29925 0.31970
#
# Static dielectric constant tensor:
#      x y z
#    x 3.460170 0.000000 0.067620 
#    y 0.000000 3.451520 0.000000 
#    z 0.067620 0.000000 3.554580 
# 
# 
# High freq. dielectric constant tensor:
#      x y z
#    x 1.723170 0.000000 -0.006400 
#    y 0.000000 1.711730 0.000000 
#    z -0.006400 0.000000 1.735000 
# 
# From -- ./inp_files/112788.got.cif
#   From: 2010.06.25/outbox.cif.g09.slc.cpg/sg15_57_cif.got.tgz:112788.got - 2010.06.28 07:06:18.
