data_PCOD8136169
_publ_section_title
;
Structure prediction by ZEFSAII (Michael W. Deem and Ramdas Pophale) SiO2 
 PCOD8136169
Probable space group: C 2/C
;
_chemical_formula_sum "Si O2"
_cell_formula_units_Z 36
_cell_length_a 8.275379
_cell_length_b 17.977575
_cell_length_c 18.724762
_cell_angle_alpha 90.000000
_cell_angle_beta 138.873621
_cell_angle_gamma 90.000000
_cell_volume 1832.220570
_symmetry_space_group_name_H-M "C 2/C"
_symmetry_group_IT_number 15
_symmetry_cell_setting 'monoclinic'
loop_
_space_group_symop_operation_xyz
x,y,z
-x,y,1/2-z
-x,-y,-z
x,-y,1/2+z
1/2+x,1/2+y,z
1/2-x,1/2+y,1/2-z
1/2-x,1/2-y,-z
1/2+x,1/2-y,1/2+z
loop_
_atom_site_type_symbol
_atom_site_label
_atom_site_fract_x
_atom_site_fract_y
_atom_site_fract_z
Si Si1 0.675469 0.410605 0.649595
Si Si2 0.050391 0.278650 0.020874
Si Si3 0.960632 0.330738 0.635213
Si Si4 0.500000 0.043501 0.750000
Si Si5 0.298872 0.854427 0.060359
O O1 0.778870 0.395616 0.603392
O O2 0.382343 0.404231 0.550016
O O3 0.780316 0.345485 0.737578
O O4 0.770593 0.492878 0.701331
O O5 0.852429 0.211637 0.952060
O O6 0.000437 0.333201 0.936903
O O7 0.015284 0.323922 0.082081
O O8 0.330916 0.248380 0.111670
O O9 0.575470 0.094878 0.839838
#
# Coordination Sequence:
#
# PCOD8136169 Si02
#       5
#     8   8   8   4   8
#     4   9  19  35  52  72 102 145 176 208 259 308
#     4   9  18  32  53  82 103 129 167 217 269 307
#     4   8  16  33  54  73 103 135 164 207 266 316
#     4  10  20  34  52  72 104 144 180 214 254 308
#     4  10  20  32  53  79 103 132 177 220 255 309
#
# _framework density 19.648289999999999
#
# number of rings (size 3 to 8) (size 9 to 14) (size 15 to 20)
#    0.000    3.111    0.000    0.667    0.000    8.000 
#    0.000    4.444    0.000   16.000    0.000    0.000 
#    0.000    0.000    0.000    0.000    0.000    0.000 
#
# Total GULP energy -223013.120898 kJ/mol
# GULP energy per Si atom -12389.617828 kJ/mol
# Density = 1.960357 g / cm^3
# Si number density = 19.648290 Si / 1000 Ang^3
#
#
#
# Elastic Constant Matrix: (Units=GPa)
#
#
# Indices 1 2 3 4 5 6 
#
# 1 64.3510 30.2578 46.9697 -0.0008 -13.3815 -0.0015
# 2 30.2578 96.3475 72.3695 -0.0002 -13.5343 -0.0005
# 3 46.9697 72.3695 134.7326 -0.0010 -12.7972 -0.0011
# 4 -0.0008 -0.0002 -0.0010 38.5584 -0.0008 -1.0469
# 5 -13.3815 -13.5343 -12.7972 -0.0008 25.0956 -0.0011
# 6 -0.0015 -0.0005 -0.0011 -1.0469 -0.0011 11.7792
#
#
#
# Elastic Compliance Matrix: (Units=1/GPa)
#
#
# Indices 1 2 3 4 5 6 
#
# 1 0.022457 -0.001026 -0.006508 0.000001 0.008103 0.000003
# 2 -0.001026 0.018027 -0.008884 0.000000 0.004645 0.000000
# 3 -0.006508 -0.008884 0.014374 0.000000 -0.000932 0.000000
# 4 0.000001 0.000000 0.000000 0.025997 0.000001 0.002311
# 5 0.008103 0.004645 -0.000932 0.000001 0.046198 0.000006
# 6 0.000003 0.000000 0.000000 0.002311 0.000006 0.085100
#
#
# Mechanical properties :
#
#
# Convention : Reuss Voigt Hill
#
# Bulk Modulus (GPa) = 45.40878 66.06946 55.73912
# Shear Modulus (GPa) = 19.81518 24.80891 22.31204
#
# Velocity S-wave (km/s) = 3.17912 3.55723 3.37348
# Velocity P-wave (km/s) = 6.05283 7.11132 6.60332
#
# Compressibility (1/GPa) = 0.02202217
#
# Stress axis : x y z
#
# Youngs Moduli (GPa) = 44.52858 55.47302 69.56798
#
# Poissons Ratio (x) = 0.05691 0.45277
# Poissons Ratio (y) = 0.04568 0.61804
# Poissons Ratio (z) = 0.28981 0.49282
#
# Static dielectric constant tensor:
#      x y z
#    x 3.455450 0.000000 0.009510 
#    y 0.000000 3.524430 0.000000 
#    z 0.009510 0.000000 3.636120 
# 
# 
# High freq. dielectric constant tensor:
#      x y z
#    x 1.743610 0.000000 -0.000670 
#    y 0.000000 1.745800 0.000000 
#    z -0.000670 0.000000 1.763860 
# 
# From -- ./inp_files/191434.got.cif
#   From: 2010.06.25/outbox.cif.g09.slc.cpg/sg15_96_cif.got.tgz:191434.got - 2010.06.28 07:06:18.
