data_PCOD8136237
_publ_section_title
;
Structure prediction by ZEFSAII (Michael W. Deem and Ramdas Pophale) SiO2 
 PCOD8136237
Probable space group: C 2/C
;
_chemical_formula_sum "Si O2"
_cell_formula_units_Z 64
_cell_length_a 26.718389
_cell_length_b 13.809590
_cell_length_c 9.318181
_cell_angle_alpha 90.000000
_cell_angle_beta 82.804776
_cell_angle_gamma 90.000000
_cell_volume 3411.054453
_symmetry_space_group_name_H-M "C 2/C"
_symmetry_group_IT_number 15
_symmetry_cell_setting 'monoclinic'
loop_
_space_group_symop_operation_xyz
x,y,z
-x,y,1/2-z
-x,-y,-z
x,-y,1/2+z
1/2+x,1/2+y,z
1/2-x,1/2+y,1/2-z
1/2-x,1/2-y,-z
1/2+x,1/2-y,1/2+z
loop_
_atom_site_type_symbol
_atom_site_label
_atom_site_fract_x
_atom_site_fract_y
_atom_site_fract_z
Si Si1 0.290251 0.228868 0.290534
Si Si2 0.318678 0.066905 0.084072
Si Si3 0.279001 0.451554 0.329802
Si Si4 0.474168 0.857584 0.911428
Si Si5 0.868257 0.274813 0.017989
Si Si6 0.040504 0.570831 0.617273
Si Si7 0.140107 0.574744 0.738645
Si Si8 0.691854 0.393188 0.884300
O O1 0.306390 0.176718 0.135571
O O2 0.284675 0.343514 0.262972
O O3 0.333305 0.205356 0.391971
O O4 0.236824 0.186074 0.359681
O O5 0.278189 0.989261 0.160488
O O6 0.366020 0.024965 0.163085
O O7 0.321314 0.061620 0.910442
O O8 0.297164 0.459889 0.484337
O O9 0.314383 0.530920 0.240825
O O10 0.500000 0.835727 0.750000
O O11 0.449265 0.963364 0.949458
O O12 0.427584 0.785315 0.958702
O O13 0.520174 0.850221 0.009866
O O14 0.847065 0.341086 0.154154
O O15 0.860352 0.164775 0.075357
O O16 0.090101 0.610308 0.674949
O O17 0.000000 0.549518 0.750000
#
# Coordination Sequence:
#
# PCOD8136237 Si02
#       8
#     8   8   8   8   8   8   8   8
#     4  10  21  36  55  80 110 145 186 226 267 320
#     4  11  22  33  53  80 109 151 184 219 266 320
#     4  10  20  37  54  78 112 146 184 226 268 314
#     4  10  21  34  53  75 108 145 181 221 267 327
#     4  11  21  37  53  78 111 147 180 222 271 323
#     4  10  20  33  47  74 110 147 178 214 266 323
#     4  12  22  33  51  77 114 148 182 216 264 326
#     4  10  21  36  58  79 111 146 183 227 272 322
#
# _framework density 18.762526999999999
#
# number of rings (size 3 to 8) (size 9 to 14) (size 15 to 20)
#    0.000    1.500    1.250    6.750    5.250    1.000 
#    0.000    3.125    0.000    0.000    0.000    3.500 
#    0.000    0.125    0.000    0.000    0.000    0.000 
#
# Total GULP energy -396504.572703 kJ/mol
# GULP energy per Si atom -12390.767897 kJ/mol
# Density = 1.871982 g / cm^3
# Si number density = 18.762527 Si / 1000 Ang^3
#
#
#
# Elastic Constant Matrix: (Units=GPa)
#
#
# Indices 1 2 3 4 5 6 
#
# 1 74.6348 39.0952 22.4357 0.0000 -4.7890 0.0000
# 2 39.0952 83.3215 39.6248 0.0000 -6.5366 0.0000
# 3 22.4357 39.6248 92.2669 0.0000 -11.1991 0.0000
# 4 0.0000 0.0000 0.0000 31.6913 0.0000 -5.4633
# 5 -4.7890 -6.5366 -11.1991 0.0000 20.5732 0.0000
# 6 0.0000 0.0000 0.0000 -5.4633 0.0000 20.5765
#
#
#
# Elastic Compliance Matrix: (Units=1/GPa)
#
#
# Indices 1 2 3 4 5 6 
#
# 1 0.017857 -0.007902 -0.000801 0.000000 0.001210 0.000000
# 2 -0.007902 0.018615 -0.005973 0.000000 0.000824 0.000000
# 3 -0.000801 -0.005973 0.014289 0.000000 0.005694 0.000000
# 4 0.000000 0.000000 0.000000 0.033068 0.000000 0.008780
# 5 0.001210 0.000824 0.005694 0.000000 0.052250 0.000000
# 6 0.000000 0.000000 0.000000 0.008780 0.000000 0.050930
#
#
# Mechanical properties :
#
#
# Convention : Reuss Voigt Hill
#
# Bulk Modulus (GPa) = 46.71320 50.28161 48.49741
# Shear Modulus (GPa) = 22.37164 24.50604 23.43884
#
# Velocity S-wave (km/s) = 3.45680 3.61794 3.53829
# Velocity P-wave (km/s) = 6.39404 6.65656 6.52662
#
# Compressibility (1/GPa) = 0.02140723
#
# Stress axis : x y z
#
# Youngs Moduli (GPa) = 56.00189 53.72133 69.98319
#
# Poissons Ratio (x) = 0.42453 0.05609
# Poissons Ratio (y) = 0.44255 0.41799
# Poissons Ratio (z) = 0.04488 0.32086
#
# Static dielectric constant tensor:
#      x y z
#    x 3.325430 0.000000 0.123700 
#    y 0.000000 3.263900 0.000000 
#    z 0.123700 0.000000 3.522230 
# 
# 
# High freq. dielectric constant tensor:
#      x y z
#    x 1.710500 0.000000 0.004870 
#    y 0.000000 1.695130 0.000000 
#    z 0.004870 0.000000 1.747810 
# 
# From -- ./inp_files/69725.got.cif
#   From: 2010.06.25/outbox.cif.g09.slc.cpg/sg15_35_cif.got.tgz:69725.got - 2010.06.28 07:06:18.
