data_PCOD8136967
_publ_section_title
;
Structure prediction by ZEFSAII (Michael W. Deem and Ramdas Pophale) SiO2 
 PCOD8136967
Probable space group: C 2/C
;
_chemical_formula_sum "Si O2"
_cell_formula_units_Z 64
_cell_length_a 10.582385
_cell_length_b 11.886127
_cell_length_c 21.871475
_cell_angle_alpha 90.000000
_cell_angle_beta 89.201061
_cell_angle_gamma 90.000000
_cell_volume 2750.804799
_symmetry_space_group_name_H-M "C 2/C"
_symmetry_group_IT_number 15
_symmetry_cell_setting 'monoclinic'
loop_
_space_group_symop_operation_xyz
x,y,z
-x,y,1/2-z
-x,-y,-z
x,-y,1/2+z
1/2+x,1/2+y,z
1/2-x,1/2+y,1/2-z
1/2-x,1/2-y,-z
1/2+x,1/2-y,1/2+z
loop_
_atom_site_type_symbol
_atom_site_label
_atom_site_fract_x
_atom_site_fract_y
_atom_site_fract_z
Si Si1 0.203984 0.551219 0.655114
Si Si2 0.945314 0.091235 0.588136
Si Si3 0.071065 0.769836 0.665636
Si Si4 0.319185 0.313626 0.366924
Si Si5 0.420211 0.386263 0.956424
Si Si6 0.196046 0.842050 0.779194
Si Si7 0.833368 0.482905 0.061426
Si Si8 0.422050 0.894425 0.937289
O O1 0.324197 0.619954 0.629439
O O2 0.096968 0.637843 0.680204
O O3 0.248047 0.465468 0.707927
O O4 0.156740 0.488736 0.596231
O O5 0.944739 0.165579 0.524501
O O6 0.059373 0.106071 0.635883
O O7 0.958373 0.961841 0.564392
O O8 0.097836 0.788782 0.593688
O O9 0.173291 0.837113 0.706746
O O10 0.932666 0.813165 0.683743
O O11 0.295307 0.252222 0.302337
O O12 0.197196 0.388790 0.386369
O O13 0.365493 0.224984 0.418069
O O14 0.295522 0.462805 0.961595
O O15 0.930139 0.581952 0.082213
O O16 0.902529 0.409146 0.009331
#
# Coordination Sequence:
#
# PCOD8136967 Si02
#       8
#     8   8   8   8   8   8   8   8
#     4  11  22  41  67  92 129 168 216 270 326 395
#     4  10  21  38  63 100 130 170 209 266 334 392
#     4  11  24  42  71  91 124 179 216 267 333 384
#     4  10  22  37  62  85 128 161 210 263 317 378
#     4  10  21  38  62  96 134 166 215 267 323 403
#     4  10  24  47  63  94 126 167 227 270 319 398
#     4  10  20  35  57  90 125 166 207 253 324 384
#     4  10  21  36  56  89 127 164 201 262 316 387
#
# _framework density 23.265919
#
# number of rings (size 3 to 8) (size 9 to 14) (size 15 to 20)
#    0.000    1.750    2.500    1.125    1.750    5.500 
#    0.000    0.000    0.000    0.000    0.000    0.000 
#    0.000    0.000    0.000    0.000    0.000    0.000 
#
# Total GULP energy -396542.349479 kJ/mol
# GULP energy per Si atom -12391.948421 kJ/mol
# Density = 2.321296 g / cm^3
# Si number density = 23.265919 Si / 1000 Ang^3
#
#
#
# Elastic Constant Matrix: (Units=GPa)
#
#
# Indices 1 2 3 4 5 6 
#
# 1 82.0878 16.3629 6.2426 0.0000 7.4218 0.0000
# 2 16.3629 64.4268 4.3507 0.0000 0.7568 0.0000
# 3 6.2426 4.3507 69.8761 0.0000 23.4369 0.0000
# 4 0.0000 0.0000 0.0000 17.6325 0.0000 4.7255
# 5 7.4218 0.7568 23.4369 0.0000 31.4906 0.0000
# 6 0.0000 0.0000 0.0000 4.7255 0.0000 32.2692
#
#
#
# Elastic Compliance Matrix: (Units=1/GPa)
#
#
# Indices 1 2 3 4 5 6 
#
# 1 0.013111 -0.003298 0.000058 0.000000 -0.003054 0.000000
# 2 -0.003298 0.016422 -0.001141 0.000000 0.001232 0.000000
# 3 0.000058 -0.001141 0.019154 0.000000 -0.014241 0.000000
# 4 0.000000 0.000000 0.000000 0.059030 0.000000 -0.008644
# 5 -0.003054 0.001232 -0.014241 0.000000 0.043045 0.000000
# 6 0.000000 0.000000 0.000000 -0.008644 0.000000 0.032255
#
#
# Mechanical properties :
#
#
# Convention : Reuss Voigt Hill
#
# Bulk Modulus (GPa) = 25.04676 30.03367 27.54021
# Shear Modulus (GPa) = 24.37999 28.90743 26.64371
#
# Velocity S-wave (km/s) = 3.24062 3.52871 3.38772
# Velocity P-wave (km/s) = 4.97905 5.43500 5.21201
#
# Compressibility (1/GPa) = 0.03992533
#
# Stress axis : x y z
#
# Youngs Moduli (GPa) = 76.27081 60.89512 52.20976
#
# Poissons Ratio (x) = 0.20083 -0.00305
# Poissons Ratio (y) = 0.25154 0.05957
# Poissons Ratio (z) = -0.00446 0.06948
#
# Static dielectric constant tensor:
#      x y z
#    x 4.361150 0.000000 0.328720 
#    y 0.000000 4.273820 0.000000 
#    z 0.328720 0.000000 4.020950 
# 
# 
# High freq. dielectric constant tensor:
#      x y z
#    x 1.926140 0.000000 0.025520 
#    y 0.000000 1.909910 0.000000 
#    z 0.025520 0.000000 1.898640 
# 
# From -- ./inp_files/268864.got.cif
#   From: 2010.06.25/outbox.cif.g09.slc.cpg/sg15_135_cif.got.tgz:268864.got - 2010.06.28 07:06:18.
