data_PCOD8136311
_publ_section_title
;
Structure prediction by ZEFSAII (Michael W. Deem and Ramdas Pophale) SiO2 
 PCOD8136311
Probable space group: C 2/C
;
_chemical_formula_sum "Si O2"
_cell_formula_units_Z 56
_cell_length_a 16.455082
_cell_length_b 25.469527
_cell_length_c 9.149217
_cell_angle_alpha 90.000000
_cell_angle_beta 54.257850
_cell_angle_gamma 90.000000
_cell_volume 3112.259516
_symmetry_space_group_name_H-M "C 2/C"
_symmetry_group_IT_number 15
_symmetry_cell_setting 'monoclinic'
loop_
_space_group_symop_operation_xyz
x,y,z
-x,y,1/2-z
-x,-y,-z
x,-y,1/2+z
1/2+x,1/2+y,z
1/2-x,1/2+y,1/2-z
1/2-x,1/2-y,-z
1/2+x,1/2-y,1/2+z
loop_
_atom_site_type_symbol
_atom_site_label
_atom_site_fract_x
_atom_site_fract_y
_atom_site_fract_z
Si Si1 0.120078 0.434530 0.126783
Si Si2 0.262717 0.209421 0.355271
Si Si3 0.604097 0.975568 0.840482
Si Si4 0.095277 0.232092 0.333561
Si Si5 0.178384 0.654063 0.763608
Si Si6 0.368693 0.716940 0.534154
Si Si7 0.108300 0.376408 0.636591
O O1 0.163142 0.477128 0.197988
O O2 0.161180 0.377322 0.130352
O O3 0.000000 0.432572 0.250000
O O4 0.160005 0.450369 0.922741
O O5 0.250000 0.250000 0.500000
O O6 0.154151 0.199731 0.396388
O O7 0.334108 0.230848 0.152836
O O8 0.308386 0.155501 0.362715
O O9 0.589401 0.931997 0.731818
O O10 0.500000 0.000000 0.000000
O O11 0.106752 0.294629 0.349055
O O12 0.983767 0.208861 0.457754
O O13 0.144291 0.223169 0.124645
O O14 0.295715 0.669161 0.657737
O O15 0.146953 0.616121 0.930258
O O16 0.000000 0.347017 0.750000
#
# Coordination Sequence:
#
# PCOD8136311 Si02
#       7
#     8   8   8   8   8   8   8
#     4  10  20  33  54  76 110 140 183 225 283 336
#     4  11  21  35  52  85 112 153 200 234 279 348
#     4  10  21  36  53  80 111 148 182 234 282 348
#     4  10  22  38  55  77 120 152 196 241 286 330
#     4  11  21  36  52  84 108 153 196 228 282 348
#     4  10  22  37  55  75 115 151 194 247 279 337
#     4  12  22  34  55  79 118 155 187 230 285 339
#
# _framework density 17.993358000000001
#
# number of rings (size 3 to 8) (size 9 to 14) (size 15 to 20)
#    0.000    1.429    2.857    6.429    6.000    0.000 
#    0.000    0.000    0.000    0.000    0.000    1.000 
#    0.000    0.000    0.000    0.000    0.000    0.000 
#
# Total GULP energy -347027.208513 kJ/mol
# GULP energy per Si atom -12393.828875 kJ/mol
# Density = 1.795240 g / cm^3
# Si number density = 17.993358 Si / 1000 Ang^3
#
#
#
# Elastic Constant Matrix: (Units=GPa)
#
#
# Indices 1 2 3 4 5 6 
#
# 1 110.5368 37.8586 39.8310 0.0000 6.3152 0.0000
# 2 37.8586 79.1956 23.7423 0.0000 -0.4273 0.0000
# 3 39.8310 23.7423 91.1362 0.0000 3.6656 0.0000
# 4 0.0000 0.0000 0.0000 32.5117 0.0000 14.4211
# 5 6.3152 -0.4273 3.6656 0.0000 26.3841 0.0000
# 6 0.0000 0.0000 0.0000 14.4211 0.0000 28.8603
#
#
#
# Elastic Compliance Matrix: (Units=1/GPa)
#
#
# Indices 1 2 3 4 5 6 
#
# 1 0.012234 -0.004651 -0.004037 0.000000 -0.002443 0.000000
# 2 -0.004651 0.015479 -0.002066 0.000000 0.001651 0.000000
# 3 -0.004037 -0.002066 0.013312 0.000000 -0.000917 0.000000
# 4 0.000000 0.000000 0.000000 0.039517 0.000000 -0.019746
# 5 -0.002443 0.001651 -0.000917 0.000000 0.038640 0.000000
# 6 0.000000 0.000000 0.000000 -0.019746 0.000000 0.044517
#
#
# Mechanical properties :
#
#
# Convention : Reuss Voigt Hill
#
# Bulk Modulus (GPa) = 51.23894 53.74804 52.49349
# Shear Modulus (GPa) = 26.08072 29.51367 27.79720
#
# Velocity S-wave (km/s) = 3.81131 4.05440 3.93473
# Velocity P-wave (km/s) = 6.92146 7.20093 7.06258
#
# Compressibility (1/GPa) = 0.01951641
#
# Stress axis : x y z
#
# Youngs Moduli (GPa) = 81.73915 64.60469 75.12020
#
# Poissons Ratio (x) = 0.30050 0.30325
# Poissons Ratio (y) = 0.38019 0.15520
# Poissons Ratio (z) = 0.32997 0.13347
#
# Static dielectric constant tensor:
#      x y z
#    x 3.468670 0.000000 0.354740 
#    y 0.000000 3.258200 0.000000 
#    z 0.354740 0.000000 3.570970 
# 
# 
# High freq. dielectric constant tensor:
#      x y z
#    x 1.686410 0.000000 0.033550 
#    y 0.000000 1.675030 0.000000 
#    z 0.033550 0.000000 1.701940 
# 
# From -- ./inp_files/51327.got.cif
#   From: 2010.06.25/outbox.cif.g09.slc.cpg/sg15_26_cif.got.tgz:51327.got - 2010.06.28 07:06:18.
