data_PCOD8136959
_publ_section_title
;
Structure prediction by ZEFSAII (Michael W. Deem and Ramdas Pophale) SiO2 
 PCOD8136959
Probable space group: C 2/C
;
_chemical_formula_sum "Si O2"
_cell_formula_units_Z 48
_cell_length_a 25.528229
_cell_length_b 9.479243
_cell_length_c 19.725760
_cell_angle_alpha 90.000000
_cell_angle_beta 149.625339
_cell_angle_gamma 90.000000
_cell_volume 2413.681983
_symmetry_space_group_name_H-M "C 2/C"
_symmetry_group_IT_number 15
_symmetry_cell_setting 'monoclinic'
loop_
_space_group_symop_operation_xyz
x,y,z
-x,y,1/2-z
-x,-y,-z
x,-y,1/2+z
1/2+x,1/2+y,z
1/2-x,1/2+y,1/2-z
1/2-x,1/2-y,-z
1/2+x,1/2-y,1/2+z
loop_
_atom_site_type_symbol
_atom_site_label
_atom_site_fract_x
_atom_site_fract_y
_atom_site_fract_z
Si Si1 0.289067 0.974176 0.414981
Si Si2 0.796003 0.204553 0.268434
Si Si3 0.619213 0.179497 0.876822
Si Si4 0.469565 0.881248 0.519594
Si Si5 0.804049 0.313593 0.699401
Si Si6 0.246302 0.890016 0.091400
O O1 0.394723 0.948208 0.492041
O O2 0.235575 0.829830 0.379510
O O3 0.206515 0.058224 0.275722
O O4 0.313815 0.062155 0.509375
O O5 0.912614 0.248628 0.419736
O O6 0.722257 0.189024 0.250666
O O7 0.747892 0.329718 0.169204
O O8 0.500000 0.146357 0.750000
O O9 0.652198 0.168761 0.835123
O O10 0.645104 0.333492 0.937765
O O11 0.572467 0.826107 0.671742
O O12 0.500000 0.000000 0.500000
O O13 0.745597 0.441159 0.595804
#
# Coordination Sequence:
#
# PCOD8136959 Si02
#       6
#     8   8   8   8   8   8
#     4  10  22  37  55  88 119 146 200 246 288 345
#     4  10  20  35  57  88 117 150 193 235 288 355
#     4  10  22  40  61  81 107 159 203 238 283 350
#     4  11  19  34  62  84 113 165 186 231 305 353
#     4  11  20  36  58  87 120 149 189 244 297 344
#     4  10  21  38  59  83 115 151 195 240 286 344
#
# _framework density 19.88663
#
# number of rings (size 3 to 8) (size 9 to 14) (size 15 to 20)
#    0.000    1.667    3.333    2.000    0.000    1.333 
#    0.000   10.833    0.000    0.000    0.000    0.000 
#    0.000    0.000    0.000    0.000    0.000    0.000 
#
# Total GULP energy -297602.339495 kJ/mol
# GULP energy per Si atom -12400.097479 kJ/mol
# Density = 1.984137 g / cm^3
# Si number density = 19.886630 Si / 1000 Ang^3
#
#
#
# Elastic Constant Matrix: (Units=GPa)
#
#
# Indices 1 2 3 4 5 6 
#
# 1 62.9636 18.5891 23.4678 0.0000 0.8269 0.0000
# 2 18.5891 139.0537 53.9668 0.0000 4.8673 0.0000
# 3 23.4678 53.9668 74.2670 0.0000 5.1119 0.0000
# 4 0.0000 0.0000 0.0000 28.5252 0.0000 3.2585
# 5 0.8269 4.8673 5.1119 0.0000 24.4403 0.0000
# 6 0.0000 0.0000 0.0000 3.2585 0.0000 24.1600
#
#
#
# Elastic Compliance Matrix: (Units=1/GPa)
#
#
# Indices 1 2 3 4 5 6 
#
# 1 0.018019 -0.000284 -0.005529 0.000000 0.000603 0.000000
# 2 -0.000284 0.010026 -0.007162 0.000000 -0.000489 0.000000
# 3 -0.005529 -0.007162 0.020602 0.000000 -0.002696 0.000000
# 4 0.000000 0.000000 0.000000 0.035605 0.000000 -0.004802
# 5 0.000603 -0.000489 -0.002696 0.000000 0.041557 0.000000
# 6 0.000000 0.000000 0.000000 -0.004802 0.000000 0.042038
#
#
# Mechanical properties :
#
#
# Convention : Reuss Voigt Hill
#
# Bulk Modulus (GPa) = 44.05932 52.03687 48.04810
# Shear Modulus (GPa) = 24.83070 27.44247 26.13659
#
# Velocity S-wave (km/s) = 3.53741 3.71879 3.62923
# Velocity P-wave (km/s) = 6.23600 6.68302 6.46338
#
# Compressibility (1/GPa) = 0.02269667
#
# Stress axis : x y z
#
# Youngs Moduli (GPa) = 55.49736 99.73839 48.53895
#
# Poissons Ratio (x) = 0.02834 0.26836
# Poissons Ratio (y) = 0.01577 0.34765
# Poissons Ratio (z) = 0.30684 0.71435
#
# Static dielectric constant tensor:
#      x y z
#    x 3.570120 0.000000 0.005920 
#    y 0.000000 3.822310 0.000000 
#    z 0.005920 0.000000 3.601330 
# 
# 
# High freq. dielectric constant tensor:
#      x y z
#    x 1.773810 0.000000 -0.004960 
#    y 0.000000 1.779100 0.000000 
#    z -0.004960 0.000000 1.761100 
# 
# From -- ./inp_files/121372.got.cif
#   From: 2010.06.25/outbox.cif.g09.slc.cpg/sg15_61_cif.got.tgz:121372.got - 2010.06.28 07:06:18.
