data_PCOD8136792
_publ_section_title
;
Structure prediction by ZEFSAII (Michael W. Deem and Ramdas Pophale) SiO2 
 PCOD8136792
Probable space group: C 2/C
;
_chemical_formula_sum "Si O2"
_cell_formula_units_Z 36
_cell_length_a 10.781543
_cell_length_b 18.150507
_cell_length_c 10.936357
_cell_angle_alpha 90.000000
_cell_angle_beta 52.924919
_cell_angle_gamma 90.000000
_cell_volume 1707.503252
_symmetry_space_group_name_H-M "C 2/C"
_symmetry_group_IT_number 15
_symmetry_cell_setting 'monoclinic'
loop_
_space_group_symop_operation_xyz
x,y,z
-x,y,1/2-z
-x,-y,-z
x,-y,1/2+z
1/2+x,1/2+y,z
1/2-x,1/2+y,1/2-z
1/2-x,1/2-y,-z
1/2+x,1/2-y,1/2+z
loop_
_atom_site_type_symbol
_atom_site_label
_atom_site_fract_x
_atom_site_fract_y
_atom_site_fract_z
Si Si1 0.664239 0.320175 0.601351
Si Si2 0.000000 0.798995 0.250000
Si Si3 0.902366 0.334779 0.664648
Si Si4 0.214690 0.392705 0.512598
Si Si5 0.408891 0.472436 0.933019
O O1 0.500000 0.292535 0.750000
O O2 0.750000 0.250000 0.500000
O O3 0.772562 0.350616 0.643172
O O4 0.640455 0.386868 0.517928
O O5 0.039658 0.749693 0.347201
O O6 0.146126 0.850910 0.137278
O O7 0.051848 0.384291 0.536096
O O8 0.818095 0.356593 0.838517
O O9 0.255797 0.478141 0.507011
O O10 0.500000 0.476878 0.750000
O O11 0.500000 0.500000 0.000000
#
# Coordination Sequence:
#
# PCOD8136792 Si02
#       5
#     8   4   8   8   8
#     4  11  27  45  65  96 137 179 219 286 349 412
#     4  10  20  34  70  94 126 184 224 268 338 414
#     4  10  22  39  62  99 140 164 227 285 337 396
#     4  10  20  39  67  97 129 180 227 280 327 413
#     4  11  24  45  71 100 138 183 230 280 348 412
#
# _framework density 21.083414999999999
#
# number of rings (size 3 to 8) (size 9 to 14) (size 15 to 20)
#    0.000    1.778    1.111    5.333    9.333    0.889 
#    4.000    0.000    0.000    0.000    0.000    0.000 
#    0.000    0.000    0.000    0.000    0.000    0.000 
#
# Total GULP energy -223051.958149 kJ/mol
# GULP energy per Si atom -12391.775453 kJ/mol
# Density = 2.103543 g / cm^3
# Si number density = 21.083415 Si / 1000 Ang^3
#
#
#
# Elastic Constant Matrix: (Units=GPa)
#
#
# Indices 1 2 3 4 5 6 
#
# 1 149.3028 49.7556 57.2425 0.0000 -20.9216 0.0000
# 2 49.7556 151.0559 50.3827 0.0000 -19.6145 0.0000
# 3 57.2425 50.3827 98.2312 0.0000 -25.8563 0.0000
# 4 0.0000 0.0000 0.0000 24.0862 0.0000 -9.2295
# 5 -20.9216 -19.6145 -25.8563 0.0000 36.1107 0.0000
# 6 0.0000 0.0000 0.0000 -9.2295 0.0000 27.1376
#
#
#
# Elastic Compliance Matrix: (Units=1/GPa)
#
#
# Indices 1 2 3 4 5 6 
#
# 1 0.008943 -0.001381 -0.004111 0.000000 0.001487 0.000000
# 2 -0.001381 0.008288 -0.003046 0.000000 0.001521 0.000000
# 3 -0.004111 -0.003046 0.016112 0.000000 0.007500 0.000000
# 4 0.000000 0.000000 0.000000 0.047739 0.000000 0.016236
# 5 0.001487 0.001521 0.007500 0.000000 0.034751 0.000000
# 6 0.000000 0.000000 0.000000 0.016236 0.000000 0.042371
#
#
# Mechanical properties :
#
#
# Convention : Reuss Voigt Hill
#
# Bulk Modulus (GPa) = 61.47585 79.26128 70.36857
# Shear Modulus (GPa) = 27.66960 33.54750 30.60855
#
# Velocity S-wave (km/s) = 3.62662 3.99329 3.81436
# Velocity P-wave (km/s) = 6.83799 7.67708 7.26965
#
# Compressibility (1/GPa) = 0.01626655
#
# Stress axis : x y z
#
# Youngs Moduli (GPa) = 111.82209 120.65003 62.06393
#
# Poissons Ratio (x) = 0.16664 0.25517
# Poissons Ratio (y) = 0.15445 0.18904
# Poissons Ratio (z) = 0.45974 0.36749
#
# Static dielectric constant tensor:
#      x y z
#    x 3.850590 0.000000 -0.355050 
#    y 0.000000 4.198750 0.000000 
#    z -0.355050 0.000000 3.767850 
# 
# 
# High freq. dielectric constant tensor:
#      x y z
#    x 1.832790 0.000000 -0.017190 
#    y 0.000000 1.831420 0.000000 
#    z -0.017190 0.000000 1.817280 
# 
# From -- ./inp_files/87041.got.cif
#   From: 2010.06.25/outbox.cif.g09.slc.cpg/sg15_44_cif.got.tgz:87041.got - 2010.06.28 07:06:18.
