data_PCOD8136566
_publ_section_title
;
Structure prediction by ZEFSAII (Michael W. Deem and Ramdas Pophale) SiO2 
 PCOD8136566
Probable space group: C 2/C
;
_chemical_formula_sum "Si O2"
_cell_formula_units_Z 40
_cell_length_a 6.761306
_cell_length_b 22.781414
_cell_length_c 13.865028
_cell_angle_alpha 90.000000
_cell_angle_beta 133.222144
_cell_angle_gamma 90.000000
_cell_volume 1556.263657
_symmetry_space_group_name_H-M "C 2/C"
_symmetry_group_IT_number 15
_symmetry_cell_setting 'monoclinic'
loop_
_space_group_symop_operation_xyz
x,y,z
-x,y,1/2-z
-x,-y,-z
x,-y,1/2+z
1/2+x,1/2+y,z
1/2-x,1/2+y,1/2-z
1/2-x,1/2-y,-z
1/2+x,1/2-y,1/2+z
loop_
_atom_site_type_symbol
_atom_site_label
_atom_site_fract_x
_atom_site_fract_y
_atom_site_fract_z
Si Si1 0.009492 0.824617 0.024131
Si Si2 0.179978 0.493958 0.657278
Si Si3 0.229028 0.628732 0.260243
Si Si4 0.523535 0.809597 0.525108
Si Si5 0.279876 0.880008 0.283579
O O1 0.083113 0.757959 0.023133
O O2 0.248222 0.854903 0.165229
O O3 0.990237 0.862615 0.917440
O O4 0.744911 0.823759 0.003168
O O5 0.500000 0.486388 0.750000
O O6 0.113241 0.436666 0.698680
O O7 0.120077 0.553192 0.695855
O O8 0.000000 0.500000 0.500000
O O9 0.000000 0.660356 0.250000
O O10 0.267253 0.662630 0.171110
O O11 0.503515 0.840965 0.414512
O O12 0.000000 0.878606 0.250000
#
# Coordination Sequence:
#
# PCOD8136566 Si02
#       5
#     8   8   8   8   8
#     4   9  17  27  49  85 113 147 185 252 290 336
#     4  11  23  41  62  83 118 165 198 236 299 363
#     4  10  20  34  56  88 118 146 201 251 291 340
#     4   9  15  29  50  78 118 149 186 236 301 349
#     4   9  17  30  50  75 111 148 189 229 289 348
#
# _framework density 25.702587999999999
#
# number of rings (size 3 to 8) (size 9 to 14) (size 15 to 20)
#    0.000    2.400    2.000    1.200    2.800    5.600 
#    0.000    0.000    0.000    1.200    0.000    0.000 
#    0.000    0.000    0.000    0.000    0.000    0.000 
#
# Total GULP energy -247831.284291 kJ/mol
# GULP energy per Si atom -12391.564215 kJ/mol
# Density = 2.564409 g / cm^3
# Si number density = 25.702588 Si / 1000 Ang^3
#
#
#
# Elastic Constant Matrix: (Units=GPa)
#
#
# Indices 1 2 3 4 5 6 
#
# 1 38.2919 -5.2040 43.1081 0.0000 -18.9567 0.0000
# 2 -5.2040 200.4517 110.1328 0.0000 -30.0427 0.0000
# 3 43.1081 110.1328 270.3743 0.0000 -38.6315 0.0000
# 4 0.0000 0.0000 0.0000 89.3894 0.0000 20.9919
# 5 -18.9567 -30.0427 -38.6315 0.0000 49.8607 0.0000
# 6 0.0000 0.0000 0.0000 20.9919 0.0000 41.4948
#
#
#
# Elastic Compliance Matrix: (Units=1/GPa)
#
#
# Indices 1 2 3 4 5 6 
#
# 1 0.043601 0.007767 -0.007959 0.000000 0.015090 0.000000
# 2 0.007767 0.008007 -0.003810 0.000000 0.004825 0.000000
# 3 -0.007959 -0.003810 0.006476 0.000000 -0.000304 0.000000
# 4 0.000000 0.000000 0.000000 0.012695 0.000000 -0.006422
# 5 0.015090 0.004825 -0.000304 0.000000 0.028464 0.000000
# 6 0.000000 0.000000 0.000000 -0.006422 0.000000 0.027348
#
#
# Mechanical properties :
#
#
# Convention : Reuss Voigt Hill
#
# Bulk Modulus (GPa) = 19.96867 89.46575 54.71721
# Shear Modulus (GPa) = 33.04867 60.22105 46.63486
#
# Velocity S-wave (km/s) = 3.58971 4.84570 4.26420
# Velocity P-wave (km/s) = 4.99673 8.13581 6.75125
#
# Compressibility (1/GPa) = 0.05007846
#
# Stress axis : x y z
#
# Youngs Moduli (GPa) = 22.93501 124.88979 154.41047
#
# Poissons Ratio (x) = -0.96997 1.22900
# Poissons Ratio (y) = -0.17813 0.58837
# Poissons Ratio (z) = 0.18255 0.47588
#
# Static dielectric constant tensor:
#      x y z
#    x 4.186900 0.000000 -0.069890 
#    y 0.000000 4.701740 0.000000 
#    z -0.069890 0.000000 5.216000 
# 
# 
# High freq. dielectric constant tensor:
#      x y z
#    x 2.038580 0.000000 -0.002760 
#    y 0.000000 2.018530 0.000000 
#    z -0.002760 0.000000 2.052730 
# 
# From -- ./inp_files/24570.got.cif
#   From: 2010.06.25/outbox.cif.g09.slc.cpg/sg15_13_cif.got.tgz:24570.got - 2010.06.28 07:06:18.
