data_PCOD8136510
_publ_section_title
;
Structure prediction by ZEFSAII (Michael W. Deem and Ramdas Pophale) SiO2 
 PCOD8136510
Probable space group: C 2/C
;
_chemical_formula_sum "Si O2"
_cell_formula_units_Z 64
_cell_length_a 18.450951
_cell_length_b 18.924002
_cell_length_c 15.241263
_cell_angle_alpha 90.000000
_cell_angle_beta 142.695355
_cell_angle_gamma 90.000000
_cell_volume 3225.248805
_symmetry_space_group_name_H-M "C 2/C"
_symmetry_group_IT_number 15
_symmetry_cell_setting 'monoclinic'
loop_
_space_group_symop_operation_xyz
x,y,z
-x,y,1/2-z
-x,-y,-z
x,-y,1/2+z
1/2+x,1/2+y,z
1/2-x,1/2+y,1/2-z
1/2-x,1/2-y,-z
1/2+x,1/2-y,1/2+z
loop_
_atom_site_type_symbol
_atom_site_label
_atom_site_fract_x
_atom_site_fract_y
_atom_site_fract_z
Si Si1 0.580772 0.134402 0.201845
Si Si2 0.390341 0.363291 0.841513
Si Si3 0.360131 0.385930 0.624764
Si Si4 0.824789 0.650251 0.013264
Si Si5 0.639451 0.543311 0.892221
Si Si6 0.672244 0.368939 0.097319
Si Si7 0.254613 0.247604 0.202469
Si Si8 0.764679 0.972396 0.829641
O O1 0.437973 0.125984 0.062851
O O2 0.630580 0.157247 0.344830
O O3 0.626316 0.198847 0.183864
O O4 0.630948 0.059405 0.214432
O O5 0.336912 0.343720 0.692905
O O6 0.357087 0.300268 0.875020
O O7 0.329750 0.437672 0.808970
O O8 0.531633 0.375300 0.979003
O O9 0.500000 0.394104 0.750000
O O10 0.313161 0.465937 0.588627
O O11 0.304693 0.349653 0.483853
O O12 0.715196 0.595349 0.902694
O O13 0.776522 0.723219 0.924631
O O14 0.500000 0.558678 0.750000
O O15 0.661996 0.555273 0.016283
O O16 0.730956 0.310369 0.214353
O O17 0.736661 0.443182 0.181697
#
# Coordination Sequence:
#
# PCOD8136510 Si02
#       8
#     8   8   8   8   8   8   8   8
#     4   9  20  40  53  76 117 147 178 217 274 339
#     4  10  20  34  55  75 111 146 178 228 284 316
#     4   8  17  34  54  78 105 137 176 227 283 316
#     4  10  20  35  57  78 111 152 174 215 280 324
#     4   9  18  32  54  87 111 134 179 228 273 328
#     4  10  20  34  55  82 107 136 188 235 264 327
#     4  11  22  33  53  82 108 146 188 223 268 326
#     4   9  19  34  57  82 106 140 181 231 273 317
#
# _framework density 19.843430999999999
#
# number of rings (size 3 to 8) (size 9 to 14) (size 15 to 20)
#    0.000    2.500    0.000    2.250    3.500    0.500 
#    4.500    0.625    2.750    0.000    6.500    0.000 
#    0.000    0.000    0.000    0.000    0.000    0.000 
#
# Total GULP energy -396564.291393 kJ/mol
# GULP energy per Si atom -12392.634106 kJ/mol
# Density = 1.979827 g / cm^3
# Si number density = 19.843431 Si / 1000 Ang^3
#
#
#
# Elastic Constant Matrix: (Units=GPa)
#
#
# Indices 1 2 3 4 5 6 
#
# 1 79.0502 40.8996 19.6060 0.0000 9.1579 0.0000
# 2 40.8996 101.0323 23.8623 0.0000 3.0833 0.0000
# 3 19.6060 23.8623 44.3123 0.0000 9.2371 0.0000
# 4 0.0000 0.0000 0.0000 25.1361 0.0000 -6.6838
# 5 9.1579 3.0833 9.2371 0.0000 36.3062 0.0000
# 6 0.0000 0.0000 0.0000 -6.6838 0.0000 33.8974
#
#
#
# Elastic Compliance Matrix: (Units=1/GPa)
#
#
# Indices 1 2 3 4 5 6 
#
# 1 0.016954 -0.005894 -0.003739 0.000000 -0.002825 0.000000
# 2 -0.005894 0.013403 -0.004944 0.000000 0.001606 0.000000
# 3 -0.003739 -0.004944 0.028089 0.000000 -0.005784 0.000000
# 4 0.000000 0.000000 0.000000 0.041985 0.000000 0.008278
# 5 -0.002825 0.001606 -0.005784 0.000000 0.029591 0.000000
# 6 0.000000 0.000000 0.000000 0.008278 0.000000 0.031133
#
#
# Mechanical properties :
#
#
# Convention : Reuss Voigt Hill
#
# Bulk Modulus (GPa) = 34.13883 43.68118 38.91001
# Shear Modulus (GPa) = 24.99082 28.40306 26.69694
#
# Velocity S-wave (km/s) = 3.55265 3.78743 3.67192
# Velocity P-wave (km/s) = 5.83694 6.41770 6.13420
#
# Compressibility (1/GPa) = 0.02929216
#
# Stress axis : x y z
#
# Youngs Moduli (GPa) = 58.98228 74.61222 35.60059
#
# Poissons Ratio (x) = 0.43978 0.13309
# Poissons Ratio (y) = 0.34765 0.17602
# Poissons Ratio (z) = 0.22051 0.36891
#
# Static dielectric constant tensor:
#      x y z
#    x 3.880080 0.000000 -0.209520 
#    y 0.000000 3.509590 0.000000 
#    z -0.209520 0.000000 3.560100 
# 
# 
# High freq. dielectric constant tensor:
#      x y z
#    x 1.781220 0.000000 -0.011470 
#    y 0.000000 1.761770 0.000000 
#    z -0.011470 0.000000 1.754070 
# 
# From -- ./inp_files/163303.got.cif
#   From: 2010.06.25/outbox.cif.g09.slc.cpg/sg15_82_cif.got.tgz:163303.got - 2010.06.28 07:06:18.
