data_PCOD8136578
_publ_section_title
;
Structure prediction by ZEFSAII (Michael W. Deem and Ramdas Pophale) SiO2 
 PCOD8136578
Probable space group: C 2/C
;
_chemical_formula_sum "Si O2"
_cell_formula_units_Z 44
_cell_length_a 5.361727
_cell_length_b 20.533932
_cell_length_c 17.945001
_cell_angle_alpha 90.000000
_cell_angle_beta 71.544218
_cell_angle_gamma 90.000000
_cell_volume 1874.083293
_symmetry_space_group_name_H-M "C 2/C"
_symmetry_group_IT_number 15
_symmetry_cell_setting 'monoclinic'
loop_
_space_group_symop_operation_xyz
x,y,z
-x,y,1/2-z
-x,-y,-z
x,-y,1/2+z
1/2+x,1/2+y,z
1/2-x,1/2+y,1/2-z
1/2-x,1/2-y,-z
1/2+x,1/2-y,1/2+z
loop_
_atom_site_type_symbol
_atom_site_label
_atom_site_fract_x
_atom_site_fract_y
_atom_site_fract_z
Si Si1 0.705537 0.417168 0.005763
Si Si2 0.810062 0.250838 0.201327
Si Si3 0.500000 0.479998 0.250000
Si Si4 0.915106 0.392810 0.134618
Si Si5 0.690028 0.499853 0.378282
Si Si6 0.969056 0.214446 0.028984
O O1 0.921873 0.388408 0.042965
O O2 0.583404 0.481550 0.055774
O O3 0.832183 0.444539 0.915654
O O4 0.499411 0.359075 0.005914
O O5 0.500000 0.248505 0.250000
O O6 0.909527 0.322755 0.171967
O O7 0.000000 0.225723 0.250000
O O8 0.862792 0.207386 0.123389
O O9 0.660469 0.432981 0.181353
O O10 0.657929 0.524873 0.295116
O O11 0.162057 0.431208 0.142723
O O12 0.250000 0.250000 0.000000
O O13 0.750000 0.250000 0.000000
#
# Coordination Sequence:
#
# PCOD8136578 Si02
#       6
#     8   8   4   8   8   8
#     4  10  23  40  63  95 124 170 227 276 334 409
#     4  12  25  42  67 102 137 177 230 287 348 408
#     4  10  20  34  56  92 126 160 216 256 340 402
#     4  11  20  37  65  90 127 168 221 280 333 397
#     4  10  21  39  62  95 128 167 217 278 343 400
#     4  12  25  46  72 100 136 185 234 284 348 415
#
# _framework density 23.478142999999999
#
# number of rings (size 3 to 8) (size 9 to 14) (size 15 to 20)
#    0.000    1.091    2.727    4.364    2.545    0.000 
#    1.636    1.818    0.000    0.000    0.000    0.000 
#    0.000    0.000    0.000    0.000    0.000    0.000 
#
# Total GULP energy -272551.280422 kJ/mol
# GULP energy per Si atom -12388.694565 kJ/mol
# Density = 2.342471 g / cm^3
# Si number density = 23.478143 Si / 1000 Ang^3
#
#
#
# Elastic Constant Matrix: (Units=GPa)
#
#
# Indices 1 2 3 4 5 6 
#
# 1 108.2954 8.7792 49.2398 0.0000 27.2690 0.0000
# 2 8.7792 41.1663 33.7698 0.0000 5.6980 0.0000
# 3 49.2398 33.7698 163.5298 0.0000 53.4216 0.0000
# 4 0.0000 0.0000 0.0000 66.1768 0.0000 7.2105
# 5 27.2690 5.6980 53.4216 0.0000 43.7796 0.0000
# 6 0.0000 0.0000 0.0000 7.2105 0.0000 16.3056
#
#
#
# Elastic Compliance Matrix: (Units=1/GPa)
#
#
# Indices 1 2 3 4 5 6 
#
# 1 0.011275 -0.000298 -0.001749 0.000000 -0.004850 0.000000
# 2 -0.000298 0.030208 -0.008189 0.000000 0.006247 0.000000
# 3 -0.001749 -0.008189 0.012685 0.000000 -0.013324 0.000000
# 4 0.000000 0.000000 0.000000 0.015876 0.000000 -0.007021
# 5 -0.004850 0.006247 -0.013324 0.000000 0.041308 0.000000
# 6 0.000000 0.000000 0.000000 -0.007021 0.000000 0.064433
#
#
# Mechanical properties :
#
#
# Convention : Reuss Voigt Hill
#
# Bulk Modulus (GPa) = 29.67747 55.17435 42.42591
# Shear Modulus (GPa) = 24.09753 39.99926 32.04840
#
# Velocity S-wave (km/s) = 3.20719 4.13204 3.69864
# Velocity P-wave (km/s) = 5.13641 6.80561 6.02906
#
# Compressibility (1/GPa) = 0.03369559
#
# Stress axis : x y z
#
# Youngs Moduli (GPa) = 88.69535 33.10340 78.83034
#
# Poissons Ratio (x) = 0.00988 0.13787
# Poissons Ratio (y) = 0.02647 0.64554
# Poissons Ratio (z) = 0.15512 0.27108
#
# Static dielectric constant tensor:
#      x y z
#    x 4.087090 0.000000 0.308930 
#    y 0.000000 4.084900 0.000000 
#    z 0.308930 0.000000 4.161770 
# 
# 
# High freq. dielectric constant tensor:
#      x y z
#    x 1.920200 0.000000 0.026170 
#    y 0.000000 1.898220 0.000000 
#    z 0.026170 0.000000 1.952660 
# 
# From -- ./inp_files/184797.got.cif
#   From: 2010.06.25/outbox.cif.g09.slc.cpg/sg15_93_cif.got.tgz:184797.got - 2010.06.28 07:06:18.
