data_PCOD8136919
_publ_section_title
;
Structure prediction by ZEFSAII (Michael W. Deem and Ramdas Pophale) SiO2 
 PCOD8136919
Probable space group: C 2/C
;
_chemical_formula_sum "Si O2"
_cell_formula_units_Z 36
_cell_length_a 8.149359
_cell_length_b 28.999760
_cell_length_c 8.004012
_cell_angle_alpha 90.000000
_cell_angle_beta 114.625797
_cell_angle_gamma 90.000000
_cell_volume 1719.541581
_symmetry_space_group_name_H-M "C 2/C"
_symmetry_group_IT_number 15
_symmetry_cell_setting 'monoclinic'
loop_
_space_group_symop_operation_xyz
x,y,z
-x,y,1/2-z
-x,-y,-z
x,-y,1/2+z
1/2+x,1/2+y,z
1/2-x,1/2+y,1/2-z
1/2-x,1/2-y,-z
1/2+x,1/2-y,1/2+z
loop_
_atom_site_type_symbol
_atom_site_label
_atom_site_fract_x
_atom_site_fract_y
_atom_site_fract_z
Si Si1 0.814545 0.481970 0.073013
Si Si2 0.955557 0.597970 0.418019
Si Si3 0.623430 0.200370 0.133894
Si Si4 0.000000 0.249325 0.250000
Si Si5 0.692945 0.432332 0.317818
O O1 0.672695 0.457734 0.133110
O O2 0.000000 0.490746 0.250000
O O3 0.731299 0.529430 0.975088
O O4 0.844985 0.446109 0.934845
O O5 0.143452 0.604277 0.603983
O O6 0.000000 0.585283 0.250000
O O7 0.849068 0.645809 0.383710
O O8 0.500000 0.209734 0.250000
O O9 0.826500 0.219452 0.232140
O O10 0.532456 0.220495 0.928989
O O11 0.500000 0.406691 0.250000
#
# Coordination Sequence:
#
# PCOD8136919 Si02
#       5
#     8   8   8   4   8
#     4  10  20  35  57  75 115 159 196 240 295 348
#     4  10  21  39  57  81 118 154 194 241 296 355
#     4  10  22  42  66  95 125 162 201 253 310 368
#     4  10  22  42  70  92 126 158 208 246 316 372
#     4  11  21  35  54  85 114 155 201 243 294 342
#
# _framework density 20.935813
#
# number of rings (size 3 to 8) (size 9 to 14) (size 15 to 20)
#    0.000    1.778    0.000    6.000    4.667    0.000 
#   10.000    1.111    0.000    0.000    0.000    0.000 
#    0.000    0.000    0.000    0.000    0.000    0.000 
#
# Total GULP energy -222992.634859 kJ/mol
# GULP energy per Si atom -12388.479714 kJ/mol
# Density = 2.088816 g / cm^3
# Si number density = 20.935813 Si / 1000 Ang^3
#
#
#
# Elastic Constant Matrix: (Units=GPa)
#
#
# Indices 1 2 3 4 5 6 
#
# 1 82.2385 2.2408 20.2373 0.0000 6.3283 0.0000
# 2 2.2408 69.5417 27.5570 0.0000 2.1134 0.0000
# 3 20.2373 27.5570 93.0122 0.0000 -11.8305 0.0000
# 4 0.0000 0.0000 0.0000 28.7216 0.0000 -5.7642
# 5 6.3283 2.1134 -11.8305 0.0000 27.7939 0.0000
# 6 0.0000 0.0000 0.0000 -5.7642 0.0000 19.2024
#
#
#
# Elastic Compliance Matrix: (Units=1/GPa)
#
#
# Indices 1 2 3 4 5 6 
#
# 1 0.013461 0.001266 -0.003918 0.000000 -0.004829 0.000000
# 2 0.001266 0.016737 -0.005743 0.000000 -0.004005 0.000000
# 3 -0.003918 -0.005743 0.014246 0.000000 0.007392 0.000000
# 4 0.000000 0.000000 0.000000 0.037049 0.000000 0.011121
# 5 -0.004829 -0.004005 0.007392 0.000000 0.040530 0.000000
# 6 0.000000 0.000000 0.000000 0.011121 0.000000 0.055415
#
#
# Mechanical properties :
#
#
# Convention : Reuss Voigt Hill
#
# Bulk Modulus (GPa) = 36.16422 38.31806 37.24114
# Shear Modulus (GPa) = 24.57654 28.12741 26.35197
#
# Velocity S-wave (km/s) = 3.42994 3.66936 3.55167
# Velocity P-wave (km/s) = 5.74433 6.02451 5.88609
#
# Compressibility (1/GPa) = 0.02765164
#
# Stress axis : x y z
#
# Youngs Moduli (GPa) = 74.28880 59.74885 70.19702
#
# Poissons Ratio (x) = -0.07561 0.27503
# Poissons Ratio (y) = -0.09401 0.40317
# Poissons Ratio (z) = 0.29106 0.34316
#
# Static dielectric constant tensor:
#      x y z
#    x 4.082090 0.000000 -0.228580 
#    y 0.000000 3.625190 0.000000 
#    z -0.228580 0.000000 4.135580 
# 
# 
# High freq. dielectric constant tensor:
#      x y z
#    x 1.820380 0.000000 -0.013960 
#    y 0.000000 1.800660 0.000000 
#    z -0.013960 0.000000 1.837290 
# 
# From -- ./inp_files/24299.got.cif
#   From: 2010.06.25/outbox.cif.g09.slc.cpg/sg15_13_cif.got.tgz:24299.got - 2010.06.28 07:06:18.
