data_PCOD8136597
_publ_section_title
;
Structure prediction by ZEFSAII (Michael W. Deem and Ramdas Pophale) SiO2 
 PCOD8136597
Probable space group: C 2/C
;
_chemical_formula_sum "Si O2"
_cell_formula_units_Z 48
_cell_length_a 14.873756
_cell_length_b 8.352808
_cell_length_c 16.762132
_cell_angle_alpha 90.000000
_cell_angle_beta 73.289062
_cell_angle_gamma 90.000000
_cell_volume 1994.539115
_symmetry_space_group_name_H-M "C 2/C"
_symmetry_group_IT_number 15
_symmetry_cell_setting 'monoclinic'
loop_
_space_group_symop_operation_xyz
x,y,z
-x,y,1/2-z
-x,-y,-z
x,-y,1/2+z
1/2+x,1/2+y,z
1/2-x,1/2+y,1/2-z
1/2-x,1/2-y,-z
1/2+x,1/2-y,1/2+z
loop_
_atom_site_type_symbol
_atom_site_label
_atom_site_fract_x
_atom_site_fract_y
_atom_site_fract_z
Si Si1 0.310852 0.369641 0.431049
Si Si2 0.022983 0.338116 0.910059
Si Si3 0.299751 0.436944 0.683138
Si Si4 0.628097 0.278399 0.242395
Si Si5 0.880790 0.648908 0.575248
Si Si6 0.320704 0.351494 0.034814
O O1 0.250000 0.250000 0.500000
O O2 0.384312 0.284537 0.350870
O O3 0.221829 0.435899 0.400262
O O4 0.362446 0.510509 0.465762
O O5 0.035832 0.277523 0.815215
O O6 0.042380 0.528930 0.907023
O O7 0.095141 0.252485 0.951930
O O8 0.918930 0.302971 0.974298
O O9 0.349116 0.539290 0.738953
O O10 0.210317 0.347045 0.743370
O O11 0.375386 0.309412 0.629624
O O12 0.266741 0.557973 0.620786
O O13 0.250000 0.250000 0.000000
#
# Coordination Sequence:
#
# PCOD8136597 Si02
#       6
#     8   8   8   8   8   8
#     4  11  20  39  60  86 115 158 194 248 293 353
#     4  10  22  37  61  89 115 158 198 246 290 362
#     4  10  21  35  60  85 119 150 197 242 283 364
#     4  10  20  34  57  89 110 154 197 238 288 349
#     4  10  20  39  61  84 121 155 197 237 308 348
#     4  11  21  35  59  88 112 153 202 241 293 348
#
# _framework density 24.065709999999999
#
# number of rings (size 3 to 8) (size 9 to 14) (size 15 to 20)
#    0.000    1.667    5.000    2.000    2.333    2.667 
#    0.000    0.833    0.000    0.000    0.000    0.000 
#    0.000    0.000    0.000    0.000    0.000    0.000 
#
# Total GULP energy -297400.445623 kJ/mol
# GULP energy per Si atom -12391.685234 kJ/mol
# Density = 2.401094 g / cm^3
# Si number density = 24.065710 Si / 1000 Ang^3
#
#
#
# Elastic Constant Matrix: (Units=GPa)
#
#
# Indices 1 2 3 4 5 6 
#
# 1 49.9130 15.0509 35.2269 0.0000 -26.7979 0.0000
# 2 15.0509 116.1236 45.7310 0.0000 -10.5096 0.0000
# 3 35.2269 45.7310 176.1849 0.0000 -18.8903 0.0000
# 4 0.0000 0.0000 0.0000 44.9949 0.0000 -2.4225
# 5 -26.7979 -10.5096 -18.8903 0.0000 43.2964 0.0000
# 6 0.0000 0.0000 0.0000 -2.4225 0.0000 19.4652
#
#
#
# Elastic Compliance Matrix: (Units=1/GPa)
#
#
# Indices 1 2 3 4 5 6 
#
# 1 0.033385 -0.000897 -0.004459 0.000000 0.018500 0.000000
# 2 -0.000897 0.009687 -0.002248 0.000000 0.000816 0.000000
# 3 -0.004459 -0.002248 0.007130 0.000000 -0.000194 0.000000
# 4 0.000000 0.000000 0.000000 0.022375 0.000000 0.002785
# 5 0.018500 0.000816 -0.000194 0.000000 0.034660 0.000000
# 6 0.000000 0.000000 0.000000 0.002785 0.000000 0.051720
#
#
# Mechanical properties :
#
#
# Convention : Reuss Voigt Hill
#
# Bulk Modulus (GPa) = 28.57545 59.35989 43.96767
# Shear Modulus (GPa) = 26.90669 37.96548 32.43609
#
# Velocity S-wave (km/s) = 3.34735 3.97618 3.67524
# Velocity P-wave (km/s) = 5.18068 6.76752 6.02655
#
# Compressibility (1/GPa) = 0.03499508
#
# Stress axis : x y z
#
# Youngs Moduli (GPa) = 29.95395 103.23452 140.25510
#
# Poissons Ratio (x) = 0.09258 0.62535
# Poissons Ratio (y) = 0.02686 0.31523
# Poissons Ratio (z) = 0.13356 0.23202
#
# Static dielectric constant tensor:
#      x y z
#    x 4.980250 0.000000 -0.164530 
#    y 0.000000 4.552350 0.000000 
#    z -0.164530 0.000000 4.722230 
# 
# 
# High freq. dielectric constant tensor:
#      x y z
#    x 1.935190 0.000000 -0.002040 
#    y 0.000000 1.960920 0.000000 
#    z -0.002040 0.000000 1.977770 
# 
# From -- ./inp_files/208972.got.cif
#   From: 2010.06.25/outbox.cif.g09.slc.cpg/sg15_105_cif.got.tgz:208972.got - 2010.06.28 07:06:18.
