data_PCOD8136120
_publ_section_title
;
Structure prediction by ZEFSAII (Michael W. Deem and Ramdas Pophale) SiO2 
 PCOD8136120
Probable space group: C 2/C
;
_chemical_formula_sum "Si O2"
_cell_formula_units_Z 48
_cell_length_a 23.213125
_cell_length_b 15.039565
_cell_length_c 14.327325
_cell_angle_alpha 90.000000
_cell_angle_beta 146.578094
_cell_angle_gamma 90.000000
_cell_volume 2755.039573
_symmetry_space_group_name_H-M "C 2/C"
_symmetry_group_IT_number 15
_symmetry_cell_setting 'monoclinic'
loop_
_space_group_symop_operation_xyz
x,y,z
-x,y,1/2-z
-x,-y,-z
x,-y,1/2+z
1/2+x,1/2+y,z
1/2-x,1/2+y,1/2-z
1/2-x,1/2-y,-z
1/2+x,1/2-y,1/2+z
loop_
_atom_site_type_symbol
_atom_site_label
_atom_site_fract_x
_atom_site_fract_y
_atom_site_fract_z
Si Si1 0.842304 0.682801 0.104132
Si Si2 0.653320 0.988643 0.785651
Si Si3 0.291653 0.170411 0.667780
Si Si4 0.427921 0.835780 0.526250
Si Si5 0.882618 0.701474 0.588860
Si Si6 0.068405 0.542531 0.976634
O O1 0.805679 0.581866 0.082122
O O2 0.951402 0.696842 0.307795
O O3 0.750000 0.750000 0.000000
O O4 0.862330 0.703198 0.023042
O O5 0.614948 0.934713 0.641895
O O6 0.738860 0.064242 0.874957
O O7 0.557762 0.052544 0.693410
O O8 0.380492 0.193717 0.864118
O O9 0.189069 0.225316 0.560037
O O10 0.335498 0.197364 0.627417
O O11 0.413892 0.940602 0.525641
O O12 0.879803 0.607414 0.529538
O O13 0.000000 0.738821 0.750000
#
# Coordination Sequence:
#
# PCOD8136120 Si02
#       6
#     8   8   8   8   8   8
#     4  10  20  31  55  80 103 136 171 217 265 311
#     4   9  17  33  53  78 103 135 175 214 269 309
#     4  10  21  34  50  78 108 138 173 216 262 316
#     4   9  20  35  50  77 108 127 174 219 260 316
#     4  11  21  31  54  79 104 137 175 219 262 308
#     4   9  17  31  56  76 101 133 169 230 262 295
#
# _framework density 17.422618
#
# number of rings (size 3 to 8) (size 9 to 14) (size 15 to 20)
#    0.000    2.333    1.667    2.000    4.667    0.000 
#    0.000    0.000    3.667    0.000    0.000    9.333 
#    0.000    0.000    0.000    0.000    0.000    0.000 
#
# Total GULP energy -297313.224601 kJ/mol
# GULP energy per Si atom -12388.051025 kJ/mol
# Density = 1.738296 g / cm^3
# Si number density = 17.422618 Si / 1000 Ang^3
#
#
#
# Elastic Constant Matrix: (Units=GPa)
#
#
# Indices 1 2 3 4 5 6 
#
# 1 83.1901 38.0784 41.4254 0.0000 2.2911 0.0000
# 2 38.0784 88.0262 60.5773 0.0000 15.3346 0.0000
# 3 41.4254 60.5773 86.5117 0.0000 5.0900 0.0000
# 4 0.0000 0.0000 0.0000 27.9790 0.0000 8.3504
# 5 2.2911 15.3346 5.0900 0.0000 25.2719 0.0000
# 6 0.0000 0.0000 0.0000 8.3504 0.0000 28.0172
#
#
#
# Elastic Compliance Matrix: (Units=1/GPa)
#
#
# Indices 1 2 3 4 5 6 
#
# 1 0.016322 -0.003724 -0.005317 0.000000 0.001851 0.000000
# 2 -0.003724 0.025812 -0.015574 0.000000 -0.012188 0.000000
# 3 -0.005317 -0.015574 0.024719 0.000000 0.004953 0.000000
# 4 0.000000 0.000000 0.000000 0.039231 0.000000 -0.011693
# 5 0.001851 -0.012188 0.004953 0.000000 0.045800 0.000000
# 6 0.000000 0.000000 0.000000 -0.011693 0.000000 0.039177
#
#
# Mechanical properties :
#
#
# Convention : Reuss Voigt Hill
#
# Bulk Modulus (GPa) = 56.74332 59.76556 58.25444
# Shear Modulus (GPa) = 20.31176 24.09677 22.20426
#
# Velocity S-wave (km/s) = 3.41812 3.72300 3.57382
# Velocity P-wave (km/s) = 6.94389 7.27041 7.10903
#
# Compressibility (1/GPa) = 0.01762322
#
# Stress axis : x y z
#
# Youngs Moduli (GPa) = 61.26749 38.74217 40.45545
#
# Poissons Ratio (x) = 0.14428 0.21509
# Poissons Ratio (y) = 0.22816 0.63004
# Poissons Ratio (z) = 0.32575 0.60335
#
# Static dielectric constant tensor:
#      x y z
#    x 3.325310 0.000000 -0.127140 
#    y 0.000000 3.304780 0.000000 
#    z -0.127140 0.000000 3.424660 
# 
# 
# High freq. dielectric constant tensor:
#      x y z
#    x 1.677930 0.000000 -0.023960 
#    y 0.000000 1.655420 0.000000 
#    z -0.023960 0.000000 1.654460 
# 
# From -- ./inp_files/168310.got.cif
#   From: 2010.06.25/outbox.cif.g09.slc.cpg/sg15_85_cif.got.tgz:168310.got - 2010.06.28 07:06:18.
