data_PCOD8136762
_publ_section_title
;
Structure prediction by ZEFSAII (Michael W. Deem and Ramdas Pophale) SiO2 
 PCOD8136762
Probable space group: C 2/C
;
_chemical_formula_sum "Si O2"
_cell_formula_units_Z 64
_cell_length_a 8.766790
_cell_length_b 29.440029
_cell_length_c 14.638637
_cell_angle_alpha 90.000000
_cell_angle_beta 126.696226
_cell_angle_gamma 90.000000
_cell_volume 3029.379339
_symmetry_space_group_name_H-M "C 2/C"
_symmetry_group_IT_number 15
_symmetry_cell_setting 'monoclinic'
loop_
_space_group_symop_operation_xyz
x,y,z
-x,y,1/2-z
-x,-y,-z
x,-y,1/2+z
1/2+x,1/2+y,z
1/2-x,1/2+y,1/2-z
1/2-x,1/2-y,-z
1/2+x,1/2-y,1/2+z
loop_
_atom_site_type_symbol
_atom_site_label
_atom_site_fract_x
_atom_site_fract_y
_atom_site_fract_z
Si Si1 0.511263 0.089859 0.449701
Si Si2 0.212934 0.062310 0.796938
Si Si3 0.638624 0.779726 0.215032
Si Si4 0.944084 0.181977 0.331321
Si Si5 0.146730 0.661604 0.972668
Si Si6 0.821285 0.108217 0.420134
Si Si7 0.200541 0.136048 0.653074
Si Si8 0.185696 0.471585 0.759323
O O1 0.647029 0.060934 0.565936
O O2 0.383706 0.127396 0.454697
O O3 0.632893 0.114325 0.413611
O O4 0.365611 0.055401 0.351041
O O5 0.286517 0.103926 0.761812
O O6 0.000000 0.073177 0.750000
O O7 0.208111 0.016549 0.735681
O O8 0.500000 0.774596 0.250000
O O9 0.687052 0.727569 0.207331
O O10 0.525572 0.802320 0.089491
O O11 0.814181 0.812477 0.308388
O O12 0.818190 0.143930 0.335953
O O13 0.000000 0.166529 0.250000
O O14 0.150205 0.187706 0.452984
O O15 0.149753 0.634734 0.877069
O O16 0.824116 0.058134 0.374598
O O17 0.998422 0.116263 0.549873
O O18 0.000000 0.485578 0.750000
#
# Coordination Sequence:
#
# PCOD8136762 Si02
#       8
#     8   8   8   8   8   8   8   8
#     4  11  22  41  62  91 124 166 203 259 317 374
#     4  12  24  40  64  90 126 160 207 259 321 371
#     4   9  18  34  58  92 122 153 211 256 300 355
#     4  10  20  36  62  90 119 164 208 253 299 366
#     4  10  20  34  63  86 123 161 206 251 308 361
#     4  10  22  43  61  90 130 161 206 256 318 371
#     4  10  21  38  62  93 121 167 202 263 303 372
#     4  10  25  42  61  87 122 164 212 258 308 378
#
# _framework density 21.126438
#
# number of rings (size 3 to 8) (size 9 to 14) (size 15 to 20)
#    0.000    1.750    2.500    1.500    1.750    4.000 
#    0.000    0.625    0.000    9.750    0.000    0.000 
#    0.000    0.000    0.000    0.000    0.000    0.000 
#
# Total GULP energy -396650.414251 kJ/mol
# GULP energy per Si atom -12395.325445 kJ/mol
# Density = 2.107835 g / cm^3
# Si number density = 21.126438 Si / 1000 Ang^3
#
#
#
# Elastic Constant Matrix: (Units=GPa)
#
#
# Indices 1 2 3 4 5 6 
#
# 1 71.4659 48.0996 18.4970 0.0000 -17.6581 0.0000
# 2 48.0996 122.4472 28.6012 0.0000 -12.5004 0.0000
# 3 18.4970 28.6012 78.1530 0.0000 -8.3755 0.0000
# 4 0.0000 0.0000 0.0000 32.5067 0.0000 -1.1472
# 5 -17.6581 -12.5004 -8.3755 0.0000 32.6955 0.0000
# 6 0.0000 0.0000 0.0000 -1.1472 0.0000 25.1824
#
#
#
# Elastic Compliance Matrix: (Units=1/GPa)
#
#
# Indices 1 2 3 4 5 6 
#
# 1 0.021259 -0.007142 -0.001522 0.000000 0.008361 0.000000
# 2 -0.007142 0.011558 -0.002549 0.000000 -0.000091 0.000000
# 3 -0.001522 -0.002549 0.014288 0.000000 0.001864 0.000000
# 4 0.000000 0.000000 0.000000 0.030812 0.000000 0.001404
# 5 0.008361 -0.000091 0.001864 0.000000 0.035544 0.000000
# 6 0.000000 0.000000 0.000000 0.001404 0.000000 0.039774
#
#
# Mechanical properties :
#
#
# Convention : Reuss Voigt Hill
#
# Bulk Modulus (GPa) = 40.51913 51.38461 45.95187
# Shear Modulus (GPa) = 27.19025 29.86816 28.52920
#
# Velocity S-wave (km/s) = 3.59140 3.76411 3.67877
# Velocity P-wave (km/s) = 6.03478 6.57773 6.31210
#
# Compressibility (1/GPa) = 0.02467970
#
# Stress axis : x y z
#
# Youngs Moduli (GPa) = 47.03793 86.51642 69.98737
#
# Poissons Ratio (x) = 0.61791 0.10651
# Poissons Ratio (y) = 0.33595 0.17843
# Poissons Ratio (z) = 0.07158 0.22057
#
# Static dielectric constant tensor:
#      x y z
#    x 3.570560 0.000000 -0.221230 
#    y 0.000000 3.959370 0.000000 
#    z -0.221230 0.000000 4.161040 
# 
# 
# High freq. dielectric constant tensor:
#      x y z
#    x 1.804400 0.000000 -0.014530 
#    y 0.000000 1.821750 0.000000 
#    z -0.014530 0.000000 1.844450 
# 
# From -- ./inp_files/139860.got.cif
#   From: 2010.06.25/outbox.cif.g09.slc.cpg/sg15_70_cif.got.tgz:139860.got - 2010.06.28 07:06:18.
