data_PCOD8136174
_publ_section_title
;
Structure prediction by ZEFSAII (Michael W. Deem and Ramdas Pophale) SiO2 
 PCOD8136174
Probable space group: C 2/C
;
_chemical_formula_sum "Si O2"
_cell_formula_units_Z 44
_cell_length_a 20.750848
_cell_length_b 20.714395
_cell_length_c 13.413291
_cell_angle_alpha 90.000000
_cell_angle_beta 156.176339
_cell_angle_gamma 90.000000
_cell_volume 2328.853376
_symmetry_space_group_name_H-M "C 2/C"
_symmetry_group_IT_number 15
_symmetry_cell_setting 'monoclinic'
loop_
_space_group_symop_operation_xyz
x,y,z
-x,y,1/2-z
-x,-y,-z
x,-y,1/2+z
1/2+x,1/2+y,z
1/2-x,1/2+y,1/2-z
1/2-x,1/2-y,-z
1/2+x,1/2-y,1/2+z
loop_
_atom_site_type_symbol
_atom_site_label
_atom_site_fract_x
_atom_site_fract_y
_atom_site_fract_z
Si Si1 0.000000 0.480672 0.250000
Si Si2 0.944675 0.693219 0.337708
Si Si3 0.429058 0.066709 0.440776
Si Si4 0.812650 0.064586 0.723323
Si Si5 0.575748 0.530869 0.957146
Si Si6 0.232127 0.701826 0.614313
O O1 0.011549 0.432019 0.360513
O O2 0.154007 0.527500 0.460475
O O3 0.989618 0.627426 0.460869
O O4 0.870724 0.744636 0.310546
O O5 0.096176 0.726258 0.497904
O O6 0.819795 0.681743 0.071690
O O7 0.500000 0.000000 0.500000
O O8 0.237209 0.070416 0.164507
O O9 0.783344 0.133613 0.731568
O O10 0.939605 0.075522 0.814104
O O11 0.893256 0.028616 0.928296
O O12 0.500000 0.502337 0.750000
#
# Coordination Sequence:
#
# PCOD8136174 Si02
#       6
#     4   8   8   8   8   8
#     4  10  20  36  58  84 112 146 190 238 280 336
#     4  10  21  34  55  80 109 147 182 232 280 327
#     4  11  21  35  59  83 112 148 188 234 281 332
#     4  10  20  34  54  80 112 142 176 231 274 328
#     4  10  20  32  53  83 109 139 179 225 278 324
#     4  10  20  35  53  79 112 142 187 226 277 337
#
# _framework density 18.893416999999999
#
# number of rings (size 3 to 8) (size 9 to 14) (size 15 to 20)
#    0.000    1.818    0.000    6.545    2.545    0.000 
#    0.000    0.000    2.000    1.091    0.000    0.000 
#    0.000    0.000    0.000    0.000    0.000    0.000 
#
# Total GULP energy -272653.454290 kJ/mol
# GULP energy per Si atom -12393.338831 kJ/mol
# Density = 1.885041 g / cm^3
# Si number density = 18.893417 Si / 1000 Ang^3
#
#
#
# Elastic Constant Matrix: (Units=GPa)
#
#
# Indices 1 2 3 4 5 6 
#
# 1 111.6879 39.9148 50.6069 0.0000 9.1729 0.0000
# 2 39.9148 97.5733 26.4869 0.0000 2.5618 0.0000
# 3 50.6069 26.4869 92.7049 0.0000 2.0097 0.0000
# 4 0.0000 0.0000 0.0000 18.4039 0.0000 5.7182
# 5 9.1729 2.5618 2.0097 0.0000 37.8526 0.0000
# 6 0.0000 0.0000 0.0000 5.7182 0.0000 30.5576
#
#
#
# Elastic Compliance Matrix: (Units=1/GPa)
#
#
# Indices 1 2 3 4 5 6 
#
# 1 0.013268 -0.003694 -0.006130 0.000000 -0.002640 0.000000
# 2 -0.003694 0.012152 -0.001459 0.000000 0.000150 0.000000
# 3 -0.006130 -0.001459 0.014533 0.000000 0.000813 0.000000
# 4 0.000000 0.000000 0.000000 0.057691 0.000000 -0.010796
# 5 -0.002640 0.000150 0.000813 0.000000 0.027005 0.000000
# 6 0.000000 0.000000 0.000000 -0.010796 0.000000 0.034745
#
#
# Mechanical properties :
#
#
# Convention : Reuss Voigt Hill
#
# Bulk Modulus (GPa) = 57.51607 59.55370 58.53488
# Shear Modulus (GPa) = 26.63044 29.69333 28.16189
#
# Velocity S-wave (km/s) = 3.75842 3.96867 3.86497
# Velocity P-wave (km/s) = 7.02444 7.25188 7.13906
#
# Compressibility (1/GPa) = 0.01738645
#
# Stress axis : x y z
#
# Youngs Moduli (GPa) = 75.36748 82.29145 68.81119
#
# Poissons Ratio (x) = 0.30401 0.42184
# Poissons Ratio (y) = 0.27843 0.10036
# Poissons Ratio (z) = 0.46203 0.12002
#
# Static dielectric constant tensor:
#      x y z
#    x 3.917990 0.000000 0.292530 
#    y 0.000000 3.217210 0.000000 
#    z 0.292530 0.000000 3.557320 
# 
# 
# High freq. dielectric constant tensor:
#      x y z
#    x 1.754030 0.000000 0.018890 
#    y 0.000000 1.710710 0.000000 
#    z 0.018890 0.000000 1.720070 
# 
# From -- ./inp_files/174450.got.cif
#   From: 2010.06.25/outbox.cif.g09.slc.cpg/sg15_88_cif.got.tgz:174450.got - 2010.06.28 07:06:18.
