data_PCOD8136823
_publ_section_title
;
Structure prediction by ZEFSAII (Michael W. Deem and Ramdas Pophale) SiO2 
 PCOD8136823
Probable space group: C 2/C
;
_chemical_formula_sum "Si O2"
_cell_formula_units_Z 64
_cell_length_a 21.541829
_cell_length_b 11.167342
_cell_length_c 22.499169
_cell_angle_alpha 90.000000
_cell_angle_beta 142.814497
_cell_angle_gamma 90.000000
_cell_volume 3271.309004
_symmetry_space_group_name_H-M "C 2/C"
_symmetry_group_IT_number 15
_symmetry_cell_setting 'monoclinic'
loop_
_space_group_symop_operation_xyz
x,y,z
-x,y,1/2-z
-x,-y,-z
x,-y,1/2+z
1/2+x,1/2+y,z
1/2-x,1/2+y,1/2-z
1/2-x,1/2-y,-z
1/2+x,1/2-y,1/2+z
loop_
_atom_site_type_symbol
_atom_site_label
_atom_site_fract_x
_atom_site_fract_y
_atom_site_fract_z
Si Si1 0.930212 0.423085 0.882646
Si Si2 0.577029 0.649040 0.104820
Si Si3 0.656785 0.952500 0.076056
Si Si4 0.321628 0.118425 0.512598
Si Si5 0.630048 0.599885 0.599598
Si Si6 0.263927 0.140466 0.596149
Si Si7 0.722048 0.735474 0.770406
Si Si8 0.551474 0.840043 0.180283
O O1 0.857927 0.441389 0.885964
O O2 0.876970 0.323732 0.797971
O O3 0.933633 0.553790 0.855740
O O4 0.046158 0.382476 0.988735
O O5 0.591186 0.505261 0.114123
O O6 0.674024 0.691859 0.141693
O O7 0.576319 0.710933 0.168972
O O8 0.469766 0.681287 0.990490
O O9 0.758096 0.871490 0.167368
O O10 0.680251 0.001041 0.028859
O O11 0.263943 0.084006 0.530042
O O12 0.266049 0.221086 0.432686
O O13 0.435810 0.162098 0.615868
O O14 0.684639 0.566545 0.578321
O O15 0.713620 0.678433 0.698253
O O16 0.377540 0.136071 0.709345
#
# Coordination Sequence:
#
# PCOD8136823 Si02
#       8
#     8   8   8   8   8   8   8   8
#     4  10  21  34  57  84 114 150 186 243 291 337
#     4  11  22  35  53  86 116 149 181 238 300 332
#     4  10  20  35  53  83 119 149 188 241 285 342
#     4  10  23  35  57  83 117 155 193 235 286 341
#     4  11  23  35  54  84 122 147 185 236 292 351
#     4  11  20  37  57  83 116 154 193 235 281 354
#     4  12  20  33  57  86 112 152 187 234 291 342
#     4  11  20  38  58  85 117 150 190 242 285 349
#
# _framework density 19.564033999999999
#
# number of rings (size 3 to 8) (size 9 to 14) (size 15 to 20)
#    0.000    1.250    3.750    3.375    3.500    0.000 
#    0.000    0.000    0.000    3.000    0.000   10.500 
#    0.000    0.000    0.000    0.000    0.000    0.000 
#
# Total GULP energy -396487.062498 kJ/mol
# GULP energy per Si atom -12390.220703 kJ/mol
# Density = 1.951951 g / cm^3
# Si number density = 19.564034 Si / 1000 Ang^3
#
#
#
# Elastic Constant Matrix: (Units=GPa)
#
#
# Indices 1 2 3 4 5 6 
#
# 1 76.1411 31.5481 22.8818 0.0000 -4.4189 0.0000
# 2 31.5481 64.8746 34.9090 0.0000 -3.6210 0.0000
# 3 22.8818 34.9090 121.4876 0.0000 12.0094 0.0000
# 4 0.0000 0.0000 0.0000 36.8239 0.0000 4.7192
# 5 -4.4189 -3.6210 12.0094 0.0000 22.0574 0.0000
# 6 0.0000 0.0000 0.0000 4.7192 0.0000 22.1476
#
#
#
# Elastic Compliance Matrix: (Units=1/GPa)
#
#
# Indices 1 2 3 4 5 6 
#
# 1 0.016706 -0.007233 -0.001354 0.000000 0.002897 0.000000
# 2 -0.007233 0.022199 -0.005531 0.000000 0.005207 0.000000
# 3 -0.001354 -0.005531 0.010772 0.000000 -0.007044 0.000000
# 4 0.000000 0.000000 0.000000 0.027919 0.000000 -0.005949
# 5 0.002897 0.005207 -0.007044 0.000000 0.050607 0.000000
# 6 0.000000 0.000000 0.000000 -0.005949 0.000000 0.046419
#
#
# Mechanical properties :
#
#
# Convention : Reuss Voigt Hill
#
# Bulk Modulus (GPa) = 46.64402 49.02013 47.83207
# Shear Modulus (GPa) = 23.80897 27.75007 25.77952
#
# Velocity S-wave (km/s) = 3.49230 3.77028 3.63395
# Velocity P-wave (km/s) = 6.33680 6.63807 6.48919
#
# Compressibility (1/GPa) = 0.02143898
#
# Stress axis : x y z
#
# Youngs Moduli (GPa) = 59.85986 45.04752 92.83300
#
# Poissons Ratio (x) = 0.32585 0.12572
# Poissons Ratio (y) = 0.43299 0.51346
# Poissons Ratio (z) = 0.08107 0.24916
#
# Static dielectric constant tensor:
#      x y z
#    x 3.298300 0.000000 0.213800 
#    y 0.000000 3.502440 0.000000 
#    z 0.213800 0.000000 3.877800 
# 
# 
# High freq. dielectric constant tensor:
#      x y z
#    x 1.724180 0.000000 0.016050 
#    y 0.000000 1.745140 0.000000 
#    z 0.016050 0.000000 1.785190 
# 
# From -- ./inp_files/252569.got.cif
#   From: 2010.06.25/outbox.cif.g09.slc.cpg/sg15_127_cif.got.tgz:252569.got - 2010.06.28 07:06:18.
