data_PCOD8136358
_publ_section_title
;
Structure prediction by ZEFSAII (Michael W. Deem and Ramdas Pophale) SiO2 
 PCOD8136358
Probable space group: C 2/C
;
_chemical_formula_sum "Si O2"
_cell_formula_units_Z 60
_cell_length_a 18.792109
_cell_length_b 11.080695
_cell_length_c 32.411413
_cell_angle_alpha 90.000000
_cell_angle_beta 153.260619
_cell_angle_gamma 90.000000
_cell_volume 3036.604771
_symmetry_space_group_name_H-M "C 2/C"
_symmetry_group_IT_number 15
_symmetry_cell_setting 'monoclinic'
loop_
_space_group_symop_operation_xyz
x,y,z
-x,y,1/2-z
-x,-y,-z
x,-y,1/2+z
1/2+x,1/2+y,z
1/2-x,1/2+y,1/2-z
1/2-x,1/2-y,-z
1/2+x,1/2-y,1/2+z
loop_
_atom_site_type_symbol
_atom_site_label
_atom_site_fract_x
_atom_site_fract_y
_atom_site_fract_z
Si Si1 0.275475 0.877975 0.536000
Si Si2 0.224944 0.518378 0.081215
Si Si3 0.828197 0.077955 0.296434
Si Si4 0.500000 0.353225 0.250000
Si Si5 0.823691 0.126564 0.054523
Si Si6 0.109206 0.596201 0.108984
Si Si7 0.915501 0.269721 0.786725
Si Si8 0.544527 0.350000 0.108524
O O1 0.250000 0.750000 0.500000
O O2 0.452098 0.876254 0.645928
O O3 0.136691 0.879649 0.499068
O O4 0.262085 0.002482 0.503702
O O5 0.368948 0.425213 0.156820
O O6 0.287393 0.627406 0.084802
O O7 0.194202 0.571609 0.110215
O O8 0.068745 0.453610 0.982095
O O9 0.708869 0.037489 0.197889
O O10 0.754764 0.181952 0.286936
O O11 0.991425 0.124874 0.361126
O O12 0.848158 0.968632 0.339478
O O13 0.598369 0.279408 0.266766
O O14 0.750000 0.250000 0.000000
O O15 0.113264 0.740377 0.117931
O O16 0.964515 0.170487 0.846215
#
# Coordination Sequence:
#
# PCOD8136358 Si02
#       8
#     8   8   8   4   8   8   8   8
#     4   9  17  35  59  82 108 147 194 238 285 342
#     4  11  22  37  58  86 115 147 189 242 299 346
#     4  10  21  36  56  84 114 153 194 234 284 347
#     4  12  22  38  60  86 116 148 198 252 294 342
#     4  11  23  38  59  86 122 159 195 240 293 352
#     4  10  21  35  59  87 114 146 190 243 290 346
#     4  10  20  33  57  83 108 144 194 244 286 337
#     4   9  17  34  56  80 111 147 186 230 285 347
#
# _framework density 19.758908999999999
#
# number of rings (size 3 to 8) (size 9 to 14) (size 15 to 20)
#    0.000    1.867    0.000    7.200    0.000    6.400 
#    0.000    1.333    0.000    4.000    0.000    0.000 
#    0.000    0.000    0.000    0.000    0.000    0.000 
#
# Total GULP energy -371678.117978 kJ/mol
# GULP energy per Si atom -12389.270599 kJ/mol
# Density = 1.971394 g / cm^3
# Si number density = 19.758909 Si / 1000 Ang^3
#
#
#
# Elastic Constant Matrix: (Units=GPa)
#
#
# Indices 1 2 3 4 5 6 
#
# 1 121.2561 49.0864 38.9639 0.0000 5.5472 -0.0001
# 2 49.0864 104.6725 41.0666 0.0000 4.2195 0.0002
# 3 38.9639 41.0666 94.8275 0.0001 18.6545 0.0003
# 4 0.0000 0.0000 0.0001 32.0938 0.0000 -2.6402
# 5 5.5472 4.2195 18.6545 0.0000 29.3298 -0.0001
# 6 -0.0001 0.0002 0.0003 -2.6402 -0.0001 25.3986
#
#
#
# Elastic Compliance Matrix: (Units=1/GPa)
#
#
# Indices 1 2 3 4 5 6 
#
# 1 0.010720 -0.003961 -0.002746 0.000000 0.000289 0.000000
# 2 -0.003961 0.013050 -0.004346 0.000000 0.001636 0.000000
# 3 -0.002746 -0.004346 0.015237 0.000000 -0.008547 0.000000
# 4 0.000000 0.000000 0.000000 0.031427 0.000000 0.003267
# 5 0.000289 0.001636 -0.008547 0.000000 0.039241 0.000000
# 6 0.000000 0.000000 0.000000 0.003267 0.000000 0.039712
#
#
# Mechanical properties :
#
#
# Convention : Reuss Voigt Hill
#
# Bulk Modulus (GPa) = 59.16818 64.33221 61.75020
# Shear Modulus (GPa) = 28.22827 30.14038 29.18433
#
# Velocity S-wave (km/s) = 3.78383 3.90988 3.84737
# Velocity P-wave (km/s) = 7.00713 7.28095 7.14535
#
# Compressibility (1/GPa) = 0.01690098
#
# Stress axis : x y z
#
# Youngs Moduli (GPa) = 93.28534 76.62624 65.62938
#
# Poissons Ratio (x) = 0.30355 0.18022
# Poissons Ratio (y) = 0.36954 0.28521
# Poissons Ratio (z) = 0.25616 0.33300
#
# Static dielectric constant tensor:
#      x y z
#    x 3.677230 0.000000 0.354650 
#    y 0.000000 3.458110 0.000000 
#    z 0.354650 0.000000 3.849650 
# 
# 
# High freq. dielectric constant tensor:
#      x y z
#    x 1.766330 0.000000 0.027580 
#    y 0.000000 1.756570 0.000000 
#    z 0.027580 0.000000 1.769930 
# 
# From -- ./inp_files/316082.got.cif
#   From: 2010.06.25/outbox.cif.g09.slc.cpg/sg15_159_cif.got.tgz:316082.got - 2010.06.28 07:06:18.
