data_PCOD8136640
_publ_section_title
;
Structure prediction by ZEFSAII (Michael W. Deem and Ramdas Pophale) SiO2 
 PCOD8136640
Probable space group: C 2/C
;
_chemical_formula_sum "Si O2"
_cell_formula_units_Z 60
_cell_length_a 16.478007
_cell_length_b 12.091269
_cell_length_c 15.104930
_cell_angle_alpha 90.000000
_cell_angle_beta 95.896417
_cell_angle_gamma 90.000000
_cell_volume 2993.583917
_symmetry_space_group_name_H-M "C 2/C"
_symmetry_group_IT_number 15
_symmetry_cell_setting 'monoclinic'
loop_
_space_group_symop_operation_xyz
x,y,z
-x,y,1/2-z
-x,-y,-z
x,-y,1/2+z
1/2+x,1/2+y,z
1/2-x,1/2+y,1/2-z
1/2-x,1/2-y,-z
1/2+x,1/2-y,1/2+z
loop_
_atom_site_type_symbol
_atom_site_label
_atom_site_fract_x
_atom_site_fract_y
_atom_site_fract_z
Si Si1 0.703171 0.468318 0.392605
Si Si2 0.500000 0.333506 0.250000
Si Si3 0.556364 0.611361 0.425968
Si Si4 0.767545 0.528305 0.098733
Si Si5 0.907833 0.970310 0.382134
Si Si6 0.648672 0.185434 0.931961
Si Si7 0.341664 0.243473 0.192247
Si Si8 0.796107 0.671726 0.377616
O O1 0.611047 0.518512 0.381539
O O2 0.736724 0.457265 0.495610
O O3 0.707546 0.349887 0.347020
O O4 0.763052 0.550570 0.345527
O O5 0.439246 0.408490 0.299652
O O6 0.438855 0.257304 0.184584
O O7 0.461434 0.581959 0.402901
O O8 0.583183 0.609078 0.532004
O O9 0.570947 0.738343 0.393551
O O10 0.686371 0.501671 0.147055
O O11 0.836435 0.431585 0.115767
O O12 0.809461 0.638957 0.136190
O O13 0.724335 0.262185 0.916532
O O14 0.637869 0.161549 0.036032
O O15 0.331441 0.233280 0.296853
#
# Coordination Sequence:
#
# PCOD8136640 Si02
#       8
#     8   4   8   8   8   8   8   8
#     4   9  19  38  56  87 115 154 192 246 282 342
#     4  12  24  36  56  86 124 144 190 240 296 330
#     4   9  17  35  61  84 112 147 195 235 285 336
#     4  10  22  37  60  84 120 154 197 229 292 350
#     4  10  20  34  58  89 110 147 192 245 280 333
#     4   9  17  36  57  83 112 155 187 237 281 353
#     4  12  23  35  59  86 118 153 188 245 289 347
#     4   9  19  32  58  83 113 145 202 232 284 335
#
# _framework density 20.042867000000001
#
# number of rings (size 3 to 8) (size 9 to 14) (size 15 to 20)
#    0.000    2.133    1.333    4.400    3.733    0.000 
#    0.000    0.000    2.933    2.400    0.000    0.000 
#    0.000    0.000    0.000    0.000    0.000    0.000 
#
# Total GULP energy -371764.132596 kJ/mol
# GULP energy per Si atom -12392.137753 kJ/mol
# Density = 1.999725 g / cm^3
# Si number density = 20.042867 Si / 1000 Ang^3
#
#
#
# Elastic Constant Matrix: (Units=GPa)
#
#
# Indices 1 2 3 4 5 6 
#
# 1 52.1896 50.2367 22.1479 0.0000 -7.1528 0.0000
# 2 50.2367 162.5676 38.0504 0.0000 -5.3536 0.0000
# 3 22.1479 38.0504 49.5847 0.0000 -11.6877 0.0000
# 4 0.0000 0.0000 0.0000 25.9172 0.0000 -2.4737
# 5 -7.1528 -5.3536 -11.6877 0.0000 20.9269 0.0000
# 6 0.0000 0.0000 0.0000 -2.4737 0.0000 28.7932
#
#
#
# Elastic Compliance Matrix: (Units=1/GPa)
#
#
# Indices 1 2 3 4 5 6 
#
# 1 0.029791 -0.007552 -0.006411 0.000000 0.004670 0.000000
# 2 -0.007552 0.009453 -0.004514 0.000000 -0.002684 0.000000
# 3 -0.006411 -0.004514 0.029603 0.000000 0.013187 0.000000
# 4 0.000000 0.000000 0.000000 0.038903 0.000000 0.003342
# 5 0.004670 -0.002684 0.013187 0.000000 0.056060 0.000000
# 6 0.000000 0.000000 0.000000 0.003342 0.000000 0.035018
#
#
# Mechanical properties :
#
#
# Convention : Reuss Voigt Hill
#
# Bulk Modulus (GPa) = 31.35312 53.91244 42.63278
# Shear Modulus (GPa) = 20.29129 25.38791 22.83960
#
# Velocity S-wave (km/s) = 3.18527 3.56291 3.37937
# Velocity P-wave (km/s) = 5.40416 6.62440 6.04515
#
# Compressibility (1/GPa) = 0.03189475
#
# Stress axis : x y z
#
# Youngs Moduli (GPa) = 33.56773 105.78726 33.78037
#
# Poissons Ratio (x) = 0.79886 0.21656
# Poissons Ratio (y) = 0.25349 0.15247
# Poissons Ratio (z) = 0.21519 0.47747
#
# Static dielectric constant tensor:
#      x y z
#    x 3.741480 0.000000 -0.109770 
#    y 0.000000 3.785100 0.000000 
#    z -0.109770 0.000000 3.509610 
# 
# 
# High freq. dielectric constant tensor:
#      x y z
#    x 1.755350 0.000000 -0.009750 
#    y 0.000000 1.780430 0.000000 
#    z -0.009750 0.000000 1.776150 
# 
# From -- ./inp_files/160940.got.cif
#   From: 2010.06.25/outbox.cif.g09.slc.cpg/sg15_81_cif.got.tgz:160940.got - 2010.06.28 07:06:18.
