data_PCOD8136195
_publ_section_title
;
Structure prediction by ZEFSAII (Michael W. Deem and Ramdas Pophale) SiO2 
 PCOD8136195
Probable space group: C 2/C
;
_chemical_formula_sum "Si O2"
_cell_formula_units_Z 60
_cell_length_a 15.538003
_cell_length_b 8.953444
_cell_length_c 22.232009
_cell_angle_alpha 90.000000
_cell_angle_beta 99.287636
_cell_angle_gamma 90.000000
_cell_volume 3052.340856
_symmetry_space_group_name_H-M "C 2/C"
_symmetry_group_IT_number 15
_symmetry_cell_setting 'monoclinic'
loop_
_space_group_symop_operation_xyz
x,y,z
-x,y,1/2-z
-x,-y,-z
x,-y,1/2+z
1/2+x,1/2+y,z
1/2-x,1/2+y,1/2-z
1/2-x,1/2-y,-z
1/2+x,1/2-y,1/2+z
loop_
_atom_site_type_symbol
_atom_site_label
_atom_site_fract_x
_atom_site_fract_y
_atom_site_fract_z
Si Si1 0.188580 0.326689 0.676908
Si Si2 0.994032 0.734031 0.148826
Si Si3 0.441761 0.534534 0.936964
Si Si4 0.939582 0.190382 0.332081
Si Si5 0.263464 0.311900 0.435295
Si Si6 0.306412 0.889655 0.257155
Si Si7 0.404279 0.927927 0.149550
Si Si8 0.500000 0.548159 0.750000
O O1 0.086838 0.330214 0.680759
O O2 0.211382 0.320735 0.608546
O O3 0.225132 0.180613 0.713728
O O4 0.232882 0.472574 0.709981
O O5 0.009547 0.828123 0.090159
O O6 0.935051 0.589950 0.129836
O O7 0.952864 0.842928 0.195717
O O8 0.435298 0.387008 0.896024
O O9 0.343237 0.571981 0.945280
O O10 0.500000 0.500000 0.000000
O O11 0.851755 0.282617 0.311040
O O12 0.023287 0.298377 0.342872
O O13 0.937648 0.062704 0.280243
O O14 0.250000 0.250000 0.500000
O O15 0.174193 0.387831 0.403891
O O16 0.376388 0.943258 0.215666
#
# Coordination Sequence:
#
# PCOD8136195 Si02
#       8
#     8   8   8   8   8   8   8   4
#     4  10  23  37  61  89 124 164 195 255 304 371
#     4  10  21  38  60  93 123 160 204 249 310 367
#     4  10  23  44  63  86 123 164 209 257 307 371
#     4  11  21  37  61  90 123 165 203 243 313 371
#     4  10  23  44  65  87 119 162 213 259 313 359
#     4  11  22  36  59  93 128 158 203 244 316 367
#     4  11  21  39  64  91 125 160 201 260 307 374
#     4  10  20  32  56  90 124 160 194 244 298 368
#
# _framework density 19.657046000000001
#
# number of rings (size 3 to 8) (size 9 to 14) (size 15 to 20)
#    0.000    1.600    2.667    1.600    7.467    0.000 
#    2.400    2.667    0.000    0.000    0.000    0.000 
#    0.000    0.000    0.000    0.000    0.000    0.000 
#
# Total GULP energy -371913.270965 kJ/mol
# GULP energy per Si atom -12397.109032 kJ/mol
# Density = 1.961231 g / cm^3
# Si number density = 19.657046 Si / 1000 Ang^3
#
#
#
# Elastic Constant Matrix: (Units=GPa)
#
#
# Indices 1 2 3 4 5 6 
#
# 1 67.7417 32.5231 32.0118 0.0000 7.5773 0.0000
# 2 32.5231 116.0833 52.8044 0.0000 -7.4342 0.0000
# 3 32.0118 52.8044 129.3177 0.0000 0.1134 0.0000
# 4 0.0000 0.0000 0.0000 28.7307 0.0000 1.9446
# 5 7.5773 -7.4342 0.1134 0.0000 25.1084 0.0000
# 6 0.0000 0.0000 0.0000 1.9446 0.0000 28.3673
#
#
#
# Elastic Compliance Matrix: (Units=1/GPa)
#
#
# Indices 1 2 3 4 5 6 
#
# 1 0.019068 -0.004483 -0.002883 0.000000 -0.007069 0.000000
# 2 -0.004483 0.011889 -0.003749 0.000000 0.004890 0.000000
# 3 -0.002883 -0.003749 0.009978 0.000000 -0.000285 0.000000
# 4 0.000000 0.000000 0.000000 0.034968 0.000000 -0.002397
# 5 -0.007069 0.004890 -0.000285 0.000000 0.043410 0.000000
# 6 0.000000 0.000000 0.000000 -0.002397 0.000000 0.035416
#
#
# Mechanical properties :
#
#
# Convention : Reuss Voigt Hill
#
# Bulk Modulus (GPa) = 53.46700 60.86903 57.16801
# Shear Modulus (GPa) = 27.29339 29.49484 28.39411
#
# Velocity S-wave (km/s) = 3.73027 3.87779 3.80475
# Velocity P-wave (km/s) = 6.76847 7.14720 6.96041
#
# Compressibility (1/GPa) = 0.01870313
#
# Stress axis : x y z
#
# Youngs Moduli (GPa) = 52.44500 84.10963 100.22278
#
# Poissons Ratio (x) = 0.37709 0.28896
# Poissons Ratio (y) = 0.23513 0.37576
# Poissons Ratio (z) = 0.15121 0.31534
#
# Static dielectric constant tensor:
#      x y z
#    x 3.515560 0.000000 -0.047570 
#    y 0.000000 3.761950 0.000000 
#    z -0.047570 0.000000 3.565990 
# 
# 
# High freq. dielectric constant tensor:
#      x y z
#    x 1.761160 0.000000 0.001880 
#    y 0.000000 1.773880 0.000000 
#    z 0.001880 0.000000 1.762830 
# 
# From -- ./inp_files/272798.got.cif
#   From: 2010.06.25/outbox.cif.g09.slc.cpg/sg15_137_cif.got.tgz:272798.got - 2010.06.28 07:06:18.
