data_PCOD8136941
_publ_section_title
;
Structure prediction by ZEFSAII (Michael W. Deem and Ramdas Pophale) SiO2 
 PCOD8136941
Probable space group: C 2/C
;
_chemical_formula_sum "Si O2"
_cell_formula_units_Z 48
_cell_length_a 11.003800
_cell_length_b 21.634311
_cell_length_c 10.500007
_cell_angle_alpha 90.000000
_cell_angle_beta 122.675529
_cell_angle_gamma 90.000000
_cell_volume 2104.040304
_symmetry_space_group_name_H-M "C 2/C"
_symmetry_group_IT_number 15
_symmetry_cell_setting 'monoclinic'
loop_
_space_group_symop_operation_xyz
x,y,z
-x,y,1/2-z
-x,-y,-z
x,-y,1/2+z
1/2+x,1/2+y,z
1/2-x,1/2+y,1/2-z
1/2-x,1/2-y,-z
1/2+x,1/2-y,1/2+z
loop_
_atom_site_type_symbol
_atom_site_label
_atom_site_fract_x
_atom_site_fract_y
_atom_site_fract_z
Si Si1 0.832711 0.435704 0.425339
Si Si2 0.821607 0.741851 0.834576
Si Si3 0.869028 0.327619 0.597189
Si Si4 0.574409 0.632690 0.167262
Si Si5 0.211179 0.873212 0.121320
Si Si6 0.330388 0.075759 0.431144
O O1 0.771119 0.386813 0.496151
O O2 0.762149 0.425421 0.247838
O O3 0.794950 0.504710 0.446534
O O4 0.003618 0.420663 0.514544
O O5 0.706894 0.778760 0.855185
O O6 0.912814 0.792957 0.811179
O O7 0.746993 0.695519 0.692483
O O8 0.919261 0.704668 0.992204
O O9 0.000000 0.355460 0.750000
O O10 0.500000 0.605278 0.250000
O O11 0.732873 0.599814 0.254701
O O12 0.463320 0.618674 0.989177
O O13 0.294893 0.882312 0.034630
#
# Coordination Sequence:
#
# PCOD8136941 Si02
#       6
#     8   8   8   8   8   8
#     4  10  22  39  62  88 118 158 202 248 299 357
#     4  10  21  36  57  86 119 156 198 244 299 358
#     4  10  20  35  57  84 115 153 197 245 296 352
#     4  10  22  38  59  87 120 158 200 246 300 354
#     4  10  22  40  61  88 121 157 201 251 301 354
#     4  10  22  39  60  89 120 157 202 248 300 357
#
# _framework density 22.813251999999999
#
# number of rings (size 3 to 8) (size 9 to 14) (size 15 to 20)
#    0.000    2.000    0.000    2.500    0.000   11.333 
#    0.000    3.333    0.000    0.000    0.000    0.000 
#    0.000    0.000    0.000    0.000    0.000    0.000 
#
# Total GULP energy -297335.157092 kJ/mol
# GULP energy per Si atom -12388.964879 kJ/mol
# Density = 2.276133 g / cm^3
# Si number density = 22.813252 Si / 1000 Ang^3
#
#
#
# Elastic Constant Matrix: (Units=GPa)
#
#
# Indices 1 2 3 4 5 6 
#
# 1 50.6163 19.9820 33.8651 0.0000 4.0126 0.0000
# 2 19.9820 141.3529 48.2238 0.0000 1.7351 0.0000
# 3 33.8651 48.2238 163.3040 0.0000 22.8401 0.0000
# 4 0.0000 0.0000 0.0000 31.1006 0.0000 -3.1785
# 5 4.0126 1.7351 22.8401 0.0000 28.6503 0.0000
# 6 0.0000 0.0000 0.0000 -3.1785 0.0000 32.7905
#
#
#
# Elastic Compliance Matrix: (Units=1/GPa)
#
#
# Indices 1 2 3 4 5 6 
#
# 1 0.023362 -0.001822 -0.004349 0.000000 0.000306 0.000000
# 2 -0.001822 0.008071 -0.002220 0.000000 0.001536 0.000000
# 3 -0.004349 -0.002220 0.008528 0.000000 -0.006055 0.000000
# 4 0.000000 0.000000 0.000000 0.032475 0.000000 0.003148
# 5 0.000306 0.001536 -0.006055 0.000000 0.039595 0.000000
# 6 0.000000 0.000000 0.000000 0.003148 0.000000 0.030802
#
#
# Mechanical properties :
#
#
# Convention : Reuss Voigt Hill
#
# Bulk Modulus (GPa) = 43.14721 62.15723 52.65222
# Shear Modulus (GPa) = 29.87905 35.38845 32.63375
#
# Velocity S-wave (km/s) = 3.62294 3.94283 3.78626
# Velocity P-wave (km/s) = 6.03781 6.93059 6.49955
#
# Compressibility (1/GPa) = 0.02317647
#
# Stress axis : x y z
#
# Youngs Moduli (GPa) = 42.80545 123.90477 117.26138
#
# Poissons Ratio (x) = 0.22581 0.50999
# Poissons Ratio (y) = 0.07801 0.26035
# Poissons Ratio (z) = 0.18617 0.27510
#
# Static dielectric constant tensor:
#      x y z
#    x 3.785140 0.000000 0.031770 
#    y 0.000000 4.357700 0.000000 
#    z 0.031770 0.000000 4.499320 
# 
# 
# High freq. dielectric constant tensor:
#      x y z
#    x 1.869790 0.000000 -0.006000 
#    y 0.000000 1.908330 0.000000 
#    z -0.006000 0.000000 1.917880 
# 
# From -- ./inp_files/89788.got.cif
#   From: 2010.06.25/outbox.cif.g09.slc.cpg/sg15_45_cif.got.tgz:89788.got - 2010.06.28 07:06:18.
