data_PCOD8136111
_publ_section_title
;
Structure prediction by ZEFSAII (Michael W. Deem and Ramdas Pophale) SiO2 
 PCOD8136111
Probable space group: C 2/C
;
_chemical_formula_sum "Si O2"
_cell_formula_units_Z 64
_cell_length_a 25.850444
_cell_length_b 11.734276
_cell_length_c 19.550614
_cell_angle_alpha 90.000000
_cell_angle_beta 33.832077
_cell_angle_gamma 90.000000
_cell_volume 3301.819451
_symmetry_space_group_name_H-M "C 2/C"
_symmetry_group_IT_number 15
_symmetry_cell_setting 'monoclinic'
loop_
_space_group_symop_operation_xyz
x,y,z
-x,y,1/2-z
-x,-y,-z
x,-y,1/2+z
1/2+x,1/2+y,z
1/2-x,1/2+y,1/2-z
1/2-x,1/2-y,-z
1/2+x,1/2-y,1/2+z
loop_
_atom_site_type_symbol
_atom_site_label
_atom_site_fract_x
_atom_site_fract_y
_atom_site_fract_z
Si Si1 0.766302 0.489215 0.297195
Si Si2 0.555549 0.498080 0.010459
Si Si3 0.021886 0.193857 0.149220
Si Si4 0.684201 0.229382 0.268015
Si Si5 0.130655 0.283143 0.268869
Si Si6 0.691773 0.166622 0.419004
Si Si7 0.168792 0.421304 0.413252
Si Si8 0.031555 0.251125 0.523705
O O1 0.661784 0.459015 0.387263
O O2 0.774525 0.618126 0.316291
O O3 0.808277 0.399071 0.304754
O O4 0.833260 0.479426 0.158662
O O5 0.508799 0.581042 0.117052
O O6 0.500000 0.500000 0.000000
O O7 0.555183 0.367560 0.035585
O O8 0.000000 0.156808 0.250000
O O9 0.948846 0.287129 0.201184
O O10 0.122270 0.252577 0.037050
O O11 0.693403 0.211794 0.338937
O O12 0.741934 0.338214 0.177309
O O13 0.577558 0.241629 0.365495
O O14 0.202538 0.182025 0.171753
O O15 0.085014 0.259868 0.392925
O O16 0.669264 0.033500 0.460567
O O17 0.072658 0.350586 0.527602
#
# Coordination Sequence:
#
# PCOD8136111 Si02
#       8
#     8   8   8   8   8   8   8   8
#     4  10  20  33  55  86 129 155 192 249 309 360
#     4  12  20  38  62  86 119 160 199 260 303 354
#     4  12  27  42  61  88 121 165 209 246 305 369
#     4  11  19  32  53  93 124 150 192 253 305 357
#     4  11  21  37  58  87 122 162 197 247 308 356
#     4  11  21  37  56  81 125 158 195 248 297 367
#     4  10  20  31  51  87 124 151 189 238 312 358
#     4  11  20  31  58  92 119 151 194 250 304 350
#
# _framework density 19.383251000000001
#
# number of rings (size 3 to 8) (size 9 to 14) (size 15 to 20)
#    0.000    1.000    7.500    1.500    3.500    2.000 
#    0.000    0.000    0.000    0.750    0.000    2.625 
#    0.000    0.000    0.000    0.000    0.000    0.000 
#
# Total GULP energy -396537.229186 kJ/mol
# GULP energy per Si atom -12391.788412 kJ/mol
# Density = 1.933913 g / cm^3
# Si number density = 19.383251 Si / 1000 Ang^3
#
#
#
# Elastic Constant Matrix: (Units=GPa)
#
#
# Indices 1 2 3 4 5 6 
#
# 1 45.5705 25.8569 44.3072 0.0000 -8.5129 0.0000
# 2 25.8569 121.2923 29.8893 -0.0001 4.5162 0.0000
# 3 44.3072 29.8893 74.6533 0.0000 -19.9612 0.0000
# 4 0.0000 -0.0001 0.0000 22.1499 0.0000 -12.7065
# 5 -8.5129 4.5162 -19.9612 0.0000 33.1554 0.0000
# 6 0.0000 0.0000 0.0000 -12.7065 0.0000 23.0831
#
#
#
# Elastic Compliance Matrix: (Units=1/GPa)
#
#
# Indices 1 2 3 4 5 6 
#
# 1 0.054195 -0.003459 -0.032101 0.000000 -0.004940 0.000000
# 2 -0.003459 0.009864 -0.002972 0.000000 -0.004021 0.000000
# 3 -0.032101 -0.002972 0.037594 0.000000 0.014796 0.000000
# 4 0.000000 0.000000 0.000000 0.065983 0.000000 0.036322
# 5 -0.004940 -0.004021 0.014796 0.000000 0.038348 0.000000
# 6 0.000000 0.000000 0.000000 0.036322 0.000000 0.063316
#
#
# Mechanical properties :
#
#
# Convention : Reuss Voigt Hill
#
# Bulk Modulus (GPa) = 40.66826 49.06922 44.86874
# Shear Modulus (GPa) = 14.10202 25.10852 19.60527
#
# Velocity S-wave (km/s) = 2.70021 3.60303 3.18379
# Velocity P-wave (km/s) = 5.54511 6.53294 6.05919
#
# Compressibility (1/GPa) = 0.02458920
#
# Stress axis : x y z
#
# Youngs Moduli (GPa) = 18.45181 101.38047 26.60030
#
# Poissons Ratio (x) = 0.35065 0.85391
# Poissons Ratio (y) = 0.06382 0.07904
# Poissons Ratio (z) = 0.59233 0.30125
#
# Static dielectric constant tensor:
#      x y z
#    x 3.260940 0.000000 -0.538570 
#    y 0.000000 4.235610 0.000000 
#    z -0.538570 0.000000 3.482090 
# 
# 
# High freq. dielectric constant tensor:
#      x y z
#    x 1.701150 0.000000 -0.058380 
#    y 0.000000 1.779930 0.000000 
#    z -0.058380 0.000000 1.733330 
# 
# From -- ./inp_files/257486.got.cif
#   From: 2010.06.25/outbox.cif.g09.slc.cpg/sg15_129_cif.got.tgz:257486.got - 2010.06.28 07:06:18.
