data_PCOD8136063
_publ_section_title
;
Structure prediction by ZEFSAII (Michael W. Deem and Ramdas Pophale) SiO2 
 PCOD8136063
Probable space group: C 2/C
;
_chemical_formula_sum "Si O2"
_cell_formula_units_Z 60
_cell_length_a 25.045268
_cell_length_b 14.297109
_cell_length_c 11.545261
_cell_angle_alpha 90.000000
_cell_angle_beta 51.450553
_cell_angle_gamma 90.000000
_cell_volume 3233.133533
_symmetry_space_group_name_H-M "C 2/C"
_symmetry_group_IT_number 15
_symmetry_cell_setting 'monoclinic'
loop_
_space_group_symop_operation_xyz
x,y,z
-x,y,1/2-z
-x,-y,-z
x,-y,1/2+z
1/2+x,1/2+y,z
1/2-x,1/2+y,1/2-z
1/2-x,1/2-y,-z
1/2+x,1/2-y,1/2+z
loop_
_atom_site_type_symbol
_atom_site_label
_atom_site_fract_x
_atom_site_fract_y
_atom_site_fract_z
Si Si1 0.173402 0.734276 0.731481
Si Si2 0.207441 0.082533 0.501317
Si Si3 0.965313 0.180529 0.054097
Si Si4 0.897223 0.007203 0.024724
Si Si5 0.000000 0.101132 0.250000
Si Si6 0.258843 0.106944 0.031060
Si Si7 0.386251 0.671825 0.691947
Si Si8 0.785533 0.690634 0.225792
O O1 0.093294 0.739667 0.874949
O O2 0.192840 0.822804 0.620556
O O3 0.189625 0.637775 0.641850
O O4 0.220802 0.741583 0.782202
O O5 0.173593 0.046539 0.427731
O O6 0.156162 0.155485 0.632942
O O7 0.272635 0.139158 0.365752
O O8 0.233024 0.998659 0.548896
O O9 0.939679 0.085360 0.032998
O O10 0.983595 0.166690 0.163740
O O11 0.035697 0.207136 0.891605
O O12 0.884049 0.928120 0.135195
O O13 0.936758 0.967141 0.860325
O O14 0.297653 0.117864 0.102572
O O15 0.352385 0.747263 0.652690
#
# Coordination Sequence:
#
# PCOD8136063 Si02
#       8
#     8   8   8   8   4   8   8   8
#     4   9  18  37  54  78 110 140 196 224 279 326
#     4  12  20  35  56  79 112 151 191 229 289 336
#     4  11  21  34  51  85 111 155 181 226 288 341
#     4  11  19  33  50  80 117 147 179 216 279 352
#     4  10  20  26  50  74 112 142 180 210 274 342
#     4   9  20  34  58  78 108 151 193 231 271 327
#     4  11  23  33  53  83 120 146 185 234 285 348
#     4  10  21  37  53  80 110 147 192 238 277 333
#
# _framework density 18.557848
#
# number of rings (size 3 to 8) (size 9 to 14) (size 15 to 20)
#    0.800    0.800    1.333    6.800    3.733    0.000 
#    0.000    0.000    0.000    0.800    0.000    1.867 
#    0.000    0.000    0.000    0.000    0.000    0.000 
#
# Total GULP energy -371833.885589 kJ/mol
# GULP energy per Si atom -12394.462853 kJ/mol
# Density = 1.851561 g / cm^3
# Si number density = 18.557848 Si / 1000 Ang^3
#
#
#
# Elastic Constant Matrix: (Units=GPa)
#
#
# Indices 1 2 3 4 5 6 
#
# 1 83.4005 30.9883 19.7930 0.0000 -15.5584 0.0000
# 2 30.9883 38.9415 30.8938 0.0000 -13.5488 0.0000
# 3 19.7930 30.8938 72.0156 0.0000 -11.7669 0.0000
# 4 0.0000 0.0000 0.0000 4.2538 0.0000 -10.9248
# 5 -15.5584 -13.5488 -11.7669 0.0000 28.5881 0.0000
# 6 0.0000 0.0000 0.0000 -10.9248 0.0000 29.2894
#
#
#
# Elastic Compliance Matrix: (Units=1/GPa)
#
#
# Indices 1 2 3 4 5 6 
#
# 1 0.017464 -0.014112 0.001838 0.000000 0.003573 0.000000
# 2 -0.014112 0.054923 -0.017887 0.000000 0.010987 0.000000
# 3 0.001838 -0.017887 0.021262 0.000000 0.001274 0.000000
# 4 0.000000 0.000000 0.000000 5.588805 0.000000 2.084599
# 5 0.003573 0.010987 0.001274 0.000000 0.042656 0.000000
# 6 0.000000 0.000000 0.000000 2.084599 0.000000 0.811688
#
#
# Mechanical properties :
#
#
# Convention : Reuss Voigt Hill
#
# Bulk Modulus (GPa) = 30.00672 39.74530 34.87601
# Shear Modulus (GPa) = 0.75663 19.93842 10.34753
#
# Velocity S-wave (km/s) = 0.63922 3.28135 2.36388
# Velocity P-wave (km/s) = 4.09258 5.98497 5.12684
#
# Compressibility (1/GPa) = 0.03332587
#
# Stress axis : x y z
#
# Youngs Moduli (GPa) = 57.25974 18.20723 47.03117
#
# Poissons Ratio (x) = 0.25695 -0.08644
# Poissons Ratio (y) = 0.80808 0.84127
# Poissons Ratio (z) = -0.10524 0.32568
#
# Static dielectric constant tensor:
#      x y z
#    x 3.305660 0.000000 -0.087370 
#    y 0.000000 3.059530 0.000000 
#    z -0.087370 0.000000 3.550130 
# 
# 
# High freq. dielectric constant tensor:
#      x y z
#    x 1.706420 0.000000 0.007460 
#    y 0.000000 1.677720 0.000000 
#    z 0.007460 0.000000 1.724310 
# 
# From -- ./inp_files/123133.got.cif
#   From: 2010.06.25/outbox.cif.g09.slc.cpg/sg15_62_cif.got.tgz:123133.got - 2010.06.28 07:06:18.
