data_PCOD8136559
_publ_section_title
;
Structure prediction by ZEFSAII (Michael W. Deem and Ramdas Pophale) SiO2 
 PCOD8136559
Probable space group: C 2/C
;
_chemical_formula_sum "Si O2"
_cell_formula_units_Z 36
_cell_length_a 16.852948
_cell_length_b 19.707642
_cell_length_c 5.116706
_cell_angle_alpha 90.000000
_cell_angle_beta 112.665299
_cell_angle_gamma 90.000000
_cell_volume 1568.177610
_symmetry_space_group_name_H-M "C 2/C"
_symmetry_group_IT_number 15
_symmetry_cell_setting 'monoclinic'
loop_
_space_group_symop_operation_xyz
x,y,z
-x,y,1/2-z
-x,-y,-z
x,-y,1/2+z
1/2+x,1/2+y,z
1/2-x,1/2+y,1/2-z
1/2-x,1/2-y,-z
1/2+x,1/2-y,1/2+z
loop_
_atom_site_type_symbol
_atom_site_label
_atom_site_fract_x
_atom_site_fract_y
_atom_site_fract_z
Si Si1 0.406169 0.030101 0.839638
Si Si2 0.179626 0.819152 0.681984
Si Si3 0.500000 0.848562 0.250000
Si Si4 0.399736 0.457904 0.107018
Si Si5 0.360039 0.761149 0.871937
O O1 0.424256 0.108976 0.802571
O O2 0.356221 0.988151 0.545219
O O3 0.500000 0.000000 0.000000
O O4 0.154917 0.893593 0.553988
O O5 0.282565 0.813258 0.836924
O O6 0.146041 0.765977 0.427509
O O7 0.138408 0.799842 0.910998
O O8 0.550508 0.801651 0.517134
O O9 0.500000 0.438184 0.250000
O O10 0.376481 0.483116 0.368632
#
# Coordination Sequence:
#
# PCOD8136559 Si02
#       5
#     8   8   4   8   8
#     4   8  16  30  46  68 108 134 161 224 259 294
#     4  10  22  42  54  82 120 151 180 238 298 344
#     4  10  20  34  56  86 102 142 202 222 266 348
#     4  10  21  37  61  87 112 147 197 247 289 349
#     4  10  23  36  59  82 117 151 188 231 284 347
#
# _framework density 22.956586000000001
#
# number of rings (size 3 to 8) (size 9 to 14) (size 15 to 20)
#    0.000    2.667    0.000    1.333    3.111    7.111 
#    0.000    6.667    0.000    0.000    0.000    0.000 
#    0.000    0.000    0.000    0.000    0.000    0.000 
#
# Total GULP energy -223016.926595 kJ/mol
# GULP energy per Si atom -12389.829255 kJ/mol
# Density = 2.290434 g / cm^3
# Si number density = 22.956586 Si / 1000 Ang^3
#
#
#
# Elastic Constant Matrix: (Units=GPa)
#
#
# Indices 1 2 3 4 5 6 
#
# 1 23.6379 18.8616 30.3522 0.0000 -0.6652 0.0000
# 2 18.8616 92.0911 30.1751 0.0000 23.9751 0.0000
# 3 30.3522 30.1751 135.1503 0.0000 -10.2092 0.0000
# 4 0.0000 0.0000 0.0000 43.8997 0.0000 3.6838
# 5 -0.6652 23.9751 -10.2092 0.0000 35.8131 0.0000
# 6 0.0000 0.0000 0.0000 3.6838 0.0000 5.3975
#
#
#
# Elastic Compliance Matrix: (Units=1/GPa)
#
#
# Indices 1 2 3 4 5 6 
#
# 1 0.066897 -0.011066 -0.012161 0.000000 0.005184 0.000000
# 2 -0.011066 0.017055 -0.002249 0.000000 -0.012264 0.000000
# 3 -0.012161 -0.002249 0.010965 0.000000 0.004406 0.000000
# 4 0.000000 0.000000 0.000000 0.024163 0.000000 -0.016492
# 5 0.005184 -0.012264 0.004406 0.000000 0.037485 0.000000
# 6 0.000000 0.000000 0.000000 -0.016492 0.000000 0.196527
#
#
# Mechanical properties :
#
#
# Convention : Reuss Voigt Hill
#
# Bulk Modulus (GPa) = 22.74589 45.51746 34.13168
# Shear Modulus (GPa) = 11.94169 28.45475 20.19822
#
# Velocity S-wave (km/s) = 2.28323 3.52448 2.96943
# Velocity P-wave (km/s) = 4.10860 6.03600 5.16303
#
# Compressibility (1/GPa) = 0.04396399
#
# Stress axis : x y z
#
# Youngs Moduli (GPa) = 14.94836 58.63312 91.19627
#
# Poissons Ratio (x) = 0.64885 1.10908
# Poissons Ratio (y) = 0.16542 0.20511
# Poissons Ratio (z) = 0.18179 0.13187
#
# Static dielectric constant tensor:
#      x y z
#    x 2.639190 0.000000 1.889800 
#    y 0.000000 4.041660 0.000000 
#    z 1.889800 0.000000 0.577310 
# 
# 
# High freq. dielectric constant tensor:
#      x y z
#    x 1.861710 0.000000 -0.009950 
#    y 0.000000 1.896680 0.000000 
#    z -0.009950 0.000000 1.936500 
# 
# From -- ./inp_files/9732.got.cif
#   From: 2010.06.25/outbox.cif.g09.slc.cpg/sg15_5_cif.got.tgz:9732.got - 2010.06.28 07:06:18.
