data_PCOD8136663
_publ_section_title
;
Structure prediction by ZEFSAII (Michael W. Deem and Ramdas Pophale) SiO2 
 PCOD8136663
Probable space group: C 2/C
;
_chemical_formula_sum "Si O2"
_cell_formula_units_Z 48
_cell_length_a 21.614572
_cell_length_b 7.902560
_cell_length_c 14.221640
_cell_angle_alpha 90.000000
_cell_angle_beta 94.794647
_cell_angle_gamma 90.000000
_cell_volume 2420.704176
_symmetry_space_group_name_H-M "C 2/C"
_symmetry_group_IT_number 15
_symmetry_cell_setting 'monoclinic'
loop_
_space_group_symop_operation_xyz
x,y,z
-x,y,1/2-z
-x,-y,-z
x,-y,1/2+z
1/2+x,1/2+y,z
1/2-x,1/2+y,1/2-z
1/2-x,1/2-y,-z
1/2+x,1/2-y,1/2+z
loop_
_atom_site_type_symbol
_atom_site_label
_atom_site_fract_x
_atom_site_fract_y
_atom_site_fract_z
Si Si1 0.135202 0.893854 0.562513
Si Si2 0.775115 0.608023 0.887419
Si Si3 0.133678 0.164679 0.849712
Si Si4 0.428815 0.647935 0.261942
Si Si5 0.746523 0.414345 0.059585
Si Si6 0.654370 0.975445 0.274492
O O1 0.192305 0.788376 0.614851
O O2 0.113641 0.832612 0.457025
O O3 0.077741 0.888565 0.626790
O O4 0.171569 0.072305 0.565286
O O5 0.705089 0.617731 0.841274
O O6 0.816694 0.486117 0.825398
O O7 0.775898 0.560072 0.997160
O O8 0.121170 0.352836 0.806544
O O9 0.093638 0.019236 0.795239
O O10 0.500000 0.679483 0.250000
O O11 0.394411 0.821198 0.228759
O O12 0.786914 0.410207 0.158105
O O13 0.750000 0.250000 0.000000
#
# Coordination Sequence:
#
# PCOD8136663 Si02
#       6
#     8   8   8   8   8   8
#     4  10  20  41  61  88 129 152 191 262 307 365
#     4  10  20  34  58  96 125 147 186 252 309 377
#     4  11  21  40  65  89 123 167 195 246 324 367
#     4  11  27  44  59  87 122 165 221 259 288 352
#     4  11  20  32  59  97 124 150 191 242 317 382
#     4  11  22  38  63  88 125 161 202 246 310 372
#
# _framework density 19.828942000000001
#
# number of rings (size 3 to 8) (size 9 to 14) (size 15 to 20)
#    0.000    1.333    3.333    4.000    7.000    1.333 
#    0.000    0.833    0.000    0.000    0.000    0.000 
#    0.000    0.000    0.000    0.000    0.000    0.000 
#
# Total GULP energy -297416.715985 kJ/mol
# GULP energy per Si atom -12392.363166 kJ/mol
# Density = 1.978381 g / cm^3
# Si number density = 19.828942 Si / 1000 Ang^3
#
#
#
# Elastic Constant Matrix: (Units=GPa)
#
#
# Indices 1 2 3 4 5 6 
#
# 1 85.9531 33.5189 54.4856 0.0000 -27.4946 0.0000
# 2 33.5189 99.4231 31.8434 0.0000 -6.4642 0.0000
# 3 54.4856 31.8434 122.2366 0.0000 -23.7635 0.0000
# 4 0.0000 0.0000 0.0000 30.8081 0.0000 6.4085
# 5 -27.4946 -6.4642 -23.7635 0.0000 28.1677 0.0000
# 6 0.0000 0.0000 0.0000 6.4085 0.0000 19.8786
#
#
#
# Elastic Compliance Matrix: (Units=1/GPa)
#
#
# Indices 1 2 3 4 5 6 
#
# 1 0.021969 -0.004612 -0.005536 0.000000 0.015715 0.000000
# 2 -0.004612 0.011942 -0.001672 0.000000 -0.003171 0.000000
# 3 -0.005536 -0.001672 0.011913 0.000000 0.004263 0.000000
# 4 0.000000 0.000000 0.000000 0.034792 0.000000 -0.011216
# 5 0.015715 -0.003171 0.004263 0.000000 0.053710 0.000000
# 6 0.000000 0.000000 0.000000 -0.011216 0.000000 0.053921
#
#
# Mechanical properties :
#
#
# Convention : Reuss Voigt Hill
#
# Bulk Modulus (GPa) = 45.07614 60.81204 52.94409
# Shear Modulus (GPa) = 22.80184 28.28854 25.54519
#
# Velocity S-wave (km/s) = 3.39474 3.78117 3.59315
# Velocity P-wave (km/s) = 6.17637 7.05676 6.63119
#
# Compressibility (1/GPa) = 0.02218469
#
# Stress axis : x y z
#
# Youngs Moduli (GPa) = 45.51916 83.73763 83.94432
#
# Poissons Ratio (x) = 0.38617 0.46470
# Poissons Ratio (y) = 0.20992 0.14035
# Poissons Ratio (z) = 0.25199 0.14000
#
# Static dielectric constant tensor:
#      x y z
#    x 3.287750 0.000000 -0.226550 
#    y 0.000000 3.656160 0.000000 
#    z -0.226550 0.000000 3.675320 
# 
# 
# High freq. dielectric constant tensor:
#      x y z
#    x 1.733580 0.000000 -0.016620 
#    y 0.000000 1.781170 0.000000 
#    z -0.016620 0.000000 1.790230 
# 
# From -- ./inp_files/159741.got.cif
#   From: 2010.06.25/outbox.cif.g09.slc.cpg/sg15_80_cif.got.tgz:159741.got - 2010.06.28 07:06:18.
