data_PCOD8136513
_publ_section_title
;
Structure prediction by ZEFSAII (Michael W. Deem and Ramdas Pophale) SiO2 
 PCOD8136513
Probable space group: C 2/C
;
_chemical_formula_sum "Si O2"
_cell_formula_units_Z 40
_cell_length_a 12.262095
_cell_length_b 13.563656
_cell_length_c 15.279010
_cell_angle_alpha 90.000000
_cell_angle_beta 119.870454
_cell_angle_gamma 90.000000
_cell_volume 2203.599857
_symmetry_space_group_name_H-M "C 2/C"
_symmetry_group_IT_number 15
_symmetry_cell_setting 'monoclinic'
loop_
_space_group_symop_operation_xyz
x,y,z
-x,y,1/2-z
-x,-y,-z
x,-y,1/2+z
1/2+x,1/2+y,z
1/2-x,1/2+y,1/2-z
1/2-x,1/2-y,-z
1/2+x,1/2-y,1/2+z
loop_
_atom_site_type_symbol
_atom_site_label
_atom_site_fract_x
_atom_site_fract_y
_atom_site_fract_z
Si Si1 0.793338 0.728125 0.374597
Si Si2 0.154898 0.116903 0.463176
Si Si3 0.208375 0.103885 0.025540
Si Si4 0.612628 0.300516 0.646848
Si Si5 0.930982 0.706525 0.041465
O O1 0.811590 0.832674 0.430531
O O2 0.756662 0.645356 0.430703
O O3 0.685399 0.740060 0.259554
O O4 0.921829 0.695558 0.377214
O O5 0.017930 0.150237 0.375089
O O6 0.155393 0.000463 0.475496
O O7 0.353996 0.116612 0.054262
O O8 0.194261 0.117985 0.125176
O O9 0.124252 0.188861 0.943710
O O10 0.583995 0.207693 0.570863
#
# Coordination Sequence:
#
# PCOD8136513 Si02
#       5
#     8   8   8   8   8
#     4  10  20  34  55  78 112 144 173 223 266 314
#     4  10  20  35  58  77 111 143 177 223 268 315
#     4   9  18  38  55  80 108 141 179 223 268 313
#     4   9  18  35  55  79 105 141 183 214 260 323
#     4   8  19  36  56  76 113 141 167 231 264 311
#
# _framework density 18.152115999999999
#
# number of rings (size 3 to 8) (size 9 to 14) (size 15 to 20)
#    1.200    1.600    0.000    1.200    0.000    1.600 
#    3.600    2.000   13.200    0.000    0.000    0.000 
#    0.000    0.000    0.000    0.000    0.000    0.000 
#
# Total GULP energy -247841.287738 kJ/mol
# GULP energy per Si atom -12392.064387 kJ/mol
# Density = 1.811080 g / cm^3
# Si number density = 18.152116 Si / 1000 Ang^3
#
#
#
# Elastic Constant Matrix: (Units=GPa)
#
#
# Indices 1 2 3 4 5 6 
#
# 1 125.9217 41.9860 19.5536 0.0000 19.4770 0.0000
# 2 41.9860 49.6045 37.6004 0.0000 11.3279 0.0000
# 3 19.5536 37.6004 83.3540 0.0000 24.6691 0.0000
# 4 0.0000 0.0000 0.0000 11.1799 0.0000 -2.1346
# 5 19.4770 11.3279 24.6691 0.0000 23.5877 0.0000
# 6 0.0000 0.0000 0.0000 -2.1346 0.0000 15.0035
#
#
#
# Elastic Compliance Matrix: (Units=1/GPa)
#
#
# Indices 1 2 3 4 5 6 
#
# 1 0.013077 -0.013220 0.006101 0.000000 -0.010830 0.000000
# 2 -0.013220 0.044001 -0.019876 0.000000 0.010572 0.000000
# 3 0.006101 -0.019876 0.026355 0.000000 -0.023056 0.000000
# 4 0.000000 0.000000 0.000000 0.091944 0.000000 0.013081
# 5 -0.010830 0.010572 -0.023056 0.000000 0.070373 0.000000
# 6 0.000000 0.000000 0.000000 0.013081 0.000000 0.068512
#
#
# Mechanical properties :
#
#
# Convention : Reuss Voigt Hill
#
# Bulk Modulus (GPa) = 33.96415 50.79557 42.37986
# Shear Modulus (GPa) = 13.22517 20.60359 16.91438
#
# Velocity S-wave (km/s) = 2.70214 3.37271 3.05587
# Velocity P-wave (km/s) = 5.33731 6.57350 5.98739
#
# Compressibility (1/GPa) = 0.02944281
#
# Stress axis : x y z
#
# Youngs Moduli (GPa) = 76.46951 22.72679 37.94298
#
# Poissons Ratio (x) = 0.30045 -0.23149
# Poissons Ratio (y) = 1.01093 0.75416
# Poissons Ratio (z) = -0.46653 0.45172
#
# Static dielectric constant tensor:
#      x y z
#    x 3.598660 0.000000 -0.014050 
#    y 0.000000 2.957410 0.000000 
#    z -0.014050 0.000000 2.968650 
# 
# 
# High freq. dielectric constant tensor:
#      x y z
#    x 1.727090 0.000000 0.001290 
#    y 0.000000 1.668260 0.000000 
#    z 0.001290 0.000000 1.671930 
# 
# From -- ./inp_files/143143.got.cif
#   From: 2010.06.25/outbox.cif.g09.slc.cpg/sg15_72_cif.got.tgz:143143.got - 2010.06.28 07:06:18.
