data_PCOD8136870
_publ_section_title
;
Structure prediction by ZEFSAII (Michael W. Deem and Ramdas Pophale) SiO2 
 PCOD8136870
Probable space group: C 2/C
;
_chemical_formula_sum "Si O2"
_cell_formula_units_Z 44
_cell_length_a 20.283508
_cell_length_b 19.332572
_cell_length_c 5.350163
_cell_angle_alpha 90.000000
_cell_angle_beta 102.439005
_cell_angle_gamma 90.000000
_cell_volume 2048.724068
_symmetry_space_group_name_H-M "C 2/C"
_symmetry_group_IT_number 15
_symmetry_cell_setting 'monoclinic'
loop_
_space_group_symop_operation_xyz
x,y,z
-x,y,1/2-z
-x,-y,-z
x,-y,1/2+z
1/2+x,1/2+y,z
1/2-x,1/2+y,1/2-z
1/2-x,1/2-y,-z
1/2+x,1/2-y,1/2+z
loop_
_atom_site_type_symbol
_atom_site_label
_atom_site_fract_x
_atom_site_fract_y
_atom_site_fract_z
Si Si1 0.079266 0.314795 0.050703
Si Si2 0.807388 0.075305 0.741518
Si Si3 0.136386 0.921132 0.711907
Si Si4 0.000000 0.133171 0.250000
Si Si5 0.348310 0.042960 0.894655
Si Si6 0.934637 0.258597 0.960128
O O1 0.100875 0.393623 0.045059
O O2 0.109167 0.279437 0.329452
O O3 0.106337 0.270344 0.831671
O O4 0.998220 0.311119 0.997423
O O5 0.835983 0.115125 0.519931
O O6 0.727612 0.070364 0.656863
O O7 0.842657 0.000776 0.789969
O O8 0.828678 0.114670 0.015309
O O9 0.055379 0.914697 0.659856
O O10 0.036758 0.180701 0.489142
O O11 0.362255 0.005045 0.644682
#
# Coordination Sequence:
#
# PCOD8136870 Si02
#       6
#     8   8   8   4   8   8
#     4   9  19  35  59  78 112 150 181 231 287 314
#     4  10  20  36  51  81 126 141 178 231 278 324
#     4  10  20  35  55  84 113 150 178 232 271 343
#     4  10  22  36  66  82 106 156 194 218 292 330
#     4  12  20  35  60  86 108 160 183 216 282 355
#     4   9  20  40  53  79 115 143 187 248 267 314
#
# _framework density 21.476780000000002
#
# number of rings (size 3 to 8) (size 9 to 14) (size 15 to 20)
#    0.000    2.182    3.636    1.091    0.000    9.455 
#    0.000   10.909    0.000   15.273    0.000    0.000 
#    0.000    0.000    0.000    0.000    0.000    0.000 
#
# Total GULP energy -272575.621522 kJ/mol
# GULP energy per Si atom -12389.800978 kJ/mol
# Density = 2.142790 g / cm^3
# Si number density = 21.476780 Si / 1000 Ang^3
#
#
#
# Elastic Constant Matrix: (Units=GPa)
#
#
# Indices 1 2 3 4 5 6 
#
# 1 59.7811 29.7949 -3.2774 0.0000 -4.7924 0.0000
# 2 29.7949 23.7410 0.4125 0.0000 6.1417 0.0000
# 3 -3.2774 0.4125 185.7527 0.0000 -31.6803 0.0000
# 4 0.0000 0.0000 0.0000 15.2776 0.0000 -6.3813
# 5 -4.7924 6.1417 -31.6803 0.0000 24.0804 0.0000
# 6 0.0000 0.0000 0.0000 -6.3813 0.0000 7.5824
#
#
#
# Elastic Compliance Matrix: (Units=1/GPa)
#
#
# Indices 1 2 3 4 5 6 
#
# 1 0.082163 -0.119723 0.012522 0.000000 0.063360 0.000000
# 2 -0.119723 0.220591 -0.020965 0.000000 -0.107670 0.000000
# 3 0.012522 -0.020965 0.009009 0.000000 0.019692 0.000000
# 4 0.000000 0.000000 0.000000 0.100938 0.000000 0.084949
# 5 0.063360 -0.107670 0.019692 0.000000 0.107505 0.000000
# 6 0.000000 0.000000 0.000000 0.084949 0.000000 0.203376
#
#
# Mechanical properties :
#
#
# Convention : Reuss Voigt Hill
#
# Bulk Modulus (GPa) = 18.04076 35.90387 26.97231
# Shear Modulus (GPa) = 5.00805 25.54441 15.27623
#
# Velocity S-wave (km/s) = 1.52869 3.45250 2.66990
# Velocity P-wave (km/s) = 3.39621 5.71374 4.70006
#
# Compressibility (1/GPa) = 0.05543003
#
# Stress axis : x y z
#
# Youngs Moduli (GPa) = 12.17089 4.53329 110.99412
#
# Poissons Ratio (x) = 0.54274 -1.38983
# Poissons Ratio (y) = 1.45713 2.32703
# Poissons Ratio (z) = -0.15240 0.09504
#
# Static dielectric constant tensor:
#      x y z
#    x 3.759250 0.000000 -0.725080 
#    y 0.000000 3.490400 0.000000 
#    z -0.725080 0.000000 6.260220 
# 
# 
# High freq. dielectric constant tensor:
#      x y z
#    x 1.810300 0.000000 -0.022380 
#    y 0.000000 1.802070 0.000000 
#    z -0.022380 0.000000 1.881200 
# 
# From -- ./inp_files/12951.got.cif
#   From: 2010.06.25/outbox.cif.g09.slc.cpg/sg15_7_cif.got.tgz:12951.got - 2010.06.28 07:06:18.
