data_PCOD8136913
_publ_section_title
;
Structure prediction by ZEFSAII (Michael W. Deem and Ramdas Pophale) SiO2 
 PCOD8136913
Probable space group: C 2/C
;
_chemical_formula_sum "Si O2"
_cell_formula_units_Z 56
_cell_length_a 10.931617
_cell_length_b 19.574928
_cell_length_c 17.305500
_cell_angle_alpha 90.000000
_cell_angle_beta 126.972574
_cell_angle_gamma 90.000000
_cell_volume 2958.516010
_symmetry_space_group_name_H-M "C 2/C"
_symmetry_group_IT_number 15
_symmetry_cell_setting 'monoclinic'
loop_
_space_group_symop_operation_xyz
x,y,z
-x,y,1/2-z
-x,-y,-z
x,-y,1/2+z
1/2+x,1/2+y,z
1/2-x,1/2+y,1/2-z
1/2-x,1/2-y,-z
1/2+x,1/2-y,1/2+z
loop_
_atom_site_type_symbol
_atom_site_label
_atom_site_fract_x
_atom_site_fract_y
_atom_site_fract_z
Si Si1 0.390553 0.245326 0.640433
Si Si2 0.346377 0.135235 0.239812
Si Si3 0.916201 0.306932 0.930893
Si Si4 0.543561 0.690835 0.057418
Si Si5 0.516941 0.063621 0.950507
Si Si6 0.762713 0.102391 0.929307
Si Si7 0.348884 0.981637 0.243491
O O1 0.500000 0.269657 0.750000
O O2 0.240511 0.293107 0.580975
O O3 0.486699 0.255705 0.599977
O O4 0.345141 0.166579 0.632307
O O5 0.500000 0.134915 0.250000
O O6 0.371992 0.179057 0.326060
O O7 0.216977 0.168784 0.136622
O O8 0.295032 0.058536 0.243195
O O9 0.004020 0.369678 0.004391
O O10 0.022881 0.238118 0.972689
O O11 0.435587 0.623881 0.015930
O O12 0.682926 0.061985 0.970398
O O13 0.381533 0.059686 0.835081
O O14 0.500000 0.000000 0.000000
O O15 0.777280 0.056422 0.857164
O O16 0.500000 0.985000 0.250000
#
# Coordination Sequence:
#
# PCOD8136913 Si02
#       7
#     8   8   8   8   8   8   8
#     4  11  18  33  59  91 121 138 179 241 302 335
#     4  11  24  41  55  79 112 157 202 230 281 351
#     4  11  21  35  58  88 112 147 190 238 290 341
#     4  11  22  36  61  86 115 148 182 247 297 334
#     4  11  18  31  57  86 116 154 182 224 281 345
#     4  10  20  35  56  91 118 141 186 237 292 342
#     4   9  20  34  54  80 114 150 184 228 271 341
#
# _framework density 18.928408000000001
#
# number of rings (size 3 to 8) (size 9 to 14) (size 15 to 20)
#    0.000    1.429    5.714    2.143    0.000    1.143 
#    0.000    0.000    0.000    0.000    0.000    0.000 
#    0.000    0.000    0.000    0.000    0.000    0.000 
#
# Total GULP energy -347147.982476 kJ/mol
# GULP energy per Si atom -12398.142231 kJ/mol
# Density = 1.888533 g / cm^3
# Si number density = 18.928408 Si / 1000 Ang^3
#
#
#
# Elastic Constant Matrix: (Units=GPa)
#
#
# Indices 1 2 3 4 5 6 
#
# 1 49.8644 34.8560 31.1501 0.0000 7.3022 0.0000
# 2 34.8560 104.1116 51.7277 0.0000 7.9691 0.0000
# 3 31.1501 51.7277 120.2143 0.0000 12.9830 0.0000
# 4 0.0000 0.0000 0.0000 33.9988 0.0000 -15.0620
# 5 7.3022 7.9691 12.9830 0.0000 27.1654 0.0000
# 6 0.0000 0.0000 0.0000 -15.0620 0.0000 17.3712
#
#
#
# Elastic Compliance Matrix: (Units=1/GPa)
#
#
# Indices 1 2 3 4 5 6 
#
# 1 0.027977 -0.007227 -0.003750 0.000000 -0.003608 0.000000
# 2 -0.007227 0.014117 -0.004180 0.000000 -0.000201 0.000000
# 3 -0.003750 -0.004180 0.011438 0.000000 -0.003232 0.000000
# 4 0.000000 0.000000 0.000000 0.047758 0.000000 0.041409
# 5 -0.003608 -0.000201 -0.003232 0.000000 0.039385 0.000000
# 6 0.000000 0.000000 0.000000 0.041409 0.000000 0.093471
#
#
# Mechanical properties :
#
#
# Convention : Reuss Voigt Hill
#
# Bulk Modulus (GPa) = 43.07085 56.62868 49.84976
# Shear Modulus (GPa) = 18.36882 26.13751 22.25317
#
# Velocity S-wave (km/s) = 3.11856 3.72003 3.43249
# Velocity P-wave (km/s) = 5.98091 6.95943 6.48864
#
# Compressibility (1/GPa) = 0.02321756
#
# Stress axis : x y z
#
# Youngs Moduli (GPa) = 35.74321 70.83679 87.42866
#
# Poissons Ratio (x) = 0.51196 0.32786
# Poissons Ratio (y) = 0.25833 0.36545
# Poissons Ratio (z) = 0.13404 0.29610
#
# Static dielectric constant tensor:
#      x y z
#    x 3.136570 0.000000 -0.162010 
#    y 0.000000 3.676840 0.000000 
#    z -0.162010 0.000000 3.818340 
# 
# 
# High freq. dielectric constant tensor:
#      x y z
#    x 1.689240 0.000000 -0.010950 
#    y 0.000000 1.740570 0.000000 
#    z -0.010950 0.000000 1.752150 
# 
# From -- ./inp_files/136464.got.cif
#   From: 2010.06.25/outbox.cif.g09.slc.cpg/sg15_69_cif.got.tgz:136464.got - 2010.06.28 07:06:18.
