data_PCOD8136163
_publ_section_title
;
Structure prediction by ZEFSAII (Michael W. Deem and Ramdas Pophale) SiO2 
 PCOD8136163
Probable space group: C 2/C
;
_chemical_formula_sum "Si O2"
_cell_formula_units_Z 36
_cell_length_a 12.302146
_cell_length_b 13.922219
_cell_length_c 10.279704
_cell_angle_alpha 90.000000
_cell_angle_beta 59.997787
_cell_angle_gamma 90.000000
_cell_volume 1524.722798
_symmetry_space_group_name_H-M "C 2/C"
_symmetry_group_IT_number 15
_symmetry_cell_setting 'monoclinic'
loop_
_space_group_symop_operation_xyz
x,y,z
-x,y,1/2-z
-x,-y,-z
x,-y,1/2+z
1/2+x,1/2+y,z
1/2-x,1/2+y,1/2-z
1/2-x,1/2-y,-z
1/2+x,1/2-y,1/2+z
loop_
_atom_site_type_symbol
_atom_site_label
_atom_site_fract_x
_atom_site_fract_y
_atom_site_fract_z
Si Si1 0.606159 0.077554 0.006624
Si Si2 0.785837 0.818368 0.223163
Si Si3 0.339886 0.890851 0.743081
Si Si4 0.194311 0.970349 0.479749
Si Si5 0.000000 0.078626 0.750000
O O1 0.618369 0.138099 0.134602
O O2 0.454177 0.056875 0.091477
O O3 0.698409 0.984015 0.971688
O O4 0.651743 0.146344 0.862032
O O5 0.787227 0.703752 0.204777
O O6 0.896082 0.851906 0.252538
O O7 0.809388 0.859879 0.063665
O O8 0.231544 0.971372 0.823872
O O9 0.059887 0.008691 0.606047
#
# Coordination Sequence:
#
# PCOD8136163 Si02
#       5
#     8   8   8   8   4
#     4   8  18  34  52  78 109 131 176 224 259 303
#     4  11  19  31  57  79 108 141 176 219 267 310
#     4   9  18  33  52  81 107 131 179 223 263 301
#     4   9  20  33  51  86 104 141 176 218 265 317
#     4  10  20  32  52  76 114 134 176 222 268 304
#
# _framework density 23.610851
#
# number of rings (size 3 to 8) (size 9 to 14) (size 15 to 20)
#    1.333    1.333    0.000    2.667    3.111    0.889 
#    0.000    0.000    0.000    5.333    5.778    0.000 
#    0.000    0.000    0.000    0.000    0.000    0.000 
#
# Total GULP energy -223070.320125 kJ/mol
# GULP energy per Si atom -12392.795562 kJ/mol
# Density = 2.355711 g / cm^3
# Si number density = 23.610851 Si / 1000 Ang^3
#
#
#
# Elastic Constant Matrix: (Units=GPa)
#
#
# Indices 1 2 3 4 5 6 
#
# 1 36.2988 -2.7100 6.6945 0.0000 -9.5096 0.0000
# 2 -2.7100 69.7611 34.6155 0.0000 -0.4872 0.0000
# 3 6.6945 34.6155 131.5324 0.0000 -34.5297 0.0000
# 4 0.0000 0.0000 0.0000 25.4052 0.0000 -9.3614
# 5 -9.5096 -0.4872 -34.5297 0.0000 32.9770 0.0000
# 6 0.0000 0.0000 0.0000 -9.3614 0.0000 -0.7088
#
#
#
# Elastic Compliance Matrix: (Units=1/GPa)
#
#
# Indices 1 2 3 4 5 6 
#
# 1 0.029944 0.000876 0.000711 0.000000 0.009393 0.000000
# 2 0.000876 0.017399 -0.006192 0.000000 -0.005974 0.000000
# 3 0.000711 -0.006192 0.012723 0.000000 0.013436 0.000000
# 4 0.000000 0.000000 0.000000 0.006709 0.000000 -0.088613
# 5 0.009393 -0.005974 0.013436 0.000000 0.047013 0.000000
# 6 0.000000 0.000000 0.000000 -0.088613 0.000000 -0.240480
#
#
# Mechanical properties :
#
#
# Convention : Reuss Voigt Hill
#
# Bulk Modulus (GPa) = 19.66289 34.97691 27.31990
# Shear Modulus (GPa) = -49.73650 24.80083 -12.46784
#
# Velocity S-wave (km/s) = -4.59465 3.24450 -2.30044
# Velocity P-wave (km/s) = 4.44992 5.37418 2.13073
#
# Compressibility (1/GPa) = 0.05085722
#
# Stress axis : x y z
#
# Youngs Moduli (GPa) = 33.39561 57.47356 78.59702
#
# Poissons Ratio (x) = -0.05034 -0.05590
# Poissons Ratio (y) = -0.02925 0.48665
# Poissons Ratio (z) = -0.02375 0.35586
#
# Static dielectric constant tensor:
#      x y z
#    x 3.926580 0.000000 -0.102500 
#    y 0.000000 3.750290 0.000000 
#    z -0.102500 0.000000 4.445610 
# 
# 
# High freq. dielectric constant tensor:
#      x y z
#    x 1.916520 0.000000 -0.002730 
#    y 0.000000 1.908500 0.000000 
#    z -0.002730 0.000000 1.956720 
# 
# From -- ./inp_files/104453.got.cif
#   From: 2010.06.25/outbox.cif.g09.slc.cpg/sg15_53_cif.got.tgz:104453.got - 2010.06.28 07:06:18.
