data_PCOD8136830
_publ_section_title
;
Structure prediction by ZEFSAII (Michael W. Deem and Ramdas Pophale) SiO2 
 PCOD8136830
Probable space group: C 2/C
;
_chemical_formula_sum "Si O2"
_cell_formula_units_Z 64
_cell_length_a 21.390496
_cell_length_b 20.595826
_cell_length_c 9.220924
_cell_angle_alpha 90.000000
_cell_angle_beta 115.535754
_cell_angle_gamma 90.000000
_cell_volume 3665.501411
_symmetry_space_group_name_H-M "C 2/C"
_symmetry_group_IT_number 15
_symmetry_cell_setting 'monoclinic'
loop_
_space_group_symop_operation_xyz
x,y,z
-x,y,1/2-z
-x,-y,-z
x,-y,1/2+z
1/2+x,1/2+y,z
1/2-x,1/2+y,1/2-z
1/2-x,1/2-y,-z
1/2+x,1/2-y,1/2+z
loop_
_atom_site_type_symbol
_atom_site_label
_atom_site_fract_x
_atom_site_fract_y
_atom_site_fract_z
Si Si1 0.579120 0.379137 0.995864
Si Si2 0.922186 0.729258 0.503225
Si Si3 0.707066 0.811895 0.127255
Si Si4 0.579120 0.379137 0.662377
Si Si5 0.207066 0.311894 0.786877
Si Si6 0.922186 0.270742 0.341147
Si Si7 0.203195 0.936230 0.282188
Si Si8 0.296805 0.563770 0.375798
O O1 0.588177 0.304252 0.049367
O O2 0.601492 0.389753 0.851492
O O3 0.500000 0.400969 0.939685
O O4 0.626012 0.422495 0.147333
O O5 0.868236 0.685392 0.361569
O O6 0.908827 0.718894 0.658827
O O7 1.000000 0.707121 0.539717
O O8 0.750000 0.750000 0.229208
O O9 0.631764 0.814608 0.125095
O O10 0.746994 0.877030 0.210598
O O11 0.695853 0.805839 0.945853
O O12 0.588177 0.304252 0.626986
O O13 0.626012 0.422495 0.604691
O O14 0.246995 0.377030 0.783391
O O15 0.199949 0.947715 0.449949
O O16 0.233042 0.000000 0.233043
#
# Coordination Sequence:
#
# PCOD8136830 Si02
#       8
#     8   8   8   8   8   8   8   8
#     4   9  18  33  52  76 107 141 177 213 253 307
#     4   9  18  32  53  82 110 136 171 215 261 310
#     4  10  20  35  54  79 107 136 174 219 264 310
#     4   9  18  33  52  76 107 141 177 213 253 307
#     4  10  20  35  54  79 107 136 174 219 264 310
#     4   9  18  32  53  82 110 136 171 215 261 310
#     4  11  23  37  53  75 106 141 178 218 261 312
#     4  11  23  37  53  75 106 141 178 218 261 312
#
# _framework density 17.460094000000002
#
# number of rings (size 3 to 8) (size 9 to 14) (size 15 to 20)
#    0.000    2.250    2.500    2.250    0.000    4.000 
#    0.000    2.500    0.000    0.750    0.000    0.000 
#    0.000    0.000    0.000    0.000    0.000    0.000 
#
# Total GULP energy -396873.510144 kJ/mol
# GULP energy per Si atom -12402.297192 kJ/mol
# Density = 1.742035 g / cm^3
# Si number density = 17.460094 Si / 1000 Ang^3
#
#
#
# Elastic Constant Matrix: (Units=GPa)
#
#
# Indices 1 2 3 4 5 6 
#
# 1 112.1264 58.9340 38.9227 0.0000 3.2984 0.0000
# 2 58.9340 109.0576 54.8512 0.0000 2.9548 0.0000
# 3 38.9227 54.8512 83.2590 0.0000 17.5938 0.0000
# 4 0.0000 0.0000 0.0000 26.9308 0.0000 -2.4548
# 5 3.2984 2.9548 17.5938 0.0000 23.9775 0.0000
# 6 0.0000 0.0000 0.0000 -2.4548 0.0000 23.5386
#
#
#
# Elastic Compliance Matrix: (Units=1/GPa)
#
#
# Indices 1 2 3 4 5 6 
#
# 1 0.012710 -0.005725 -0.002307 0.000000 0.000650 0.000000
# 2 -0.005725 0.017022 -0.009776 0.000000 0.005864 0.000000
# 3 -0.002307 -0.009776 0.022733 0.000000 -0.015159 0.000000
# 4 0.000000 0.000000 0.000000 0.037489 0.000000 0.003910
# 5 0.000650 0.005864 -0.015159 0.000000 0.052017 0.000000
# 6 0.000000 0.000000 0.000000 0.003910 0.000000 0.042891
#
#
# Mechanical properties :
#
#
# Convention : Reuss Voigt Hill
#
# Bulk Modulus (GPa) = 59.35874 67.76211 63.56043
# Shear Modulus (GPa) = 22.11469 25.00506 23.55987
#
# Velocity S-wave (km/s) = 3.56277 3.78845 3.67734
# Velocity P-wave (km/s) = 7.14108 7.61777 7.38327
#
# Compressibility (1/GPa) = 0.01684672
#
# Stress axis : x y z
#
# Youngs Moduli (GPa) = 78.68115 58.74852 43.98853
#
# Poissons Ratio (x) = 0.33636 0.10148
# Poissons Ratio (y) = 0.45048 0.43005
# Poissons Ratio (z) = 0.18152 0.57435
#
# Static dielectric constant tensor:
#      x y z
#    x 3.197140 0.000000 0.033960 
#    y 0.000000 3.137100 0.000000 
#    z 0.033960 0.000000 3.150230 
# 
# 
# High freq. dielectric constant tensor:
#      x y z
#    x 1.673500 0.000000 -0.000300 
#    y 0.000000 1.655070 0.000000 
#    z -0.000300 0.000000 1.673920 
# 
# From -- ./inp_files/57838.got.cif
#   From: 2010.06.25/outbox.cif.g09.slc.cpg/sg15_29_cif.got.tgz:57838.got - 2010.06.28 07:06:18.
