data_PCOD8136093
_publ_section_title
;
Structure prediction by ZEFSAII (Michael W. Deem and Ramdas Pophale) SiO2 
 PCOD8136093
Probable space group: C 2/C
;
_chemical_formula_sum "Si O2"
_cell_formula_units_Z 52
_cell_length_a 27.395653
_cell_length_b 19.713057
_cell_length_c 9.128882
_cell_angle_alpha 90.000000
_cell_angle_beta 147.895930
_cell_angle_gamma 90.000000
_cell_volume 2620.129714
_symmetry_space_group_name_H-M "C 2/C"
_symmetry_group_IT_number 15
_symmetry_cell_setting 'monoclinic'
loop_
_space_group_symop_operation_xyz
x,y,z
-x,y,1/2-z
-x,-y,-z
x,-y,1/2+z
1/2+x,1/2+y,z
1/2-x,1/2+y,1/2-z
1/2-x,1/2-y,-z
1/2+x,1/2-y,1/2+z
loop_
_atom_site_type_symbol
_atom_site_label
_atom_site_fract_x
_atom_site_fract_y
_atom_site_fract_z
Si Si1 0.080608 0.162678 0.569725
Si Si2 0.050139 0.317174 0.528515
Si Si3 0.769199 0.406691 0.486501
Si Si4 0.915311 0.414552 0.295454
Si Si5 0.253039 0.028065 0.252572
Si Si6 0.050207 0.054328 0.728680
Si Si7 0.000000 0.502966 0.250000
O O1 0.080313 0.239957 0.623543
O O2 0.178331 0.140921 0.747227
O O3 0.061216 0.123257 0.668435
O O4 0.000000 0.147590 0.250000
O O5 0.972266 0.343466 0.446555
O O6 0.141570 0.360987 0.770515
O O7 0.000000 0.329484 0.250000
O O8 0.785990 0.452388 0.384214
O O9 0.762172 0.459439 0.602837
O O10 0.951366 0.458947 0.249788
O O11 0.925152 0.450567 0.477272
O O12 0.806668 0.411795 0.979981
O O13 0.147538 0.027269 0.030398
O O14 0.000000 0.071366 0.750000
O O15 0.000000 0.000000 0.500000
#
# Coordination Sequence:
#
# PCOD8136093 Si02
#       7
#     8   8   8   8   8   8   4
#     4  10  23  40  61  85 116 164 207 245 295 353
#     4  11  21  37  58  83 124 166 197 237 288 376
#     4  11  21  37  59  91 119 155 201 247 303 358
#     4  11  19  35  52  87 119 155 192 243 299 364
#     4  11  21  33  60  89 117 146 196 251 310 344
#     4  11  22  40  64  88 116 148 201 262 307 345
#     4  10  20  30  54  80 120 154 192 236 296 348
#
# _framework density 19.846346
#
# number of rings (size 3 to 8) (size 9 to 14) (size 15 to 20)
#    0.000    1.231    2.308    6.462    0.000    0.000 
#    1.385    0.000    0.000    0.923    0.000    0.000 
#    0.000    0.000    0.000    0.000    0.000    0.000 
#
# Total GULP energy -322208.037343 kJ/mol
# GULP energy per Si atom -12392.616821 kJ/mol
# Density = 1.980117 g / cm^3
# Si number density = 19.846346 Si / 1000 Ang^3
#
#
#
# Elastic Constant Matrix: (Units=GPa)
#
#
# Indices 1 2 3 4 5 6 
#
# 1 52.2998 24.4794 38.5430 0.0000 7.6177 0.0000
# 2 24.4794 116.2042 56.0400 0.0000 10.4868 0.0000
# 3 38.5430 56.0400 130.8462 0.0000 22.4115 0.0000
# 4 0.0000 0.0000 0.0000 36.1405 0.0000 5.9832
# 5 7.6177 10.4868 22.4115 0.0000 38.2082 0.0000
# 6 0.0000 0.0000 0.0000 5.9832 0.0000 17.8721
#
#
#
# Elastic Compliance Matrix: (Units=1/GPa)
#
#
# Indices 1 2 3 4 5 6 
#
# 1 0.024856 -0.002143 -0.006288 0.000000 -0.000679 0.000000
# 2 -0.002143 0.011033 -0.004056 0.000000 -0.000222 0.000000
# 3 -0.006288 -0.004056 0.012036 0.000000 -0.004693 0.000000
# 4 0.000000 0.000000 0.000000 0.029293 0.000000 -0.009807
# 5 -0.000679 -0.000222 -0.004693 0.000000 0.029121 0.000000
# 6 0.000000 0.000000 0.000000 -0.009807 0.000000 0.059236
#
#
# Mechanical properties :
#
#
# Convention : Reuss Voigt Hill
#
# Bulk Modulus (GPa) = 43.56943 59.71943 51.64443
# Shear Modulus (GPa) = 25.22709 30.46335 27.84522
#
# Velocity S-wave (km/s) = 3.56915 3.92211 3.74978
# Velocity P-wave (km/s) = 6.24389 7.11806 6.69526
#
# Compressibility (1/GPa) = 0.02295187
#
# Stress axis : x y z
#
# Youngs Moduli (GPa) = 40.23136 90.63692 83.08566
#
# Poissons Ratio (x) = 0.19419 0.52243
# Poissons Ratio (y) = 0.08620 0.33701
# Poissons Ratio (z) = 0.25297 0.36764
#
# Static dielectric constant tensor:
#      x y z
#    x 3.006730 0.000000 0.638380 
#    y 0.000000 3.964790 0.000000 
#    z 0.638380 0.000000 3.916630 
# 
# 
# High freq. dielectric constant tensor:
#      x y z
#    x 1.763070 0.000000 0.009310 
#    y 0.000000 1.754450 0.000000 
#    z 0.009310 0.000000 1.804060 
# 
# From -- ./inp_files/70814.got.cif
#   From: 2010.06.25/outbox.cif.g09.slc.cpg/sg15_36_cif.got.tgz:70814.got - 2010.06.28 07:06:18.
