data_PCOD8136583
_publ_section_title
;
Structure prediction by ZEFSAII (Michael W. Deem and Ramdas Pophale) SiO2 
 PCOD8136583
Probable space group: C 2/C
;
_chemical_formula_sum "Si O2"
_cell_formula_units_Z 48
_cell_length_a 12.328447
_cell_length_b 22.106533
_cell_length_c 12.584722
_cell_angle_alpha 90.000000
_cell_angle_beta 131.121122
_cell_angle_gamma 90.000000
_cell_volume 2583.763212
_symmetry_space_group_name_H-M "C 2/C"
_symmetry_group_IT_number 15
_symmetry_cell_setting 'monoclinic'
loop_
_space_group_symop_operation_xyz
x,y,z
-x,y,1/2-z
-x,-y,-z
x,-y,1/2+z
1/2+x,1/2+y,z
1/2-x,1/2+y,1/2-z
1/2-x,1/2-y,-z
1/2+x,1/2-y,1/2+z
loop_
_atom_site_type_symbol
_atom_site_label
_atom_site_fract_x
_atom_site_fract_y
_atom_site_fract_z
Si Si1 0.052954 0.424725 0.121386
Si Si2 0.139620 0.080420 0.576747
Si Si3 0.323338 0.285433 0.448873
Si Si4 0.448184 0.789574 0.332285
Si Si5 0.411283 0.956404 0.592539
Si Si6 0.915124 0.037398 0.587490
O O1 0.215541 0.438136 0.265633
O O2 0.002118 0.358308 0.120913
O O3 0.940923 0.471123 0.104154
O O4 0.035913 0.427468 0.983372
O O5 0.155340 0.142738 0.520517
O O6 0.005451 0.083773 0.572167
O O7 0.098501 0.029518 0.467108
O O8 0.250000 0.250000 0.500000
O O9 0.477925 0.253159 0.530990
O O10 0.225013 0.280101 0.278679
O O11 0.500000 0.768213 0.250000
O O12 0.500000 0.929705 0.750000
O O13 0.245670 0.937766 0.500494
O O14 0.000000 0.030768 0.750000
#
# Coordination Sequence:
#
# PCOD8136583 Si02
#       6
#     8   8   8   8   8   8
#     4  10  20  34  57  80 110 147 189 229 285 335
#     4  10  21  37  55  84 118 152 186 233 289 345
#     4   9  19  34  55  79 108 143 181 228 281 328
#     4   9  18  34  54  78 106 140 174 231 279 331
#     4  11  21  35  55  81 109 146 189 233 275 342
#     4  11  22  36  56  82 118 152 189 229 289 347
#
# _framework density 18.577553999999999
#
# number of rings (size 3 to 8) (size 9 to 14) (size 15 to 20)
#    0.000    2.000    3.333    0.500    4.667    2.000 
#    3.000    0.000    0.000    2.000    0.000    0.000 
#    0.000    0.000    0.000    0.000    0.000    0.000 
#
# Total GULP energy -297373.070983 kJ/mol
# GULP energy per Si atom -12390.544624 kJ/mol
# Density = 1.853527 g / cm^3
# Si number density = 18.577554 Si / 1000 Ang^3
#
#
#
# Elastic Constant Matrix: (Units=GPa)
#
#
# Indices 1 2 3 4 5 6 
#
# 1 59.8304 7.4310 28.9327 0.0000 4.5417 0.0000
# 2 7.4310 78.5751 32.2010 0.0000 7.5764 0.0000
# 3 28.9327 32.2010 123.3943 0.0000 10.3072 0.0000
# 4 0.0000 0.0000 0.0000 59.0377 0.0000 -22.0450
# 5 4.5417 7.5764 10.3072 0.0000 32.2076 0.0000
# 6 0.0000 0.0000 0.0000 -22.0450 0.0000 43.4639
#
#
#
# Elastic Compliance Matrix: (Units=1/GPa)
#
#
# Indices 1 2 3 4 5 6 
#
# 1 0.018904 0.000123 -0.004356 0.000000 -0.001301 0.000000
# 2 0.000123 0.014408 -0.003600 0.000000 -0.002254 0.000000
# 3 -0.004356 -0.003600 0.010216 0.000000 -0.001808 0.000000
# 4 0.000000 0.000000 0.000000 0.020896 0.000000 0.010598
# 5 -0.001301 -0.002254 -0.001808 0.000000 0.032341 0.000000
# 6 0.000000 0.000000 0.000000 0.010598 0.000000 0.028383
#
#
# Mechanical properties :
#
#
# Convention : Reuss Voigt Hill
#
# Bulk Modulus (GPa) = 35.89274 44.32546 40.10910
# Shear Modulus (GPa) = 33.31079 39.82418 36.56749
#
# Velocity S-wave (km/s) = 4.23906 4.63500 4.44144
# Velocity P-wave (km/s) = 6.58194 7.24954 6.92379
#
# Compressibility (1/GPa) = 0.02786079
#
# Stress axis : x y z
#
# Youngs Moduli (GPa) = 52.89945 69.40629 97.88553
#
# Poissons Ratio (x) = -0.00852 0.42637
# Poissons Ratio (y) = -0.00649 0.35242
# Poissons Ratio (z) = 0.23042 0.24989
#
# Static dielectric constant tensor:
#      x y z
#    x 3.619660 0.000000 0.575330 
#    y 0.000000 3.243320 0.000000 
#    z 0.575330 0.000000 4.360090 
# 
# 
# High freq. dielectric constant tensor:
#      x y z
#    x 1.701530 0.000000 0.019590 
#    y 0.000000 1.696880 0.000000 
#    z 0.019590 0.000000 1.737860 
# 
# From -- ./inp_files/88756.got.cif
#   From: 2010.06.25/outbox.cif.g09.slc.cpg/sg15_45_cif.got.tgz:88756.got - 2010.06.28 07:06:18.
