data_PCOD8136980
_publ_section_title
;
Structure prediction by ZEFSAII (Michael W. Deem and Ramdas Pophale) SiO2 
 PCOD8136980
Probable space group: C 2/C
;
_chemical_formula_sum "Si O2"
_cell_formula_units_Z 64
_cell_length_a 14.583006
_cell_length_b 27.233728
_cell_length_c 14.691968
_cell_angle_alpha 90.000000
_cell_angle_beta 143.906579
_cell_angle_gamma 90.000000
_cell_volume 3437.366046
_symmetry_space_group_name_H-M "C 2/C"
_symmetry_group_IT_number 15
_symmetry_cell_setting 'monoclinic'
loop_
_space_group_symop_operation_xyz
x,y,z
-x,y,1/2-z
-x,-y,-z
x,-y,1/2+z
1/2+x,1/2+y,z
1/2-x,1/2+y,1/2-z
1/2-x,1/2-y,-z
1/2+x,1/2-y,1/2+z
loop_
_atom_site_type_symbol
_atom_site_label
_atom_site_fract_x
_atom_site_fract_y
_atom_site_fract_z
Si Si1 0.368643 0.895996 0.828460
Si Si2 0.363130 0.397149 0.312052
Si Si3 0.019993 0.697850 0.371103
Si Si4 0.826733 0.944678 0.964506
Si Si5 0.272202 0.945156 0.133730
Si Si6 0.656323 0.948828 0.011798
Si Si7 0.375658 0.941557 0.022193
Si Si8 0.626214 0.700916 0.775302
O O1 0.439611 0.842264 0.870803
O O2 0.209083 0.906090 0.646396
O O3 0.472104 0.938929 0.864126
O O4 0.343432 0.902843 0.916406
O O5 0.493930 0.432234 0.372564
O O6 0.335366 0.407078 0.396955
O O7 0.209636 0.413603 0.135502
O O8 0.385859 0.339349 0.314169
O O9 0.201831 0.704549 0.542309
O O10 0.000000 0.681760 0.250000
O O11 0.924381 0.747900 0.310850
O O12 0.807667 0.001584 0.923729
O O13 0.726922 0.931151 0.973139
O O14 0.284005 0.925192 0.039776
O O15 0.442757 0.948172 0.313361
O O16 0.691937 0.005476 0.061443
O O17 0.500000 0.686122 0.750000
#
# Coordination Sequence:
#
# PCOD8136980 Si02
#       8
#     8   8   8   8   8   8   8   8
#     4  12  21  35  57  82 108 147 191 222 272 325
#     4  12  23  36  55  80 115 149 184 224 280 330
#     4  11  23  37  58  83 113 141 182 228 278 340
#     4  11  23  32  53  85 115 150 177 228 273 333
#     4  10  20  37  54  81 111 147 191 228 271 315
#     4  11  19  35  54  81 113 144 184 220 269 328
#     4  10  20  35  58  79 109 147 192 234 259 317
#     4  11  23  38  57  82 113 144 179 228 282 334
#
# _framework density 18.618907
#
# number of rings (size 3 to 8) (size 9 to 14) (size 15 to 20)
#    0.000    1.000    3.750    5.250    3.500    0.000 
#    0.000    1.875    0.000    0.750    0.000    0.000 
#    0.000    0.000    0.000    0.000    0.000    0.000 
#
# Total GULP energy -396765.233763 kJ/mol
# GULP energy per Si atom -12398.913555 kJ/mol
# Density = 1.857653 g / cm^3
# Si number density = 18.618907 Si / 1000 Ang^3
#
#
#
# Elastic Constant Matrix: (Units=GPa)
#
#
# Indices 1 2 3 4 5 6 
#
# 1 105.6144 63.2382 35.1703 0.0000 -21.9232 0.0000
# 2 63.2382 114.4873 37.4807 0.0000 -14.0118 0.0000
# 3 35.1703 37.4807 62.1647 0.0000 -2.6672 0.0000
# 4 0.0000 0.0000 0.0000 17.7648 0.0000 -1.5939
# 5 -21.9232 -14.0118 -2.6672 0.0000 26.7205 0.0000
# 6 0.0000 0.0000 0.0000 -1.5939 0.0000 33.7336
#
#
#
# Elastic Compliance Matrix: (Units=1/GPa)
#
#
# Indices 1 2 3 4 5 6 
#
# 1 0.017309 -0.006536 -0.005413 0.000000 0.010233 0.000000
# 2 -0.006536 0.014082 -0.004726 0.000000 0.001550 0.000000
# 3 -0.005413 -0.004726 0.021794 0.000000 -0.004744 0.000000
# 4 0.000000 0.000000 0.000000 0.056531 0.000000 0.002671
# 5 0.010233 0.001550 -0.004744 0.000000 0.046160 0.000000
# 6 0.000000 0.000000 0.000000 0.002671 0.000000 0.029770
#
#
# Mechanical properties :
#
#
# Convention : Reuss Voigt Hill
#
# Bulk Modulus (GPa) = 50.41486 61.56055 55.98770
# Shear Modulus (GPa) = 22.16242 25.40224 23.78233
#
# Velocity S-wave (km/s) = 3.45384 3.69768 3.57784
# Velocity P-wave (km/s) = 6.56059 7.16699 6.87048
#
# Compressibility (1/GPa) = 0.01983542
#
# Stress axis : x y z
#
# Youngs Moduli (GPa) = 57.77422 71.01387 45.88339
#
# Poissons Ratio (x) = 0.46416 0.24835
# Poissons Ratio (y) = 0.37763 0.21684
# Poissons Ratio (z) = 0.31271 0.33560
#
# Static dielectric constant tensor:
#      x y z
#    x 3.481730 0.000000 -0.019910 
#    y 0.000000 3.262970 0.000000 
#    z -0.019910 0.000000 3.479050 
# 
# 
# High freq. dielectric constant tensor:
#      x y z
#    x 1.713760 0.000000 0.006680 
#    y 0.000000 1.700620 0.000000 
#    z 0.006680 0.000000 1.729720 
# 
# From -- ./inp_files/157094.got.cif
#   From: 2010.06.25/outbox.cif.g09.slc.cpg/sg15_79_cif.got.tgz:157094.got - 2010.06.28 07:06:18.
