data_PCOD8136001
_publ_section_title
;
Structure prediction by ZEFSAII (Michael W. Deem and Ramdas Pophale) SiO2 
 PCOD8136001
Probable space group: C 2/C
;
_chemical_formula_sum "Si O2"
_cell_formula_units_Z 44
_cell_length_a 8.707009
_cell_length_b 30.129138
_cell_length_c 10.233414
_cell_angle_alpha 90.000000
_cell_angle_beta 128.601946
_cell_angle_gamma 90.000000
_cell_volume 2097.996830
_symmetry_space_group_name_H-M "C 2/C"
_symmetry_group_IT_number 15
_symmetry_cell_setting 'monoclinic'
loop_
_space_group_symop_operation_xyz
x,y,z
-x,y,1/2-z
-x,-y,-z
x,-y,1/2+z
1/2+x,1/2+y,z
1/2-x,1/2+y,1/2-z
1/2-x,1/2-y,-z
1/2+x,1/2-y,1/2+z
loop_
_atom_site_type_symbol
_atom_site_label
_atom_site_fract_x
_atom_site_fract_y
_atom_site_fract_z
Si Si1 0.168298 0.393605 0.439979
Si Si2 0.500000 0.338753 0.250000
Si Si3 0.378889 0.308587 0.464408
Si Si4 0.000000 0.751147 0.750000
Si Si5 0.822694 0.409790 0.432447
Si Si6 0.191500 0.972403 0.139559
Si Si7 0.500000 0.961680 0.750000
O O1 0.335826 0.356153 0.512352
O O2 0.261995 0.441850 0.461912
O O3 0.000000 0.380669 0.250000
O O4 0.047621 0.397025 0.511422
O O5 0.466356 0.310836 0.364557
O O6 0.697357 0.365811 0.384764
O O7 0.529372 0.282413 0.638014
O O8 0.183292 0.280490 0.357062
O O9 0.689633 0.440075 0.264260
O O10 0.846897 0.433499 0.583637
O O11 0.364566 0.006702 0.266805
O O12 0.000000 0.000000 0.000000
#
# Coordination Sequence:
#
# PCOD8136001 Si02
#       7
#     8   4   8   4   8   8   4
#     4  10  19  42  64  84 124 172 207 254 330 380
#     4  12  22  40  72  94 126 166 221 259 322 390
#     4  11  22  43  67  96 124 168 207 263 321 402
#     4  10  24  43  68  93 134 162 205 260 333 398
#     4  11  23  41  60  89 129 174 211 273 322 380
#     4  11  22  40  63  89 123 173 221 266 321 376
#     4  12  24  37  56  91 132 166 222 275 319 366
#
# _framework density 20.972387999999999
#
# number of rings (size 3 to 8) (size 9 to 14) (size 15 to 20)
#    0.000    1.091    7.273    1.636    0.000    2.182 
#    0.000    0.000    0.000    0.000    0.000    0.000 
#    0.000    0.000    0.000    0.000    0.000    0.000 
#
# Total GULP energy -272617.235357 kJ/mol
# GULP energy per Si atom -12391.692516 kJ/mol
# Density = 2.092465 g / cm^3
# Si number density = 20.972388 Si / 1000 Ang^3
#
#
#
# Elastic Constant Matrix: (Units=GPa)
#
#
# Indices 1 2 3 4 5 6 
#
# 1 92.4145 33.5615 15.8587 0.0000 -16.9764 0.0000
# 2 33.5615 83.3483 28.5169 0.0000 -13.1628 0.0000
# 3 15.8587 28.5169 65.4545 0.0000 -7.1486 0.0000
# 4 0.0000 0.0000 0.0000 3.4315 0.0000 -10.8689
# 5 -16.9764 -13.1628 -7.1486 0.0000 26.2068 0.0000
# 6 0.0000 0.0000 0.0000 -10.8689 0.0000 27.8290
#
#
#
# Elastic Compliance Matrix: (Units=1/GPa)
#
#
# Indices 1 2 3 4 5 6 
#
# 1 0.013684 -0.004216 -0.000765 0.000000 0.006538 0.000000
# 2 -0.004216 0.016235 -0.005627 0.000000 0.003888 0.000000
# 3 -0.000765 -0.005627 0.018091 0.000000 0.001613 0.000000
# 4 0.000000 0.000000 0.000000 -1.229336 0.000000 -0.480132
# 5 0.006538 0.003888 0.001613 0.000000 0.044786 0.000000
# 6 0.000000 0.000000 0.000000 -0.480132 0.000000 -0.151587
#
#
# Mechanical properties :
#
#
# Convention : Reuss Voigt Hill
#
# Bulk Modulus (GPa) = 37.32096 44.12129 40.72112
# Shear Modulus (GPa) = -3.97462 22.37880 9.20209
#
# Velocity S-wave (km/s) = -1.37815 3.27013 2.09696
# Velocity P-wave (km/s) = 3.91172 5.94490 5.03207
#
# Compressibility (1/GPa) = 0.02679459
#
# Stress axis : x y z
#
# Youngs Moduli (GPa) = 73.07699 61.59631 55.27683
#
# Poissons Ratio (x) = 0.25969 0.04226
# Poissons Ratio (y) = 0.30809 0.31104
# Poissons Ratio (z) = 0.05587 0.34660
#
# Static dielectric constant tensor:
#      x y z
#    x 4.757800 0.000000 0.057540 
#    y 0.000000 3.963940 0.000000 
#    z 0.057540 0.000000 3.734870 
# 
# 
# High freq. dielectric constant tensor:
#      x y z
#    x 1.819920 0.000000 0.003470 
#    y 0.000000 1.825830 0.000000 
#    z 0.003470 0.000000 1.803840 
# 
# From -- ./inp_files/25500.got.cif
#   From: 2010.06.25/outbox.cif.g09.slc.cpg/sg15_13_cif.got.tgz:25500.got - 2010.06.28 07:06:18.
