data_PCOD8136628
_publ_section_title
;
Structure prediction by ZEFSAII (Michael W. Deem and Ramdas Pophale) SiO2 
 PCOD8136628
Probable space group: C 2/C
;
_chemical_formula_sum "Si O2"
_cell_formula_units_Z 48
_cell_length_a 23.362070
_cell_length_b 17.241374
_cell_length_c 10.236046
_cell_angle_alpha 90.000000
_cell_angle_beta 144.513799
_cell_angle_gamma 90.000000
_cell_volume 2393.441326
_symmetry_space_group_name_H-M "C 2/C"
_symmetry_group_IT_number 15
_symmetry_cell_setting 'monoclinic'
loop_
_space_group_symop_operation_xyz
x,y,z
-x,y,1/2-z
-x,-y,-z
x,-y,1/2+z
1/2+x,1/2+y,z
1/2-x,1/2+y,1/2-z
1/2-x,1/2-y,-z
1/2+x,1/2-y,1/2+z
loop_
_atom_site_type_symbol
_atom_site_label
_atom_site_fract_x
_atom_site_fract_y
_atom_site_fract_z
Si Si1 0.949016 0.899291 0.524048
Si Si2 0.431177 0.419399 0.004157
Si Si3 0.752704 0.802710 0.130466
Si Si4 0.063617 0.572667 0.744836
Si Si5 0.726738 0.150881 0.196631
Si Si6 0.377799 0.911202 0.745694
O O1 0.850427 0.853097 0.313202
O O2 0.000000 0.867856 0.750000
O O3 0.024665 0.885926 0.547043
O O4 0.920693 0.988599 0.484058
O O5 0.500000 0.390812 0.250000
O O6 0.322988 0.386779 0.816986
O O7 0.753120 0.743263 0.252876
O O8 0.750000 0.750000 0.000000
O O9 0.656541 0.859455 0.943469
O O10 0.125859 0.501681 0.799658
O O11 0.000000 0.541363 0.750000
O O12 0.989331 0.609291 0.498831
O O13 0.138176 0.639877 0.928228
O O14 0.699318 0.106757 0.280792
#
# Coordination Sequence:
#
# PCOD8136628 Si02
#       6
#     8   8   8   8   8   8
#     4  10  22  38  60  86 117 153 193 241 289 342
#     4  10  20  38  62  88 114 151 199 241 283 343
#     4  10  20  35  55  81 113 153 187 228 294 348
#     4   9  18  33  55  83 110 147 192 236 283 339
#     4  10  20  34  58  85 113 147 186 236 293 345
#     4   9  18  34  54  81 113 148 190 234 286 343
#
# _framework density 20.054805000000002
#
# number of rings (size 3 to 8) (size 9 to 14) (size 15 to 20)
#    0.000    2.333    0.000    3.000    0.000    6.000 
#    0.000    6.667    0.000    2.000    0.000    0.000 
#    0.000    0.000    0.000    0.000    0.000    0.000 
#
# Total GULP energy -297520.439882 kJ/mol
# GULP energy per Si atom -12396.684995 kJ/mol
# Density = 2.000916 g / cm^3
# Si number density = 20.054805 Si / 1000 Ang^3
#
#
#
# Elastic Constant Matrix: (Units=GPa)
#
#
# Indices 1 2 3 4 5 6 
#
# 1 84.0515 43.6092 58.4613 0.0000 4.2055 0.0000
# 2 43.6092 84.3863 81.8715 0.0000 -0.6072 0.0000
# 3 58.4613 81.8715 172.8095 0.0000 -6.7457 0.0000
# 4 0.0000 0.0000 0.0000 28.0495 0.0000 -7.8529
# 5 4.2055 -0.6072 -6.7457 0.0000 30.9475 0.0000
# 6 0.0000 0.0000 0.0000 -7.8529 0.0000 -1.3770
#
#
#
# Elastic Compliance Matrix: (Units=1/GPa)
#
#
# Indices 1 2 3 4 5 6 
#
# 1 0.017331 -0.005868 -0.003207 0.000000 -0.003169 0.000000
# 2 -0.005868 0.024023 -0.009427 0.000000 -0.000786 0.000000
# 3 -0.003207 -0.009427 0.011445 0.000000 0.002745 0.000000
# 4 0.000000 0.000000 0.000000 0.013730 0.000000 -0.078300
# 5 -0.003169 -0.000786 0.002745 0.000000 0.033326 0.000000
# 6 0.000000 0.000000 0.000000 -0.078300 0.000000 -0.279678
#
#
# Mechanical properties :
#
#
# Convention : Reuss Voigt Hill
#
# Bulk Modulus (GPa) = 63.30825 78.79238 71.05031
# Shear Modulus (GPa) = -36.34935 22.01103 -7.16916
#
# Velocity S-wave (km/s) = -4.26197 3.31651 -1.89276
# Velocity P-wave (km/s) = 2.72342 7.35116 5.54331
#
# Compressibility (1/GPa) = 0.01579573
#
# Stress axis : x y z
#
# Youngs Moduli (GPa) = 57.70011 41.62682 87.37553
#
# Poissons Ratio (x) = 0.24426 0.28019
# Poissons Ratio (y) = 0.33858 0.82368
# Poissons Ratio (z) = 0.18503 0.39241
#
# Static dielectric constant tensor:
#      x y z
#    x 3.615050 0.000000 -0.311560 
#    y 0.000000 3.889310 0.000000 
#    z -0.311560 0.000000 3.999020 
# 
# 
# High freq. dielectric constant tensor:
#      x y z
#    x 1.759530 0.000000 -0.007260 
#    y 0.000000 1.771880 0.000000 
#    z -0.007260 0.000000 1.804470 
# 
# From -- ./inp_files/119495.got.cif
#   From: 2010.06.25/outbox.cif.g09.slc.cpg/sg15_60_cif.got.tgz:119495.got - 2010.06.28 07:06:18.
