data_PCOD8136927
_publ_section_title
;
Structure prediction by ZEFSAII (Michael W. Deem and Ramdas Pophale) SiO2 
 PCOD8136927
Probable space group: C 2/C
;
_chemical_formula_sum "Si O2"
_cell_formula_units_Z 40
_cell_length_a 14.926920
_cell_length_b 8.524183
_cell_length_c 24.057049
_cell_angle_alpha 90.000000
_cell_angle_beta 41.192157
_cell_angle_gamma 90.000000
_cell_volume 2015.942402
_symmetry_space_group_name_H-M "C 2/C"
_symmetry_group_IT_number 15
_symmetry_cell_setting 'monoclinic'
loop_
_space_group_symop_operation_xyz
x,y,z
-x,y,1/2-z
-x,-y,-z
x,-y,1/2+z
1/2+x,1/2+y,z
1/2-x,1/2+y,1/2-z
1/2-x,1/2-y,-z
1/2+x,1/2-y,1/2+z
loop_
_atom_site_type_symbol
_atom_site_label
_atom_site_fract_x
_atom_site_fract_y
_atom_site_fract_z
Si Si1 0.868384 0.641114 0.345490
Si Si2 0.499196 0.668897 0.879637
Si Si3 0.854837 0.939594 0.290198
Si Si4 0.617023 0.557479 0.985899
Si Si5 0.898005 0.637961 0.063503
O O1 0.795142 0.782751 0.346612
O O2 0.765622 0.497697 0.396746
O O3 0.000000 0.582281 0.250000
O O4 0.908624 0.708817 0.387045
O O5 0.623285 0.598115 0.785340
O O6 0.549526 0.761953 0.909453
O O7 0.410790 0.516752 0.940302
O O8 0.000000 0.982773 0.250000
O O9 0.749150 0.077423 0.349020
O O10 0.618247 0.747730 0.982800
O O11 0.500000 0.500000 0.000000
O O12 0.000000 0.500000 0.000000
#
# Coordination Sequence:
#
# PCOD8136927 Si02
#       5
#     8   8   8   8   8
#     4   9  19  38  60  82 112 150 189 229 278 338
#     4   9  20  37  60  81 110 152 189 229 283 340
#     4   9  20  39  58  80 111 146 184 232 279 329
#     4  10  20  35  57  82 111 149 186 225 277 337
#     4  11  23  37  56  85 117 145 185 239 282 332
#
# _framework density 19.841837999999999
#
# number of rings (size 3 to 8) (size 9 to 14) (size 15 to 20)
#    0.000    2.800    0.000    3.000    0.000   10.400 
#    0.000    9.000    0.000    0.000    0.000    0.000 
#    0.000    0.000    0.000    0.000    0.000    0.000 
#
# Total GULP energy -247856.930645 kJ/mol
# GULP energy per Si atom -12392.846532 kJ/mol
# Density = 1.979668 g / cm^3
# Si number density = 19.841838 Si / 1000 Ang^3
#
#
#
# Elastic Constant Matrix: (Units=GPa)
#
#
# Indices 1 2 3 4 5 6 
#
# 1 57.6497 44.3807 49.2850 0.0000 5.2338 0.0003
# 2 44.3807 141.5261 73.6979 0.0001 -9.0697 0.0008
# 3 49.2850 73.6979 104.4131 0.0000 -3.6172 0.0000
# 4 0.0000 0.0001 0.0000 45.1482 0.0000 -10.8438
# 5 5.2338 -9.0697 -3.6172 0.0000 26.7747 0.0000
# 6 0.0003 0.0008 0.0000 -10.8438 0.0000 20.7770
#
#
#
# Elastic Compliance Matrix: (Units=1/GPa)
#
#
# Indices 1 2 3 4 5 6 
#
# 1 0.032125 -0.004126 -0.012576 0.000000 -0.009376 0.000000
# 2 -0.004126 0.011905 -0.006317 0.000000 0.003986 0.000000
# 3 -0.012576 -0.006317 0.020077 0.000000 0.003031 0.000000
# 4 0.000000 0.000000 0.000000 0.025324 0.000000 0.013217
# 5 -0.009376 0.003986 0.003031 0.000000 0.040941 0.000000
# 6 0.000000 0.000000 0.000000 0.013217 0.000000 0.055028
#
#
# Mechanical properties :
#
#
# Convention : Reuss Voigt Hill
#
# Bulk Modulus (GPa) = 55.34464 70.92399 63.13432
# Shear Modulus (GPa) = 21.05602 27.62168 24.33885
#
# Velocity S-wave (km/s) = 3.26113 3.73512 3.50615
# Velocity P-wave (km/s) = 6.49103 7.37725 6.94828
#
# Compressibility (1/GPa) = 0.01806860
#
# Stress axis : x y z
#
# Youngs Moduli (GPa) = 31.12809 84.00105 49.80728
#
# Poissons Ratio (x) = 0.34659 0.62640
# Poissons Ratio (y) = 0.12843 0.31463
# Poissons Ratio (z) = 0.39148 0.53064
#
# Static dielectric constant tensor:
#      x y z
#    x 3.508910 0.000000 0.169700 
#    y 0.000000 3.896880 0.000000 
#    z 0.169700 0.000000 3.825810 
# 
# 
# High freq. dielectric constant tensor:
#      x y z
#    x 1.759590 0.000000 0.002180 
#    y 0.000000 1.766450 0.000000 
#    z 0.002180 0.000000 1.786210 
# 
# From -- ./inp_files/158843.got.cif
#   From: 2010.06.25/outbox.cif.g09.slc.cpg/sg15_80_cif.got.tgz:158843.got - 2010.06.28 07:06:18.
