data_PCOD8136392
_publ_section_title
;
Structure prediction by ZEFSAII (Michael W. Deem and Ramdas Pophale) SiO2 
 PCOD8136392
Probable space group: C 2/C
;
_chemical_formula_sum "Si O2"
_cell_formula_units_Z 56
_cell_length_a 16.558446
_cell_length_b 11.225930
_cell_length_c 14.683961
_cell_angle_alpha 90.000000
_cell_angle_beta 51.969043
_cell_angle_gamma 90.000000
_cell_volume 2149.977137
_symmetry_space_group_name_H-M "C 2/C"
_symmetry_group_IT_number 15
_symmetry_cell_setting 'monoclinic'
loop_
_space_group_symop_operation_xyz
x,y,z
-x,y,1/2-z
-x,-y,-z
x,-y,1/2+z
1/2+x,1/2+y,z
1/2-x,1/2+y,1/2-z
1/2-x,1/2-y,-z
1/2+x,1/2-y,1/2+z
loop_
_atom_site_type_symbol
_atom_site_label
_atom_site_fract_x
_atom_site_fract_y
_atom_site_fract_z
Si Si1 0.058740 0.683959 0.121382
Si Si2 0.580202 0.830454 0.959272
Si Si3 0.417134 0.547253 0.880278
Si Si4 0.107896 0.971575 0.818061
Si Si5 0.206557 0.439819 0.400736
Si Si6 0.708151 0.404063 0.409971
Si Si7 0.615308 0.806814 0.306419
O O1 0.000000 0.632203 0.250000
O O2 0.979673 0.691270 0.092933
O O3 0.106249 0.813046 0.112703
O O4 0.156216 0.598694 0.031572
O O5 0.655677 0.941096 0.895826
O O6 0.642402 0.714665 0.943465
O O7 0.497253 0.861561 0.096371
O O8 0.500000 0.491317 0.750000
O O9 0.495357 0.528171 0.913673
O O10 0.316184 0.467062 0.975922
O O11 0.168068 0.035692 0.684636
O O12 0.104158 0.832924 0.801384
O O13 0.184144 0.000275 0.847324
O O14 0.188641 0.331666 0.342545
O O15 0.828863 0.367301 0.320102
#
# Coordination Sequence:
#
# PCOD8136392 Si02
#       7
#     8   8   8   8   8   8   8
#     4  10  21  39  60  87 120 157 192 238 303 349
#     4  11  19  38  63  87 119 151 198 245 287 344
#     4  11  23  40  60  86 120 156 195 244 296 353
#     4  11  20  37  62  87 115 153 201 246 286 345
#     4  10  22  37  59  93 119 150 198 251 282 351
#     4  11  20  35  62  87 111 154 197 246 288 339
#     4  10  20  33  60  89 114 149 203 240 287 339
#
# _framework density 26.046789
#
# number of rings (size 3 to 8) (size 9 to 14) (size 15 to 20)
#    0.000    1.429    4.286    3.857    0.000    0.000 
#    0.000    8.571    0.000    0.000    0.000    0.000 
#    0.000    0.000    0.000    0.000    0.000    0.000 
#
# Total GULP energy -347120.955205 kJ/mol
# GULP energy per Si atom -12397.176972 kJ/mol
# Density = 2.598750 g / cm^3
# Si number density = 26.046789 Si / 1000 Ang^3
#
#
#
# Elastic Constant Matrix: (Units=GPa)
#
#
# Indices 1 2 3 4 5 6 
#
# 1 53.4061 22.3480 25.0038 0.0000 -22.1522 0.0000
# 2 22.3480 97.9696 35.4713 0.0000 -4.4031 0.0000
# 3 25.0038 35.4713 162.7097 0.0000 -20.9291 0.0000
# 4 0.0000 0.0000 0.0000 54.1206 0.0000 -1.9775
# 5 -22.1522 -4.4031 -20.9291 0.0000 44.2465 0.0000
# 6 0.0000 0.0000 0.0000 -1.9775 0.0000 25.8889
#
#
#
# Elastic Compliance Matrix: (Units=1/GPa)
#
#
# Indices 1 2 3 4 5 6 
#
# 1 0.026495 -0.004983 -0.001430 0.000000 0.012093 0.000000
# 2 -0.004983 0.012019 -0.002153 0.000000 -0.002317 0.000000
# 3 -0.001430 -0.002153 0.007150 0.000000 0.002452 0.000000
# 4 0.000000 0.000000 0.000000 0.018529 0.000000 0.001415
# 5 0.012093 -0.002317 0.002452 0.000000 0.029584 0.000000
# 6 0.000000 0.000000 0.000000 0.001415 0.000000 0.038735
#
#
# Mechanical properties :
#
#
# Convention : Reuss Voigt Hill
#
# Bulk Modulus (GPa) = 35.04563 53.30351 44.17457
# Shear Modulus (GPa) = 31.41631 40.26871 35.84251
#
# Velocity S-wave (km/s) = 3.47673 3.93620 3.71358
# Velocity P-wave (km/s) = 5.44068 6.41617 5.94845
#
# Compressibility (1/GPa) = 0.02853423
#
# Stress axis : x y z
#
# Youngs Moduli (GPa) = 37.74347 83.20123 139.85427
#
# Poissons Ratio (x) = 0.41456 0.19996
# Poissons Ratio (y) = 0.18806 0.30104
# Poissons Ratio (z) = 0.05397 0.17909
#
# Static dielectric constant tensor:
#      x y z
#    x 5.072790 0.000000 -0.152630 
#    y 0.000000 4.499610 0.000000 
#    z -0.152630 0.000000 5.592550 
# 
# 
# High freq. dielectric constant tensor:
#      x y z
#    x 2.037150 0.000000 -0.013300 
#    y 0.000000 2.038580 0.000000 
#    z -0.013300 0.000000 2.073600 
# 
# From -- ./inp_files/161429.got.cif
#   From: 2010.06.25/outbox.cif.g09.slc.cpg/sg15_81_cif.got.tgz:161429.got - 2010.06.28 07:06:18.
