data_PCOD8136720
_publ_section_title
;
Structure prediction by ZEFSAII (Michael W. Deem and Ramdas Pophale) SiO2 
 PCOD8136720
Probable space group: C 2/C
;
_chemical_formula_sum "Si O2"
_cell_formula_units_Z 56
_cell_length_a 11.149239
_cell_length_b 27.717119
_cell_length_c 9.874754
_cell_angle_alpha 90.000000
_cell_angle_beta 116.354319
_cell_angle_gamma 90.000000
_cell_volume 2734.384504
_symmetry_space_group_name_H-M "C 2/C"
_symmetry_group_IT_number 15
_symmetry_cell_setting 'monoclinic'
loop_
_space_group_symop_operation_xyz
x,y,z
-x,y,1/2-z
-x,-y,-z
x,-y,1/2+z
1/2+x,1/2+y,z
1/2-x,1/2+y,1/2-z
1/2-x,1/2-y,-z
1/2+x,1/2-y,1/2+z
loop_
_atom_site_type_symbol
_atom_site_label
_atom_site_fract_x
_atom_site_fract_y
_atom_site_fract_z
Si Si1 0.401497 0.000792 0.079460
Si Si2 0.343323 0.900928 0.144985
Si Si3 0.236190 0.654679 0.149604
Si Si4 0.500112 0.224475 0.999653
Si Si5 0.000000 0.211985 0.750000
Si Si6 0.236158 0.344817 0.149699
Si Si7 0.500000 0.288416 0.750000
Si Si8 0.156242 0.599747 0.356069
O O1 0.500000 0.004549 0.250000
O O2 0.312107 0.952862 0.058499
O O3 0.310178 0.048706 0.051388
O O4 0.500000 0.000000 0.000000
O O5 0.500000 0.895214 0.250000
O O6 0.272194 0.891264 0.253560
O O7 0.286260 0.861203 0.015494
O O8 0.379920 0.678251 0.241894
O O9 0.228072 0.608573 0.247555
O O10 0.119872 0.693018 0.123837
O O11 0.380338 0.193298 0.874157
O O12 0.553570 0.256947 0.902661
O O13 0.446538 0.256518 0.097422
O O14 0.879962 0.178693 0.742414
O O15 0.212962 0.359736 0.983580
O O16 0.000000 0.606361 0.250000
#
# Coordination Sequence:
#
# PCOD8136720 Si02
#       8
#     8   8   8   8   4   8   4   8
#     4  10  20  34  60  95 124 145 192 251 296 345
#     4  11  20  38  61  91 119 153 194 245 300 351
#     4  12  23  39  63  85 123 156 200 246 297 356
#     4  12  22  42  60  85 118 155 214 250 292 340
#     4  12  26  40  58  89 118 163 202 248 298 348
#     4  12  23  39  63  85 123 156 200 246 297 356
#     4  12  26  40  58  89 118 163 202 248 298 348
#     4  11  20  38  61  91 119 153 194 245 300 351
#
# _framework density 20.479928999999998
#
# number of rings (size 3 to 8) (size 9 to 14) (size 15 to 20)
#    0.000    0.571    2.857    8.571    0.000    0.000 
#    0.000    0.000    0.000    5.143    0.000    0.000 
#    0.000    0.000    0.000    0.000    0.000    0.000 
#
# Total GULP energy -347129.115724 kJ/mol
# GULP energy per Si atom -12397.468419 kJ/mol
# Density = 2.043332 g / cm^3
# Si number density = 20.479929 Si / 1000 Ang^3
#
#
#
# Elastic Constant Matrix: (Units=GPa)
#
#
# Indices 1 2 3 4 5 6 
#
# 1 103.6085 48.3851 22.9149 0.0000 -1.7670 0.0000
# 2 48.3851 105.6029 31.5266 0.0000 -3.4712 0.0000
# 3 22.9149 31.5266 96.8036 0.0000 -23.3965 0.0000
# 4 0.0000 0.0000 0.0000 36.4334 0.0000 -25.5278
# 5 -1.7670 -3.4712 -23.3965 0.0000 33.6529 0.0000
# 6 0.0000 0.0000 0.0000 -25.5278 0.0000 31.2523
#
#
#
# Elastic Compliance Matrix: (Units=1/GPa)
#
#
# Indices 1 2 3 4 5 6 
#
# 1 0.012426 -0.005295 -0.001432 0.000000 -0.000889 0.000000
# 2 -0.005295 0.012814 -0.003206 0.000000 -0.001185 0.000000
# 3 -0.001432 -0.003206 0.013961 0.000000 0.009300 0.000000
# 4 0.000000 0.000000 0.000000 0.064178 0.000000 0.052423
# 5 -0.000889 -0.001185 0.009300 0.000000 0.036012 0.000000
# 6 0.000000 0.000000 0.000000 0.052423 0.000000 0.074818
#
#
# Mechanical properties :
#
#
# Convention : Reuss Voigt Hill
#
# Bulk Modulus (GPa) = 51.72079 56.85203 54.28641
# Shear Modulus (GPa) = 20.78823 33.81363 27.30093
#
# Velocity S-wave (km/s) = 3.18945 4.06773 3.65507
# Velocity P-wave (km/s) = 6.23479 7.06273 6.66163
#
# Compressibility (1/GPa) = 0.01933459
#
# Stress axis : x y z
#
# Youngs Moduli (GPa) = 80.47610 78.04108 71.62761
#
# Poissons Ratio (x) = 0.41324 0.10256
# Poissons Ratio (y) = 0.42613 0.22965
# Poissons Ratio (z) = 0.11523 0.25021
#
# Static dielectric constant tensor:
#      x y z
#    x 3.522070 0.000000 -0.324290 
#    y 0.000000 -34.672730 0.000000 
#    z -0.324290 0.000000 3.793500 
# 
# 
# High freq. dielectric constant tensor:
#      x y z
#    x 1.765290 0.000000 -0.023600 
#    y 0.000000 1.806960 0.000000 
#    z -0.023600 0.000000 1.815440 
# 
# From -- ./inp_files/34375.got.cif
#   From: 2010.06.25/outbox.cif.g09.slc.cpg/sg15_18_cif.got.tgz:34375.got - 2010.06.28 07:06:18.
