data_PCOD8136468
_publ_section_title
;
Structure prediction by ZEFSAII (Michael W. Deem and Ramdas Pophale) SiO2 
 PCOD8136468
Probable space group: C 2/C
;
_chemical_formula_sum "Si O2"
_cell_formula_units_Z 60
_cell_length_a 11.619306
_cell_length_b 18.627965
_cell_length_c 17.555197
_cell_angle_alpha 90.000000
_cell_angle_beta 119.061539
_cell_angle_gamma 90.000000
_cell_volume 3321.327332
_symmetry_space_group_name_H-M "C 2/C"
_symmetry_group_IT_number 15
_symmetry_cell_setting 'monoclinic'
loop_
_space_group_symop_operation_xyz
x,y,z
-x,y,1/2-z
-x,-y,-z
x,-y,1/2+z
1/2+x,1/2+y,z
1/2-x,1/2+y,1/2-z
1/2-x,1/2-y,-z
1/2+x,1/2-y,1/2+z
loop_
_atom_site_type_symbol
_atom_site_label
_atom_site_fract_x
_atom_site_fract_y
_atom_site_fract_z
Si Si1 0.968375 0.712782 0.453588
Si Si2 0.069448 0.875606 0.844402
Si Si3 0.000000 0.385476 0.250000
Si Si4 0.366551 0.300834 0.872588
Si Si5 0.658842 0.934968 0.553981
Si Si6 0.302269 0.761303 0.189985
Si Si7 0.004684 0.504346 0.373904
Si Si8 0.593348 0.151623 0.346054
O O1 0.910151 0.642194 0.474600
O O2 0.850140 0.763784 0.385130
O O3 0.056486 0.750206 0.544975
O O4 0.062551 0.692308 0.414180
O O5 0.185446 0.927549 0.908614
O O6 0.122712 0.797845 0.835692
O O7 0.000000 0.913421 0.750000
O O8 0.965260 0.864291 0.878606
O O9 0.870088 0.337530 0.194132
O O10 0.026675 0.434296 0.185111
O O11 0.313795 0.256151 0.783242
O O12 0.245426 0.337805 0.875766
O O13 0.609962 0.988082 0.473447
O O14 0.629461 0.968063 0.628448
O O15 0.066918 0.566557 0.342460
O O16 0.500000 0.183747 0.250000
#
# Coordination Sequence:
#
# PCOD8136468 Si02
#       8
#     8   8   4   8   8   8   8   8
#     4  10  21  35  61  85 109 147 181 237 291 329
#     4   9  19  33  57  85 113 143 177 230 287 333
#     4  12  20  32  56  86 118 138 190 234 274 326
#     4  11  20  35  58  86 112 146 183 239 286 329
#     4   9  20  38  56  81 111 140 191 224 279 332
#     4  10  20  34  53  89 117 135 185 234 293 326
#     4  10  22  35  57  81 106 153 187 228 264 334
#     4  11  21  39  57  80 112 153 193 222 275 351
#
# _framework density 18.065066000000002
#
# number of rings (size 3 to 8) (size 9 to 14) (size 15 to 20)
#    0.000    1.867    4.000    1.200    3.733    1.067 
#    0.000    0.667    2.933    0.000    0.000    0.000 
#    0.000    0.000    0.000    0.000    0.000    0.000 
#
# Total GULP energy -372014.490641 kJ/mol
# GULP energy per Si atom -12400.483021 kJ/mol
# Density = 1.802395 g / cm^3
# Si number density = 18.065066 Si / 1000 Ang^3
#
#
#
# Elastic Constant Matrix: (Units=GPa)
#
#
# Indices 1 2 3 4 5 6 
#
# 1 119.0927 24.4205 30.9846 0.0000 12.5779 0.0000
# 2 24.4205 54.6886 17.3547 0.0000 6.3780 0.0000
# 3 30.9846 17.3547 76.9548 0.0000 5.1638 0.0000
# 4 0.0000 0.0000 0.0000 20.7717 0.0000 3.0929
# 5 12.5779 6.3780 5.1638 0.0000 24.4372 0.0000
# 6 0.0000 0.0000 0.0000 3.0929 0.0000 16.5922
#
#
#
# Elastic Compliance Matrix: (Units=1/GPa)
#
#
# Indices 1 2 3 4 5 6 
#
# 1 0.010266 -0.003135 -0.003172 0.000000 -0.003795 0.000000
# 2 -0.003135 0.021100 -0.003281 0.000000 -0.003200 0.000000
# 3 -0.003172 -0.003281 0.015058 0.000000 -0.000693 0.000000
# 4 0.000000 0.000000 0.000000 0.049517 0.000000 -0.009230
# 5 -0.003795 -0.003200 -0.000693 0.000000 0.043856 0.000000
# 6 0.000000 0.000000 0.000000 -0.009230 0.000000 0.061990
#
#
# Mechanical properties :
#
#
# Convention : Reuss Voigt Hill
#
# Bulk Modulus (GPa) = 36.70046 44.02841 40.36443
# Shear Modulus (GPa) = 21.73487 24.22529 22.98008
#
# Velocity S-wave (km/s) = 3.47240 3.66594 3.57048
# Velocity P-wave (km/s) = 6.03627 6.50722 6.27616
#
# Compressibility (1/GPa) = 0.02724762
#
# Stress axis : x y z
#
# Youngs Moduli (GPa) = 97.41211 47.39399 66.40903
#
# Poissons Ratio (x) = 0.14857 0.21063
# Poissons Ratio (y) = 0.30538 0.21792
# Poissons Ratio (z) = 0.30896 0.15552
#
# Static dielectric constant tensor:
#      x y z
#    x 3.459760 0.000000 0.017380 
#    y 0.000000 3.145880 0.000000 
#    z 0.017380 0.000000 3.436440 
# 
# 
# High freq. dielectric constant tensor:
#      x y z
#    x 1.702480 0.000000 -0.004990 
#    y 0.000000 1.674440 0.000000 
#    z -0.004990 0.000000 1.709110 
# 
# From -- ./inp_files/199519.got.cif
#   From: 2010.06.25/outbox.cif.g09.slc.cpg/sg15_100_cif.got.tgz:199519.got - 2010.06.28 07:06:18.
