data_PCOD8136246
_publ_section_title
;
Structure prediction by ZEFSAII (Michael W. Deem and Ramdas Pophale) SiO2 
 PCOD8136246
Probable space group: C 2/C
;
_chemical_formula_sum "Si O2"
_cell_formula_units_Z 60
_cell_length_a 33.503605
_cell_length_b 21.203303
_cell_length_c 9.093431
_cell_angle_alpha 90.000000
_cell_angle_beta 147.570489
_cell_angle_gamma 90.000000
_cell_volume 3464.172744
_symmetry_space_group_name_H-M "C 2/C"
_symmetry_group_IT_number 15
_symmetry_cell_setting 'monoclinic'
loop_
_space_group_symop_operation_xyz
x,y,z
-x,y,1/2-z
-x,-y,-z
x,-y,1/2+z
1/2+x,1/2+y,z
1/2-x,1/2+y,1/2-z
1/2-x,1/2-y,-z
1/2+x,1/2-y,1/2+z
loop_
_atom_site_type_symbol
_atom_site_label
_atom_site_fract_x
_atom_site_fract_y
_atom_site_fract_z
Si Si1 0.000000 0.494723 0.250000
Si Si2 0.834919 0.387645 0.436306
Si Si3 0.802258 0.372164 0.000904
Si Si4 0.187267 0.195444 0.969410
Si Si5 0.570367 0.236206 0.275318
Si Si6 0.402485 0.752366 0.306460
Si Si7 0.286872 0.319244 0.274726
Si Si8 0.601917 0.025619 0.818949
O O1 0.943062 0.453873 0.173159
O O2 0.048172 0.538077 0.510995
O O3 0.800987 0.389755 0.167559
O O4 0.898047 0.334238 0.648782
O O5 0.764267 0.375918 0.323056
O O6 0.874395 0.452745 0.600178
O O7 0.859218 0.316639 0.141557
O O8 0.825932 0.431607 0.974767
O O9 0.720031 0.353291 0.691282
O O10 0.237977 0.256859 0.123871
O O11 0.105001 0.215655 0.764327
O O12 0.185393 0.163539 0.802902
O O13 0.591828 0.261289 0.503251
O O14 0.482240 0.237737 0.978040
O O15 0.359504 0.692951 0.101446
#
# Coordination Sequence:
#
# PCOD8136246 Si02
#       8
#     4   8   8   8   8   8   8   8
#     4  10  24  34  48  66 108 130 170 206 236 272
#     4  10  20  33  50  68  97 134 169 199 235 285
#     4  10  20  33  50  68  97 134 169 199 235 285
#     4   9  18  32  47  69  95 123 160 205 246 285
#     4   9  18  31  50  71  95 128 164 198 242 292
#     4   9  18  31  50  71  95 128 164 198 242 292
#     4   9  18  32  47  69  95 123 160 205 246 285
#     4  11  22  36  48  72  99 136 168 202 239 284
#
# _framework density 17.320153999999999
#
# number of rings (size 3 to 8) (size 9 to 14) (size 15 to 20)
#    0.000    2.400    1.333    0.800    5.600    3.733 
#    0.000    0.000    0.000    0.000    0.000    0.933 
#    0.000    0.000    0.000    0.000    0.000    0.000 
#
# Total GULP energy -371912.448690 kJ/mol
# GULP energy per Si atom -12397.081623 kJ/mol
# Density = 1.728073 g / cm^3
# Si number density = 17.320154 Si / 1000 Ang^3
#
#
#
# Elastic Constant Matrix: (Units=GPa)
#
#
# Indices 1 2 3 4 5 6 
#
# 1 125.2358 37.6209 30.7451 0.0000 2.4972 0.0000
# 2 37.6209 52.5166 24.8322 0.0000 3.9274 0.0000
# 3 30.7451 24.8322 68.1766 0.0000 1.5858 0.0000
# 4 0.0000 0.0000 0.0000 12.1057 0.0000 1.8511
# 5 2.4972 3.9274 1.5858 0.0000 25.0192 0.0000
# 6 0.0000 0.0000 0.0000 1.8511 0.0000 21.9528
#
#
#
# Elastic Compliance Matrix: (Units=1/GPa)
#
#
# Indices 1 2 3 4 5 6 
#
# 1 0.010492 -0.006386 -0.002408 0.000000 0.000108 0.000000
# 2 -0.006386 0.027130 -0.006928 0.000000 -0.003182 0.000000
# 3 -0.002408 -0.006928 0.018273 0.000000 0.000170 0.000000
# 4 0.000000 0.000000 0.000000 0.083685 0.000000 -0.007056
# 5 0.000108 -0.003182 0.000170 0.000000 0.040447 0.000000
# 6 0.000000 0.000000 0.000000 -0.007056 0.000000 0.046147
#
#
# Mechanical properties :
#
#
# Convention : Reuss Voigt Hill
#
# Bulk Modulus (GPa) = 40.89678 48.03614 44.46646
# Shear Modulus (GPa) = 18.81335 21.99758 20.40547
#
# Velocity S-wave (km/s) = 3.29935 3.56765 3.43612
# Velocity P-wave (km/s) = 6.17882 6.69069 6.43984
#
# Compressibility (1/GPa) = 0.02445180
#
# Stress axis : x y z
#
# Youngs Moduli (GPa) = 95.30852 36.85989 54.72475
#
# Poissons Ratio (x) = 0.23537 0.13179
# Poissons Ratio (y) = 0.60860 0.37913
# Poissons Ratio (z) = 0.22953 0.25536
#
# Static dielectric constant tensor:
#      x y z
#    x 3.506570 0.000000 -0.060770 
#    y 0.000000 2.872680 0.000000 
#    z -0.060770 0.000000 3.240800 
# 
# 
# High freq. dielectric constant tensor:
#      x y z
#    x 1.682330 0.000000 -0.009350 
#    y 0.000000 1.622210 0.000000 
#    z -0.009350 0.000000 1.659570 
# 
# From -- ./inp_files/70773.got.cif
#   From: 2010.06.25/outbox.cif.g09.slc.cpg/sg15_36_cif.got.tgz:70773.got - 2010.06.28 07:06:18.
