data_PCOD8136893
_publ_section_title
;
Structure prediction by ZEFSAII (Michael W. Deem and Ramdas Pophale) SiO2 
 PCOD8136893
Probable space group: C 2/C
;
_chemical_formula_sum "Si O2"
_cell_formula_units_Z 56
_cell_length_a 14.004856
_cell_length_b 22.570346
_cell_length_c 9.926912
_cell_angle_alpha 90.000000
_cell_angle_beta 111.014205
_cell_angle_gamma 90.000000
_cell_volume 2929.148754
_symmetry_space_group_name_H-M "C 2/C"
_symmetry_group_IT_number 15
_symmetry_cell_setting 'monoclinic'
loop_
_space_group_symop_operation_xyz
x,y,z
-x,y,1/2-z
-x,-y,-z
x,-y,1/2+z
1/2+x,1/2+y,z
1/2-x,1/2+y,1/2-z
1/2-x,1/2-y,-z
1/2+x,1/2-y,1/2+z
loop_
_atom_site_type_symbol
_atom_site_label
_atom_site_fract_x
_atom_site_fract_y
_atom_site_fract_z
Si Si1 0.879602 0.767935 0.446143
Si Si2 0.887849 0.244102 0.464211
Si Si3 0.498894 0.051697 0.101895
Si Si4 0.278474 0.058720 0.305081
Si Si5 0.793729 0.824923 0.153871
Si Si6 0.724225 0.942609 0.009869
Si Si7 0.195580 0.819683 0.826561
O O1 0.845575 0.819929 0.326390
O O2 0.877803 0.798393 0.591116
O O3 0.805130 0.711925 0.396067
O O4 0.992089 0.742118 0.476614
O O5 0.858921 0.219424 0.595253
O O6 0.824782 0.304006 0.401285
O O7 0.858507 0.194683 0.340833
O O8 0.500000 0.022186 0.250000
O O9 0.605511 0.086567 0.133019
O O10 0.390758 0.085933 0.032994
O O11 0.500000 0.000000 0.000000
O O12 0.207635 0.109391 0.332760
O O13 0.264576 0.001124 0.392403
O O14 0.250179 0.043455 0.134397
O O15 0.800455 0.892437 0.105288
#
# Coordination Sequence:
#
# PCOD8136893 Si02
#       7
#     8   8   8   8   8   8   8
#     4  10  22  37  60  84 116 150 187 238 285 332
#     4  10  20  39  60  84 114 148 187 241 283 330
#     4   8  16  30  48  75 106 144 181 217 273 331
#     4  10  20  35  57  81 115 152 187 235 284 338
#     4  10  21  36  58  91 111 143 197 228 284 348
#     4  10  20  35  56  82 116 150 187 235 285 338
#     4  10  21  38  58  87 113 150 196 224 286 349
#
# _framework density 19.118181
#
# number of rings (size 3 to 8) (size 9 to 14) (size 15 to 20)
#    0.000    2.286    1.429    0.857    4.000    0.000 
#    0.000    0.000    0.000    5.143    0.000    0.000 
#    0.000    0.000    0.000    0.000    0.000    0.000 
#
# Total GULP energy -346940.701162 kJ/mol
# GULP energy per Si atom -12390.739327 kJ/mol
# Density = 1.907467 g / cm^3
# Si number density = 19.118181 Si / 1000 Ang^3
#
#
#
# Elastic Constant Matrix: (Units=GPa)
#
#
# Indices 1 2 3 4 5 6 
#
# 1 81.6852 12.2277 18.5729 0.0000 0.3280 0.0000
# 2 12.2277 71.9383 30.2513 0.0000 0.8306 0.0000
# 3 18.5729 30.2513 72.5504 0.0000 -13.8708 0.0000
# 4 0.0000 0.0000 0.0000 24.4480 0.0000 -4.3953
# 5 0.3280 0.8306 -13.8708 0.0000 20.7812 0.0000
# 6 0.0000 0.0000 0.0000 -4.3953 0.0000 16.1122
#
#
#
# Elastic Compliance Matrix: (Units=1/GPa)
#
#
# Indices 1 2 3 4 5 6 
#
# 1 0.013169 -0.000710 -0.003564 0.000000 -0.002559 0.000000
# 2 -0.000710 0.017609 -0.008360 0.000000 -0.006273 0.000000
# 3 -0.003564 -0.008360 0.020927 0.000000 0.014359 0.000000
# 4 0.000000 0.000000 0.000000 0.043013 0.000000 0.011734
# 5 -0.002559 -0.006273 0.014359 0.000000 0.057995 0.000000
# 6 0.000000 0.000000 0.000000 0.011734 0.000000 0.065266
#
#
# Mechanical properties :
#
#
# Convention : Reuss Voigt Hill
#
# Bulk Modulus (GPa) = 37.82627 38.69753 38.26190
# Shear Modulus (GPa) = 19.83648 23.27641 21.55644
#
# Velocity S-wave (km/s) = 3.22463 3.49306 3.36152
# Velocity P-wave (km/s) = 5.80455 6.04597 5.92649
#
# Compressibility (1/GPa) = 0.02643665
#
# Stress axis : x y z
#
# Youngs Moduli (GPa) = 75.93519 56.78754 47.78486
#
# Poissons Ratio (x) = 0.04032 0.17033
# Poissons Ratio (y) = 0.05391 0.39949
# Poissons Ratio (z) = 0.27067 0.47475
#
# Static dielectric constant tensor:
#      x y z
#    x 3.914600 0.000000 0.065020 
#    y 0.000000 3.149170 0.000000 
#    z 0.065020 0.000000 3.700910 
# 
# 
# High freq. dielectric constant tensor:
#      x y z
#    x 1.733110 0.000000 -0.009040 
#    y 0.000000 1.713320 0.000000 
#    z -0.009040 0.000000 1.760010 
# 
# From -- ./inp_files/42276.got.cif
#   From: 2010.06.25/outbox.cif.g09.slc.cpg/sg15_22_cif.got.tgz:42276.got - 2010.06.28 07:06:18.
