data_PCOD8136301
_publ_section_title
;
Structure prediction by ZEFSAII (Michael W. Deem and Ramdas Pophale) SiO2 
 PCOD8136301
Probable space group: C 2/C
;
_chemical_formula_sum "Si O2"
_cell_formula_units_Z 52
_cell_length_a 18.691165
_cell_length_b 6.569666
_cell_length_c 26.212211
_cell_angle_alpha 90.000000
_cell_angle_beta 69.109407
_cell_angle_gamma 90.000000
_cell_volume 3007.131928
_symmetry_space_group_name_H-M "C 2/C"
_symmetry_group_IT_number 15
_symmetry_cell_setting 'monoclinic'
loop_
_space_group_symop_operation_xyz
x,y,z
-x,y,1/2-z
-x,-y,-z
x,-y,1/2+z
1/2+x,1/2+y,z
1/2-x,1/2+y,1/2-z
1/2-x,1/2-y,-z
1/2+x,1/2-y,1/2+z
loop_
_atom_site_type_symbol
_atom_site_label
_atom_site_fract_x
_atom_site_fract_y
_atom_site_fract_z
Si Si1 0.294460 0.445184 0.006107
Si Si2 0.000000 0.874979 0.750000
Si Si3 0.096413 0.250544 0.701418
Si Si4 0.336753 0.777478 0.919357
Si Si5 0.993896 0.472516 0.919356
Si Si6 0.949434 0.804812 0.006108
Si Si7 0.547828 0.000589 0.298583
O O1 0.238006 0.590324 0.051365
O O2 0.361681 0.374993 0.026636
O O3 0.250000 0.250000 0.000000
O O4 0.328306 0.557721 0.947761
O O5 0.964227 0.733720 0.714806
O O6 0.929012 0.016225 0.785178
O O7 0.163379 0.252382 0.642313
O O8 0.115257 0.375011 0.749993
O O9 0.028023 0.374921 0.693932
O O10 0.413740 0.875012 0.922520
O O11 0.039372 0.340308 0.948632
O O12 0.055698 0.497594 0.857683
O O13 0.973944 0.692271 0.947763
O O14 0.000000 0.000000 0.000000
#
# Coordination Sequence:
#
# PCOD8136301 Si02
#       7
#     8   4   8   8   8   8   8
#     4  11  22  35  53  79 110 144 177 212 269 316
#     4   8  14  24  44  70 104 140 162 204 284 308
#     4   8  16  28  46  75 108 131 171 218 261 311
#     4  10  20  33  53  80 110 138 177 221 261 318
#     4  10  20  33  53  80 110 138 177 221 261 318
#     4  11  22  35  53  79 110 144 177 212 269 316
#     4   8  16  28  46  75 108 131 171 218 261 311
#
# _framework density 17.292224000000001
#
# number of rings (size 3 to 8) (size 9 to 14) (size 15 to 20)
#    0.000    2.769    3.077    0.000    2.154    2.462 
#    0.000    0.000    0.000    0.000    8.000    0.000 
#    0.000    0.000    0.000    0.000    0.000    0.000 
#
# Total GULP energy -322123.734017 kJ/mol
# GULP energy per Si atom -12389.374385 kJ/mol
# Density = 1.725287 g / cm^3
# Si number density = 17.292224 Si / 1000 Ang^3
#
#
#
# Elastic Constant Matrix: (Units=GPa)
#
#
# Indices 1 2 3 4 5 6 
#
# 1 80.4150 33.1759 31.6411 0.0009 2.5570 -0.0008
# 2 33.1759 129.2128 55.5985 0.0033 -1.9069 -0.0015
# 3 31.6411 55.5985 163.4447 0.0019 -9.7093 -0.0001
# 4 0.0009 0.0033 0.0019 8.2989 0.0011 1.4895
# 5 2.5570 -1.9069 -9.7093 0.0011 10.7342 0.0009
# 6 -0.0008 -0.0015 -0.0001 1.4895 0.0009 25.4969
#
#
#
# Elastic Compliance Matrix: (Units=1/GPa)
#
#
# Indices 1 2 3 4 5 6 
#
# 1 0.014698 -0.002910 -0.002213 0.000001 -0.006020 0.000000
# 2 -0.002910 0.009658 -0.002725 -0.000003 -0.000056 0.000001
# 3 -0.002213 -0.002725 0.007901 -0.000001 0.007190 0.000000
# 4 0.000001 -0.000003 -0.000001 0.121774 -0.000014 -0.007114
# 5 -0.006020 -0.000056 0.007190 -0.000014 0.101087 -0.000003
# 6 0.000000 0.000001 0.000000 -0.007114 -0.000003 0.039636
#
#
# Mechanical properties :
#
#
# Convention : Reuss Voigt Hill
#
# Bulk Modulus (GPa) = 60.38684 68.21149 64.29916
# Shear Modulus (GPa) = 15.82413 25.74980 20.78697
#
# Velocity S-wave (km/s) = 3.02835 3.86307 3.47089
# Velocity P-wave (km/s) = 6.87205 7.70907 7.30256
#
# Compressibility (1/GPa) = 0.01655990
#
# Stress axis : x y z
#
# Youngs Moduli (GPa) = 68.03444 103.53793 126.56869
#
# Poissons Ratio (x) = 0.30135 0.28010
# Poissons Ratio (y) = 0.19801 0.34494
# Poissons Ratio (z) = 0.15056 0.28217
#
# Static dielectric constant tensor:
#      x y z
#    x 3.716440 0.000120 -0.052720 
#    y 0.000120 3.586490 0.000010 
#    z -0.052720 0.000010 4.323540 
# 
# 
# High freq. dielectric constant tensor:
#      x y z
#    x 1.617990 0.000000 -0.005190 
#    y 0.000000 1.687170 0.000000 
#    z -0.005190 0.000000 1.678030 
# 
# From -- ./inp_files/297469.got.cif
#   From: 2010.06.25/outbox.cif.g09.slc.cpg/sg15_149_cif.got.tgz:297469.got - 2010.06.28 07:06:18.
