data_PCOD8136632
_publ_section_title
;
Structure prediction by ZEFSAII (Michael W. Deem and Ramdas Pophale) SiO2 
 PCOD8136632
Probable space group: C 2/C
;
_chemical_formula_sum "Si O2"
_cell_formula_units_Z 60
_cell_length_a 22.327910
_cell_length_b 25.014715
_cell_length_c 8.735069
_cell_angle_alpha 90.000000
_cell_angle_beta 140.436526
_cell_angle_gamma 90.000000
_cell_volume 3107.445282
_symmetry_space_group_name_H-M "C 2/C"
_symmetry_group_IT_number 15
_symmetry_cell_setting 'monoclinic'
loop_
_space_group_symop_operation_xyz
x,y,z
-x,y,1/2-z
-x,-y,-z
x,-y,1/2+z
1/2+x,1/2+y,z
1/2-x,1/2+y,1/2-z
1/2-x,1/2-y,-z
1/2+x,1/2-y,1/2+z
loop_
_atom_site_type_symbol
_atom_site_label
_atom_site_fract_x
_atom_site_fract_y
_atom_site_fract_z
Si Si1 0.635918 0.517489 0.762262
Si Si2 0.821737 0.895873 0.706588
Si Si3 0.708074 0.618608 0.003672
Si Si4 0.182125 0.294532 0.934095
Si Si5 0.703116 0.197305 0.836503
Si Si6 0.985758 0.728028 0.900899
Si Si7 0.000000 0.995765 0.750000
Si Si8 0.505036 0.664402 0.586643
O O1 0.682020 0.458432 0.848272
O O2 0.559133 0.530137 0.744503
O O3 0.581091 0.536223 0.500137
O O4 0.718863 0.559136 0.954871
O O5 0.779395 0.884403 0.789995
O O6 0.762681 0.857155 0.478765
O O7 0.933010 0.884541 0.923980
O O8 0.793612 0.649591 0.096840
O O9 0.610479 0.645928 0.757471
O O10 0.075178 0.284647 0.680837
O O11 0.250000 0.250000 0.000000
O O12 0.193856 0.294523 0.138218
O O13 0.600691 0.191607 0.711944
O O14 0.750000 0.250000 0.000000
O O15 0.000000 0.716885 0.750000
O O16 0.967548 0.790844 0.894611
O O17 0.500000 0.687027 0.750000
#
# Coordination Sequence:
#
# PCOD8136632 Si02
#       8
#     8   8   8   8   8   8   4   8
#     4  11  22  38  56  87 130 166 210 253 306 363
#     4  11  23  39  60  87 127 169 210 253 303 365
#     4  11  23  39  60  87 127 169 210 253 303 365
#     4  12  25  42  63  91 123 162 208 256 309 370
#     4  12  25  42  63  91 123 162 208 256 309 370
#     4  12  24  42  63  89 124 161 206 257 311 369
#     4  10  20  36  58  86 128 170 208 248 304 372
#     4  10  20  34  58  86 124 168 204 252 301 354
#
# _framework density 19.308465999999999
#
# number of rings (size 3 to 8) (size 9 to 14) (size 15 to 20)
#    0.000    0.800    4.000    5.200    3.733    0.000 
#    2.400    0.000    0.000    0.800    0.000    0.000 
#    0.000    0.000    0.000    0.000    0.000    0.000 
#
# Total GULP energy -371869.804417 kJ/mol
# GULP energy per Si atom -12395.660147 kJ/mol
# Density = 1.926452 g / cm^3
# Si number density = 19.308466 Si / 1000 Ang^3
#
#
#
# Elastic Constant Matrix: (Units=GPa)
#
#
# Indices 1 2 3 4 5 6 
#
# 1 105.2714 34.1554 41.6760 0.0000 -13.5591 0.0000
# 2 34.1554 108.8193 35.7625 0.0000 -1.3760 0.0000
# 3 41.6760 35.7625 102.9556 0.0000 -14.0048 0.0000
# 4 0.0000 0.0000 0.0000 26.8887 0.0000 -0.8797
# 5 -13.5591 -1.3760 -14.0048 0.0000 38.5124 0.0000
# 6 0.0000 0.0000 0.0000 -0.8797 0.0000 20.0392
#
#
#
# Elastic Compliance Matrix: (Units=1/GPa)
#
#
# Indices 1 2 3 4 5 6 
#
# 1 0.012143 -0.002582 -0.003629 0.000000 0.002863 0.000000
# 2 -0.002582 0.010959 -0.002979 0.000000 -0.001601 0.000000
# 3 -0.003629 -0.002979 0.012654 0.000000 0.003218 0.000000
# 4 0.000000 0.000000 0.000000 0.037244 0.000000 0.001635
# 5 0.002863 -0.001601 0.003218 0.000000 0.028087 0.000000
# 6 0.000000 0.000000 0.000000 0.001635 0.000000 0.049974
#
#
# Mechanical properties :
#
#
# Convention : Reuss Voigt Hill
#
# Bulk Modulus (GPa) = 57.55325 60.02602 58.78963
# Shear Modulus (GPa) = 28.53355 30.78488 29.65921
#
# Velocity S-wave (km/s) = 3.84835 3.99729 3.92353
# Velocity P-wave (km/s) = 7.04403 7.24292 7.14417
#
# Compressibility (1/GPa) = 0.01737521
#
# Stress axis : x y z
#
# Youngs Moduli (GPa) = 82.35533 91.24994 79.02443
#
# Poissons Ratio (x) = 0.23565 0.28676
# Poissons Ratio (y) = 0.21268 0.23542
# Poissons Ratio (z) = 0.29885 0.27184
#
# Static dielectric constant tensor:
#      x y z
#    x 3.596420 0.000000 -0.128230 
#    y 0.000000 3.495250 0.000000 
#    z -0.128230 0.000000 3.856790 
# 
# 
# High freq. dielectric constant tensor:
#      x y z
#    x 1.752810 0.000000 -0.020810 
#    y 0.000000 1.740590 0.000000 
#    z -0.020810 0.000000 1.745590 
# 
# From -- ./inp_files/58771.got.cif
#   From: 2010.06.25/outbox.cif.g09.slc.cpg/sg15_30_cif.got.tgz:58771.got - 2010.06.28 07:06:18.
