data_PCOD8136573
_publ_section_title
;
Structure prediction by ZEFSAII (Michael W. Deem and Ramdas Pophale) SiO2 
 PCOD8136573
Probable space group: C 2/C
;
_chemical_formula_sum "Si O2"
_cell_formula_units_Z 60
_cell_length_a 21.602855
_cell_length_b 18.590557
_cell_length_c 8.901365
_cell_angle_alpha 90.000000
_cell_angle_beta 59.790466
_cell_angle_gamma 90.000000
_cell_volume 3089.370146
_symmetry_space_group_name_H-M "C 2/C"
_symmetry_group_IT_number 15
_symmetry_cell_setting 'monoclinic'
loop_
_space_group_symop_operation_xyz
x,y,z
-x,y,1/2-z
-x,-y,-z
x,-y,1/2+z
1/2+x,1/2+y,z
1/2-x,1/2+y,1/2-z
1/2-x,1/2-y,-z
1/2+x,1/2-y,1/2+z
loop_
_atom_site_type_symbol
_atom_site_label
_atom_site_fract_x
_atom_site_fract_y
_atom_site_fract_z
Si Si1 0.813690 0.745689 0.307797
Si Si2 0.346548 0.948378 0.119050
Si Si3 0.072205 0.216928 0.604640
Si Si4 0.019311 0.642084 0.017691
Si Si5 0.753823 0.333951 0.371164
Si Si6 0.500000 0.231994 0.750000
Si Si7 0.867547 0.590188 0.257076
Si Si8 0.361867 0.289645 0.784465
O O1 0.750000 0.750000 0.500000
O O2 0.880196 0.784310 0.305356
O O3 0.795089 0.787945 0.181269
O O4 0.829626 0.663024 0.249638
O O5 0.277143 0.911218 0.280775
O O6 0.347038 0.032643 0.154686
O O7 0.419658 0.915373 0.097379
O O8 0.338204 0.937600 0.951857
O O9 0.054408 0.299937 0.587139
O O10 0.111074 0.181541 0.412111
O O11 0.000000 0.176425 0.750000
O O12 0.952886 0.600291 0.172993
O O13 0.988637 0.681986 0.908341
O O14 0.700075 0.343671 0.579430
O O15 0.826541 0.289761 0.315578
O O16 0.430313 0.282685 0.811418
#
# Coordination Sequence:
#
# PCOD8136573 Si02
#       8
#     8   8   8   8   8   4   8   8
#     4  12  20  39  63  83 114 164 205 249 304 339
#     4  12  24  40  54  84 122 164 206 243 293 358
#     4  11  19  36  60  84 121 152 202 253 283 358
#     4  11  20  37  56  80 124 165 208 238 284 345
#     4  11  22  39  58  82 121 158 206 259 296 362
#     4  10  20  34  56  90 112 158 206 250 302 356
#     4  12  25  37  58  84 120 168 205 246 291 356
#     4  10  21  34  54  83 117 153 201 251 308 338
#
# _framework density 19.421434000000001
#
# number of rings (size 3 to 8) (size 9 to 14) (size 15 to 20)
#    0.000    0.800    8.000    1.600    3.733    2.133 
#    0.000    0.000    0.000    0.000    0.000    0.000 
#    2.000    4.267    0.000    0.000    0.000    0.000 
#
# Total GULP energy -371962.499646 kJ/mol
# GULP energy per Si atom -12398.749988 kJ/mol
# Density = 1.937723 g / cm^3
# Si number density = 19.421434 Si / 1000 Ang^3
#
#
#
# Elastic Constant Matrix: (Units=GPa)
#
#
# Indices 1 2 3 4 5 6 
#
# 1 98.0595 21.6790 14.3581 0.0000 -4.8534 0.0000
# 2 21.6790 54.8479 18.0694 0.0000 -8.1646 0.0000
# 3 14.3581 18.0694 114.7691 0.0000 -25.1936 0.0000
# 4 0.0000 0.0000 0.0000 24.3764 0.0000 2.2048
# 5 -4.8534 -8.1646 -25.1936 0.0000 32.9517 0.0000
# 6 0.0000 0.0000 0.0000 2.2048 0.0000 18.7625
#
#
#
# Elastic Compliance Matrix: (Units=1/GPa)
#
#
# Indices 1 2 3 4 5 6 
#
# 1 0.011234 -0.004191 -0.000734 0.000000 0.000056 0.000000
# 2 -0.004191 0.021033 -0.002137 0.000000 0.002960 0.000000
# 3 -0.000734 -0.002137 0.010817 0.000000 0.007633 0.000000
# 4 0.000000 0.000000 0.000000 0.041464 0.000000 -0.004872
# 5 0.000056 0.002960 0.007633 0.000000 0.036925 0.000000
# 6 0.000000 0.000000 0.000000 -0.004872 0.000000 0.053870
#
#
# Mechanical properties :
#
#
# Convention : Reuss Voigt Hill
#
# Bulk Modulus (GPa) = 34.52841 41.76549 38.14695
# Shear Modulus (GPa) = 25.11036 29.45611 27.28324
#
# Velocity S-wave (km/s) = 3.59962 3.89868 3.75213
# Velocity P-wave (km/s) = 5.92397 6.46667 6.20126
#
# Compressibility (1/GPa) = 0.02896166
#
# Stress axis : x y z
#
# Youngs Moduli (GPa) = 89.01163 47.54344 92.44790
#
# Poissons Ratio (x) = 0.19923 0.06781
# Poissons Ratio (y) = 0.37301 0.19761
# Poissons Ratio (z) = 0.06529 0.10162
#
# Static dielectric constant tensor:
#      x y z
#    x 3.378530 0.000000 -0.303840 
#    y 0.000000 2.973350 0.000000 
#    z -0.303840 0.000000 3.801960 
# 
# 
# High freq. dielectric constant tensor:
#      x y z
#    x 1.763990 0.000000 -0.002470 
#    y 0.000000 1.687220 0.000000 
#    z -0.002470 0.000000 1.782320 
# 
# From -- ./inp_files/56998.got.cif
#   From: 2010.06.25/outbox.cif.g09.slc.cpg/sg15_29_cif.got.tgz:56998.got - 2010.06.28 07:06:18.
