data_PCOD8136147
_publ_section_title
;
Structure prediction by ZEFSAII (Michael W. Deem and Ramdas Pophale) SiO2 
 PCOD8136147
Probable space group: C 2/C
;
_chemical_formula_sum "Si O2"
_cell_formula_units_Z 64
_cell_length_a 32.696976
_cell_length_b 9.037603
_cell_length_c 14.879191
_cell_angle_alpha 90.000000
_cell_angle_beta 131.763062
_cell_angle_gamma 90.000000
_cell_volume 3279.623627
_symmetry_space_group_name_H-M "C 2/C"
_symmetry_group_IT_number 15
_symmetry_cell_setting 'monoclinic'
loop_
_space_group_symop_operation_xyz
x,y,z
-x,y,1/2-z
-x,-y,-z
x,-y,1/2+z
1/2+x,1/2+y,z
1/2-x,1/2+y,1/2-z
1/2-x,1/2-y,-z
1/2+x,1/2-y,1/2+z
loop_
_atom_site_type_symbol
_atom_site_label
_atom_site_fract_x
_atom_site_fract_y
_atom_site_fract_z
Si Si1 0.634240 0.427940 0.865028
Si Si2 0.563657 0.469134 0.589987
Si Si3 0.669131 0.887112 0.367773
Si Si4 0.775610 0.928016 0.780265
Si Si5 0.343247 0.967001 0.959938
Si Si6 0.763625 0.894656 0.964122
Si Si7 0.869163 0.149369 0.945427
Si Si8 0.868938 0.710128 0.866152
O O1 0.585884 0.454938 0.723674
O O2 0.672603 0.286330 0.898307
O O3 0.673405 0.570070 0.921051
O O4 0.607321 0.408368 0.924280
O O5 0.500000 0.500000 0.500000
O O6 0.591173 0.604766 0.577579
O O7 0.577719 0.315796 0.558240
O O8 0.640179 0.967874 0.410495
O O9 0.633089 0.898189 0.223719
O O10 0.727296 0.963326 0.436380
O O11 0.722963 0.967080 0.643202
O O12 0.756670 0.860906 0.848134
O O13 0.814117 0.811894 0.783986
O O14 0.808368 0.081264 0.843785
O O15 0.366383 0.825965 0.940684
O O16 0.370812 0.112712 0.958534
O O17 0.750000 0.750000 0.000000
#
# Coordination Sequence:
#
# PCOD8136147 Si02
#       8
#     8   8   8   8   8   8   8   8
#     4   9  21  36  55  79 110 145 187 229 275 344
#     4  10  22  40  62  80 104 146 195 242 291 325
#     4  10  21  33  52  77 113 159 188 214 275 335
#     4  10  20  32  49  79 119 153 185 219 279 335
#     4  11  20  32  55  79 115 155 180 226 281 337
#     4  11  21  31  49  82 116 151 184 222 274 336
#     4   9  21  36  53  82 111 142 192 229 277 342
#     4  10  21  37  53  82 118 151 191 236 271 342
#
# _framework density 19.514434000000001
#
# number of rings (size 3 to 8) (size 9 to 14) (size 15 to 20)
#    0.000    2.000    1.250    1.875   10.500    0.500 
#    0.000    0.625    0.000    0.000    0.000   10.500 
#    0.000    0.000    0.000    0.000    0.000    0.000 
#
# Total GULP energy -396718.528449 kJ/mol
# GULP energy per Si atom -12397.454014 kJ/mol
# Density = 1.947002 g / cm^3
# Si number density = 19.514434 Si / 1000 Ang^3
#
#
#
# Elastic Constant Matrix: (Units=GPa)
#
#
# Indices 1 2 3 4 5 6 
#
# 1 87.7994 33.9900 42.1437 0.0000 -0.4570 0.0000
# 2 33.9900 70.4318 31.4141 0.0000 5.0660 0.0000
# 3 42.1437 31.4141 77.7999 0.0000 -3.0246 0.0000
# 4 0.0000 0.0000 0.0000 22.2732 0.0000 -7.6505
# 5 -0.4570 5.0660 -3.0246 0.0000 31.5994 0.0000
# 6 0.0000 0.0000 0.0000 -7.6505 0.0000 25.5561
#
#
#
# Elastic Compliance Matrix: (Units=1/GPa)
#
#
# Indices 1 2 3 4 5 6 
#
# 1 0.016676 -0.004941 -0.007024 0.000000 0.000361 0.000000
# 2 -0.004941 0.019166 -0.005204 0.000000 -0.003642 0.000000
# 3 -0.007024 -0.005204 0.018858 0.000000 0.002538 0.000000
# 4 0.000000 0.000000 0.000000 0.050043 0.000000 0.014981
# 5 0.000361 -0.003642 0.002538 0.000000 0.032478 0.000000
# 6 0.000000 0.000000 0.000000 0.014981 0.000000 0.043614
#
#
# Mechanical properties :
#
#
# Convention : Reuss Voigt Hill
#
# Bulk Modulus (GPa) = 49.11093 50.12521 49.61807
# Shear Modulus (GPa) = 22.52659 24.45127 23.48893
#
# Velocity S-wave (km/s) = 3.40127 3.54359 3.47316
# Velocity P-wave (km/s) = 6.37542 6.51803 6.44712
#
# Compressibility (1/GPa) = 0.02036207
#
# Stress axis : x y z
#
# Youngs Moduli (GPa) = 59.96720 52.17707 53.02684
#
# Poissons Ratio (x) = 0.25779 0.37247
# Poissons Ratio (y) = 0.29628 0.27595
# Poissons Ratio (z) = 0.42122 0.27153
#
# Static dielectric constant tensor:
#      x y z
#    x 3.549620 0.000000 -0.494240 
#    y 0.000000 3.565720 0.000000 
#    z -0.494240 0.000000 3.423020 
# 
# 
# High freq. dielectric constant tensor:
#      x y z
#    x 1.746280 0.000000 -0.044970 
#    y 0.000000 1.761550 0.000000 
#    z -0.044970 0.000000 1.733510 
# 
# From -- ./inp_files/181187.got.cif
#   From: 2010.06.25/outbox.cif.g09.slc.cpg/sg15_91_cif.got.tgz:181187.got - 2010.06.28 07:06:18.
