data_PCOD8136533
_publ_section_title
;
Structure prediction by ZEFSAII (Michael W. Deem and Ramdas Pophale) SiO2 
 PCOD8136533
Probable space group: C 2/C
;
_chemical_formula_sum "Si O2"
_cell_formula_units_Z 48
_cell_length_a 25.229976
_cell_length_b 19.912697
_cell_length_c 9.084155
_cell_angle_alpha 90.000000
_cell_angle_beta 146.917133
_cell_angle_gamma 90.000000
_cell_volume 2491.184630
_symmetry_space_group_name_H-M "C 2/C"
_symmetry_group_IT_number 15
_symmetry_cell_setting 'monoclinic'
loop_
_space_group_symop_operation_xyz
x,y,z
-x,y,1/2-z
-x,-y,-z
x,-y,1/2+z
1/2+x,1/2+y,z
1/2-x,1/2+y,1/2-z
1/2-x,1/2-y,-z
1/2+x,1/2-y,1/2+z
loop_
_atom_site_type_symbol
_atom_site_label
_atom_site_fract_x
_atom_site_fract_y
_atom_site_fract_z
Si Si1 0.782863 0.072509 0.641483
Si Si2 0.704316 0.691616 0.302682
Si Si3 0.697256 0.194145 0.281475
Si Si4 0.010064 0.115109 0.473276
Si Si5 0.000000 0.235496 0.250000
Si Si6 0.000000 0.830370 0.250000
Si Si7 0.191235 0.061600 0.469799
O O1 0.707473 0.124856 0.394813
O O2 0.895434 0.095772 0.899789
O O3 0.771624 0.003580 0.528060
O O4 0.753767 0.065363 0.745351
O O5 0.750000 0.750000 0.500000
O O6 0.754106 0.683446 0.262284
O O7 0.715664 0.623766 0.421643
O O8 0.591297 0.712554 0.018509
O O9 0.750000 0.250000 0.500000
O O10 0.586386 0.215392 0.000045
O O11 0.041084 0.122578 0.715211
O O12 0.970391 0.186739 0.317438
O O13 0.924860 0.059377 0.267890
#
# Coordination Sequence:
#
# PCOD8136533 Si02
#       7
#     8   8   8   8   4   4   8
#     4  12  22  39  59  89 126 168 203 256 323 379
#     4  11  22  38  60  87 123 165 209 262 315 373
#     4  12  22  39  64  88 127 169 213 263 313 373
#     4  11  20  36  58  87 126 161 203 251 317 383
#     4  12  22  40  63  95 124 168 220 264 310 380
#     4  10  20  34  55  89 120 154 204 246 308 376
#     4  11  24  37  60  91 127 162 208 259 318 389
#
# _framework density 19.267942000000001
#
# number of rings (size 3 to 8) (size 9 to 14) (size 15 to 20)
#    0.000    0.667    5.000    4.500    2.333    0.000 
#    0.000    0.000    0.000    5.000    0.000    0.000 
#    0.000    0.000    0.000    0.000    0.000    0.000 
#
# Total GULP energy -297548.298085 kJ/mol
# GULP energy per Si atom -12397.845754 kJ/mol
# Density = 1.922409 g / cm^3
# Si number density = 19.267942 Si / 1000 Ang^3
#
#
#
# Elastic Constant Matrix: (Units=GPa)
#
#
# Indices 1 2 3 4 5 6 
#
# 1 103.5305 41.0292 50.8936 0.0000 -34.9491 0.0000
# 2 41.0292 136.1600 72.9617 0.0000 -11.0265 0.0000
# 3 50.8936 72.9617 125.8122 0.0000 -17.4316 0.0000
# 4 0.0000 0.0000 0.0000 33.4973 0.0000 -1.9810
# 5 -34.9491 -11.0265 -17.4316 0.0000 40.8149 0.0000
# 6 0.0000 0.0000 0.0000 -1.9810 0.0000 34.8316
#
#
#
# Elastic Compliance Matrix: (Units=1/GPa)
#
#
# Indices 1 2 3 4 5 6 
#
# 1 0.016281 -0.001882 -0.003862 0.000000 0.011783 0.000000
# 2 -0.001882 0.010876 -0.005699 0.000000 -0.001108 0.000000
# 3 -0.003862 -0.005699 0.012908 0.000000 0.000666 0.000000
# 4 0.000000 0.000000 0.000000 0.029954 0.000000 0.001704
# 5 0.011783 -0.001108 0.000666 0.000000 0.034576 0.000000
# 6 0.000000 0.000000 0.000000 0.001704 0.000000 0.028806
#
#
# Mechanical properties :
#
#
# Convention : Reuss Voigt Hill
#
# Bulk Modulus (GPa) = 58.21354 77.25239 67.73297
# Shear Modulus (GPa) = 30.86161 35.20333 33.03247
#
# Velocity S-wave (km/s) = 4.00648 4.27903 4.14499
# Velocity P-wave (km/s) = 7.18893 8.03705 7.62479
#
# Compressibility (1/GPa) = 0.01717813
#
# Stress axis : x y z
#
# Youngs Moduli (GPa) = 61.42098 91.94808 77.47194
#
# Poissons Ratio (x) = 0.17308 0.29918
# Poissons Ratio (y) = 0.11562 0.44152
# Poissons Ratio (z) = 0.23719 0.52402
#
# Static dielectric constant tensor:
#      x y z
#    x 3.914080 0.000000 -0.520930 
#    y 0.000000 3.575550 0.000000 
#    z -0.520930 0.000000 3.933580 
# 
# 
# High freq. dielectric constant tensor:
#      x y z
#    x 1.756630 0.000000 -0.037070 
#    y 0.000000 1.735870 0.000000 
#    z -0.037070 0.000000 1.748580 
# 
# From -- ./inp_files/56454.got.cif
#   From: 2010.06.25/outbox.cif.g09.slc.cpg/sg15_29_cif.got.tgz:56454.got - 2010.06.28 07:06:18.
