data_PCOD8136776
_publ_section_title
;
Structure prediction by ZEFSAII (Michael W. Deem and Ramdas Pophale) SiO2 
 PCOD8136776
Probable space group: C 2/C
;
_chemical_formula_sum "Si O2"
_cell_formula_units_Z 40
_cell_length_a 11.871955
_cell_length_b 14.007264
_cell_length_c 12.084562
_cell_angle_alpha 90.000000
_cell_angle_beta 86.780250
_cell_angle_gamma 90.000000
_cell_volume 2006.413210
_symmetry_space_group_name_H-M "C 2/C"
_symmetry_group_IT_number 15
_symmetry_cell_setting 'monoclinic'
loop_
_space_group_symop_operation_xyz
x,y,z
-x,y,1/2-z
-x,-y,-z
x,-y,1/2+z
1/2+x,1/2+y,z
1/2-x,1/2+y,1/2-z
1/2-x,1/2-y,-z
1/2+x,1/2-y,1/2+z
loop_
_atom_site_type_symbol
_atom_site_label
_atom_site_fract_x
_atom_site_fract_y
_atom_site_fract_z
Si Si1 0.887101 0.656790 0.184882
Si Si2 0.207207 0.497281 0.662027
Si Si3 0.366550 0.636032 0.748644
Si Si4 0.215071 0.647440 0.959485
Si Si5 0.471453 0.899582 0.451605
O O1 0.812885 0.565098 0.225287
O O2 0.827828 0.757580 0.215218
O O3 0.000000 0.648156 0.250000
O O4 0.908290 0.659089 0.052184
O O5 0.323553 0.556112 0.665130
O O6 0.216012 0.426294 0.559555
O O7 0.109159 0.578219 0.649079
O O8 0.500000 0.627693 0.750000
O O9 0.306354 0.611302 0.867134
O O10 0.088843 0.652959 0.912547
O O11 0.250000 0.750000 0.000000
O O12 0.500000 0.000000 0.500000
#
# Coordination Sequence:
#
# PCOD8136776 Si02
#       5
#     8   8   8   8   8
#     4  11  19  39  62  87 121 153 196 250 296 347
#     4  11  22  38  64  89 119 153 204 255 286 352
#     4  11  25  40  58  86 123 165 193 238 311 361
#     4  11  20  39  63  88 118 157 199 240 302 360
#     4  10  20  34  64  95 109 149 205 255 291 336
#
# _framework density 19.936074000000001
#
# number of rings (size 3 to 8) (size 9 to 14) (size 15 to 20)
#    0.000    1.200    6.000    3.600    0.000    1.600 
#    0.000    2.000    0.000    0.000    0.000    0.000 
#    0.000    0.000    0.000    0.000    0.000    0.000 
#
# Total GULP energy -247900.832170 kJ/mol
# GULP energy per Si atom -12395.041609 kJ/mol
# Density = 1.989070 g / cm^3
# Si number density = 19.936074 Si / 1000 Ang^3
#
#
#
# Elastic Constant Matrix: (Units=GPa)
#
#
# Indices 1 2 3 4 5 6 
#
# 1 127.2151 67.7616 43.6706 0.0000 -9.8330 0.0000
# 2 67.7616 114.6259 23.2297 0.0000 8.0602 0.0000
# 3 43.6706 23.2297 69.8821 0.0000 -22.1590 0.0000
# 4 0.0000 0.0000 0.0000 26.1071 0.0000 -3.3462
# 5 -9.8330 8.0602 -22.1590 0.0000 30.7949 0.0000
# 6 0.0000 0.0000 0.0000 -3.3462 0.0000 38.7047
#
#
#
# Elastic Compliance Matrix: (Units=1/GPa)
#
#
# Indices 1 2 3 4 5 6 
#
# 1 0.013740 -0.007181 -0.005457 0.000000 0.002340 0.000000
# 2 -0.007181 0.014074 -0.002703 0.000000 -0.007921 0.000000
# 3 -0.005457 -0.002703 0.023697 0.000000 0.016017 0.000000
# 4 0.000000 0.000000 0.000000 0.038733 0.000000 0.003349
# 5 0.002340 -0.007921 0.016017 0.000000 0.046818 0.000000
# 6 0.000000 0.000000 0.000000 0.003349 0.000000 0.026126
#
#
# Mechanical properties :
#
#
# Convention : Reuss Voigt Hill
#
# Bulk Modulus (GPa) = 48.00934 64.56078 56.28506
# Shear Modulus (GPa) = 24.89875 30.92540 27.91208
#
# Velocity S-wave (km/s) = 3.53785 3.94284 3.74582
# Velocity P-wave (km/s) = 6.38925 7.29261 6.85582
#
# Compressibility (1/GPa) = 0.02082928
#
# Stress axis : x y z
#
# Youngs Moduli (GPa) = 72.78039 71.05400 42.19897
#
# Poissons Ratio (x) = 0.51024 0.23029
# Poissons Ratio (y) = 0.52264 0.11404
# Poissons Ratio (z) = 0.39719 0.19202
#
# Static dielectric constant tensor:
#      x y z
#    x 5.331810 0.000000 0.057340 
#    y 0.000000 3.988020 0.000000 
#    z 0.057340 0.000000 3.405780 
# 
# 
# High freq. dielectric constant tensor:
#      x y z
#    x 1.762470 0.000000 -0.010440 
#    y 0.000000 1.779580 0.000000 
#    z -0.010440 0.000000 1.773790 
# 
# From -- ./inp_files/85499.got.cif
#   From: 2010.06.25/outbox.cif.g09.slc.cpg/sg15_43_cif.got.tgz:85499.got - 2010.06.28 07:06:18.
