data_PCOD8136417
_publ_section_title
;
Structure prediction by ZEFSAII (Michael W. Deem and Ramdas Pophale) SiO2 
 PCOD8136417
Probable space group: C 2/C
;
_chemical_formula_sum "Si O2"
_cell_formula_units_Z 56
_cell_length_a 13.583067
_cell_length_b 29.611322
_cell_length_c 13.993349
_cell_angle_alpha 90.000000
_cell_angle_beta 149.998933
_cell_angle_gamma 90.000000
_cell_volume 2814.241208
_symmetry_space_group_name_H-M "C 2/C"
_symmetry_group_IT_number 15
_symmetry_cell_setting 'monoclinic'
loop_
_space_group_symop_operation_xyz
x,y,z
-x,y,1/2-z
-x,-y,-z
x,-y,1/2+z
1/2+x,1/2+y,z
1/2-x,1/2+y,1/2-z
1/2-x,1/2-y,-z
1/2+x,1/2-y,1/2+z
loop_
_atom_site_type_symbol
_atom_site_label
_atom_site_fract_x
_atom_site_fract_y
_atom_site_fract_z
Si Si1 0.244981 0.973484 0.223021
Si Si2 0.249385 0.792804 0.370059
Si Si3 0.810299 0.194675 0.461922
Si Si4 0.043844 0.364475 0.615919
Si Si5 0.185003 0.441674 0.613327
Si Si6 0.809738 0.073141 0.634700
Si Si7 0.771126 0.519940 0.536892
O O1 0.475753 0.964519 0.417843
O O2 0.145983 0.940042 0.217372
O O3 0.159944 0.967390 0.043297
O O4 0.205645 0.026149 0.217551
O O5 0.280997 0.799085 0.510178
O O6 0.263130 0.739576 0.359062
O O7 0.425174 0.821992 0.469848
O O8 0.044200 0.813050 0.161102
O O9 0.709099 0.151585 0.329094
O O10 0.160963 0.390760 0.630924
O O11 0.885548 0.396417 0.536659
O O12 0.290881 0.443734 0.597900
O O13 0.000000 0.099680 0.750000
O O14 0.786581 0.029323 0.549207
O O15 0.000000 0.520583 0.750000
#
# Coordination Sequence:
#
# PCOD8136417 Si02
#       7
#     8   8   8   8   8   8   8
#     4   8  15  31  51  72 102 146 181 215 272 322
#     4  10  20  34  50  74 101 142 187 208 261 338
#     4  10  20  34  52  71 101 147 181 213 266 325
#     4  11  20  33  50  72 111 142 176 229 260 304
#     4   8  16  29  49  78 100 131 184 224 261 315
#     4  10  22  34  45  78 114 138 186 228 260 319
#     4   9  16  32  56  70  97 146 181 218 276 318
#
# _framework density 19.898793000000001
#
# number of rings (size 3 to 8) (size 9 to 14) (size 15 to 20)
#    0.000    2.571    1.429    3.000    2.000    4.000 
#    0.000    0.000    6.286    0.000    0.000    0.000 
#    0.000   28.571    0.000    0.000    0.000   19.571 
#
# Total GULP energy -346964.497939 kJ/mol
# GULP energy per Si atom -12391.589212 kJ/mol
# Density = 1.985350 g / cm^3
# Si number density = 19.898793 Si / 1000 Ang^3
#
#
#
# Elastic Constant Matrix: (Units=GPa)
#
#
# Indices 1 2 3 4 5 6 
#
# 1 110.4888 44.3796 45.2782 0.0000 -26.2268 0.0000
# 2 44.3796 103.7889 42.5641 0.0000 -10.7118 0.0000
# 3 45.2782 42.5641 69.9876 0.0000 -12.3725 0.0000
# 4 0.0000 0.0000 0.0000 27.9454 0.0000 -4.3050
# 5 -26.2268 -10.7118 -12.3725 0.0000 26.8255 0.0000
# 6 0.0000 0.0000 0.0000 -4.3050 0.0000 20.2924
#
#
#
# Elastic Compliance Matrix: (Units=1/GPa)
#
#
# Indices 1 2 3 4 5 6 
#
# 1 0.015382 -0.002875 -0.006257 0.000000 0.011005 0.000000
# 2 -0.002875 0.013442 -0.006383 0.000000 -0.000388 0.000000
# 3 -0.006257 -0.006383 0.022523 0.000000 0.001722 0.000000
# 4 0.000000 0.000000 0.000000 0.036993 0.000000 0.007848
# 5 0.011005 -0.000388 0.001722 0.000000 0.048676 0.000000
# 6 0.000000 0.000000 0.000000 0.007848 0.000000 0.050945
#
#
# Mechanical properties :
#
#
# Convention : Reuss Voigt Hill
#
# Bulk Modulus (GPa) = 49.22469 60.96767 55.09618
# Shear Modulus (GPa) = 22.14696 25.14887 23.64791
#
# Velocity S-wave (km/s) = 3.33975 3.55891 3.45107
# Velocity P-wave (km/s) = 6.29787 6.89878 6.60516
#
# Compressibility (1/GPa) = 0.02031501
#
# Stress axis : x y z
#
# Youngs Moduli (GPa) = 65.01108 74.39194 44.39934
#
# Poissons Ratio (x) = 0.21391 0.27782
# Poissons Ratio (y) = 0.18693 0.28342
# Poissons Ratio (z) = 0.40679 0.47488
#
# Static dielectric constant tensor:
#      x y z
#    x 3.982450 0.000000 -0.135780 
#    y 0.000000 3.641900 0.000000 
#    z -0.135780 0.000000 3.693620 
# 
# 
# High freq. dielectric constant tensor:
#      x y z
#    x 1.740360 0.000000 0.012590 
#    y 0.000000 1.753100 0.000000 
#    z 0.012590 0.000000 1.788580 
# 
# From -- ./inp_files/157465.got.cif
#   From: 2010.06.25/outbox.cif.g09.slc.cpg/sg15_79_cif.got.tgz:157465.got - 2010.06.28 07:06:18.
