data_PCOD8136968
_publ_section_title
;
Structure prediction by ZEFSAII (Michael W. Deem and Ramdas Pophale) SiO2 
 PCOD8136968
Probable space group: C 2/C
;
_chemical_formula_sum "Si O2"
_cell_formula_units_Z 64
_cell_length_a 17.180623
_cell_length_b 8.841391
_cell_length_c 22.171625
_cell_angle_alpha 90.000000
_cell_angle_beta 98.048378
_cell_angle_gamma 90.000000
_cell_volume 3334.710301
_symmetry_space_group_name_H-M "C 2/C"
_symmetry_group_IT_number 15
_symmetry_cell_setting 'monoclinic'
loop_
_space_group_symop_operation_xyz
x,y,z
-x,y,1/2-z
-x,-y,-z
x,-y,1/2+z
1/2+x,1/2+y,z
1/2-x,1/2+y,1/2-z
1/2-x,1/2-y,-z
1/2+x,1/2-y,1/2+z
loop_
_atom_site_type_symbol
_atom_site_label
_atom_site_fract_x
_atom_site_fract_y
_atom_site_fract_z
Si Si1 0.855016 0.458349 0.711249
Si Si2 0.681924 0.377659 0.715944
Si Si3 0.482112 0.470205 0.817518
Si Si4 0.706116 0.476750 0.857576
Si Si5 0.131021 0.448485 0.161419
Si Si6 0.415613 0.274345 0.129734
Si Si7 0.602114 0.776650 0.368116
Si Si8 0.023028 0.506526 0.433677
O O1 0.762652 0.421395 0.691824
O O2 0.878719 0.438153 0.783574
O O3 0.910929 0.338328 0.685316
O O4 0.873392 0.623945 0.687148
O O5 0.610397 0.469549 0.678386
O O6 0.683259 0.429351 0.786291
O O7 0.660538 0.203755 0.698831
O O8 0.500000 0.496479 0.750000
O O9 0.512423 0.611623 0.858404
O O10 0.523053 0.314707 0.842825
O O11 0.799236 0.496153 0.875402
O O12 0.665456 0.629702 0.878826
O O13 0.673097 0.337148 0.893425
O O14 0.051148 0.456712 0.115548
O O15 0.437165 0.170678 0.074042
O O16 0.588469 0.880536 0.425386
O O17 0.000000 0.500000 0.500000
#
# Coordination Sequence:
#
# PCOD8136968 Si02
#       8
#     8   8   8   8   8   8   8   8
#     4  10  21  32  55  89 119 151 177 223 296 362
#     4  11  19  32  55  90 131 149 172 219 295 371
#     4  11  19  32  56  90 122 146 180 220 291 360
#     4  10  20  35  57  91 121 146 181 227 296 361
#     4  11  21  35  59  86 123 153 187 225 293 349
#     4  10  22  36  56  86 120 144 189 241 289 337
#     4  10  20  37  60  81 119 153 187 231 294 349
#     4  11  26  43  59  78 111 157 213 250 274 323
#
# _framework density 19.192073000000001
#
# number of rings (size 3 to 8) (size 9 to 14) (size 15 to 20)
#    0.000    1.500    6.250    0.000    1.750    2.000 
#    0.000    3.750    0.000    0.000    0.000    0.000 
#    0.000    0.000    0.000    0.000    0.000    0.000 
#
# Total GULP energy -396453.219390 kJ/mol
# GULP energy per Si atom -12389.163106 kJ/mol
# Density = 1.914839 g / cm^3
# Si number density = 19.192073 Si / 1000 Ang^3
#
#
#
# Elastic Constant Matrix: (Units=GPa)
#
#
# Indices 1 2 3 4 5 6 
#
# 1 92.3857 30.5879 25.1219 0.0000 -13.2773 0.0000
# 2 30.5879 100.8580 30.3047 0.0000 -11.0387 0.0000
# 3 25.1219 30.3047 71.4855 0.0000 -24.0285 0.0000
# 4 0.0000 0.0000 0.0000 14.0173 0.0000 -6.6549
# 5 -13.2773 -11.0387 -24.0285 0.0000 19.3020 0.0000
# 6 0.0000 0.0000 0.0000 -6.6549 0.0000 26.4400
#
#
#
# Elastic Compliance Matrix: (Units=1/GPa)
#
#
# Indices 1 2 3 4 5 6 
#
# 1 0.012967 -0.002886 -0.001531 0.000000 0.005364 0.000000
# 2 -0.002886 0.012013 -0.004189 0.000000 -0.000330 0.000000
# 3 -0.001531 -0.004189 0.026040 0.000000 0.028967 0.000000
# 4 0.000000 0.000000 0.000000 0.081022 0.000000 0.020393
# 5 0.005364 -0.000330 0.028967 0.000000 0.091369 0.000000
# 6 0.000000 0.000000 0.000000 0.020393 0.000000 0.042954
#
#
# Mechanical properties :
#
#
# Convention : Reuss Voigt Hill
#
# Bulk Modulus (GPa) = 29.57920 48.52870 39.05395
# Shear Modulus (GPa) = 16.95805 23.86615 20.41210
#
# Velocity S-wave (km/s) = 2.97576 3.53021 3.26478
# Velocity P-wave (km/s) = 5.22039 6.47744 5.88259
#
# Compressibility (1/GPa) = 0.03380754
#
# Stress axis : x y z
#
# Youngs Moduli (GPa) = 77.12102 83.24515 38.40318
#
# Poissons Ratio (x) = 0.24021 0.05878
# Poissons Ratio (y) = 0.22253 0.16089
# Poissons Ratio (z) = 0.11805 0.34875
#
# Static dielectric constant tensor:
#      x y z
#    x 3.834860 0.000000 -0.254030 
#    y 0.000000 3.870840 0.000000 
#    z -0.254030 0.000000 2.987430 
# 
# 
# High freq. dielectric constant tensor:
#      x y z
#    x 1.762420 0.000000 -0.024610 
#    y 0.000000 1.764450 0.000000 
#    z -0.024610 0.000000 1.681020 
# 
# From -- ./inp_files/247472.got.cif
#   From: 2010.06.25/outbox.cif.g09.slc.cpg/sg15_124_cif.got.tgz:247472.got - 2010.06.28 07:06:18.
