data_PCOD8136809
_publ_section_title
;
Structure prediction by ZEFSAII (Michael W. Deem and Ramdas Pophale) SiO2 
 PCOD8136809
Probable space group: C 2/C
;
_chemical_formula_sum "Si O2"
_cell_formula_units_Z 48
_cell_length_a 15.047744
_cell_length_b 23.490531
_cell_length_c 8.414184
_cell_angle_alpha 90.000000
_cell_angle_beta 128.561362
_cell_angle_gamma 90.000000
_cell_volume 2325.681437
_symmetry_space_group_name_H-M "C 2/C"
_symmetry_group_IT_number 15
_symmetry_cell_setting 'monoclinic'
loop_
_space_group_symop_operation_xyz
x,y,z
-x,y,1/2-z
-x,-y,-z
x,-y,1/2+z
1/2+x,1/2+y,z
1/2-x,1/2+y,1/2-z
1/2-x,1/2-y,-z
1/2+x,1/2-y,1/2+z
loop_
_atom_site_type_symbol
_atom_site_label
_atom_site_fract_x
_atom_site_fract_y
_atom_site_fract_z
Si Si1 0.612212 0.903564 0.291297
Si Si2 0.686918 0.366043 0.396621
Si Si3 0.000000 0.783829 0.250000
Si Si4 0.000000 0.070979 0.250000
Si Si5 0.303475 0.598304 0.237172
Si Si6 0.418187 0.825132 0.526269
Si Si7 0.698928 0.531364 0.683096
O O1 0.500000 0.930911 0.250000
O O2 0.699529 0.876951 0.517060
O O3 0.682641 0.950439 0.269017
O O4 0.563842 0.852948 0.126188
O O5 0.582968 0.324495 0.243365
O O6 0.699520 0.370801 0.599205
O O7 0.790541 0.333711 0.436020
O O8 0.669989 0.427582 0.298840
O O9 0.940794 0.743062 0.050812
O O10 0.075023 0.109876 0.213907
O O11 0.090054 0.031561 0.444911
O O12 0.283190 0.530806 0.228592
O O13 0.500000 0.854948 0.750000
#
# Coordination Sequence:
#
# PCOD8136809 Si02
#       7
#     8   8   4   4   8   8   8
#     4  10  21  39  60  83 119 157 193 242 294 345
#     4  11  20  38  63  89 117 155 196 240 286 353
#     4  10  22  37  64  86 110 150 208 245 294 338
#     4  10  20  35  52  82 124 156 186 227 276 342
#     4  11  22  36  60  90 124 157 189 232 294 353
#     4   9  21  39  62  82 114 149 203 249 291 338
#     4  10  22  37  59  91 124 156 192 231 287 355
#
# _framework density 20.639111
#
# number of rings (size 3 to 8) (size 9 to 14) (size 15 to 20)
#    0.500    1.333    0.000    5.000    0.000    2.000 
#    0.000    5.000   11.000    0.000    0.000    0.000 
#    0.000    0.000    0.000    0.000    0.000    0.000 
#
# Total GULP energy -297484.352431 kJ/mol
# GULP energy per Si atom -12395.181351 kJ/mol
# Density = 2.059214 g / cm^3
# Si number density = 20.639111 Si / 1000 Ang^3
#
#
#
# Elastic Constant Matrix: (Units=GPa)
#
#
# Indices 1 2 3 4 5 6 
#
# 1 121.7775 21.5543 38.6045 0.0000 9.1993 0.0000
# 2 21.5543 77.2912 27.5988 0.0000 -0.0415 0.0000
# 3 38.6045 27.5988 100.2579 0.0000 -4.2694 0.0000
# 4 0.0000 0.0000 0.0000 26.5285 0.0000 1.4668
# 5 9.1993 -0.0415 -4.2694 0.0000 42.8418 0.0000
# 6 0.0000 0.0000 0.0000 1.4668 0.0000 15.2875
#
#
#
# Elastic Compliance Matrix: (Units=1/GPa)
#
#
# Indices 1 2 3 4 5 6 
#
# 1 0.009753 -0.001490 -0.003449 0.000000 -0.002439 0.000000
# 2 -0.001490 0.014582 -0.003441 0.000000 -0.000009 0.000000
# 3 -0.003449 -0.003441 0.012333 0.000000 0.001966 0.000000
# 4 0.000000 0.000000 0.000000 0.037896 0.000000 -0.003636
# 5 -0.002439 -0.000009 0.001966 0.000000 0.024061 0.000000
# 6 0.000000 0.000000 0.000000 -0.003636 0.000000 0.065762
#
#
# Mechanical properties :
#
#
# Convention : Reuss Voigt Hill
#
# Bulk Modulus (GPa) = 50.22842 52.76021 51.49431
# Shear Modulus (GPa) = 26.62629 31.03614 28.83121
#
# Velocity S-wave (km/s) = 3.59568 3.88203 3.74160
# Velocity P-wave (km/s) = 6.45197 6.76109 6.60833
#
# Compressibility (1/GPa) = 0.01990905
#
# Stress axis : x y z
#
# Youngs Moduli (GPa) = 102.53183 68.57695 81.08065
#
# Poissons Ratio (x) = 0.10215 0.27967
# Poissons Ratio (y) = 0.15272 0.27900
# Poissons Ratio (z) = 0.35366 0.23597
#
# Static dielectric constant tensor:
#      x y z
#    x 3.986730 0.000000 0.075180 
#    y 0.000000 3.400610 0.000000 
#    z 0.075180 0.000000 3.652930 
# 
# 
# High freq. dielectric constant tensor:
#      x y z
#    x 1.824740 0.000000 0.004760 
#    y 0.000000 1.769680 0.000000 
#    z 0.004760 0.000000 1.815700 
# 
# From -- ./inp_files/43995.got.cif
#   From: 2010.06.25/outbox.cif.g09.slc.cpg/sg15_22_cif.got.tgz:43995.got - 2010.06.28 07:06:18.
