data_PCOD8136333
_publ_section_title
;
Structure prediction by ZEFSAII (Michael W. Deem and Ramdas Pophale) SiO2 
 PCOD8136333
Probable space group: C 2/C
;
_chemical_formula_sum "Si O2"
_cell_formula_units_Z 48
_cell_length_a 21.958125
_cell_length_b 8.020798
_cell_length_c 10.470075
_cell_angle_alpha 90.000000
_cell_angle_beta 98.524802
_cell_angle_gamma 90.000000
_cell_volume 1823.634268
_symmetry_space_group_name_H-M "C 2/C"
_symmetry_group_IT_number 15
_symmetry_cell_setting 'monoclinic'
loop_
_space_group_symop_operation_xyz
x,y,z
-x,y,1/2-z
-x,-y,-z
x,-y,1/2+z
1/2+x,1/2+y,z
1/2-x,1/2+y,1/2-z
1/2-x,1/2-y,-z
1/2+x,1/2-y,1/2+z
loop_
_atom_site_type_symbol
_atom_site_label
_atom_site_fract_x
_atom_site_fract_y
_atom_site_fract_z
Si Si1 0.214295 0.325095 0.369238
Si Si2 0.677234 0.848059 0.759499
Si Si3 0.327262 0.523645 0.275229
Si Si4 0.601056 0.124235 0.992500
Si Si5 0.405712 0.512558 0.043007
Si Si6 0.552764 0.814358 0.869721
O O1 0.250000 0.250000 0.500000
O O2 0.229151 0.518261 0.329286
O O3 0.219224 0.178435 0.264024
O O4 0.142336 0.353147 0.379305
O O5 0.705764 0.663098 0.730885
O O6 0.644878 0.924589 0.624217
O O7 0.623002 0.808464 0.841834
O O8 0.375927 0.527126 0.174291
O O9 0.357078 0.549377 0.422606
O O10 0.567620 0.306509 0.997600
O O11 0.550599 0.976747 0.961601
O O12 0.457807 0.366409 0.065627
O O13 0.500000 0.842960 0.750000
#
# Coordination Sequence:
#
# PCOD8136333 Si02
#       6
#     8   8   8   8   8   8
#     4  10  20  35  54  81 107 140 189 226 276 334
#     4   9  19  37  54  74 111 146 177 230 283 319
#     4   9  18  35  57  77 106 149 180 223 282 329
#     4   9  19  37  53  75 112 148 177 232 284 320
#     4   9  18  35  56  76 109 147 181 222 280 326
#     4  10  20  33  55  83 108 145 191 227 273 335
#
# _framework density 26.321066999999999
#
# number of rings (size 3 to 8) (size 9 to 14) (size 15 to 20)
#    0.000    2.667    0.000    1.000    0.000    2.000 
#    9.000    7.500    0.000    0.000    0.000    0.000 
#    0.000    0.000    0.000    0.000    0.000    0.000 
#
# Total GULP energy -297351.884837 kJ/mol
# GULP energy per Si atom -12389.661868 kJ/mol
# Density = 2.626116 g / cm^3
# Si number density = 26.321067 Si / 1000 Ang^3
#
#
#
# Elastic Constant Matrix: (Units=GPa)
#
#
# Indices 1 2 3 4 5 6 
#
# 1 45.5597 -0.4226 -6.4777 0.0000 -3.6115 0.0000
# 2 -0.4226 188.8555 43.0608 0.0000 30.8462 0.0000
# 3 -6.4777 43.0608 98.5884 0.0000 11.5359 0.0000
# 4 0.0000 0.0000 0.0000 49.1569 0.0000 -2.3915
# 5 -3.6115 30.8462 11.5359 0.0000 35.7181 0.0000
# 6 0.0000 0.0000 0.0000 -2.3915 0.0000 -15.2634
#
#
#
# Elastic Compliance Matrix: (Units=1/GPa)
#
#
# Indices 1 2 3 4 5 6 
#
# 1 0.022341 -0.000675 0.001486 0.000000 0.002362 0.000000
# 2 -0.000675 0.006657 -0.002361 0.000000 -0.005055 0.000000
# 3 0.001486 -0.002361 0.011448 0.000000 -0.001509 0.000000
# 4 0.000000 0.000000 0.000000 0.020189 0.000000 -0.003163
# 5 0.002362 -0.005055 -0.001509 0.000000 0.033089 0.000000
# 6 0.000000 0.000000 0.000000 -0.003163 0.000000 -0.065021
#
#
# Mechanical properties :
#
#
# Convention : Reuss Voigt Hill
#
# Bulk Modulus (GPa) = 26.77417 45.03606 35.90512
# Shear Modulus (GPa) = 112.98873 33.71187 73.35030
#
# Velocity S-wave (km/s) = 6.55899 3.58270 5.28470
# Velocity P-wave (km/s) = 8.21916 5.85335 7.13500
#
# Compressibility (1/GPa) = 0.03734942
#
# Stress axis : x y z
#
# Youngs Moduli (GPa) = 44.75977 150.20743 87.34835
#
# Poissons Ratio (x) = 0.10133 -0.12982
# Poissons Ratio (y) = 0.03020 0.20620
# Poissons Ratio (z) = -0.06652 0.35458
#
# Static dielectric constant tensor:
#      x y z
#    x 4.738340 0.000000 -0.365170 
#    y 0.000000 6.475100 0.000000 
#    z -0.365170 0.000000 4.446160 
# 
# 
# High freq. dielectric constant tensor:
#      x y z
#    x 2.076750 0.000000 -0.024450 
#    y 0.000000 2.107390 0.000000 
#    z -0.024450 0.000000 2.034410 
# 
# From -- ./inp_files/116377.got.cif
#   From: 2010.06.25/outbox.cif.g09.slc.cpg/sg15_59_cif.got.tgz:116377.got - 2010.06.28 07:06:18.
