data_PCOD8136108
_publ_section_title
;
Structure prediction by ZEFSAII (Michael W. Deem and Ramdas Pophale) SiO2 
 PCOD8136108
Probable space group: C 2/C
;
_chemical_formula_sum "Si O2"
_cell_formula_units_Z 56
_cell_length_a 16.424976
_cell_length_b 19.296211
_cell_length_c 8.797500
_cell_angle_alpha 90.000000
_cell_angle_beta 120.119572
_cell_angle_gamma 90.000000
_cell_volume 2411.804786
_symmetry_space_group_name_H-M "C 2/C"
_symmetry_group_IT_number 15
_symmetry_cell_setting 'monoclinic'
loop_
_space_group_symop_operation_xyz
x,y,z
-x,y,1/2-z
-x,-y,-z
x,-y,1/2+z
1/2+x,1/2+y,z
1/2-x,1/2+y,1/2-z
1/2-x,1/2-y,-z
1/2+x,1/2-y,1/2+z
loop_
_atom_site_type_symbol
_atom_site_label
_atom_site_fract_x
_atom_site_fract_y
_atom_site_fract_z
Si Si1 0.840951 0.162545 0.142712
Si Si2 0.644500 0.157582 0.084898
Si Si3 0.337782 0.381677 0.296144
Si Si4 0.569021 0.018872 0.932849
Si Si5 0.000000 0.907351 0.250000
Si Si6 0.808347 0.603811 0.072360
Si Si7 0.500000 0.763952 0.250000
Si Si8 0.643163 0.459338 0.613114
O O1 0.738274 0.190763 0.098418
O O2 0.921093 0.217975 0.261310
O O3 0.866690 0.091129 0.250425
O O4 0.842596 0.155269 0.961973
O O5 0.647543 0.162404 0.272669
O O6 0.648157 0.074642 0.052451
O O7 0.550211 0.191343 0.929529
O O8 0.425141 0.358629 0.269868
O O9 0.340219 0.464502 0.308879
O O10 0.240178 0.360327 0.120336
O O11 0.500000 0.056364 0.750000
O O12 0.612101 0.948872 0.906513
O O13 0.500000 0.000000 0.000000
O O14 0.049305 0.956219 0.422305
O O15 0.729979 0.561565 0.090193
#
# Coordination Sequence:
#
# PCOD8136108 Si02
#       8
#     8   8   8   8   4   8   4   8
#     4  11  24  42  70  97 128 176 233 274 331 403
#     4  11  24  44  66  95 134 173 219 281 333 395
#     4  11  21  36  62  94 133 165 210 267 340 402
#     4  12  23  38  68 105 137 165 207 267 344 413
#     4  10  20  31  50  88 132 173 200 248 312 394
#     4  10  22  39  61  98 132 167 203 264 349 405
#     4  12  26  45  66  94 126 181 242 282 322 384
#     4  10  20  37  62  95 137 170 210 267 332 400
#
# _framework density 23.219125999999999
#
# number of rings (size 3 to 8) (size 9 to 14) (size 15 to 20)
#    0.000    1.143    2.143    6.000    2.000    1.143 
#    0.000    0.714    0.000   18.857    0.000    0.000 
#    0.000    0.000    0.000    0.000    0.000    0.000 
#
# Total GULP energy -347139.154409 kJ/mol
# GULP energy per Si atom -12397.826943 kJ/mol
# Density = 2.316628 g / cm^3
# Si number density = 23.219126 Si / 1000 Ang^3
#
#
#
# Elastic Constant Matrix: (Units=GPa)
#
#
# Indices 1 2 3 4 5 6 
#
# 1 120.1471 33.8245 49.6951 0.0000 1.1341 0.0000
# 2 33.8245 58.4980 36.9990 0.0000 3.7283 0.0000
# 3 49.6951 36.9990 192.7430 0.0000 9.0952 0.0000
# 4 0.0000 0.0000 0.0000 26.9653 0.0000 6.0414
# 5 1.1341 3.7283 9.0952 0.0000 42.3357 0.0000
# 6 0.0000 0.0000 0.0000 6.0414 0.0000 26.5331
#
#
#
# Elastic Compliance Matrix: (Units=1/GPa)
#
#
# Indices 1 2 3 4 5 6 
#
# 1 0.010444 -0.004956 -0.001767 0.000000 0.000536 0.000000
# 2 -0.004956 0.021844 -0.002860 0.000000 -0.001177 0.000000
# 3 -0.001767 -0.002860 0.006242 0.000000 -0.001042 0.000000
# 4 0.000000 0.000000 0.000000 0.039078 0.000000 -0.008898
# 5 0.000536 -0.001177 -0.001042 0.000000 0.023934 0.000000
# 6 0.000000 0.000000 0.000000 -0.008898 0.000000 0.039715
#
#
# Mechanical properties :
#
#
# Convention : Reuss Voigt Hill
#
# Bulk Modulus (GPa) = 51.63920 68.04725 59.84322
# Shear Modulus (GPa) = 29.96233 35.89144 32.92689
#
# Velocity S-wave (km/s) = 3.59613 3.93589 3.76984
# Velocity P-wave (km/s) = 6.28738 7.07285 6.69165
#
# Compressibility (1/GPa) = 0.01936513
#
# Stress axis : x y z
#
# Youngs Moduli (GPa) = 95.74892 45.77946 160.20639
#
# Poissons Ratio (x) = 0.22686 0.28305
# Poissons Ratio (y) = 0.47449 0.45818
# Poissons Ratio (z) = 0.16917 0.13093
#
# Static dielectric constant tensor:
#      x y z
#    x 4.171710 0.000000 0.182080 
#    y 0.000000 4.039580 0.000000 
#    z 0.182080 0.000000 4.784230 
# 
# 
# High freq. dielectric constant tensor:
#      x y z
#    x 1.923240 0.000000 0.009590 
#    y 0.000000 1.874710 0.000000 
#    z 0.009590 0.000000 1.950010 
# 
# From -- ./inp_files/50386.got.cif
#   From: 2010.06.25/outbox.cif.g09.slc.cpg/sg15_26_cif.got.tgz:50386.got - 2010.06.28 07:06:18.
