data_PCOD8136568
_publ_section_title
;
Structure prediction by ZEFSAII (Michael W. Deem and Ramdas Pophale) SiO2 
 PCOD8136568
Probable space group: C 2/C
;
_chemical_formula_sum "Si O2"
_cell_formula_units_Z 56
_cell_length_a 19.327970
_cell_length_b 17.963505
_cell_length_c 8.863546
_cell_angle_alpha 90.000000
_cell_angle_beta 62.704055
_cell_angle_gamma 90.000000
_cell_volume 2734.736071
_symmetry_space_group_name_H-M "C 2/C"
_symmetry_group_IT_number 15
_symmetry_cell_setting 'monoclinic'
loop_
_space_group_symop_operation_xyz
x,y,z
-x,y,1/2-z
-x,-y,-z
x,-y,1/2+z
1/2+x,1/2+y,z
1/2-x,1/2+y,1/2-z
1/2-x,1/2-y,-z
1/2+x,1/2-y,1/2+z
loop_
_atom_site_type_symbol
_atom_site_label
_atom_site_fract_x
_atom_site_fract_y
_atom_site_fract_z
Si Si1 0.783985 0.578487 0.788204
Si Si2 0.410542 0.168816 0.163468
Si Si3 0.849634 0.830884 0.576889
Si Si4 0.910542 0.668816 0.515449
Si Si5 0.150366 0.169116 0.776157
Si Si6 0.716015 0.078487 0.356174
Si Si7 0.500000 0.579720 0.927889
O O1 0.870194 0.602363 0.648465
O O2 0.724290 0.642093 0.795832
O O3 0.759838 0.500000 0.740162
O O4 0.781945 0.569775 0.968055
O O5 0.405583 0.149574 0.344417
O O6 0.365055 0.244798 0.173221
O O7 0.370194 0.102363 0.111146
O O8 0.500000 0.175950 0.022218
O O9 0.865055 0.744798 0.596669
O O10 0.833111 0.843435 0.416889
O O11 0.775710 0.857907 0.744413
O O12 0.924261 0.876503 0.558715
O O13 0.075739 0.123497 0.907238
O O14 0.500000 0.572379 0.750000
O O15 0.500000 0.500000 0.000000
#
# Coordination Sequence:
#
# PCOD8136568 Si02
#       7
#     8   8   8   8   8   8   8
#     4  12  26  42  61  89 124 164 208 256 308 362
#     4  10  21  41  68  94 122 161 204 249 305 369
#     4  10  20  39  64  91 124 160 202 248 302 367
#     4  10  21  41  68  94 122 161 204 249 305 369
#     4  10  20  39  64  91 124 160 202 248 302 367
#     4  12  26  42  61  89 124 164 208 256 308 362
#     4  10  20  34  56  88 123 160 199 242 295 356
#
# _framework density 20.477297
#
# number of rings (size 3 to 8) (size 9 to 14) (size 15 to 20)
#    0.000    1.429    1.429    4.286    0.000    9.143 
#    0.000    0.000    0.000    0.000    0.000    0.000 
#    0.000    0.000    0.000    0.000    0.000    0.000 
#
# Total GULP energy -347353.441828 kJ/mol
# GULP energy per Si atom -12405.480065 kJ/mol
# Density = 2.043069 g / cm^3
# Si number density = 20.477297 Si / 1000 Ang^3
#
#
#
# Elastic Constant Matrix: (Units=GPa)
#
#
# Indices 1 2 3 4 5 6 
#
# 1 113.0869 35.5771 53.9259 0.0000 -5.9519 0.0000
# 2 35.5771 63.8903 31.8266 0.0000 -2.1926 0.0000
# 3 53.9259 31.8266 91.5686 0.0000 -6.6289 0.0000
# 4 0.0000 0.0000 0.0000 35.8506 0.0000 0.4599
# 5 -5.9519 -2.1926 -6.6289 0.0000 24.0946 0.0000
# 6 0.0000 0.0000 0.0000 0.4599 0.0000 35.0641
#
#
#
# Elastic Compliance Matrix: (Units=1/GPa)
#
#
# Indices 1 2 3 4 5 6 
#
# 1 0.013196 -0.004207 -0.006225 0.000000 0.001164 0.000000
# 2 -0.004207 0.020271 -0.004601 0.000000 -0.000461 0.000000
# 3 -0.006225 -0.004601 0.016370 0.000000 0.002547 0.000000
# 4 0.000000 0.000000 0.000000 0.027898 0.000000 -0.000366
# 5 0.001164 -0.000461 0.002547 0.000000 0.042450 0.000000
# 6 0.000000 0.000000 0.000000 -0.000366 0.000000 0.028524
#
#
# Mechanical properties :
#
#
# Convention : Reuss Voigt Hill
#
# Bulk Modulus (GPa) = 50.57980 56.80058 53.69019
# Shear Modulus (GPa) = 26.97378 28.81628 27.89503
#
# Velocity S-wave (km/s) = 3.63334 3.75538 3.69486
# Velocity P-wave (km/s) = 6.50811 6.82659 6.66925
#
# Compressibility (1/GPa) = 0.01977074
#
# Stress axis : x y z
#
# Youngs Moduli (GPa) = 75.78111 49.33173 61.08685
#
# Poissons Ratio (x) = 0.20756 0.38024
# Poissons Ratio (y) = 0.31884 0.28107
# Poissons Ratio (z) = 0.47171 0.22698
#
# Static dielectric constant tensor:
#      x y z
#    x 5.398410 0.000000 -0.875030 
#    y 0.000000 3.717260 0.000000 
#    z -0.875030 0.000000 3.901800 
# 
# 
# High freq. dielectric constant tensor:
#      x y z
#    x 1.810380 0.000000 -0.012970 
#    y 0.000000 1.808830 0.000000 
#    z -0.012970 0.000000 1.788200 
# 
# From -- ./inp_files/49012.got.cif
#   From: 2010.06.25/outbox.cif.g09.slc.cpg/sg15_25_cif.got.tgz:49012.got - 2010.06.28 07:06:18.
