data_PCOD8136374
_publ_section_title
;
Structure prediction by ZEFSAII (Michael W. Deem and Ramdas Pophale) SiO2 
 PCOD8136374
Probable space group: C 2/C
;
_chemical_formula_sum "Si O2"
_cell_formula_units_Z 48
_cell_length_a 8.719823
_cell_length_b 26.237935
_cell_length_c 9.676606
_cell_angle_alpha 90.000000
_cell_angle_beta 98.257989
_cell_angle_gamma 90.000000
_cell_volume 2190.956892
_symmetry_space_group_name_H-M "C 2/C"
_symmetry_group_IT_number 15
_symmetry_cell_setting 'monoclinic'
loop_
_space_group_symop_operation_xyz
x,y,z
-x,y,1/2-z
-x,-y,-z
x,-y,1/2+z
1/2+x,1/2+y,z
1/2-x,1/2+y,1/2-z
1/2-x,1/2-y,-z
1/2+x,1/2-y,1/2+z
loop_
_atom_site_type_symbol
_atom_site_label
_atom_site_fract_x
_atom_site_fract_y
_atom_site_fract_z
Si Si1 0.783193 0.175930 0.970269
Si Si2 0.683025 0.594903 0.922941
Si Si3 0.192173 0.204851 0.837340
Si Si4 0.502777 0.756888 0.030077
Si Si5 0.331927 0.429883 0.385473
Si Si6 0.108284 0.521459 0.397576
O O1 0.849482 0.189566 0.824019
O O2 0.912064 0.206567 0.076377
O O3 0.780289 0.114850 0.986502
O O4 0.616073 0.195902 0.993747
O O5 0.675612 0.655969 0.938205
O O6 0.735444 0.584117 0.773277
O O7 0.517635 0.566873 0.921816
O O8 0.812092 0.574555 0.046971
O O9 0.082928 0.248419 0.889600
O O10 0.366035 0.226423 0.845623
O O11 0.254006 0.483398 0.407868
O O12 0.000000 0.529205 0.250000
O O13 0.000000 0.500000 0.500000
#
# Coordination Sequence:
#
# PCOD8136374 Si02
#       6
#     8   8   8   8   8   8
#     4  10  20  36  61  89 119 163 213 253 306 377
#     4  10  21  41  67  94 125 168 215 259 321 384
#     4  10  20  37  61  88 122 163 210 256 312 371
#     4  10  20  33  58  89 122 153 202 261 302 364
#     4  10  21  40  69  92 123 170 216 261 316 391
#     4  12  25  43  67  99 131 162 212 270 327 384
#
# _framework density 21.908235000000001
#
# number of rings (size 3 to 8) (size 9 to 14) (size 15 to 20)
#    0.000    1.667    3.333    1.500    2.333    0.000 
#    0.000    3.333    3.667    0.000    0.000    0.000 
#    0.000    0.000    0.000    0.000    0.000    0.000 
#
# Total GULP energy -297378.625862 kJ/mol
# GULP energy per Si atom -12390.776078 kJ/mol
# Density = 2.185837 g / cm^3
# Si number density = 21.908235 Si / 1000 Ang^3
#
#
#
# Elastic Constant Matrix: (Units=GPa)
#
#
# Indices 1 2 3 4 5 6 
#
# 1 103.7840 37.9154 25.4583 0.0000 21.4531 0.0000
# 2 37.9154 96.8460 28.9214 0.0000 14.8937 0.0000
# 3 25.4583 28.9214 69.9056 0.0000 21.0503 0.0000
# 4 0.0000 0.0000 0.0000 27.5851 0.0000 2.6902
# 5 21.4531 14.8937 21.0503 0.0000 40.5365 0.0000
# 6 0.0000 0.0000 0.0000 2.6902 0.0000 35.7967
#
#
#
# Elastic Compliance Matrix: (Units=1/GPa)
#
#
# Indices 1 2 3 4 5 6 
#
# 1 0.012261 -0.003643 -0.001668 0.000000 -0.004284 0.000000
# 2 -0.003643 0.013021 -0.003793 0.000000 -0.000886 0.000000
# 3 -0.001668 -0.003793 0.018724 0.000000 -0.007447 0.000000
# 4 0.000000 0.000000 0.000000 0.036519 0.000000 -0.002744
# 5 -0.004284 -0.000886 -0.007447 0.000000 0.031129 0.000000
# 6 0.000000 0.000000 0.000000 -0.002744 0.000000 0.028142
#
#
# Mechanical properties :
#
#
# Convention : Reuss Voigt Hill
#
# Bulk Modulus (GPa) = 38.76377 50.56953 44.66665
# Shear Modulus (GPa) = 30.01109 32.66636 31.33872
#
# Velocity S-wave (km/s) = 3.70517 3.86561 3.78624
# Velocity P-wave (km/s) = 6.00304 6.56174 6.28860
#
# Compressibility (1/GPa) = 0.02579729
#
# Stress axis : x y z
#
# Youngs Moduli (GPa) = 81.55861 76.79808 53.40651
#
# Poissons Ratio (x) = 0.27980 0.08908
# Poissons Ratio (y) = 0.29714 0.20260
# Poissons Ratio (z) = 0.13603 0.29133
#
# Static dielectric constant tensor:
#      x y z
#    x 4.039460 0.000000 0.069620 
#    y 0.000000 4.564250 0.000000 
#    z 0.069620 0.000000 3.671490 
# 
# 
# High freq. dielectric constant tensor:
#      x y z
#    x 1.886550 0.000000 0.006550 
#    y 0.000000 1.854480 0.000000 
#    z 0.006550 0.000000 1.823750 
# 
# From -- ./inp_files/79353.got.cif
#   From: 2010.06.25/outbox.cif.g09.slc.cpg/sg15_40_cif.got.tgz:79353.got - 2010.06.28 07:06:18.
