data_PCOD8136735
_publ_section_title
;
Structure prediction by ZEFSAII (Michael W. Deem and Ramdas Pophale) SiO2 
 PCOD8136735
Probable space group: C 2/C
;
_chemical_formula_sum "Si O2"
_cell_formula_units_Z 64
_cell_length_a 21.985376
_cell_length_b 19.763127
_cell_length_c 8.910110
_cell_angle_alpha 90.000000
_cell_angle_beta 123.754036
_cell_angle_gamma 90.000000
_cell_volume 3218.833878
_symmetry_space_group_name_H-M "C 2/C"
_symmetry_group_IT_number 15
_symmetry_cell_setting 'monoclinic'
loop_
_space_group_symop_operation_xyz
x,y,z
-x,y,1/2-z
-x,-y,-z
x,-y,1/2+z
1/2+x,1/2+y,z
1/2-x,1/2+y,1/2-z
1/2-x,1/2-y,-z
1/2+x,1/2-y,1/2+z
loop_
_atom_site_type_symbol
_atom_site_label
_atom_site_fract_x
_atom_site_fract_y
_atom_site_fract_z
Si Si1 0.200229 0.344742 0.156289
Si Si2 0.413858 0.757593 0.668689
Si Si3 0.253835 0.014904 0.847941
Si Si4 0.651923 0.503325 0.459152
Si Si5 0.384478 0.358096 0.679930
Si Si6 0.843598 0.754950 0.385884
Si Si7 0.928849 0.123903 0.555608
Si Si8 0.716543 0.129874 0.017844
O O1 0.203401 0.415122 0.067052
O O2 0.274065 0.300089 0.238494
O O3 0.183516 0.356763 0.308415
O O4 0.129604 0.311010 0.988628
O O5 0.500000 0.765027 0.750000
O O6 0.396644 0.763420 0.821011
O O7 0.385346 0.683954 0.577499
O O8 0.174677 0.018638 0.823123
O O9 0.231519 0.018110 0.641855
O O10 0.300263 0.947171 0.950027
O O11 0.602434 0.571216 0.390837
O O12 0.615278 0.445213 0.505695
O O13 0.392148 0.295525 0.576065
O O14 0.303433 0.358183 0.639908
O O15 0.441750 0.354344 0.898171
O O16 0.818445 0.683272 0.416590
O O17 0.000000 0.108854 0.750000
#
# Coordination Sequence:
#
# PCOD8136735 Si02
#       8
#     8   8   8   8   8   8   8   8
#     4  11  21  38  63  95 121 157 207 255 307 367
#     4  11  26  42  59  88 126 163 203 254 305 373
#     4  11  20  35  60  93 123 152 193 262 318 353
#     4  11  20  36  57  87 129 156 200 255 307 350
#     4  10  20  38  57  88 128 156 199 264 298 355
#     4  11  21  38  66  92 114 161 211 254 316 357
#     4  11  23  39  56  79 124 173 206 241 292 371
#     4  10  20  34  61  94 122 150 194 268 316 349
#
# _framework density 19.882975999999999
#
# number of rings (size 3 to 8) (size 9 to 14) (size 15 to 20)
#    0.000    1.250    6.250    4.125    1.750    0.500 
#    0.000    5.625    0.000    3.000    0.000    0.000 
#    0.000    0.000    0.000    0.000    0.000    0.000 
#
# Total GULP energy -396599.090379 kJ/mol
# GULP energy per Si atom -12393.721574 kJ/mol
# Density = 1.983772 g / cm^3
# Si number density = 19.882976 Si / 1000 Ang^3
#
#
#
# Elastic Constant Matrix: (Units=GPa)
#
#
# Indices 1 2 3 4 5 6 
#
# 1 77.1609 45.7289 38.3893 0.0000 -12.7788 0.0000
# 2 45.7289 129.7760 40.2375 0.0000 -4.4735 0.0000
# 3 38.3893 40.2375 118.6162 0.0000 -8.5674 0.0000
# 4 0.0000 0.0000 0.0000 35.5524 0.0000 -8.1199
# 5 -12.7788 -4.4735 -8.5674 0.0000 22.2750 0.0000
# 6 0.0000 0.0000 0.0000 -8.1199 0.0000 18.3710
#
#
#
# Elastic Compliance Matrix: (Units=1/GPa)
#
#
# Indices 1 2 3 4 5 6 
#
# 1 0.019495 -0.005374 -0.003864 0.000000 0.008618 0.000000
# 2 -0.005374 0.010101 -0.001814 0.000000 -0.001752 0.000000
# 3 -0.003864 -0.001814 0.010399 0.000000 0.001419 0.000000
# 4 0.000000 0.000000 0.000000 0.031286 0.000000 0.013828
# 5 0.008618 -0.001752 0.001419 0.000000 0.050031 0.000000
# 6 0.000000 0.000000 0.000000 0.013828 0.000000 0.060546
#
#
# Mechanical properties :
#
#
# Convention : Reuss Voigt Hill
#
# Bulk Modulus (GPa) = 55.89376 63.80715 59.85045
# Shear Modulus (GPa) = 23.81806 28.65283 26.23545
#
# Velocity S-wave (km/s) = 3.46484 3.80027 3.63642
# Velocity P-wave (km/s) = 6.64675 7.17057 6.91362
#
# Compressibility (1/GPa) = 0.01789109
#
# Stress axis : x y z
#
# Youngs Moduli (GPa) = 51.29648 98.99754 96.16509
#
# Poissons Ratio (x) = 0.53203 0.37156
# Poissons Ratio (y) = 0.27568 0.17443
# Poissons Ratio (z) = 0.19820 0.17956
#
# Static dielectric constant tensor:
#      x y z
#    x 3.269490 0.000000 -0.232720 
#    y 0.000000 3.905430 0.000000 
#    z -0.232720 0.000000 3.642300 
# 
# 
# High freq. dielectric constant tensor:
#      x y z
#    x 1.731970 0.000000 -0.034380 
#    y 0.000000 1.791160 0.000000 
#    z -0.034380 0.000000 1.780380 
# 
# From -- ./inp_files/63421.got.cif
#   From: 2010.06.25/outbox.cif.g09.slc.cpg/sg15_32_cif.got.tgz:63421.got - 2010.06.28 07:06:18.
