data_PCOD8136838
_publ_section_title
;
Structure prediction by ZEFSAII (Michael W. Deem and Ramdas Pophale) SiO2 
 PCOD8136838
Probable space group: C 2/C
;
_chemical_formula_sum "Si O2"
_cell_formula_units_Z 60
_cell_length_a 21.429754
_cell_length_b 24.961973
_cell_length_c 5.727295
_cell_angle_alpha 90.000000
_cell_angle_beta 80.525738
_cell_angle_gamma 90.000000
_cell_volume 3021.905944
_symmetry_space_group_name_H-M "C 2/C"
_symmetry_group_IT_number 15
_symmetry_cell_setting 'monoclinic'
loop_
_space_group_symop_operation_xyz
x,y,z
-x,y,1/2-z
-x,-y,-z
x,-y,1/2+z
1/2+x,1/2+y,z
1/2-x,1/2+y,1/2-z
1/2-x,1/2-y,-z
1/2+x,1/2-y,1/2+z
loop_
_atom_site_type_symbol
_atom_site_label
_atom_site_fract_x
_atom_site_fract_y
_atom_site_fract_z
Si Si1 0.112278 0.201841 0.466390
Si Si2 0.290528 0.784124 0.296021
Si Si3 0.620210 0.014916 0.436195
Si Si4 0.739213 0.523732 0.680487
Si Si5 0.723833 0.636394 0.524022
Si Si6 0.836336 0.367460 0.614141
Si Si7 0.000000 0.226387 0.250000
Si Si8 0.564350 0.784230 0.830011
O O1 0.153064 0.246687 0.313322
O O2 0.152820 0.147467 0.472259
O O3 0.046002 0.188600 0.375147
O O4 0.091495 0.227872 0.721633
O O5 0.250000 0.750000 0.500000
O O6 0.245860 0.806294 0.116595
O O7 0.320213 0.837639 0.385822
O O8 0.629497 0.077693 0.467880
O O9 0.585434 0.995130 0.701737
O O10 0.685410 0.982264 0.370557
O O11 0.712320 0.500461 0.445230
O O12 0.721287 0.586743 0.704669
O O13 0.771375 0.619886 0.288672
O O14 0.883936 0.330734 0.734818
O O15 0.952495 0.268617 0.398308
O O16 0.500000 0.804225 0.750000
#
# Coordination Sequence:
#
# PCOD8136838 Si02
#       8
#     8   8   8   8   8   8   4   8
#     4  11  22  36  55  81 118 150 192 237 283 354
#     4  12  22  32  52  87 125 147 184 238 298 357
#     4  10  20  35  54  82 116 154 192 242 297 355
#     4  10  20  37  54  83 124 155 191 237 298 362
#     4  12  23  33  57  90 118 153 188 240 303 354
#     4  12  21  34  59  82 113 157 192 237 297 354
#     4  10  22  42  54  72 112 158 198 238 280 338
#     4  10  22  39  55  78 111 154 199 238 279 346
#
# _framework density 19.855018999999999
#
# number of rings (size 3 to 8) (size 9 to 14) (size 15 to 20)
#    0.000    1.067    6.667    2.800    0.000    0.000 
#    0.000    0.000    0.000    0.800    0.000    0.933 
#    0.000    0.000    0.000    0.000    0.000    0.000 
#
# Total GULP energy -371659.446947 kJ/mol
# GULP energy per Si atom -12388.648232 kJ/mol
# Density = 1.980983 g / cm^3
# Si number density = 19.855019 Si / 1000 Ang^3
#
#
#
# Elastic Constant Matrix: (Units=GPa)
#
#
# Indices 1 2 3 4 5 6 
#
# 1 78.4395 18.2764 7.8695 0.0000 4.4586 0.0000
# 2 18.2764 55.5327 4.1973 0.0000 1.3450 0.0000
# 3 7.8695 4.1973 104.4266 0.0000 1.3250 0.0000
# 4 0.0000 0.0000 0.0000 29.1117 0.0000 5.6988
# 5 4.4586 1.3450 1.3250 0.0000 20.9253 0.0000
# 6 0.0000 0.0000 0.0000 5.6988 0.0000 11.1999
#
#
#
# Elastic Compliance Matrix: (Units=1/GPa)
#
#
# Indices 1 2 3 4 5 6 
#
# 1 0.014030 -0.004489 -0.000843 0.000000 -0.002647 0.000000
# 2 -0.004489 0.019525 -0.000443 0.000000 -0.000270 0.000000
# 3 -0.000843 -0.000443 0.009663 0.000000 -0.000404 0.000000
# 4 0.000000 0.000000 0.000000 0.038150 0.000000 -0.019412
# 5 -0.002647 -0.000270 -0.000404 0.000000 0.048396 0.000000
# 6 0.000000 0.000000 0.000000 -0.019412 0.000000 0.099164
#
#
# Mechanical properties :
#
#
# Convention : Reuss Voigt Hill
#
# Bulk Modulus (GPa) = 31.57976 33.23168 32.40572
# Shear Modulus (GPa) = 19.91759 26.11777 23.01768
#
# Velocity S-wave (km/s) = 3.17069 3.63081 3.40853
# Velocity P-wave (km/s) = 5.41702 5.86094 5.64334
#
# Compressibility (1/GPa) = 0.03166585
#
# Stress axis : x y z
#
# Youngs Moduli (GPa) = 71.27685 51.21649 103.49204
#
# Poissons Ratio (x) = 0.22994 0.08727
# Poissons Ratio (y) = 0.32000 0.04585
# Poissons Ratio (z) = 0.06010 0.02269
#
# Static dielectric constant tensor:
#      x y z
#    x 3.379650 0.000000 0.349000 
#    y 0.000000 3.418690 0.000000 
#    z 0.349000 0.000000 4.031380 
# 
# 
# High freq. dielectric constant tensor:
#      x y z
#    x 1.741870 0.000000 0.015310 
#    y 0.000000 1.755100 0.000000 
#    z 0.015310 0.000000 1.789500 
# 
# From -- ./inp_files/14253.got.cif
#   From: 2010.06.25/outbox.cif.g09.slc.cpg/sg15_8_cif.got.tgz:14253.got - 2010.06.28 07:06:18.
