data_PCOD8136122
_publ_section_title
;
Structure prediction by ZEFSAII (Michael W. Deem and Ramdas Pophale) SiO2 
 PCOD8136122
Probable space group: C 2/C
;
_chemical_formula_sum "Si O2"
_cell_formula_units_Z 64
_cell_length_a 27.754615
_cell_length_b 16.990397
_cell_length_c 21.328217
_cell_angle_alpha 90.000000
_cell_angle_beta 20.545831
_cell_angle_gamma 90.000000
_cell_volume 3529.771512
_symmetry_space_group_name_H-M "C 2/C"
_symmetry_group_IT_number 15
_symmetry_cell_setting 'monoclinic'
loop_
_space_group_symop_operation_xyz
x,y,z
-x,y,1/2-z
-x,-y,-z
x,-y,1/2+z
1/2+x,1/2+y,z
1/2-x,1/2+y,1/2-z
1/2-x,1/2-y,-z
1/2+x,1/2-y,1/2+z
loop_
_atom_site_type_symbol
_atom_site_label
_atom_site_fract_x
_atom_site_fract_y
_atom_site_fract_z
Si Si1 0.011517 0.508897 0.661343
Si Si2 0.650220 0.324584 0.687635
Si Si3 0.308394 0.546811 0.266065
Si Si4 0.920452 0.924897 0.906881
Si Si5 0.168557 0.650345 0.650361
Si Si6 0.607961 0.147666 0.175269
Si Si7 0.451692 0.552688 0.965458
Si Si8 0.575532 0.323378 0.225643
O O1 0.165833 0.501644 0.448829
O O2 0.000000 0.517002 0.750000
O O3 0.952420 0.587315 0.701801
O O4 0.929332 0.430071 0.738215
O O5 0.691158 0.368432 0.701323
O O6 0.512410 0.359293 0.827279
O O7 0.777947 0.336137 0.485281
O O8 0.618439 0.233229 0.739769
O O9 0.415558 0.487125 0.166117
O O10 0.338440 0.565937 0.156954
O O11 0.000000 0.961044 0.750000
O O12 0.883873 0.996076 0.996882
O O13 0.783269 0.881441 0.056448
O O14 0.500000 0.142947 0.250000
O O15 0.583010 0.231986 0.238491
O O16 0.770139 0.140813 0.961709
O O17 0.489935 0.633887 0.884410
O O18 0.500000 0.332325 0.250000
#
# Coordination Sequence:
#
# PCOD8136122 Si02
#       8
#     8   8   8   8   8   8   8   8
#     4  11  20  33  58  82 113 144 181 228 277 328
#     4   9  19  34  52  81 109 144 183 224 266 329
#     4  10  21  37  56  81 109 151 190 218 270 343
#     4   9  19  32  53  83 107 136 182 226 272 324
#     4  10  20  31  56  82 112 137 179 233 276 311
#     4   9  20  35  56  89 113 138 185 232 286 334
#     4  10  20  36  59  79 110 147 187 225 272 338
#     4  10  20  35  62  87 112 143 185 243 283 333
#
# _framework density 18.131485000000001
#
# number of rings (size 3 to 8) (size 9 to 14) (size 15 to 20)
#    0.000    2.250    1.250    1.875    7.000    0.500 
#    0.000    1.875   11.000    0.000    0.000    0.000 
#    0.000    0.000    0.000    0.000    0.000    0.000 
#
# Total GULP energy -396659.185202 kJ/mol
# GULP energy per Si atom -12395.599538 kJ/mol
# Density = 1.809022 g / cm^3
# Si number density = 18.131485 Si / 1000 Ang^3
#
#
#
# Elastic Constant Matrix: (Units=GPa)
#
#
# Indices 1 2 3 4 5 6 
#
# 1 74.7832 39.9863 38.4958 0.0069 10.8963 -0.0049
# 2 39.9863 134.8812 47.5828 0.0052 13.9874 -0.0032
# 3 38.4958 47.5828 97.2746 0.0093 4.8479 -0.0087
# 4 0.0069 0.0052 0.0093 -26.1996 -0.0055 33.6456
# 5 10.8963 13.9874 4.8479 -0.0055 28.6329 0.0040
# 6 -0.0049 -0.0032 -0.0087 33.6456 0.0040 -16.0825
#
#
#
# Elastic Compliance Matrix: (Units=1/GPa)
#
#
# Indices 1 2 3 4 5 6 
#
# 1 0.018570 -0.003038 -0.005632 0.000000 -0.004629 -0.000002
# 2 -0.003038 0.009856 -0.003466 0.000000 -0.003072 -0.000001
# 3 -0.005632 -0.003466 0.014132 0.000002 0.001443 0.000000
# 4 0.000000 0.000000 0.000002 0.022630 -0.000003 0.047343
# 5 -0.004629 -0.003072 0.001443 -0.000003 0.037943 0.000005
# 6 -0.000002 -0.000001 0.000000 0.047343 0.000005 0.036866
#
#
# Mechanical properties :
#
#
# Convention : Reuss Voigt Hill
#
# Bulk Modulus (GPa) = 54.68574 62.11876 58.40225
# Shear Modulus (GPa) = 29.34891 9.32844 19.33868
#
# Velocity S-wave (km/s) = 4.02764 2.27069 3.26940
# Velocity P-wave (km/s) = 7.20106 6.41945 6.82146
#
# Compressibility (1/GPa) = 0.01828630
#
# Stress axis : x y z
#
# Youngs Moduli (GPa) = 53.84942 101.46355 70.75970
#
# Poissons Ratio (x) = 0.30828 0.39853
# Poissons Ratio (y) = 0.16361 0.24522
# Poissons Ratio (z) = 0.30329 0.35163
#
# Static dielectric constant tensor:
#      x y z
#    x 4.819320 0.000060 -0.999480 
#    y 0.000060 3.738200 -0.000030 
#    z -0.999480 -0.000030 3.770320 
# 
# 
# High freq. dielectric constant tensor:
#      x y z
#    x 1.681370 0.000000 -0.023200 
#    y 0.000000 1.718570 0.000000 
#    z -0.023200 0.000000 1.687320 
# 
# From -- ./inp_files/258068.got.cif
#   From: 2010.06.25/outbox.cif.g09.slc.cpg/sg15_130_cif.got.tgz:258068.got - 2010.06.28 07:06:18.
