data_PCOD8136684
_publ_section_title
;
Structure prediction by ZEFSAII (Michael W. Deem and Ramdas Pophale) SiO2 
 PCOD8136684
Probable space group: C 2/C
;
_chemical_formula_sum "Si O2"
_cell_formula_units_Z 56
_cell_length_a 11.254680
_cell_length_b 28.118476
_cell_length_c 14.652614
_cell_angle_alpha 90.000000
_cell_angle_beta 39.234659
_cell_angle_gamma 90.000000
_cell_volume 2932.912922
_symmetry_space_group_name_H-M "C 2/C"
_symmetry_group_IT_number 15
_symmetry_cell_setting 'monoclinic'
loop_
_space_group_symop_operation_xyz
x,y,z
-x,y,1/2-z
-x,-y,-z
x,-y,1/2+z
1/2+x,1/2+y,z
1/2-x,1/2+y,1/2-z
1/2-x,1/2-y,-z
1/2+x,1/2-y,1/2+z
loop_
_atom_site_type_symbol
_atom_site_label
_atom_site_fract_x
_atom_site_fract_y
_atom_site_fract_z
Si Si1 0.015361 0.986712 0.342512
Si Si2 0.633195 0.955251 0.912842
Si Si3 0.628429 0.886160 0.762585
Si Si4 0.458713 0.602278 0.548968
Si Si5 0.189943 0.444757 0.082169
Si Si6 0.472440 0.791285 0.866686
Si Si7 0.946355 0.188371 0.885889
O O1 0.000000 0.965226 0.250000
O O2 0.082648 0.944011 0.365575
O O3 0.166144 0.029143 0.247086
O O4 0.822123 0.008248 0.498473
O O5 0.544869 0.918269 0.893594
O O6 0.647058 0.929626 0.003262
O O7 0.500000 0.000000 0.000000
O O8 0.500000 0.892000 0.750000
O O9 0.839245 0.901224 0.617093
O O10 0.627721 0.831038 0.798995
O O11 0.296954 0.599547 0.567480
O O12 0.443730 0.650244 0.617320
O O13 0.000000 0.457997 0.250000
O O14 0.500000 0.770762 0.750000
O O15 0.483955 0.740571 0.912369
O O16 0.276553 0.819821 0.984159
O O17 0.000000 0.180890 0.750000
#
# Coordination Sequence:
#
# PCOD8136684 Si02
#       7
#     8   8   8   8   8   8   8
#     4  10  23  38  55  87 122 157 205 247 298 355
#     4  11  25  40  61  87 122 165 209 251 300 363
#     4  11  23  37  64  92 119 158 204 247 308 375
#     4  12  22  37  62  90 122 160 203 252 307 366
#     4  11  25  41  59  83 124 168 210 251 300 352
#     4   9  18  37  57  90 120 155 192 244 318 373
#     4  10  20  34  59  89 128 150 191 256 312 365
#
# _framework density 19.093646
#
# number of rings (size 3 to 8) (size 9 to 14) (size 15 to 20)
#    0.000    1.429    4.286    1.714    6.000    2.286 
#    0.000    0.000    0.000    0.857    0.000    0.000 
#    0.000    0.000    0.000    0.000    0.000    0.000 
#
# Total GULP energy -346960.058903 kJ/mol
# GULP energy per Si atom -12391.430675 kJ/mol
# Density = 1.905019 g / cm^3
# Si number density = 19.093646 Si / 1000 Ang^3
#
#
#
# Elastic Constant Matrix: (Units=GPa)
#
#
# Indices 1 2 3 4 5 6 
#
# 1 109.3789 58.7956 43.0383 0.0000 14.4466 0.0000
# 2 58.7956 111.5432 39.2758 0.0000 24.0490 0.0000
# 3 43.0383 39.2758 113.7506 0.0000 -2.6531 0.0000
# 4 0.0000 0.0000 0.0000 23.8231 0.0000 5.2491
# 5 14.4466 24.0490 -2.6531 0.0000 27.0572 0.0000
# 6 0.0000 0.0000 0.0000 5.2491 0.0000 25.4338
#
#
#
# Elastic Compliance Matrix: (Units=1/GPa)
#
#
# Indices 1 2 3 4 5 6 
#
# 1 0.013790 -0.005459 -0.003399 0.000000 -0.002844 0.000000
# 2 -0.005459 0.015513 -0.003553 0.000000 -0.011222 0.000000
# 3 -0.003399 -0.003553 0.011446 0.000000 0.006095 0.000000
# 4 0.000000 0.000000 0.000000 0.043976 0.000000 -0.009076
# 5 -0.002844 -0.011222 0.006095 0.000000 0.049049 0.000000
# 6 0.000000 0.000000 0.000000 -0.009076 0.000000 0.041191
#
#
# Mechanical properties :
#
#
# Convention : Reuss Voigt Hill
#
# Bulk Modulus (GPa) = 62.78274 68.54357 65.66315
# Shear Modulus (GPa) = 24.37890 28.16702 26.27296
#
# Velocity S-wave (km/s) = 3.57712 3.84501 3.71348
# Velocity P-wave (km/s) = 7.07205 7.46248 7.26989
#
# Compressibility (1/GPa) = 0.01592795
#
# Stress axis : x y z
#
# Youngs Moduli (GPa) = 72.51650 64.46229 87.36630
#
# Poissons Ratio (x) = 0.35188 0.29697
# Poissons Ratio (y) = 0.39585 0.31039
# Poissons Ratio (z) = 0.24649 0.22902
#
# Static dielectric constant tensor:
#      x y z
#    x 3.536360 0.000000 0.079160 
#    y 0.000000 3.476810 0.000000 
#    z 0.079160 0.000000 3.603540 
# 
# 
# High freq. dielectric constant tensor:
#      x y z
#    x 1.712400 0.000000 0.004200 
#    y 0.000000 1.732350 0.000000 
#    z 0.004200 0.000000 1.765730 
# 
# From -- ./inp_files/148537.got.cif
#   From: 2010.06.25/outbox.cif.g09.slc.cpg/sg15_75_cif.got.tgz:148537.got - 2010.06.28 07:06:18.
