data_PCOD8136324
_publ_section_title
;
Structure prediction by ZEFSAII (Michael W. Deem and Ramdas Pophale) SiO2 
 PCOD8136324
Probable space group: C 2/C
;
_chemical_formula_sum "Si O2"
_cell_formula_units_Z 64
_cell_length_a 15.060939
_cell_length_b 13.902394
_cell_length_c 18.861063
_cell_angle_alpha 90.000000
_cell_angle_beta 133.446491
_cell_angle_gamma 90.000000
_cell_volume 2867.177280
_symmetry_space_group_name_H-M "C 2/C"
_symmetry_group_IT_number 15
_symmetry_cell_setting 'monoclinic'
loop_
_space_group_symop_operation_xyz
x,y,z
-x,y,1/2-z
-x,-y,-z
x,-y,1/2+z
1/2+x,1/2+y,z
1/2-x,1/2+y,1/2-z
1/2-x,1/2-y,-z
1/2+x,1/2-y,1/2+z
loop_
_atom_site_type_symbol
_atom_site_label
_atom_site_fract_x
_atom_site_fract_y
_atom_site_fract_z
Si Si1 0.013327 0.310215 0.114056
Si Si2 0.130373 0.683630 0.098534
Si Si3 0.637088 0.693396 0.845366
Si Si4 0.986950 0.469166 0.870279
Si Si5 0.281411 0.033686 0.661310
Si Si6 0.209148 0.158726 0.736596
Si Si7 0.738822 0.116741 0.457683
Si Si8 0.175924 0.262768 0.387498
O O1 0.975031 0.422971 0.088576
O O2 0.156336 0.296546 0.197551
O O3 0.963582 0.255675 0.158552
O O4 0.959399 0.270607 0.010484
O O5 0.088612 0.580243 0.106084
O O6 0.119507 0.758097 0.158491
O O7 0.268574 0.685316 0.138966
O O8 0.500000 0.722887 0.750000
O O9 0.685575 0.632749 0.804953
O O10 0.721630 0.786435 0.903107
O O11 0.654291 0.627558 0.924614
O O12 0.902080 0.475885 0.753503
O O13 0.109271 0.409110 0.922550
O O14 0.198675 0.060636 0.684496
O O15 0.314482 0.131401 0.639907
O O16 0.211230 0.964859 0.568034
O O17 0.250000 0.250000 0.500000
#
# Coordination Sequence:
#
# PCOD8136324 Si02
#       8
#     8   8   8   8   8   8   8   8
#     4  10  20  36  62  92 124 162 219 269 319 385
#     4  10  20  33  54  91 133 163 196 267 334 387
#     4  11  24  42  60  91 129 170 212 273 333 407
#     4  11  20  34  64  99 123 152 222 280 320 371
#     4  10  20  36  61  96 123 163 211 274 322 384
#     4  10  22  37  60  90 128 162 212 269 331 385
#     4  11  22  38  68  93 123 165 218 273 334 382
#     4   9  19  36  57  90 132 166 203 262 338 389
#
# _framework density 22.321605999999999
#
# number of rings (size 3 to 8) (size 9 to 14) (size 15 to 20)
#    0.000    1.750    1.250    3.750    1.750    3.500 
#    0.000    0.625    0.000   12.000    0.000    0.000 
#    0.000    0.000    0.000    0.000    0.000    0.000 
#
# Total GULP energy -396432.189523 kJ/mol
# GULP energy per Si atom -12388.505923 kJ/mol
# Density = 2.227080 g / cm^3
# Si number density = 22.321606 Si / 1000 Ang^3
#
#
#
# Elastic Constant Matrix: (Units=GPa)
#
#
# Indices 1 2 3 4 5 6 
#
# 1 91.3005 36.9814 31.6521 0.0000 -29.5448 0.0000
# 2 36.9814 40.4643 31.3951 0.0000 -6.3448 0.0000
# 3 31.6521 31.3951 115.8429 0.0000 -28.4345 0.0000
# 4 0.0000 0.0000 0.0000 36.6263 0.0000 -8.6646
# 5 -29.5448 -6.3448 -28.4345 0.0000 31.7000 0.0000
# 6 0.0000 0.0000 0.0000 -8.6646 0.0000 35.7100
#
#
#
# Elastic Compliance Matrix: (Units=1/GPa)
#
#
# Indices 1 2 3 4 5 6 
#
# 1 0.027790 -0.025804 0.005758 0.000000 0.025901 0.000000
# 2 -0.025804 0.055327 -0.014271 0.000000 -0.025777 0.000000
# 3 0.005758 -0.014271 0.014802 0.000000 0.015787 0.000000
# 4 0.000000 0.000000 0.000000 0.028965 0.000000 0.007028
# 5 0.025901 -0.025777 0.015787 0.000000 0.064687 0.000000
# 6 0.000000 0.000000 0.000000 0.007028 0.000000 0.029709
#
#
# Mechanical properties :
#
#
# Convention : Reuss Voigt Hill
#
# Bulk Modulus (GPa) = 34.14851 49.74056 41.94453
# Shear Modulus (GPa) = 16.68468 30.64586 23.66527
#
# Velocity S-wave (km/s) = 2.73695 3.70932 3.25960
# Velocity P-wave (km/s) = 5.03185 6.37788 5.74443
#
# Compressibility (1/GPa) = 0.02928385
#
# Stress axis : x y z
#
# Youngs Moduli (GPa) = 35.98384 18.07439 67.55916
#
# Poissons Ratio (x) = 0.46639 -0.38898
# Poissons Ratio (y) = 0.92853 0.96413
# Poissons Ratio (z) = -0.20718 0.25794
#
# Static dielectric constant tensor:
#      x y z
#    x 4.349010 0.000000 -0.416370 
#    y 0.000000 3.805960 0.000000 
#    z -0.416370 0.000000 4.503080 
# 
# 
# High freq. dielectric constant tensor:
#      x y z
#    x 1.872190 0.000000 -0.028200 
#    y 0.000000 1.844910 0.000000 
#    z -0.028200 0.000000 1.896090 
# 
# From -- ./inp_files/205743.got.cif
#   From: 2010.06.25/outbox.cif.g09.slc.cpg/sg15_103_cif.got.tgz:205743.got - 2010.06.28 07:06:18.
