data_PCOD8136572
_publ_section_title
;
Structure prediction by ZEFSAII (Michael W. Deem and Ramdas Pophale) SiO2 
 PCOD8136572
Probable space group: C 2/C
;
_chemical_formula_sum "Si O2"
_cell_formula_units_Z 48
_cell_length_a 10.810705
_cell_length_b 22.527886
_cell_length_c 12.385597
_cell_angle_alpha 90.000000
_cell_angle_beta 130.531657
_cell_angle_gamma 90.000000
_cell_volume 2292.618857
_symmetry_space_group_name_H-M "C 2/C"
_symmetry_group_IT_number 15
_symmetry_cell_setting 'monoclinic'
loop_
_space_group_symop_operation_xyz
x,y,z
-x,y,1/2-z
-x,-y,-z
x,-y,1/2+z
1/2+x,1/2+y,z
1/2-x,1/2+y,1/2-z
1/2-x,1/2-y,-z
1/2+x,1/2-y,1/2+z
loop_
_atom_site_type_symbol
_atom_site_label
_atom_site_fract_x
_atom_site_fract_y
_atom_site_fract_z
Si Si1 0.348466 0.491101 0.989289
Si Si2 0.659771 0.040948 0.706145
Si Si3 0.023608 0.879449 0.144082
Si Si4 0.247018 0.810798 0.870619
Si Si5 0.180818 0.562326 0.052383
Si Si6 0.471357 0.709124 0.051979
O O1 0.185728 0.498201 0.824915
O O2 0.500000 0.500000 0.000000
O O3 0.373275 0.426761 0.056772
O O4 0.337765 0.545852 0.067707
O O5 0.800730 0.090272 0.773306
O O6 0.484168 0.073298 0.611409
O O7 0.659235 0.997339 0.605708
O O8 0.000000 0.849825 0.250000
O O9 0.999137 0.832465 0.034368
O O10 0.285699 0.878669 0.859038
O O11 0.163714 0.815644 0.941589
O O12 0.136890 0.781995 0.714194
O O13 0.411933 0.772783 0.973470
#
# Coordination Sequence:
#
# PCOD8136572 Si02
#       6
#     8   8   8   8   8   8
#     4  10  20  34  56  89 122 162 200 251 318 382
#     4  10  22  35  58  92 123 165 201 256 324 379
#     4  11  21  39  62  91 132 167 217 262 321 401
#     4  10  22  42  64  92 123 159 222 271 315 378
#     4  11  21  37  59  90 128 159 202 263 318 377
#     4  10  23  40  65  92 119 170 214 270 320 368
#
# _framework density 20.936755999999999
#
# number of rings (size 3 to 8) (size 9 to 14) (size 15 to 20)
#    0.000    1.667    1.667    3.500    2.333    4.000 
#    3.000    0.833    0.000    0.000    0.000    0.000 
#    0.000    0.000    0.000    0.000    0.000    0.000 
#
# Total GULP energy -297337.404069 kJ/mol
# GULP energy per Si atom -12389.058503 kJ/mol
# Density = 2.088910 g / cm^3
# Si number density = 20.936756 Si / 1000 Ang^3
#
#
#
# Elastic Constant Matrix: (Units=GPa)
#
#
# Indices 1 2 3 4 5 6 
#
# 1 59.4421 47.0149 35.6570 0.0000 -3.5835 0.0000
# 2 47.0149 99.1738 46.0613 0.0000 3.2993 0.0000
# 3 35.6570 46.0613 116.7466 0.0000 -3.3082 0.0000
# 4 0.0000 0.0000 0.0000 39.8363 0.0000 -1.1088
# 5 -3.5835 3.2993 -3.3082 0.0000 32.8867 0.0000
# 6 0.0000 0.0000 0.0000 -1.1088 0.0000 24.8553
#
#
#
# Elastic Compliance Matrix: (Units=1/GPa)
#
#
# Indices 1 2 3 4 5 6 
#
# 1 0.028949 -0.012000 -0.003995 0.000000 0.003956 0.000000
# 2 -0.012000 0.017419 -0.003303 0.000000 -0.003387 0.000000
# 3 -0.003995 -0.003303 0.011118 0.000000 0.001014 0.000000
# 4 0.000000 0.000000 0.000000 0.025134 0.000000 0.001121
# 5 0.003956 -0.003387 0.001014 0.000000 0.031280 0.000000
# 6 0.000000 0.000000 0.000000 0.001121 0.000000 0.040283
#
#
# Mechanical properties :
#
#
# Convention : Reuss Voigt Hill
#
# Bulk Modulus (GPa) = 52.94066 59.20321 56.07193
# Shear Modulus (GPa) = 25.11589 29.29096 27.20343
#
# Velocity S-wave (km/s) = 3.46729 3.74441 3.60851
# Velocity P-wave (km/s) = 6.43198 6.85804 6.64842
#
# Compressibility (1/GPa) = 0.01888907
#
# Stress axis : x y z
#
# Youngs Moduli (GPa) = 34.54308 57.40829 89.94531
#
# Poissons Ratio (x) = 0.68890 0.35935
# Poissons Ratio (y) = 0.41452 0.29713
# Poissons Ratio (z) = 0.13801 0.18965
#
# Static dielectric constant tensor:
#      x y z
#    x 3.978340 0.000000 0.269490 
#    y 0.000000 4.142830 0.000000 
#    z 0.269490 0.000000 4.445390 
# 
# 
# High freq. dielectric constant tensor:
#      x y z
#    x 1.803100 0.000000 -0.001730 
#    y 0.000000 1.797480 0.000000 
#    z -0.001730 0.000000 1.836530 
# 
# From -- ./inp_files/89805.got.cif
#   From: 2010.06.25/outbox.cif.g09.slc.cpg/sg15_45_cif.got.tgz:89805.got - 2010.06.28 07:06:18.
