data_PCOD8136811
_publ_section_title
;
Structure prediction by ZEFSAII (Michael W. Deem and Ramdas Pophale) SiO2 
 PCOD8136811
Probable space group: C 2/C
;
_chemical_formula_sum "Si O2"
_cell_formula_units_Z 64
_cell_length_a 31.988948
_cell_length_b 17.060848
_cell_length_c 11.868355
_cell_angle_alpha 90.000000
_cell_angle_beta 29.973311
_cell_angle_gamma 90.000000
_cell_volume 3236.014980
_symmetry_space_group_name_H-M "C 2/C"
_symmetry_group_IT_number 15
_symmetry_cell_setting 'monoclinic'
loop_
_space_group_symop_operation_xyz
x,y,z
-x,y,1/2-z
-x,-y,-z
x,-y,1/2+z
1/2+x,1/2+y,z
1/2-x,1/2+y,1/2-z
1/2-x,1/2-y,-z
1/2+x,1/2-y,1/2+z
loop_
_atom_site_type_symbol
_atom_site_label
_atom_site_fract_x
_atom_site_fract_y
_atom_site_fract_z
Si Si1 0.773233 0.407714 0.661511
Si Si2 0.723820 0.339795 0.547718
Si Si3 0.743190 0.581328 0.766517
Si Si4 0.699829 0.686512 0.687195
Si Si5 0.883781 0.118400 0.824595
Si Si6 0.557569 0.537362 0.218152
Si Si7 0.585490 0.791464 0.106663
Si Si8 0.456542 0.319384 0.601540
O O1 0.764625 0.393269 0.548550
O O2 0.791725 0.498902 0.645817
O O3 0.853006 0.364501 0.526466
O O4 0.688253 0.372967 0.913548
O O5 0.750000 0.250000 0.500000
O O6 0.757659 0.375940 0.351865
O O7 0.622731 0.344580 0.789013
O O8 0.767402 0.641771 0.609795
O O9 0.646959 0.564042 0.962884
O O10 0.750000 0.750000 0.500000
O O11 0.658499 0.624855 0.698740
O O12 0.627261 0.724679 0.932890
O O13 0.956445 0.186025 0.673456
O O14 0.928412 0.033868 0.727835
O O15 0.500000 0.508742 0.250000
O O16 0.516758 0.611635 0.374450
O O17 0.500000 0.821186 0.250000
O O18 0.566132 0.758932 0.277156
#
# Coordination Sequence:
#
# PCOD8136811 Si02
#       8
#     8   8   8   8   8   8   8   8
#     4  11  25  41  62  94 128 171 214 260 322 389
#     4  11  22  41  65  89 129 169 216 260 325 391
#     4  10  24  39  64  92 127 172 208 260 327 390
#     4  12  22  39  64  91 127 156 219 272 317 372
#     4  11  24  33  57  95 128 163 203 264 326 381
#     4  10  20  35  52  85 135 167 200 243 321 404
#     4  12  22  42  64  91 122 175 222 266 314 384
#     4  11  21  36  60  89 125 173 208 257 321 388
#
# _framework density 19.777412000000002
#
# number of rings (size 3 to 8) (size 9 to 14) (size 15 to 20)
#    0.000    1.000    6.250    1.500    8.750    0.000 
#    0.000    0.000    0.000    4.500    0.000    0.000 
#    0.000    0.000    0.000    0.000    0.000    0.000 
#
# Total GULP energy -396729.470395 kJ/mol
# GULP energy per Si atom -12397.795950 kJ/mol
# Density = 1.973240 g / cm^3
# Si number density = 19.777412 Si / 1000 Ang^3
#
#
#
# Elastic Constant Matrix: (Units=GPa)
#
#
# Indices 1 2 3 4 5 6 
#
# 1 126.5185 61.9030 18.7850 0.0000 -1.0315 0.0000
# 2 61.9030 128.2340 43.0470 0.0000 3.6978 0.0000
# 3 18.7850 43.0470 69.4045 0.0000 -3.8119 0.0000
# 4 0.0000 0.0000 0.0000 30.9992 0.0000 0.6321
# 5 -1.0315 3.6978 -3.8119 0.0000 27.2984 0.0000
# 6 0.0000 0.0000 0.0000 0.6321 0.0000 40.9576
#
#
#
# Elastic Compliance Matrix: (Units=1/GPa)
#
#
# Indices 1 2 3 4 5 6 
#
# 1 0.010392 -0.005213 0.000485 0.000000 0.001166 0.000000
# 2 -0.005213 0.012597 -0.006557 0.000000 -0.002819 0.000000
# 3 0.000485 -0.006557 0.018536 0.000000 0.003495 0.000000
# 4 0.000000 0.000000 0.000000 0.032269 0.000000 -0.000498
# 5 0.001166 -0.002819 0.003495 0.000000 0.037546 0.000000
# 6 0.000000 0.000000 0.000000 -0.000498 0.000000 0.024423
#
#
# Mechanical properties :
#
#
# Convention : Reuss Voigt Hill
#
# Bulk Modulus (GPa) = 52.75820 63.51410 58.13615
# Shear Modulus (GPa) = 30.36699 33.21253 31.78976
#
# Velocity S-wave (km/s) = 3.92272 4.10239 4.01356
# Velocity P-wave (km/s) = 6.87393 7.39078 7.13703
#
# Compressibility (1/GPa) = 0.01895440
#
# Stress axis : x y z
#
# Youngs Moduli (GPa) = 96.22662 79.38309 53.94918
#
# Poissons Ratio (x) = 0.41382 -0.02614
# Poissons Ratio (y) = 0.50162 0.35375
# Poissons Ratio (z) = -0.04663 0.52052
#
# Static dielectric constant tensor:
#      x y z
#    x 3.657120 0.000000 0.069060 
#    y 0.000000 3.649780 0.000000 
#    z 0.069060 0.000000 3.658780 
# 
# 
# High freq. dielectric constant tensor:
#      x y z
#    x 1.775300 0.000000 0.005680 
#    y 0.000000 1.761770 0.000000 
#    z 0.005680 0.000000 1.755040 
# 
# From -- ./inp_files/127271.got.cif
#   From: 2010.06.25/outbox.cif.g09.slc.cpg/sg15_64_cif.got.tgz:127271.got - 2010.06.28 07:06:18.
