data_PCOD8136212
_publ_section_title
;
Structure prediction by ZEFSAII (Michael W. Deem and Ramdas Pophale) SiO2 
 PCOD8136212
Probable space group: C 2/C
;
_chemical_formula_sum "Si O2"
_cell_formula_units_Z 48
_cell_length_a 21.841116
_cell_length_b 20.202937
_cell_length_c 13.737171
_cell_angle_alpha 90.000000
_cell_angle_beta 23.170865
_cell_angle_gamma 90.000000
_cell_volume 2385.081402
_symmetry_space_group_name_H-M "C 2/C"
_symmetry_group_IT_number 15
_symmetry_cell_setting 'monoclinic'
loop_
_space_group_symop_operation_xyz
x,y,z
-x,y,1/2-z
-x,-y,-z
x,-y,1/2+z
1/2+x,1/2+y,z
1/2-x,1/2+y,1/2-z
1/2-x,1/2-y,-z
1/2+x,1/2-y,1/2+z
loop_
_atom_site_type_symbol
_atom_site_label
_atom_site_fract_x
_atom_site_fract_y
_atom_site_fract_z
Si Si1 0.327809 0.251361 0.020092
Si Si2 0.303709 0.856150 0.699521
Si Si3 0.157091 0.358091 0.164006
Si Si4 0.008898 0.909923 0.045112
Si Si5 0.576240 0.455075 0.742398
Si Si6 0.359770 0.696618 0.887009
O O1 0.300624 0.220579 0.166329
O O2 0.207283 0.311412 0.181583
O O3 0.500000 0.281112 0.750000
O O4 0.305747 0.187127 0.983630
O O5 0.479947 0.881764 0.433816
O O6 0.193539 0.907109 0.801047
O O7 0.245022 0.853702 0.896264
O O8 0.249941 0.426572 0.020040
O O9 0.933610 0.841275 0.187563
O O10 0.984789 0.917960 0.964252
O O11 0.923217 0.967783 0.230862
O O12 0.500000 0.441671 0.750000
O O13 0.500000 0.725362 0.750000
O O14 0.250000 0.750000 0.000000
#
# Coordination Sequence:
#
# PCOD8136212 Si02
#       6
#     8   8   8   8   8   8
#     4   9  18  32  53  90 126 150 193 253 313 359
#     4  10  20  37  62  87 125 164 201 253 311 371
#     4  10  20  32  59  92 119 154 199 256 306 356
#     4  10  23  43  62  87 123 165 205 246 310 373
#     4  11  22  40  66  89 118 161 207 255 303 367
#     4  10  23  40  63  87 125 172 210 249 310 378
#
# _framework density 20.125098999999999
#
# number of rings (size 3 to 8) (size 9 to 14) (size 15 to 20)
#    0.000    2.000    1.667    2.000    4.667    2.667 
#    0.000    3.333    3.667    0.000    0.000    0.000 
#    0.000    0.000    0.000    0.000    0.000    0.000 
#
# Total GULP energy -297477.274036 kJ/mol
# GULP energy per Si atom -12394.886418 kJ/mol
# Density = 2.007929 g / cm^3
# Si number density = 20.125099 Si / 1000 Ang^3
#
#
#
# Elastic Constant Matrix: (Units=GPa)
#
#
# Indices 1 2 3 4 5 6 
#
# 1 120.7709 45.0728 50.3410 -0.0013 0.6436 -0.0005
# 2 45.0728 79.4824 55.6247 0.0032 -21.6001 -0.0013
# 3 50.3410 55.6247 118.7343 -0.0013 -18.1096 -0.0001
# 4 -0.0013 0.0032 -0.0013 32.2773 0.0014 -1.4697
# 5 0.6436 -21.6001 -18.1096 0.0014 31.1402 -0.0002
# 6 -0.0005 -0.0013 -0.0001 -1.4697 -0.0002 24.3234
#
#
#
# Elastic Compliance Matrix: (Units=1/GPa)
#
#
# Indices 1 2 3 4 5 6 
#
# 1 0.011985 -0.006411 -0.003066 0.000001 -0.006478 0.000000
# 2 -0.006411 0.024544 -0.006763 -0.000003 0.013224 0.000001
# 3 -0.003066 -0.006763 0.013371 0.000001 0.003148 0.000000
# 4 0.000001 -0.000003 0.000001 0.031067 -0.000003 0.001877
# 5 -0.006478 0.013224 0.003148 -0.000003 0.043250 0.000001
# 6 0.000000 0.000001 0.000000 0.001877 0.000001 0.041226
#
#
# Mechanical properties :
#
#
# Convention : Reuss Voigt Hill
#
# Bulk Modulus (GPa) = 57.40855 69.00716 63.20786
# Shear Modulus (GPa) = 24.54219 28.74480 26.64349
#
# Velocity S-wave (km/s) = 3.49590 3.78339 3.64248
# Velocity P-wave (km/s) = 6.69946 7.31088 7.01184
#
# Compressibility (1/GPa) = 0.01741901
#
# Stress axis : x y z
#
# Youngs Moduli (GPa) = 83.43423 40.74303 74.79106
#
# Poissons Ratio (x) = 0.26122 0.22931
# Poissons Ratio (y) = 0.53494 0.50582
# Poissons Ratio (z) = 0.25581 0.27555
#
# Static dielectric constant tensor:
#      x y z
#    x 3.865060 -0.000010 0.037800 
#    y -0.000010 3.400780 0.000010 
#    z 0.037800 0.000010 3.706570 
# 
# 
# High freq. dielectric constant tensor:
#      x y z
#    x 1.787510 0.000000 0.005960 
#    y 0.000000 1.758030 0.000000 
#    z 0.005960 0.000000 1.786250 
# 
# From -- ./inp_files/174487.got.cif
#   From: 2010.06.25/outbox.cif.g09.slc.cpg/sg15_88_cif.got.tgz:174487.got - 2010.06.28 07:06:18.
