data_PCOD8136947
_publ_section_title
;
Structure prediction by ZEFSAII (Michael W. Deem and Ramdas Pophale) SiO2 
 PCOD8136947
Probable space group: C 2/C
;
_chemical_formula_sum "Si O2"
_cell_formula_units_Z 64
_cell_length_a 12.712052
_cell_length_b 26.800945
_cell_length_c 15.304442
_cell_angle_alpha 90.000000
_cell_angle_beta 143.499309
_cell_angle_gamma 90.000000
_cell_volume 3101.543978
_symmetry_space_group_name_H-M "C 2/C"
_symmetry_group_IT_number 15
_symmetry_cell_setting 'monoclinic'
loop_
_space_group_symop_operation_xyz
x,y,z
-x,y,1/2-z
-x,-y,-z
x,-y,1/2+z
1/2+x,1/2+y,z
1/2-x,1/2+y,1/2-z
1/2-x,1/2-y,-z
1/2+x,1/2-y,1/2+z
loop_
_atom_site_type_symbol
_atom_site_label
_atom_site_fract_x
_atom_site_fract_y
_atom_site_fract_z
Si Si1 0.147464 0.345260 0.602217
Si Si2 0.084554 0.279862 0.718928
Si Si3 0.317333 0.099433 0.075329
Si Si4 0.516156 0.641662 0.427076
Si Si5 0.843096 0.697147 0.574666
Si Si6 0.595302 0.688292 0.978300
Si Si7 0.123402 0.046320 0.092126
Si Si8 0.533012 0.049486 0.076981
O O1 0.043614 0.319488 0.614055
O O2 0.356308 0.336199 0.760933
O O3 0.083335 0.319064 0.470556
O O4 0.099259 0.403700 0.563275
O O5 0.000000 0.302220 0.750000
O O6 0.019510 0.223964 0.658851
O O7 0.291325 0.277039 0.879487
O O8 0.500000 0.106224 0.250000
O O9 0.166948 0.069242 0.027004
O O10 0.359474 0.069541 0.013832
O O11 0.219283 0.153345 0.999077
O O12 0.702137 0.654848 0.507581
O O13 0.528176 0.659075 0.536142
O O14 0.480654 0.582728 0.410680
O O15 0.750000 0.750000 0.500000
O O16 0.000000 0.700658 0.750000
O O17 0.313597 0.031476 0.256444
O O18 0.000000 0.000000 0.000000
O O19 0.500000 0.000000 0.000000
#
# Coordination Sequence:
#
# PCOD8136947 Si02
#       8
#     8   8   8   8   8   8   8   8
#     4  10  22  40  61  86 121 161 201 247 297 362
#     4  11  21  34  56  86 119 154 192 232 284 347
#     4   9  18  38  60  79 114 157 190 228 287 355
#     4   9  20  39  60  83 118 158 198 245 303 359
#     4  12  25  41  62  87 118 160 205 254 306 360
#     4  10  20  35  57  85 116 156 195 232 284 354
#     4   9  19  37  62  87 115 153 197 245 297 356
#     4  10  21  38  61  87 116 153 196 245 298 351
#
# _framework density 20.634884
#
# number of rings (size 3 to 8) (size 9 to 14) (size 15 to 20)
#    0.000    2.000    0.000    5.625    0.000    5.000 
#    0.000    6.875    0.000    0.000    0.000    0.000 
#    0.000    0.000    0.000    0.000    0.000    0.000 
#
# Total GULP energy -396463.632226 kJ/mol
# GULP energy per Si atom -12389.488507 kJ/mol
# Density = 2.058792 g / cm^3
# Si number density = 20.634884 Si / 1000 Ang^3
#
#
#
# Elastic Constant Matrix: (Units=GPa)
#
#
# Indices 1 2 3 4 5 6 
#
# 1 106.1543 46.5087 42.1205 0.0000 -13.2874 -0.0001
# 2 46.5087 128.0996 53.7573 0.0000 -4.2620 -0.0001
# 3 42.1205 53.7573 87.5751 0.0000 -10.5116 -0.0001
# 4 0.0000 0.0000 0.0000 39.9470 0.0000 2.1488
# 5 -13.2874 -4.2620 -10.5116 0.0000 31.2657 -0.0001
# 6 -0.0001 -0.0001 -0.0001 2.1488 -0.0001 29.3071
#
#
#
# Elastic Compliance Matrix: (Units=1/GPa)
#
#
# Indices 1 2 3 4 5 6 
#
# 1 0.012678 -0.002838 -0.003913 0.000000 0.003685 0.000000
# 2 -0.002838 0.011168 -0.005682 0.000000 -0.001594 0.000000
# 3 -0.003913 -0.005682 0.017190 0.000000 0.003342 0.000000
# 4 0.000000 0.000000 0.000000 0.025132 0.000000 -0.001843
# 5 0.003685 -0.001594 0.003342 0.000000 0.034456 0.000000
# 6 0.000000 0.000000 0.000000 -0.001843 0.000000 0.034257
#
#
# Mechanical properties :
#
#
# Convention : Reuss Voigt Hill
#
# Bulk Modulus (GPa) = 61.84437 67.40024 64.62230
# Shear Modulus (GPa) = 30.27803 32.06679 31.17241
#
# Velocity S-wave (km/s) = 3.83472 3.94637 3.89094
# Velocity P-wave (km/s) = 7.04575 7.31432 7.18129
#
# Compressibility (1/GPa) = 0.01616962
#
# Stress axis : x y z
#
# Youngs Moduli (GPa) = 78.87934 89.53996 58.17469
#
# Poissons Ratio (x) = 0.25412 0.22764
# Poissons Ratio (y) = 0.22387 0.33054
# Poissons Ratio (z) = 0.30865 0.50875
#
# Static dielectric constant tensor:
#      x y z
#    x 3.903020 0.000000 0.031960 
#    y 0.000000 3.656240 0.000000 
#    z 0.031960 0.000000 3.498030 
# 
# 
# High freq. dielectric constant tensor:
#      x y z
#    x 1.808820 0.000000 0.001990 
#    y 0.000000 1.806600 0.000000 
#    z 0.001990 0.000000 1.784560 
# 
# From -- ./inp_files/148776.got.cif
#   From: 2010.06.25/outbox.cif.g09.slc.cpg/sg15_75_cif.got.tgz:148776.got - 2010.06.28 07:06:18.
