data_PCOD8136415
_publ_section_title
;
Structure prediction by ZEFSAII (Michael W. Deem and Ramdas Pophale) SiO2 
 PCOD8136415
Probable space group: C 2/C
;
_chemical_formula_sum "Si O2"
_cell_formula_units_Z 48
_cell_length_a 8.949709
_cell_length_b 15.768425
_cell_length_c 20.721629
_cell_angle_alpha 90.000000
_cell_angle_beta 56.042340
_cell_angle_gamma 90.000000
_cell_volume 2425.557851
_symmetry_space_group_name_H-M "C 2/C"
_symmetry_group_IT_number 15
_symmetry_cell_setting 'monoclinic'
loop_
_space_group_symop_operation_xyz
x,y,z
-x,y,1/2-z
-x,-y,-z
x,-y,1/2+z
1/2+x,1/2+y,z
1/2-x,1/2+y,1/2-z
1/2-x,1/2-y,-z
1/2+x,1/2-y,1/2+z
loop_
_atom_site_type_symbol
_atom_site_label
_atom_site_fract_x
_atom_site_fract_y
_atom_site_fract_z
Si Si1 0.989388 0.318958 0.915746
Si Si2 0.364305 0.386069 0.835792
Si Si3 0.080910 0.471933 0.662428
Si Si4 0.053750 0.989291 0.368281
Si Si5 0.241741 0.440355 0.305735
Si Si6 0.186767 0.844003 0.087696
O O1 0.932459 0.396340 0.884549
O O2 0.953508 0.233197 0.884565
O O3 0.200352 0.320742 0.886547
O O4 0.874971 0.320467 0.008909
O O5 0.500000 0.346545 0.750000
O O6 0.478887 0.415069 0.871425
O O7 0.274100 0.472777 0.835128
O O8 0.288180 0.501240 0.617906
O O9 0.000000 0.438953 0.750000
O O10 0.965802 0.554611 0.668179
O O11 0.121268 0.939276 0.287349
O O12 0.895917 0.926310 0.430099
O O13 0.271474 0.361371 0.346583
#
# Coordination Sequence:
#
# PCOD8136415 Si02
#       6
#     8   8   8   8   8   8
#     4  10  21  34  50  75 105 137 171 209 254 308
#     4   8  15  31  52  72  95 128 171 211 249 299
#     4   9  18  33  53  78 102 128 173 222 256 300
#     4   9  17  32  54  77 100 130 174 219 257 302
#     4   8  16  32  54  75  99 135 174 212 254 303
#     4  10  20  34  50  73 107 139 170 207 253 312
#
# _framework density 19.789261
#
# number of rings (size 3 to 8) (size 9 to 14) (size 15 to 20)
#    0.000    3.000    0.000    2.500    0.000    8.000 
#    0.000    4.167    0.000    4.000    0.000    0.000 
#    0.000    0.000    0.000    0.000    0.000    0.000 
#
# Total GULP energy -297403.560560 kJ/mol
# GULP energy per Si atom -12391.815023 kJ/mol
# Density = 1.974422 g / cm^3
# Si number density = 19.789261 Si / 1000 Ang^3
#
#
#
# Elastic Constant Matrix: (Units=GPa)
#
#
# Indices 1 2 3 4 5 6 
#
# 1 138.5532 36.7267 30.7058 0.0000 -19.4785 0.0001
# 2 36.7267 66.5784 26.1845 0.0000 -6.1863 0.0000
# 3 30.7058 26.1845 47.9621 -0.0001 -7.8494 0.0001
# 4 0.0000 0.0000 -0.0001 17.4190 0.0000 4.6041
# 5 -19.4785 -6.1863 -7.8494 0.0000 32.6282 0.0000
# 6 0.0001 0.0000 0.0001 4.6041 0.0000 24.1404
#
#
#
# Elastic Compliance Matrix: (Units=1/GPa)
#
#
# Indices 1 2 3 4 5 6 
#
# 1 0.009501 -0.003476 -0.003503 0.000000 0.004170 0.000000
# 2 -0.003476 0.020441 -0.008993 0.000000 -0.000363 0.000000
# 3 -0.003503 -0.008993 0.028503 0.000000 0.003061 0.000000
# 4 0.000000 0.000000 0.000000 0.060456 0.000000 -0.011530
# 5 0.004170 -0.000363 0.003061 0.000000 0.033806 0.000000
# 6 0.000000 0.000000 0.000000 -0.011530 0.000000 0.043624
#
#
# Mechanical properties :
#
#
# Convention : Reuss Voigt Hill
#
# Bulk Modulus (GPa) = 37.73473 48.92532 43.33002
# Shear Modulus (GPa) = 21.08738 25.46928 23.27833
#
# Velocity S-wave (km/s) = 3.26789 3.59141 3.43346
# Velocity P-wave (km/s) = 5.77481 6.47877 6.13689
#
# Compressibility (1/GPa) = 0.02650079
#
# Stress axis : x y z
#
# Youngs Moduli (GPa) = 105.24712 48.92190 35.08404
#
# Poissons Ratio (x) = 0.17007 0.12288
# Poissons Ratio (y) = 0.36587 0.31552
# Poissons Ratio (z) = 0.36863 0.43997
#
# Static dielectric constant tensor:
#      x y z
#    x 4.245490 0.000000 -0.150330 
#    y 0.000000 3.279720 0.000000 
#    z -0.150330 0.000000 3.401620 
# 
# 
# High freq. dielectric constant tensor:
#      x y z
#    x 1.786820 0.000000 -0.015530 
#    y 0.000000 1.729560 0.000000 
#    z -0.015530 0.000000 1.753590 
# 
# From -- ./inp_files/232026.got.cif
#   From: 2010.06.25/outbox.cif.g09.slc.cpg/sg15_117_cif.got.tgz:232026.got - 2010.06.28 07:06:18.
