data_PCOD8136427
_publ_section_title
;
Structure prediction by ZEFSAII (Michael W. Deem and Ramdas Pophale) SiO2 
 PCOD8136427
Probable space group: C 2/C
;
_chemical_formula_sum "Si O2"
_cell_formula_units_Z 48
_cell_length_a 15.436670
_cell_length_b 27.153539
_cell_length_c 11.686680
_cell_angle_alpha 90.000000
_cell_angle_beta 28.169924
_cell_angle_gamma 90.000000
_cell_volume 2312.566601
_symmetry_space_group_name_H-M "C 2/C"
_symmetry_group_IT_number 15
_symmetry_cell_setting 'monoclinic'
loop_
_space_group_symop_operation_xyz
x,y,z
-x,y,1/2-z
-x,-y,-z
x,-y,1/2+z
1/2+x,1/2+y,z
1/2-x,1/2+y,1/2-z
1/2-x,1/2-y,-z
1/2+x,1/2-y,1/2+z
loop_
_atom_site_type_symbol
_atom_site_label
_atom_site_fract_x
_atom_site_fract_y
_atom_site_fract_z
Si Si1 0.896934 0.960335 0.698461
Si Si2 0.282612 0.603739 0.716444
Si Si3 0.737013 0.798949 0.372641
Si Si4 0.816739 0.693198 0.313722
Si Si5 0.873264 0.407665 0.653021
Si Si6 0.193545 0.050437 0.571894
O O1 0.725369 0.934861 0.836281
O O2 0.051666 0.919729 0.550735
O O3 0.818893 0.990826 0.897209
O O4 0.000000 0.000000 0.500000
O O5 0.336753 0.661139 0.675149
O O6 0.257984 0.578067 0.868089
O O7 0.089903 0.597644 0.873181
O O8 0.779175 0.742900 0.284376
O O9 0.801986 0.805694 0.429854
O O10 0.525062 0.810674 0.608787
O O11 0.773512 0.645440 0.287118
O O12 0.850627 0.439442 0.795644
O O13 0.000000 0.070742 0.750000
#
# Coordination Sequence:
#
# PCOD8136427 Si02
#       6
#     8   8   8   8   8   8
#     4  10  22  35  49  75  97 138 181 215 253 307
#     4  10  20  34  51  71 104 138 173 210 254 295
#     4   9  17  28  43  71  96 131 169 199 237 304
#     4   9  18  27  44  70  96 131 170 196 243 300
#     4  11  20  36  52  71 105 141 170 215 254 301
#     4  11  20  35  51  71 100 137 176 214 256 304
#
# _framework density 20.756159
#
# number of rings (size 3 to 8) (size 9 to 14) (size 15 to 20)
#    0.000    2.000    5.000    0.500    2.333    2.667 
#    3.000    0.000    0.000    0.000    0.000    0.000 
#    0.000    1.333    0.000    0.000    0.333    0.167 
#
# Total GULP energy -297444.370167 kJ/mol
# GULP energy per Si atom -12393.515424 kJ/mol
# Density = 2.070892 g / cm^3
# Si number density = 20.756159 Si / 1000 Ang^3
#
#
#
# Elastic Constant Matrix: (Units=GPa)
#
#
# Indices 1 2 3 4 5 6 
#
# 1 35.6602 24.6791 15.2278 -0.0041 -23.2724 0.0008
# 2 24.6791 167.1935 40.3566 -0.0012 -4.0984 0.0008
# 3 15.2278 40.3566 38.2838 -0.0016 -8.4184 0.0058
# 4 -0.0041 -0.0012 -0.0016 28.6020 0.0050 -4.4001
# 5 -23.2724 -4.0984 -8.4184 0.0050 21.6478 -0.0028
# 6 0.0008 0.0008 0.0058 -4.4001 -0.0028 28.8080
#
#
#
# Elastic Compliance Matrix: (Units=1/GPa)
#
#
# Indices 1 2 3 4 5 6 
#
# 1 0.123610 -0.013445 -0.006924 -0.000004 0.127649 0.000011
# 2 -0.013445 0.009560 -0.008212 0.000001 -0.015838 0.000000
# 3 -0.006924 -0.008212 0.038877 -0.000001 0.006120 -0.000007
# 4 -0.000004 0.000001 -0.000001 0.035804 -0.000012 0.005469
# 5 0.127649 -0.015838 0.006120 -0.000012 0.182804 0.000012
# 6 0.000011 0.000000 -0.000007 0.005469 0.000012 0.035548
#
#
# Mechanical properties :
#
#
# Convention : Reuss Voigt Hill
#
# Bulk Modulus (GPa) = 8.70448 44.62939 26.66694
# Shear Modulus (GPa) = 9.58477 26.53649 18.06063
#
# Velocity S-wave (km/s) = 2.15124 3.57947 2.95300
# Velocity P-wave (km/s) = 3.22075 6.21546 4.95001
#
# Compressibility (1/GPa) = 0.11488332
#
# Stress axis : x y z
#
# Youngs Moduli (GPa) = 8.08996 104.60599 25.72196
#
# Poissons Ratio (x) = 1.40647 0.17811
# Poissons Ratio (y) = 0.10877 0.21123
# Poissons Ratio (z) = 0.05602 0.85902
#
# Static dielectric constant tensor:
#      x y z
#    x 3.409320 -0.000010 -0.209080 
#    y -0.000010 4.429190 0.000060 
#    z -0.209080 0.000060 3.601630 
# 
# 
# High freq. dielectric constant tensor:
#      x y z
#    x 1.773780 0.000000 -0.044020 
#    y 0.000000 1.826300 0.000000 
#    z -0.044020 0.000000 1.776340 
# 
# From -- ./inp_files/101404.got.cif
#   From: 2010.06.25/outbox.cif.g09.slc.cpg/sg15_51_cif.got.tgz:101404.got - 2010.06.28 07:06:18.
