data_PCOD8136900
_publ_section_title
;
Structure prediction by ZEFSAII (Michael W. Deem and Ramdas Pophale) SiO2 
 PCOD8136900
Probable space group: C 2/C
;
_chemical_formula_sum "Si O2"
_cell_formula_units_Z 40
_cell_length_a 25.720454
_cell_length_b 11.393071
_cell_length_c 8.809212
_cell_angle_alpha 90.000000
_cell_angle_beta 50.846461
_cell_angle_gamma 90.000000
_cell_volume 2001.769526
_symmetry_space_group_name_H-M "C 2/C"
_symmetry_group_IT_number 15
_symmetry_cell_setting 'monoclinic'
loop_
_space_group_symop_operation_xyz
x,y,z
-x,y,1/2-z
-x,-y,-z
x,-y,1/2+z
1/2+x,1/2+y,z
1/2-x,1/2+y,1/2-z
1/2-x,1/2-y,-z
1/2+x,1/2-y,1/2+z
loop_
_atom_site_type_symbol
_atom_site_label
_atom_site_fract_x
_atom_site_fract_y
_atom_site_fract_z
Si Si1 0.795303 0.859896 0.431334
Si Si2 0.423357 0.394823 0.049813
Si Si3 0.816168 0.670124 0.863617
Si Si4 0.426826 0.641699 0.199389
Si Si5 0.272255 0.991033 0.692174
O O1 0.750000 0.750000 0.500000
O O2 0.872416 0.825789 0.255845
O O3 0.782372 0.913889 0.618698
O O4 0.775749 0.952341 0.341020
O O5 0.421346 0.531371 0.098034
O O6 0.494098 0.328571 0.941567
O O7 0.400656 0.389356 0.916149
O O8 0.882483 0.749718 0.719488
O O9 0.811627 0.584011 0.725368
O O10 0.750000 0.750000 0.000000
O O11 0.824102 0.592739 0.003652
#
# Coordination Sequence:
#
# PCOD8136900 Si02
#       5
#     8   8   8   8   8
#     4  11  20  34  56  80 108 141 179 228 272 320
#     4  10  20  35  56  85 111 140 185 227 282 340
#     4  11  21  37  58  83 117 151 185 234 283 329
#     4  10  21  36  57  82 115 145 175 233 288 328
#     4  10  22  34  55  86 112 144 190 224 273 344
#
# _framework density 19.982320999999999
#
# number of rings (size 3 to 8) (size 9 to 14) (size 15 to 20)
#    0.000    1.600    0.000    7.200    0.000    1.600 
#    0.000    0.000    0.000   21.600    0.000    0.000 
#    0.000    0.000    0.000    0.000    0.000    0.000 
#
# Total GULP energy -247891.014095 kJ/mol
# GULP energy per Si atom -12394.550705 kJ/mol
# Density = 1.993684 g / cm^3
# Si number density = 19.982321 Si / 1000 Ang^3
#
#
#
# Elastic Constant Matrix: (Units=GPa)
#
#
# Indices 1 2 3 4 5 6 
#
# 1 47.2036 23.6735 18.4704 0.0000 -4.4636 0.0000
# 2 23.6735 82.1749 29.3881 0.0000 -13.0133 0.0000
# 3 18.4704 29.3881 85.6637 0.0000 -12.0280 0.0000
# 4 0.0000 0.0000 0.0000 28.2315 0.0000 -13.0717
# 5 -4.4636 -13.0133 -12.0280 0.0000 39.2976 0.0000
# 6 0.0000 0.0000 0.0000 -13.0717 0.0000 22.9834
#
#
#
# Elastic Compliance Matrix: (Units=1/GPa)
#
#
# Indices 1 2 3 4 5 6 
#
# 1 0.025608 -0.006181 -0.003427 0.000000 -0.000187 0.000000
# 2 -0.006181 0.015779 -0.003600 0.000000 0.003421 0.000000
# 3 -0.003427 -0.003600 0.014028 0.000000 0.002712 0.000000
# 4 0.000000 0.000000 0.000000 0.048084 0.000000 0.027348
# 5 -0.000187 0.003421 0.002712 0.000000 0.027389 0.000000
# 6 0.000000 0.000000 0.000000 0.027348 0.000000 0.059064
#
#
# Mechanical properties :
#
#
# Convention : Reuss Voigt Hill
#
# Bulk Modulus (GPa) = 34.48455 39.78958 37.13706
# Shear Modulus (GPa) = 22.12042 27.66985 24.89513
#
# Velocity S-wave (km/s) = 3.33077 3.72521 3.53350
# Velocity P-wave (km/s) = 5.66454 6.20150 5.93909
#
# Compressibility (1/GPa) = 0.02899850
#
# Stress axis : x y z
#
# Youngs Moduli (GPa) = 39.04999 63.37442 71.28388
#
# Poissons Ratio (x) = 0.39174 0.24430
# Poissons Ratio (y) = 0.24138 0.25663
# Poissons Ratio (z) = 0.13383 0.22816
#
# Static dielectric constant tensor:
#      x y z
#    x 3.586230 0.000000 0.113190 
#    y 0.000000 3.537900 0.000000 
#    z 0.113190 0.000000 4.106750 
# 
# 
# High freq. dielectric constant tensor:
#      x y z
#    x 1.773510 0.000000 0.014180 
#    y 0.000000 1.766370 0.000000 
#    z 0.014180 0.000000 1.793700 
# 
# From -- ./inp_files/46056.got.cif
#   From: 2010.06.25/outbox.cif.g09.slc.cpg/sg15_24_cif.got.tgz:46056.got - 2010.06.28 07:06:18.
