data_PCOD8136633
_publ_section_title
;
Structure prediction by ZEFSAII (Michael W. Deem and Ramdas Pophale) SiO2 
 PCOD8136633
Probable space group: C 2/C
;
_chemical_formula_sum "Si O2"
_cell_formula_units_Z 36
_cell_length_a 13.184749
_cell_length_b 26.235151
_cell_length_c 5.433524
_cell_angle_alpha 90.000000
_cell_angle_beta 59.528181
_cell_angle_gamma 90.000000
_cell_volume 1619.881207
_symmetry_space_group_name_H-M "C 2/C"
_symmetry_group_IT_number 15
_symmetry_cell_setting 'monoclinic'
loop_
_space_group_symop_operation_xyz
x,y,z
-x,y,1/2-z
-x,-y,-z
x,-y,1/2+z
1/2+x,1/2+y,z
1/2-x,1/2+y,1/2-z
1/2-x,1/2-y,-z
1/2+x,1/2-y,1/2+z
loop_
_atom_site_type_symbol
_atom_site_label
_atom_site_fract_x
_atom_site_fract_y
_atom_site_fract_z
Si Si1 0.861834 0.528862 0.928337
Si Si2 0.839956 0.291958 0.617821
Si Si3 0.289666 0.873256 0.306681
Si Si4 0.000000 0.643912 0.250000
Si Si5 0.123168 0.187164 0.730904
O O1 0.825163 0.496467 0.731831
O O2 0.786355 0.581865 0.012890
O O3 0.000000 0.541335 0.750000
O O4 0.822332 0.316890 0.370988
O O5 0.948356 0.320943 0.602986
O O6 0.880800 0.232910 0.562011
O O7 0.717400 0.298086 0.909519
O O8 0.165898 0.864891 0.316449
O O9 0.394947 0.890782 0.990061
O O10 0.000000 0.176438 0.750000
#
# Coordination Sequence:
#
# PCOD8136633 Si02
#       5
#     8   8   8   4   8
#     4  10  23  39  64  95 128 162 209 270 330 386
#     4  10  20  37  58  87 122 162 201 252 307 372
#     4  11  23  37  62  88 123 167 206 254 322 379
#     4  10  20  34  58  86 126 156 200 248 308 376
#     4  10  22  39  58  88 124 162 210 254 304 376
#
# _framework density 22.223852999999998
#
# number of rings (size 3 to 8) (size 9 to 14) (size 15 to 20)
#    0.000    1.778    1.111    2.667   10.889    0.889 
#    4.000    0.000    0.000    1.333    0.000    0.000 
#    0.000    0.000    0.000    0.000    0.000    0.000 
#
# Total GULP energy -223055.050675 kJ/mol
# GULP energy per Si atom -12391.947260 kJ/mol
# Density = 2.217327 g / cm^3
# Si number density = 22.223853 Si / 1000 Ang^3
#
#
#
# Elastic Constant Matrix: (Units=GPa)
#
#
# Indices 1 2 3 4 5 6 
#
# 1 167.2544 64.8644 26.6249 0.0000 14.1195 0.0000
# 2 64.8644 96.3662 20.2686 0.0000 15.5730 0.0000
# 3 26.6249 20.2686 50.7139 0.0000 14.6444 0.0000
# 4 0.0000 0.0000 0.0000 9.8533 0.0000 103.7118
# 5 14.1195 15.5730 14.6444 0.0000 31.1793 0.0000
# 6 0.0000 0.0000 0.0000 103.7118 0.0000 -470.6506
#
#
#
# Elastic Compliance Matrix: (Units=1/GPa)
#
#
# Indices 1 2 3 4 5 6 
#
# 1 0.008336 -0.005105 -0.002294 0.000000 -0.000148 0.000000
# 2 -0.005105 0.014924 -0.002082 0.000000 -0.004164 0.000000
# 3 -0.002294 -0.002082 0.024474 0.000000 -0.009416 0.000000
# 4 0.000000 0.000000 0.000000 0.030574 0.000000 0.006737
# 5 -0.000148 -0.004164 -0.009416 0.000000 0.038642 0.000000
# 6 0.000000 0.000000 0.000000 0.006737 0.000000 -0.000640
#
#
# Mechanical properties :
#
#
# Convention : Reuss Voigt Hill
#
# Bulk Modulus (GPa) = 34.75446 59.76116 47.25781
# Shear Modulus (GPa) = 34.51541 -72.41850 -18.95154
#
# Velocity S-wave (km/s) = 3.94519 -5.71460 -2.92337
# Velocity P-wave (km/s) = 6.03531 4.07349 3.14894
#
# Compressibility (1/GPa) = 0.02877329
#
# Stress axis : x y z
#
# Youngs Moduli (GPa) = 119.95758 67.00586 40.85999
#
# Poissons Ratio (x) = 0.34205 0.09371
# Poissons Ratio (y) = 0.61236 0.08507
# Poissons Ratio (z) = 0.27513 0.13951
#
# Static dielectric constant tensor:
#      x y z
#    x 4.218240 0.000000 0.281590 
#    y 0.000000 3.968860 0.000000 
#    z 0.281590 0.000000 3.926750 
# 
# 
# High freq. dielectric constant tensor:
#      x y z
#    x 1.872530 0.000000 0.029100 
#    y 0.000000 1.853400 0.000000 
#    z 0.029100 0.000000 1.859080 
# 
# From -- ./inp_files/4814.got.cif
#   From: 2010.06.25/outbox.cif.g09.slc.cpg/sg15_3_cif.got.tgz:4814.got - 2010.06.28 07:06:18.
