data_PCOD8136100
_publ_section_title
;
Structure prediction by ZEFSAII (Michael W. Deem and Ramdas Pophale) SiO2 
 PCOD8136100
Probable space group: C 2/C
;
_chemical_formula_sum "Si O2"
_cell_formula_units_Z 44
_cell_length_a 13.639221
_cell_length_b 31.256088
_cell_length_c 5.492387
_cell_angle_alpha 90.000000
_cell_angle_beta 125.288043
_cell_angle_gamma 90.000000
_cell_volume 1911.229571
_symmetry_space_group_name_H-M "C 2/C"
_symmetry_group_IT_number 15
_symmetry_cell_setting 'monoclinic'
loop_
_space_group_symop_operation_xyz
x,y,z
-x,y,1/2-z
-x,-y,-z
x,-y,1/2+z
1/2+x,1/2+y,z
1/2-x,1/2+y,1/2-z
1/2-x,1/2-y,-z
1/2+x,1/2-y,1/2+z
loop_
_atom_site_type_symbol
_atom_site_label
_atom_site_fract_x
_atom_site_fract_y
_atom_site_fract_z
Si Si1 0.359934 0.486522 0.192383
Si Si2 0.693176 0.817776 0.857476
Si Si3 0.874716 0.760171 0.936076
Si Si4 0.298922 0.913047 0.518336
Si Si5 0.870883 0.546800 0.628252
Si Si6 0.500000 0.789183 0.250000
O O1 0.428380 0.506131 0.528815
O O2 0.331686 0.436541 0.192059
O O3 0.229245 0.510027 0.981632
O O4 0.799662 0.804558 0.822313
O O5 0.720530 0.862467 0.027051
O O6 0.561493 0.819562 0.540572
O O7 0.698056 0.779878 0.058091
O O8 0.897994 0.743489 0.697445
O O9 0.000000 0.768612 0.250000
O O10 0.378071 0.926562 0.394133
O O11 0.347364 0.923048 0.859770
O O12 0.000000 0.525100 0.750000
#
# Coordination Sequence:
#
# PCOD8136100 Si02
#       6
#     8   8   8   8   8   4
#     4   8  16  30  43  61  93 134 177 208 249 304
#     4  10  21  35  53  76 107 137 176 223 269 318
#     4   9  20  38  55  75 101 137 177 219 275 323
#     4  10  21  31  46  71  99 135 179 216 256 304
#     4  10  20  31  45  66 101 143 180 212 256 310
#     4  10  20  34  54  76 102 140 172 216 270 330
#
# _framework density 23.021826999999998
#
# number of rings (size 3 to 8) (size 9 to 14) (size 15 to 20)
#    0.000    2.545    0.000    1.091    3.818    9.455 
#    0.000    0.000    0.000    0.000    0.000    0.000 
#    0.000   13.091    0.000    0.000    0.000    0.000 
#
# Total GULP energy -272554.184695 kJ/mol
# GULP energy per Si atom -12388.826577 kJ/mol
# Density = 2.296943 g / cm^3
# Si number density = 23.021827 Si / 1000 Ang^3
#
#
#
# Elastic Constant Matrix: (Units=GPa)
#
#
# Indices 1 2 3 4 5 6 
#
# 1 105.7304 43.5202 32.8124 0.0000 -30.2376 0.0000
# 2 43.5202 128.1057 26.5698 0.0000 -6.8091 0.0000
# 3 32.8124 26.5698 95.1647 0.0000 -27.2069 0.0000
# 4 0.0000 0.0000 0.0000 15.8564 0.0000 -5.2567
# 5 -30.2376 -6.8091 -27.2069 0.0000 41.1874 0.0000
# 6 0.0000 0.0000 0.0000 -5.2567 0.0000 18.3928
#
#
#
# Elastic Compliance Matrix: (Units=1/GPa)
#
#
# Indices 1 2 3 4 5 6 
#
# 1 0.014019 -0.004049 -0.001174 0.000000 0.008847 0.000000
# 2 -0.004049 0.009456 -0.002031 0.000000 -0.002750 0.000000
# 3 -0.001174 -0.002031 0.013730 0.000000 0.007872 0.000000
# 4 0.000000 0.000000 0.000000 0.069667 0.000000 0.019911
# 5 0.008847 -0.002750 0.007872 0.000000 0.035520 0.000000
# 6 0.000000 0.000000 0.000000 0.019911 0.000000 0.060060
#
#
# Mechanical properties :
#
#
# Convention : Reuss Voigt Hill
#
# Bulk Modulus (GPa) = 44.05403 59.42286 51.73845
# Shear Modulus (GPa) = 22.26918 30.16055 26.21486
#
# Velocity S-wave (km/s) = 3.11353 3.62344 3.37812
# Velocity P-wave (km/s) = 5.66593 6.58584 6.14313
#
# Compressibility (1/GPa) = 0.02269940
#
# Stress axis : x y z
#
# Youngs Moduli (GPa) = 71.33118 105.74751 72.83097
#
# Poissons Ratio (x) = 0.42816 0.08550
# Poissons Ratio (y) = 0.28881 0.14788
# Poissons Ratio (z) = 0.08374 0.21472
#
# Static dielectric constant tensor:
#      x y z
#    x 4.764670 0.000000 -0.377250 
#    y 0.000000 3.821950 0.000000 
#    z -0.377250 0.000000 4.339710 
# 
# 
# High freq. dielectric constant tensor:
#      x y z
#    x 1.929540 0.000000 -0.016270 
#    y 0.000000 1.873450 0.000000 
#    z -0.016270 0.000000 1.922990 
# 
# From -- ./inp_files/7975.got.cif
#   From: 2010.06.25/outbox.cif.g09.slc.cpg/sg15_4_cif.got.tgz:7975.got - 2010.06.28 07:06:18.
