data_PCOD8136939
_publ_section_title
;
Structure prediction by ZEFSAII (Michael W. Deem and Ramdas Pophale) SiO2 
 PCOD8136939
Probable space group: C 2/C
;
_chemical_formula_sum "Si O2"
_cell_formula_units_Z 56
_cell_length_a 29.776619
_cell_length_b 8.504987
_cell_length_c 12.787750
_cell_angle_alpha 90.000000
_cell_angle_beta 120.714874
_cell_angle_gamma 90.000000
_cell_volume 2784.197612
_symmetry_space_group_name_H-M "C 2/C"
_symmetry_group_IT_number 15
_symmetry_cell_setting 'monoclinic'
loop_
_space_group_symop_operation_xyz
x,y,z
-x,y,1/2-z
-x,-y,-z
x,-y,1/2+z
1/2+x,1/2+y,z
1/2-x,1/2+y,1/2-z
1/2-x,1/2-y,-z
1/2+x,1/2-y,1/2+z
loop_
_atom_site_type_symbol
_atom_site_label
_atom_site_fract_x
_atom_site_fract_y
_atom_site_fract_z
Si Si1 0.242133 0.131478 0.083639
Si Si2 0.653613 0.687843 0.139902
Si Si3 0.922206 0.551739 0.903753
Si Si4 0.512255 0.167845 0.882962
Si Si5 0.604166 0.609389 0.493759
Si Si6 0.337545 0.468101 0.633734
Si Si7 0.852321 0.711731 0.268940
O O1 0.204302 0.199852 0.127840
O O2 0.299227 0.107444 0.201423
O O3 0.250000 0.250000 0.000000
O O4 0.215371 0.976766 0.000409
O O5 0.627185 0.857520 0.107938
O O6 0.610158 0.566665 0.044695
O O7 0.672365 0.640262 0.278317
O O8 0.900441 0.408131 0.805494
O O9 0.957578 0.674158 0.880416
O O10 0.954959 0.481634 0.038525
O O11 0.500000 0.133173 0.750000
O O12 0.544473 0.330631 0.935403
O O13 0.618413 0.611404 0.387338
O O14 0.642983 0.720254 0.607430
O O15 0.354453 0.645757 0.687703
#
# Coordination Sequence:
#
# PCOD8136939 Si02
#       7
#     8   8   8   8   8   8   8
#     4   9  19  35  56  82 114 150 186 226 275 330
#     4  10  20  35  57  84 112 146 190 232 276 336
#     4  10  22  37  56  83 113 145 181 229 286 333
#     4  10  21  38  56  77 109 144 182 232 283 332
#     4   9  19  36  56  77 106 147 189 233 279 328
#     4   9  18  35  57  81 111 149 192 229 270 331
#     4   9  19  36  56  79 116 150 181 230 283 334
#
# _framework density 20.113513999999999
#
# number of rings (size 3 to 8) (size 9 to 14) (size 15 to 20)
#    0.000    2.571    0.000    0.857    0.000    8.571 
#    0.000    7.857    0.000    0.000    0.000    0.000 
#    0.000    0.000    0.000    0.000    0.000    0.000 
#
# Total GULP energy -347025.625804 kJ/mol
# GULP energy per Si atom -12393.772350 kJ/mol
# Density = 2.006774 g / cm^3
# Si number density = 20.113514 Si / 1000 Ang^3
#
#
#
# Elastic Constant Matrix: (Units=GPa)
#
#
# Indices 1 2 3 4 5 6 
#
# 1 109.7584 34.5454 51.3244 0.0000 -2.4738 0.0000
# 2 34.5454 58.1756 25.3696 0.0000 2.5998 0.0000
# 3 51.3244 25.3696 109.3155 0.0000 -3.0191 0.0000
# 4 0.0000 0.0000 0.0000 16.5018 0.0000 1.1026
# 5 -2.4738 2.5998 -3.0191 0.0000 35.1039 0.0000
# 6 0.0000 0.0000 0.0000 1.1026 0.0000 34.8277
#
#
#
# Elastic Compliance Matrix: (Units=1/GPa)
#
#
# Indices 1 2 3 4 5 6 
#
# 1 0.013212 -0.005779 -0.004836 0.000000 0.000943 0.000000
# 2 -0.005779 0.021767 -0.002400 0.000000 -0.002226 0.000000
# 3 -0.004836 -0.002400 0.011999 0.000000 0.000869 0.000000
# 4 0.000000 0.000000 0.000000 0.060728 0.000000 -0.001923
# 5 0.000943 -0.002226 0.000869 0.000000 0.028793 0.000000
# 6 0.000000 0.000000 0.000000 -0.001923 0.000000 0.028774
#
#
# Mechanical properties :
#
#
# Convention : Reuss Voigt Hill
#
# Bulk Modulus (GPa) = 47.73497 55.52536 51.63017
# Shear Modulus (GPa) = 25.21612 28.35403 26.78507
#
# Velocity S-wave (km/s) = 3.54459 3.75867 3.65320
# Velocity P-wave (km/s) = 6.36683 6.81929 6.59694
#
# Compressibility (1/GPa) = 0.02094900
#
# Stress axis : x y z
#
# Youngs Moduli (GPa) = 75.68601 45.94129 83.33767
#
# Poissons Ratio (x) = 0.26549 0.40303
# Poissons Ratio (y) = 0.43738 0.20000
# Poissons Ratio (z) = 0.36603 0.11025
#
# Static dielectric constant tensor:
#      x y z
#    x 3.820760 0.000000 0.268520 
#    y 0.000000 3.541050 0.000000 
#    z 0.268520 0.000000 3.999250 
# 
# 
# High freq. dielectric constant tensor:
#      x y z
#    x 1.773390 0.000000 0.004480 
#    y 0.000000 1.767260 0.000000 
#    z 0.004480 0.000000 1.800350 
# 
# From -- ./inp_files/122002.got.cif
#   From: 2010.06.25/outbox.cif.g09.slc.cpg/sg15_62_cif.got.tgz:122002.got - 2010.06.28 07:06:18.
