data_PCOD8136557
_publ_section_title
;
Structure prediction by ZEFSAII (Michael W. Deem and Ramdas Pophale) SiO2 
 PCOD8136557
Probable space group: C 2/C
;
_chemical_formula_sum "Si O2"
_cell_formula_units_Z 48
_cell_length_a 19.614407
_cell_length_b 18.421849
_cell_length_c 8.566992
_cell_angle_alpha 90.000000
_cell_angle_beta 127.012629
_cell_angle_gamma 90.000000
_cell_volume 2471.799428
_symmetry_space_group_name_H-M "C 2/C"
_symmetry_group_IT_number 15
_symmetry_cell_setting 'monoclinic'
loop_
_space_group_symop_operation_xyz
x,y,z
-x,y,1/2-z
-x,-y,-z
x,-y,1/2+z
1/2+x,1/2+y,z
1/2-x,1/2+y,1/2-z
1/2-x,1/2-y,-z
1/2+x,1/2-y,1/2+z
loop_
_atom_site_type_symbol
_atom_site_label
_atom_site_fract_x
_atom_site_fract_y
_atom_site_fract_z
Si Si1 0.496492 0.666447 0.062609
Si Si2 0.344864 0.070459 0.914798
Si Si3 0.081285 0.545855 0.160562
Si Si4 0.483922 0.819786 0.547027
Si Si5 0.155792 0.916258 0.255242
Si Si6 0.582636 0.551392 0.966263
O O1 0.500000 0.648290 0.250000
O O2 0.521706 0.749320 0.067631
O O3 0.400141 0.653893 0.867672
O O4 0.562836 0.616463 0.058437
O O5 0.252032 0.097702 0.835419
O O6 0.337087 0.996075 0.801527
O O7 0.405728 0.045051 0.137778
O O8 0.393916 0.137387 0.899734
O O9 0.062334 0.629953 0.089104
O O10 0.000000 0.500000 0.000000
O O11 0.500000 0.798097 0.750000
O O12 0.155743 0.925972 0.442980
O O13 0.112619 0.984104 0.109649
O O14 0.500000 0.529615 0.750000
#
# Coordination Sequence:
#
# PCOD8136557 Si02
#       6
#     8   8   8   8   8   8
#     4  11  22  37  56  77 105 146 186 222 271 332
#     4  10  20  34  56  85 111 139 181 229 270 314
#     4   9  18  34  56  79 109 145 178 214 264 323
#     4   9  19  37  55  76 108 147 183 215 265 333
#     4  11  20  35  56  83 110 139 178 230 273 315
#     4  10  20  35  56  80 108 144 181 218 270 333
#
# _framework density 19.419051
#
# number of rings (size 3 to 8) (size 9 to 14) (size 15 to 20)
#    0.000    2.000    0.000    7.500    0.000    2.667 
#    0.000   10.000    0.000    0.000    0.000    0.000 
#    0.000    0.000    0.000    0.000    0.000    0.000 
#
# Total GULP energy -297424.088064 kJ/mol
# GULP energy per Si atom -12392.670336 kJ/mol
# Density = 1.937485 g / cm^3
# Si number density = 19.419051 Si / 1000 Ang^3
#
#
#
# Elastic Constant Matrix: (Units=GPa)
#
#
# Indices 1 2 3 4 5 6 
#
# 1 127.0859 56.5000 28.6951 0.0000 -1.6013 0.0000
# 2 56.5000 119.2777 38.4406 0.0000 -6.3222 0.0000
# 3 28.6951 38.4406 59.2004 0.0000 -12.7924 0.0000
# 4 0.0000 0.0000 0.0000 22.8140 0.0000 -10.8077
# 5 -1.6013 -6.3222 -12.7924 0.0000 31.9096 0.0000
# 6 0.0000 0.0000 0.0000 -10.8077 0.0000 23.5312
#
#
#
# Elastic Compliance Matrix: (Units=1/GPa)
#
#
# Indices 1 2 3 4 5 6 
#
# 1 0.010259 -0.004091 -0.002606 0.000000 -0.001340 0.000000
# 2 -0.004091 0.012249 -0.006011 0.000000 -0.000188 0.000000
# 3 -0.002606 -0.006011 0.023838 0.000000 0.008235 0.000000
# 4 0.000000 0.000000 0.000000 0.056022 0.000000 0.025730
# 5 -0.001340 -0.000188 0.008235 0.000000 0.034535 0.000000
# 6 0.000000 0.000000 0.000000 0.025730 0.000000 0.054314
#
#
# Mechanical properties :
#
#
# Convention : Reuss Voigt Hill
#
# Bulk Modulus (GPa) = 47.78024 61.42614 54.60319
# Shear Modulus (GPa) = 22.36037 27.77952 25.06995
#
# Velocity S-wave (km/s) = 3.39701 3.78634 3.59694
# Velocity P-wave (km/s) = 6.32807 7.12851 6.74018
#
# Compressibility (1/GPa) = 0.02092915
#
# Stress axis : x y z
#
# Youngs Moduli (GPa) = 97.47683 81.64032 41.95023
#
# Poissons Ratio (x) = 0.33396 0.10932
# Poissons Ratio (y) = 0.39874 0.25218
# Poissons Ratio (z) = 0.25403 0.49078
#
# Static dielectric constant tensor:
#      x y z
#    x 3.932150 0.000000 -0.229220 
#    y 0.000000 3.562790 0.000000 
#    z -0.229220 0.000000 3.472150 
# 
# 
# High freq. dielectric constant tensor:
#      x y z
#    x 1.755920 0.000000 -0.013340 
#    y 0.000000 1.750090 0.000000 
#    z -0.013340 0.000000 1.745840 
# 
# From -- ./inp_files/56240.got.cif
#   From: 2010.06.25/outbox.cif.g09.slc.cpg/sg15_29_cif.got.tgz:56240.got - 2010.06.28 07:06:18.
