data_PCOD8136998
_publ_section_title
;
Structure prediction by ZEFSAII (Michael W. Deem and Ramdas Pophale) SiO2 
 PCOD8136998
Probable space group: C 2/C
;
_chemical_formula_sum "Si O2"
_cell_formula_units_Z 60
_cell_length_a 27.235671
_cell_length_b 8.901070
_cell_length_c 16.378412
_cell_angle_alpha 90.000000
_cell_angle_beta 136.373630
_cell_angle_gamma 90.000000
_cell_volume 2739.500900
_symmetry_space_group_name_H-M "C 2/C"
_symmetry_group_IT_number 15
_symmetry_cell_setting 'monoclinic'
loop_
_space_group_symop_operation_xyz
x,y,z
-x,y,1/2-z
-x,-y,-z
x,-y,1/2+z
1/2+x,1/2+y,z
1/2-x,1/2+y,1/2-z
1/2-x,1/2-y,-z
1/2+x,1/2-y,1/2+z
loop_
_atom_site_type_symbol
_atom_site_label
_atom_site_fract_x
_atom_site_fract_y
_atom_site_fract_z
Si Si1 0.420599 0.196479 0.236592
Si Si2 0.357929 0.830067 0.318861
Si Si3 0.528351 0.124168 0.668582
Si Si4 0.775693 0.664178 0.371561
Si Si5 0.407771 0.282424 0.601014
Si Si6 0.827060 0.337073 0.464152
Si Si7 0.000000 0.946649 0.250000
Si Si8 0.196162 0.652248 0.277651
O O1 0.469561 0.343220 0.286071
O O2 0.366897 0.228010 0.246108
O O3 0.470773 0.054332 0.316519
O O4 0.380870 0.164008 0.103630
O O5 0.437248 0.830679 0.376932
O O6 0.308816 0.694751 0.225692
O O7 0.369339 0.820617 0.429640
O O8 0.313329 0.973642 0.233466
O O9 0.447222 0.183430 0.577190
O O10 0.575388 0.208299 0.792366
O O11 0.823183 0.773960 0.486027
O O12 0.784383 0.493416 0.410005
O O13 0.804372 0.707632 0.316103
O O14 0.436635 0.452981 0.634994
O O15 0.771059 0.200953 0.408351
#
# Coordination Sequence:
#
# PCOD8136998 Si02
#       8
#     8   8   8   8   8   8   4   8
#     4  11  20  38  57  82 112 150 185 227 284 330
#     4   9  20  37  57  86 113 143 190 232 272 329
#     4   9  19  38  59  79 112 145 190 229 269 337
#     4  10  20  38  60  83 114 149 186 230 279 325
#     4  10  21  39  58  81 111 149 187 232 277 329
#     4  10  20  35  58  84 111 148 182 228 285 326
#     4  10  24  36  56  80 112 146 186 236 276 330
#     4   9  21  38  56  86 115 143 184 236 272 338
#
# _framework density 21.901799
#
# number of rings (size 3 to 8) (size 9 to 14) (size 15 to 20)
#    0.000    2.400    1.333    1.200    1.867    2.667 
#    2.400    2.667    0.000    0.000    0.000    0.000 
#    0.000    0.000    0.000    0.000    0.000    0.000 
#
# Total GULP energy -371912.169865 kJ/mol
# GULP energy per Si atom -12397.072329 kJ/mol
# Density = 2.185195 g / cm^3
# Si number density = 21.901799 Si / 1000 Ang^3
#
#
#
# Elastic Constant Matrix: (Units=GPa)
#
#
# Indices 1 2 3 4 5 6 
#
# 1 75.7417 19.3317 -22.0856 0.0000 -4.9839 0.0000
# 2 19.3317 79.3142 -4.3394 0.0000 -2.3267 0.0000
# 3 -22.0856 -4.3394 32.0984 0.0000 0.5924 0.0000
# 4 0.0000 0.0000 0.0000 19.3401 0.0000 4.7649
# 5 -4.9839 -2.3267 0.5924 0.0000 15.2377 0.0000
# 6 0.0000 0.0000 0.0000 4.7649 0.0000 31.6583
#
#
#
# Elastic Compliance Matrix: (Units=1/GPa)
#
#
# Indices 1 2 3 4 5 6 
#
# 1 0.017845 -0.003567 0.011707 0.000000 0.004837 0.000000
# 2 -0.003567 0.013469 -0.000650 0.000000 0.000915 0.000000
# 3 0.011707 -0.000650 0.039081 0.000000 0.002210 0.000000
# 4 0.000000 0.000000 0.000000 0.053697 0.000000 -0.008082
# 5 0.004837 0.000915 0.002210 0.000000 0.067263 0.000000
# 6 0.000000 0.000000 0.000000 -0.008082 0.000000 0.032804
#
#
# Mechanical properties :
#
#
# Convention : Reuss Voigt Hill
#
# Bulk Modulus (GPa) = 11.71323 19.21863 15.46593
# Shear Modulus (GPa) = 21.04052 26.19707 23.61879
#
# Velocity S-wave (km/s) = 3.10284 3.46224 3.28746
# Velocity P-wave (km/s) = 4.26573 4.97763 4.63537
#
# Compressibility (1/GPa) = 0.08537353
#
# Stress axis : x y z
#
# Youngs Moduli (GPa) = 56.03771 74.24580 25.58813
#
# Poissons Ratio (x) = 0.26484 -0.29956
# Poissons Ratio (y) = 0.19989 0.01664
# Poissons Ratio (z) = -0.65603 0.04829
#
# Static dielectric constant tensor:
#      x y z
#    x 4.193630 0.000000 0.025160 
#    y 0.000000 4.018920 0.000000 
#    z 0.025160 0.000000 3.680500 
# 
# 
# High freq. dielectric constant tensor:
#      x y z
#    x 1.863110 0.000000 0.000200 
#    y 0.000000 1.855910 0.000000 
#    z 0.000200 0.000000 1.843260 
# 
# From -- ./inp_files/221906.got.cif
#   From: 2010.06.25/outbox.cif.g09.slc.cpg/sg15_111_cif.got.tgz:221906.got - 2010.06.28 07:06:18.
