data_PCOD8136428
_publ_section_title
;
Structure prediction by ZEFSAII (Michael W. Deem and Ramdas Pophale) SiO2 
 PCOD8136428
Probable space group: C 2/C
;
_chemical_formula_sum "Si O2"
_cell_formula_units_Z 56
_cell_length_a 11.876950
_cell_length_b 24.952856
_cell_length_c 10.161170
_cell_angle_alpha 90.000000
_cell_angle_beta 70.813571
_cell_angle_gamma 90.000000
_cell_volume 2844.132505
_symmetry_space_group_name_H-M "C 2/C"
_symmetry_group_IT_number 15
_symmetry_cell_setting 'monoclinic'
loop_
_space_group_symop_operation_xyz
x,y,z
-x,y,1/2-z
-x,-y,-z
x,-y,1/2+z
1/2+x,1/2+y,z
1/2-x,1/2+y,1/2-z
1/2-x,1/2-y,-z
1/2+x,1/2-y,1/2+z
loop_
_atom_site_type_symbol
_atom_site_label
_atom_site_fract_x
_atom_site_fract_y
_atom_site_fract_z
Si Si1 0.784374 0.836660 0.999096
Si Si2 0.821154 0.300448 0.203377
Si Si3 0.926082 0.940782 0.403031
Si Si4 0.263967 0.653985 0.018771
Si Si5 0.843842 0.292451 0.705989
Si Si6 0.582889 0.439440 0.599730
Si Si7 0.516521 0.270871 0.993264
O O1 0.728371 0.806538 0.898314
O O2 0.805595 0.899025 0.955882
O O3 0.909398 0.809190 0.990107
O O4 0.689827 0.832659 0.155527
O O5 0.708554 0.262615 0.219854
O O6 0.939220 0.263143 0.150959
O O7 0.815592 0.339868 0.080886
O O8 0.813008 0.906055 0.489643
O O9 0.000000 0.917033 0.250000
O O10 0.015919 0.941258 0.488464
O O11 0.875399 0.999846 0.384916
O O12 0.174457 0.660761 0.178629
O O13 0.376348 0.694304 0.987702
O O14 0.978843 0.275167 0.615466
O O15 0.500000 0.417767 0.750000
#
# Coordination Sequence:
#
# PCOD8136428 Si02
#       7
#     8   8   8   8   8   8   8
#     4  11  21  34  52  75 104 137 169 207 257 300
#     4  10  22  33  48  76 100 139 178 199 248 310
#     4  10  20  34  53  77 102 134 169 208 263 311
#     4  11  21  34  52  75 104 137 169 207 257 300
#     4  10  22  33  48  76 100 139 178 199 248 310
#     4  10  20  34  53  77 102 134 169 208 263 311
#     4  10  20  34  51  72 109 138 164 214 244 296
#
# _framework density 19.68966
#
# number of rings (size 3 to 8) (size 9 to 14) (size 15 to 20)
#    0.000    1.714    1.429    5.143    4.000    5.714 
#    0.000    0.000    0.000    0.000    0.000    6.000 
#    0.000    0.000    0.000    0.000    0.000    0.000 
#
# Total GULP energy -346971.337567 kJ/mol
# GULP energy per Si atom -12391.833485 kJ/mol
# Density = 1.964485 g / cm^3
# Si number density = 19.689660 Si / 1000 Ang^3
#
#
#
# Elastic Constant Matrix: (Units=GPa)
#
#
# Indices 1 2 3 4 5 6 
#
# 1 21.5098 10.6916 9.5203 0.0000 -3.8148 0.0000
# 2 10.6916 88.4406 31.5763 0.0000 -19.1609 0.0000
# 3 9.5203 31.5763 132.7197 0.0000 -6.4202 0.0000
# 4 0.0000 0.0000 0.0000 32.9751 0.0000 -7.0181
# 5 -3.8148 -19.1609 -6.4202 0.0000 34.2843 0.0000
# 6 0.0000 0.0000 0.0000 -7.0181 0.0000 36.3799
#
#
#
# Elastic Compliance Matrix: (Units=1/GPa)
#
#
# Indices 1 2 3 4 5 6 
#
# 1 0.050320 -0.004687 -0.002372 0.000000 0.002535 0.000000
# 2 -0.004687 0.014369 -0.002744 0.000000 0.006995 0.000000
# 3 -0.002372 -0.002744 0.008346 0.000000 -0.000235 0.000000
# 4 0.000000 0.000000 0.000000 0.031624 0.000000 0.006101
# 5 0.002535 0.006995 -0.000235 0.000000 0.033315 0.000000
# 6 0.000000 0.000000 0.000000 0.006101 0.000000 0.028665
#
#
# Mechanical properties :
#
#
# Convention : Reuss Voigt Hill
#
# Bulk Modulus (GPa) = 18.71637 38.47182 28.59409
# Shear Modulus (GPa) = 24.50327 33.45333 28.97830
#
# Velocity S-wave (km/s) = 3.53154 4.12640 3.84050
# Velocity P-wave (km/s) = 5.11423 6.50265 5.84978
#
# Compressibility (1/GPa) = 0.05342916
#
# Stress axis : x y z
#
# Youngs Moduli (GPa) = 19.87298 69.59500 119.81345
#
# Poissons Ratio (x) = 0.32619 0.28417
# Poissons Ratio (y) = 0.09315 0.32877
# Poissons Ratio (z) = 0.04713 0.19097
#
# Static dielectric constant tensor:
#      x y z
#    x 3.257300 0.000000 -0.157490 
#    y 0.000000 3.787050 0.000000 
#    z -0.157490 0.000000 4.054050 
# 
# 
# High freq. dielectric constant tensor:
#      x y z
#    x 1.730420 0.000000 0.006080 
#    y 0.000000 1.744200 0.000000 
#    z 0.006080 0.000000 1.796440 
# 
# From -- ./inp_files/34220.got.cif
#   From: 2010.06.25/outbox.cif.g09.slc.cpg/sg15_18_cif.got.tgz:34220.got - 2010.06.28 07:06:18.
