data_PCOD8136154
_publ_section_title
;
Structure prediction by ZEFSAII (Michael W. Deem and Ramdas Pophale) SiO2 
 PCOD8136154
Probable space group: C 2/C
;
_chemical_formula_sum "Si O2"
_cell_formula_units_Z 64
_cell_length_a 24.351854
_cell_length_b 18.655046
_cell_length_c 21.515191
_cell_angle_alpha 90.000000
_cell_angle_beta 21.219444
_cell_angle_gamma 90.000000
_cell_volume 3537.620783
_symmetry_space_group_name_H-M "C 2/C"
_symmetry_group_IT_number 15
_symmetry_cell_setting 'monoclinic'
loop_
_space_group_symop_operation_xyz
x,y,z
-x,y,1/2-z
-x,-y,-z
x,-y,1/2+z
1/2+x,1/2+y,z
1/2-x,1/2+y,1/2-z
1/2-x,1/2-y,-z
1/2+x,1/2-y,1/2+z
loop_
_atom_site_type_symbol
_atom_site_label
_atom_site_fract_x
_atom_site_fract_y
_atom_site_fract_z
Si Si1 0.950076 0.564424 0.235398
Si Si2 0.780202 0.165575 0.678714
Si Si3 0.257576 0.202051 0.431229
Si Si4 0.611638 0.307277 0.867641
Si Si5 0.979531 0.193318 0.639725
Si Si6 0.359148 0.964666 0.227198
Si Si7 0.259096 0.909544 0.151402
Si Si8 0.304213 0.051131 0.168679
O O1 0.826991 0.625929 0.375842
O O2 0.873286 0.497501 0.280982
O O3 0.000000 0.535498 0.250000
O O4 0.090048 0.597436 0.049027
O O5 0.695875 0.238869 0.749893
O O6 0.747437 0.105611 0.660541
O O7 0.718621 0.137787 0.810187
O O8 0.959339 0.178832 0.489993
O O9 0.250000 0.250000 0.500000
O O10 0.088384 0.189784 0.584311
O O11 0.359925 0.241816 0.271856
O O12 0.719209 0.375342 0.747359
O O13 0.578261 0.292355 0.974764
O O14 0.886608 0.118538 0.732950
O O15 0.289311 0.026192 0.256081
O O16 0.520152 0.937830 0.031706
O O17 0.230072 0.991784 0.201320
#
# Coordination Sequence:
#
# PCOD8136154 Si02
#       8
#     8   8   8   8   8   8   8   8
#     4  11  21  35  53  71  97 134 175 211 246 290
#     4  10  20  32  50  77 106 131 164 204 254 309
#     4  12  23  34  48  68 100 141 182 214 240 278
#     4  11  20  31  52  78 103 130 162 205 258 312
#     4  11  21  32  48  69 101 137 170 210 249 292
#     4   9  19  34  51  72 101 134 166 205 252 303
#     4   9  20  35  51  74 103 134 168 208 251 300
#     4   9  18  33  52  74 102 132 163 204 258 311
#
# _framework density 18.091255
#
# number of rings (size 3 to 8) (size 9 to 14) (size 15 to 20)
#    0.000    1.750    0.000    7.125    0.000    5.500 
#    0.000    0.000    0.000    0.000    0.000    7.875 
#    0.000    0.000    0.000    0.000    0.000    0.000 
#
# Total GULP energy -396886.488955 kJ/mol
# GULP energy per Si atom -12402.702780 kJ/mol
# Density = 1.805008 g / cm^3
# Si number density = 18.091255 Si / 1000 Ang^3
#
#
#
# Elastic Constant Matrix: (Units=GPa)
#
#
# Indices 1 2 3 4 5 6 
#
# 1 109.0147 59.3732 35.2803 -0.0035 -26.1943 0.0009
# 2 59.3732 134.6155 43.0335 -0.0207 -18.4322 0.0117
# 3 35.2803 43.0335 58.0007 -0.0641 -16.7608 0.0356
# 4 -0.0035 -0.0207 -0.0641 32.0716 0.0296 -9.8861
# 5 -26.1943 -18.4322 -16.7608 0.0296 24.8031 -0.0115
# 6 0.0009 0.0117 0.0356 -9.8861 -0.0115 32.4675
#
#
#
# Elastic Compliance Matrix: (Units=1/GPa)
#
#
# Indices 1 2 3 4 5 6 
#
# 1 0.014983 -0.004217 -0.002881 -0.000016 0.010743 0.000003
# 2 -0.004217 0.011099 -0.005683 -0.000004 -0.000045 0.000001
# 3 -0.002881 -0.005683 0.026233 0.000035 0.010461 -0.000012
# 4 -0.000016 -0.000004 0.000035 0.034410 -0.000032 0.010478
# 5 0.010743 -0.000045 0.010461 -0.000032 0.058699 -0.000001
# 6 0.000003 0.000001 -0.000012 0.010478 -0.000001 0.033990
#
#
# Mechanical properties :
#
#
# Convention : Reuss Voigt Hill
#
# Bulk Modulus (GPa) = 37.37718 64.11166 50.74442
# Shear Modulus (GPa) = 23.37605 28.79804 26.08705
#
# Velocity S-wave (km/s) = 3.59851 3.99409 3.80145
# Velocity P-wave (km/s) = 6.16205 7.53560 6.88317
#
# Compressibility (1/GPa) = 0.02675429
#
# Stress axis : x y z
#
# Youngs Moduli (GPa) = 66.74069 90.09958 38.11956
#
# Poissons Ratio (x) = 0.37991 0.10982
# Poissons Ratio (y) = 0.28141 0.21664
# Poissons Ratio (z) = 0.19228 0.51204
#
# Static dielectric constant tensor:
#      x y z
#    x 3.287260 -0.000040 -0.248020 
#    y -0.000040 3.402680 0.000080 
#    z -0.248020 0.000080 3.281870 
# 
# 
# High freq. dielectric constant tensor:
#      x y z
#    x 1.680200 0.000000 -0.028030 
#    y 0.000000 1.699880 0.000010 
#    z -0.028030 0.000010 1.692720 
# 
# From -- ./inp_files/255999.got.cif
#   From: 2010.06.25/outbox.cif.g09.slc.cpg/sg15_128_cif.got.tgz:255999.got - 2010.06.28 07:06:18.
