data_PCOD8136895
_publ_section_title
;
Structure prediction by ZEFSAII (Michael W. Deem and Ramdas Pophale) SiO2 
 PCOD8136895
Probable space group: C 2/C
;
_chemical_formula_sum "Si O2"
_cell_formula_units_Z 52
_cell_length_a 28.512684
_cell_length_b 16.628590
_cell_length_c 7.699702
_cell_angle_alpha 90.000000
_cell_angle_beta 130.820328
_cell_angle_gamma 90.000000
_cell_volume 2762.659984
_symmetry_space_group_name_H-M "C 2/C"
_symmetry_group_IT_number 15
_symmetry_cell_setting 'monoclinic'
loop_
_space_group_symop_operation_xyz
x,y,z
-x,y,1/2-z
-x,-y,-z
x,-y,1/2+z
1/2+x,1/2+y,z
1/2-x,1/2+y,1/2-z
1/2-x,1/2-y,-z
1/2+x,1/2-y,1/2+z
loop_
_atom_site_type_symbol
_atom_site_label
_atom_site_fract_x
_atom_site_fract_y
_atom_site_fract_z
Si Si1 0.720696 0.663758 0.906190
Si Si2 0.604277 0.014905 0.928880
Si Si3 0.270021 0.359934 0.691345
Si Si4 0.836335 0.772090 0.553674
Si Si5 0.000000 0.391500 0.750000
Si Si6 0.299523 0.016262 0.081360
Si Si7 0.958558 0.320594 0.303809
O O1 0.668020 0.673204 0.631584
O O2 0.750000 0.750000 0.000000
O O3 0.697665 0.631672 0.039323
O O4 0.770965 0.600967 0.952607
O O5 0.561419 0.945577 0.904026
O O6 0.625545 0.990826 0.785526
O O7 0.569918 0.099383 0.851071
O O8 0.679537 0.019222 0.164532
O O9 0.210195 0.303134 0.563877
O O10 0.321809 0.324615 0.688418
O O11 0.248899 0.444972 0.564303
O O12 0.906186 0.741552 0.735812
O O13 0.999514 0.338348 0.574166
O O14 0.000000 0.281980 0.250000
#
# Coordination Sequence:
#
# PCOD8136895 Si02
#       7
#     8   8   8   8   4   8   8
#     4  10  21  36  54  83 117 153 195 240 294 356
#     4  12  20  34  53  82 121 159 200 231 272 349
#     4  10  20  35  56  83 116 150 196 237 296 357
#     4  10  21  38  55  80 117 154 193 248 291 345
#     4  12  24  36  54  82 120 164 208 240 272 338
#     4  12  20  34  59  85 119 160 195 234 296 357
#     4  12  24  39  56  81 117 162 204 240 288 346
#
# _framework density 18.822438999999999
#
# number of rings (size 3 to 8) (size 9 to 14) (size 15 to 20)
#    0.000    0.923    5.385    3.231    0.000    3.692 
#    0.000    0.000    0.000    0.000    0.000    1.077 
#    0.000    0.000    0.000    0.000    0.000    0.000 
#
# Total GULP energy -322172.897805 kJ/mol
# GULP energy per Si atom -12391.265300 kJ/mol
# Density = 1.877960 g / cm^3
# Si number density = 18.822439 Si / 1000 Ang^3
#
#
#
# Elastic Constant Matrix: (Units=GPa)
#
#
# Indices 1 2 3 4 5 6 
#
# 1 101.6422 33.2506 25.5357 0.0000 2.0640 0.0000
# 2 33.2506 80.0744 37.7624 0.0000 7.1325 0.0000
# 3 25.5357 37.7624 96.7059 0.0000 -12.5585 0.0000
# 4 0.0000 0.0000 0.0000 24.0453 0.0000 4.8025
# 5 2.0640 7.1325 -12.5585 0.0000 25.4794 0.0000
# 6 0.0000 0.0000 0.0000 4.8025 0.0000 26.8043
#
#
#
# Elastic Compliance Matrix: (Units=1/GPa)
#
#
# Indices 1 2 3 4 5 6 
#
# 1 0.011554 -0.004010 -0.001561 0.000000 -0.000583 0.000000
# 2 -0.004010 0.018268 -0.007155 0.000000 -0.008315 0.000000
# 3 -0.001561 -0.007155 0.014768 0.000000 0.009408 0.000000
# 4 0.000000 0.000000 0.000000 0.043132 0.000000 -0.007728
# 5 -0.000583 -0.008315 0.009408 0.000000 0.046260 0.000000
# 6 0.000000 0.000000 0.000000 -0.007728 0.000000 0.038692
#
#
# Mechanical properties :
#
#
# Convention : Reuss Voigt Hill
#
# Bulk Modulus (GPa) = 52.24590 52.39108 52.31849
# Shear Modulus (GPa) = 24.44936 27.39072 25.92004
#
# Velocity S-wave (km/s) = 3.60800 3.81887 3.71493
# Velocity P-wave (km/s) = 6.72119 6.88039 6.80126
#
# Compressibility (1/GPa) = 0.01914026
#
# Stress axis : x y z
#
# Youngs Moduli (GPa) = 86.54899 54.74003 67.71251
#
# Poissons Ratio (x) = 0.21950 0.10569
# Poissons Ratio (y) = 0.34705 0.48445
# Poissons Ratio (z) = 0.13509 0.39164
#
# Static dielectric constant tensor:
#      x y z
#    x 3.659090 0.000000 -0.522260 
#    y 0.000000 3.257530 0.000000 
#    z -0.522260 0.000000 3.606620 
# 
# 
# High freq. dielectric constant tensor:
#      x y z
#    x 1.739630 0.000000 -0.042230 
#    y 0.000000 1.702560 0.000000 
#    z -0.042230 0.000000 1.728460 
# 
# From -- ./inp_files/48614.got.cif
#   From: 2010.06.25/outbox.cif.g09.slc.cpg/sg15_25_cif.got.tgz:48614.got - 2010.06.28 07:06:18.
