data_PCOD8136728
_publ_section_title
;
Structure prediction by ZEFSAII (Michael W. Deem and Ramdas Pophale) SiO2 
 PCOD8136728
Probable space group: C 2/C
;
_chemical_formula_sum "Si O2"
_cell_formula_units_Z 36
_cell_length_a 7.529154
_cell_length_b 17.575891
_cell_length_c 14.851416
_cell_angle_alpha 90.000000
_cell_angle_beta 88.665472
_cell_angle_gamma 90.000000
_cell_volume 1964.778414
_symmetry_space_group_name_H-M "C 2/C"
_symmetry_group_IT_number 15
_symmetry_cell_setting 'monoclinic'
loop_
_space_group_symop_operation_xyz
x,y,z
-x,y,1/2-z
-x,-y,-z
x,-y,1/2+z
1/2+x,1/2+y,z
1/2-x,1/2+y,1/2-z
1/2-x,1/2-y,-z
1/2+x,1/2-y,1/2+z
loop_
_atom_site_type_symbol
_atom_site_label
_atom_site_fract_x
_atom_site_fract_y
_atom_site_fract_z
Si Si1 0.500000 0.511002 0.250000
Si Si2 0.726678 0.160783 0.499134
Si Si3 0.437050 0.060250 0.573042
Si Si4 0.962210 0.068875 0.935467
Si Si5 0.353267 0.076211 0.186258
O O1 0.483368 0.455815 0.165058
O O2 0.668234 0.567361 0.241111
O O3 0.750000 0.250000 0.500000
O O4 0.577251 0.130214 0.572051
O O5 0.677889 0.128740 0.400891
O O6 0.919294 0.137456 0.531895
O O7 0.242779 0.094279 0.553846
O O8 0.500000 0.000000 0.500000
O O9 0.423749 0.009610 0.663605
O O10 0.000000 0.000000 0.000000
O O11 0.500000 0.114955 0.250000
#
# Coordination Sequence:
#
# PCOD8136728 Si02
#       5
#     4   8   8   8   8
#     4  10  20  34  64  90 108 144 210 248 274 342
#     4  11  23  38  57  85 125 155 186 240 299 350
#     4   9  18  34  59  85 106 147 191 237 280 338
#     4  11  19  37  62  87 113 152 196 242 288 339
#     4  10  20  34  61  87 109 151 199 244 281 343
#
# _framework density 18.322676000000001
#
# number of rings (size 3 to 8) (size 9 to 14) (size 15 to 20)
#    0.000    1.778    6.667    1.333    3.111    0.889 
#    2.000    0.000    7.333    0.000    0.000    0.000 
#    0.000    0.000    0.000    0.000    0.000    0.000 
#
# Total GULP energy -223045.006849 kJ/mol
# GULP energy per Si atom -12391.389269 kJ/mol
# Density = 1.828097 g / cm^3
# Si number density = 18.322676 Si / 1000 Ang^3
#
#
#
# Elastic Constant Matrix: (Units=GPa)
#
#
# Indices 1 2 3 4 5 6 
#
# 1 146.6015 57.7370 48.0033 0.0000 1.0321 0.0000
# 2 57.7370 120.6314 34.9288 0.0000 2.4323 0.0000
# 3 48.0033 34.9288 105.4572 0.0000 9.6563 0.0000
# 4 0.0000 0.0000 0.0000 12.7445 0.0000 5.5128
# 5 1.0321 2.4323 9.6563 0.0000 35.9889 0.0000
# 6 0.0000 0.0000 0.0000 5.5128 0.0000 24.8287
#
#
#
# Elastic Compliance Matrix: (Units=1/GPa)
#
#
# Indices 1 2 3 4 5 6 
#
# 1 0.009222 -0.003532 -0.003102 0.000000 0.000807 0.000000
# 2 -0.003532 0.010523 -0.001868 0.000000 -0.000109 0.000000
# 3 -0.003102 -0.001868 0.011783 0.000000 -0.002946 0.000000
# 4 0.000000 0.000000 0.000000 0.086802 0.000000 -0.019273
# 5 0.000807 -0.000109 -0.002946 0.000000 0.028561 0.000000
# 6 0.000000 0.000000 0.000000 -0.019273 0.000000 0.044555
#
#
# Mechanical properties :
#
#
# Convention : Reuss Voigt Hill
#
# Bulk Modulus (GPa) = 68.84667 72.66983 70.75825
# Shear Modulus (GPa) = 23.44209 30.18049 26.81129
#
# Velocity S-wave (km/s) = 3.58075 4.06293 3.82944
# Velocity P-wave (km/s) = 7.39945 7.85857 7.63246
#
# Compressibility (1/GPa) = 0.01452503
#
# Stress axis : x y z
#
# Youngs Moduli (GPa) = 108.43287 95.02763 84.86906
#
# Poissons Ratio (x) = 0.33565 0.26325
# Poissons Ratio (y) = 0.38300 0.15851
# Poissons Ratio (z) = 0.33635 0.17748
#
# Static dielectric constant tensor:
#      x y z
#    x 3.456520 0.000000 -0.241360 
#    y 0.000000 3.082510 0.000000 
#    z -0.241360 0.000000 3.448080 
# 
# 
# High freq. dielectric constant tensor:
#      x y z
#    x 1.736540 0.000000 -0.000430 
#    y 0.000000 1.665310 0.000000 
#    z -0.000430 0.000000 1.711920 
# 
# From -- ./inp_files/132837.got.cif
#   From: 2010.06.25/outbox.cif.g09.slc.cpg/sg15_67_cif.got.tgz:132837.got - 2010.06.28 07:06:18.
