data_PCOD8136219
_publ_section_title
;
Structure prediction by ZEFSAII (Michael W. Deem and Ramdas Pophale) SiO2 
 PCOD8136219
Probable space group: C 2/C
;
_chemical_formula_sum "Si O2"
_cell_formula_units_Z 60
_cell_length_a 5.038870
_cell_length_b 18.359243
_cell_length_c 30.588529
_cell_angle_alpha 90.000000
_cell_angle_beta 104.840488
_cell_angle_gamma 90.000000
_cell_volume 2735.347225
_symmetry_space_group_name_H-M "C 2/C"
_symmetry_group_IT_number 15
_symmetry_cell_setting 'monoclinic'
loop_
_space_group_symop_operation_xyz
x,y,z
-x,y,1/2-z
-x,-y,-z
x,-y,1/2+z
1/2+x,1/2+y,z
1/2-x,1/2+y,1/2-z
1/2-x,1/2-y,-z
1/2+x,1/2-y,1/2+z
loop_
_atom_site_type_symbol
_atom_site_label
_atom_site_fract_x
_atom_site_fract_y
_atom_site_fract_z
Si Si1 0.225716 0.144956 0.322555
Si Si2 0.948186 0.136860 0.049470
Si Si3 0.291826 0.954106 0.201257
Si Si4 0.340044 0.167349 0.996196
Si Si5 0.309176 0.304309 0.345784
Si Si6 0.768623 0.077972 0.362369
Si Si7 0.000000 0.952659 0.750000
Si Si8 0.903326 0.707947 0.905280
O O1 0.206808 0.231954 0.316933
O O2 0.496019 0.125043 0.362050
O O3 0.942057 0.120229 0.332951
O O4 0.242886 0.103351 0.276049
O O5 0.093727 0.121677 0.008531
O O6 0.041022 0.071624 0.085986
O O7 0.065117 0.209878 0.076821
O O8 0.622803 0.144911 0.031701
O O9 0.500000 0.967340 0.250000
O O10 0.262420 0.869731 0.189854
O O11 0.342707 0.998722 0.158309
O O12 0.023925 0.993193 0.209507
O O13 0.250000 0.250000 0.000000
O O14 0.378440 0.153674 0.946095
O O15 0.634847 0.302079 0.364881
O O16 0.164933 0.313986 0.386956
#
# Coordination Sequence:
#
# PCOD8136219 Si02
#       8
#     8   8   8   8   8   8   4   8
#     4  11  21  40  62  92 116 167 200 276 301 359
#     4  11  18  35  61  94 123 163 212 252 311 371
#     4  11  26  45  64  90 127 171 208 258 318 388
#     4  10  20  32  60  92 132 161 199 263 315 361
#     4  12  24  38  64  92 130 164 208 254 319 370
#     4  11  22  40  66  88 129 160 212 258 308 366
#     4  10  24  44  66  84 126 156 226 254 320 368
#     4  11  21  38  57  94 132 161 203 259 315 366
#
# _framework density 21.935057
#
# number of rings (size 3 to 8) (size 9 to 14) (size 15 to 20)
#    0.000    1.067    4.000    4.800    2.800    0.000 
#    0.000    0.000    0.000    4.800    0.000    0.000 
#    0.000    0.000    0.000    0.000    0.000    0.000 
#
# Total GULP energy -371676.406572 kJ/mol
# GULP energy per Si atom -12389.213552 kJ/mol
# Density = 2.188513 g / cm^3
# Si number density = 21.935057 Si / 1000 Ang^3
#
#
#
# Elastic Constant Matrix: (Units=GPa)
#
#
# Indices 1 2 3 4 5 6 
#
# 1 93.3678 18.1390 8.5959 0.0000 6.6439 0.0000
# 2 18.1390 108.6160 29.1454 0.0000 -5.1915 0.0000
# 3 8.5959 29.1454 63.3615 0.0000 -7.0319 0.0000
# 4 0.0000 0.0000 0.0000 26.7578 0.0000 2.2193
# 5 6.6439 -5.1915 -7.0319 0.0000 37.0589 0.0000
# 6 0.0000 0.0000 0.0000 2.2193 0.0000 12.4822
#
#
#
# Elastic Compliance Matrix: (Units=1/GPa)
#
#
# Indices 1 2 3 4 5 6 
#
# 1 0.011316 -0.001737 -0.001010 0.000000 -0.002464 0.000000
# 2 -0.001737 0.010781 -0.004619 0.000000 0.000945 0.000000
# 3 -0.001010 -0.004619 0.018379 0.000000 0.003021 0.000000
# 4 0.000000 0.000000 0.000000 0.037932 0.000000 -0.006744
# 5 -0.002464 0.000945 0.003021 0.000000 0.028131 0.000000
# 6 0.000000 0.000000 0.000000 -0.006744 0.000000 0.081313
#
#
# Mechanical properties :
#
#
# Convention : Reuss Voigt Hill
#
# Bulk Modulus (GPa) = 38.84038 41.90064 40.37051
# Shear Modulus (GPa) = 23.67815 29.22412 26.45114
#
# Velocity S-wave (km/s) = 3.28909 3.65403 3.47635
# Velocity P-wave (km/s) = 5.67182 6.07834 5.87859
#
# Compressibility (1/GPa) = 0.02574640
#
# Stress axis : x y z
#
# Youngs Moduli (GPa) = 88.37067 92.75315 54.40890
#
# Poissons Ratio (x) = 0.16107 0.05494
# Poissons Ratio (y) = 0.15346 0.25130
# Poissons Ratio (z) = 0.08924 0.42840
#
# Static dielectric constant tensor:
#      x y z
#    x 4.101010 0.000000 -0.258540 
#    y 0.000000 3.623920 0.000000 
#    z -0.258540 0.000000 4.427670 
# 
# 
# High freq. dielectric constant tensor:
#      x y z
#    x 1.870950 0.000000 0.001870 
#    y 0.000000 1.824210 0.000000 
#    z 0.001870 0.000000 1.862990 
# 
# From -- ./inp_files/305821.got.cif
#   From: 2010.06.25/outbox.cif.g09.slc.cpg/sg15_153_cif.got.tgz:305821.got - 2010.06.28 07:06:18.
