data_PCOD8136771
_publ_section_title
;
Structure prediction by ZEFSAII (Michael W. Deem and Ramdas Pophale) SiO2 
 PCOD8136771
Probable space group: C 2/C
;
_chemical_formula_sum "Si O2"
_cell_formula_units_Z 60
_cell_length_a 28.731879
_cell_length_b 9.712751
_cell_length_c 22.514397
_cell_angle_alpha 90.000000
_cell_angle_beta 29.659535
_cell_angle_gamma 90.000000
_cell_volume 3109.108349
_symmetry_space_group_name_H-M "C 2/C"
_symmetry_group_IT_number 15
_symmetry_cell_setting 'monoclinic'
loop_
_space_group_symop_operation_xyz
x,y,z
-x,y,1/2-z
-x,-y,-z
x,-y,1/2+z
1/2+x,1/2+y,z
1/2-x,1/2+y,1/2-z
1/2-x,1/2-y,-z
1/2+x,1/2-y,1/2+z
loop_
_atom_site_type_symbol
_atom_site_label
_atom_site_fract_x
_atom_site_fract_y
_atom_site_fract_z
Si Si1 0.718703 0.769998 0.220967
Si Si2 0.087791 0.729946 0.036116
Si Si3 0.334376 0.737155 0.706265
Si Si4 0.751110 0.983369 0.372670
Si Si5 0.000000 0.342040 0.750000
Si Si6 0.710347 0.094529 0.042083
Si Si7 0.740174 0.454358 0.882776
Si Si8 0.521356 0.160642 0.981698
O O1 0.745921 0.760436 0.259809
O O2 0.750834 0.637601 0.148898
O O3 0.606496 0.794484 0.344585
O O4 0.772517 0.897689 0.132557
O O5 0.017664 0.744063 0.170194
O O6 0.153825 0.595741 0.968015
O O7 0.145769 0.870773 0.973917
O O8 0.031262 0.711032 0.038485
O O9 0.333766 0.597946 0.746098
O O10 0.326638 0.869732 0.758140
O O11 0.429593 0.753452 0.562390
O O12 0.766428 0.982571 0.426701
O O13 0.097748 0.423464 0.655379
O O14 0.738705 0.021006 0.071430
O O15 0.750000 0.250000 0.000000
O O16 0.500000 0.000000 0.000000
#
# Coordination Sequence:
#
# PCOD8136771 Si02
#       8
#     8   8   8   8   4   8   8   8
#     4  12  24  41  59  91 132 159 199 258 313 365
#     4  10  21  38  64  93 115 160 211 249 303 364
#     4  11  21  39  63  88 120 159 206 249 300 373
#     4  10  22  39  61  88 124 160 201 258 301 364
#     4  10  20  34  64  90 114 144 206 266 276 354
#     4  11  20  40  63  92 114 159 211 248 302 364
#     4  11  21  40  65  87 120 162 197 257 309 362
#     4  12  23  36  65  93 122 165 210 246 309 367
#
# _framework density 19.298138000000002
#
# number of rings (size 3 to 8) (size 9 to 14) (size 15 to 20)
#    0.000    1.067    8.000    2.400    0.000    1.067 
#    0.000    0.000    0.000    3.200    0.000    0.000 
#    0.000    0.000    0.000    0.000    0.000    0.000 
#
# Total GULP energy -371833.728887 kJ/mol
# GULP energy per Si atom -12394.457630 kJ/mol
# Density = 1.925421 g / cm^3
# Si number density = 19.298138 Si / 1000 Ang^3
#
#
#
# Elastic Constant Matrix: (Units=GPa)
#
#
# Indices 1 2 3 4 5 6 
#
# 1 88.1621 36.1739 25.3029 -0.0015 18.0552 0.0000
# 2 36.1739 130.0383 48.9685 -0.0054 14.1738 0.0021
# 3 25.3029 48.9685 107.7405 -0.0026 4.4564 0.0009
# 4 -0.0015 -0.0054 -0.0026 16.5530 0.0018 -0.7851
# 5 18.0552 14.1738 4.4564 0.0018 36.5858 -0.0006
# 6 0.0000 0.0021 0.0009 -0.7851 -0.0006 12.0133
#
#
#
# Elastic Compliance Matrix: (Units=1/GPa)
#
#
# Indices 1 2 3 4 5 6 
#
# 1 0.014126 -0.002587 -0.001904 0.000001 -0.005737 0.000000
# 2 -0.002587 0.010114 -0.003900 0.000003 -0.002167 -0.000001
# 3 -0.001904 -0.003900 0.011458 0.000000 0.001055 0.000000
# 4 0.000001 0.000003 0.000000 0.060600 -0.000004 0.003960
# 5 -0.005737 -0.002167 0.001055 -0.000004 0.030875 0.000002
# 6 0.000000 -0.000001 0.000000 0.003960 0.000002 0.083500
#
#
# Mechanical properties :
#
#
# Convention : Reuss Voigt Hill
#
# Bulk Modulus (GPa) = 52.86721 60.75903 56.81312
# Shear Modulus (GPa) = 21.38941 27.39678 24.39310
#
# Velocity S-wave (km/s) = 3.33283 3.77192 3.55915
# Velocity P-wave (km/s) = 6.50113 7.10793 6.81129
#
# Compressibility (1/GPa) = 0.01891532
#
# Stress axis : x y z
#
# Youngs Moduli (GPa) = 70.79317 98.86849 87.27787
#
# Poissons Ratio (x) = 0.25578 0.16620
# Poissons Ratio (y) = 0.18315 0.34037
# Poissons Ratio (z) = 0.13481 0.38557
#
# Static dielectric constant tensor:
#      x y z
#    x 3.701840 0.000000 0.160410 
#    y 0.000000 3.255580 0.000000 
#    z 0.160410 0.000000 3.725430 
# 
# 
# High freq. dielectric constant tensor:
#      x y z
#    x 1.754180 0.000000 0.009950 
#    y 0.000000 1.720860 0.000000 
#    z 0.009950 0.000000 1.760820 
# 
# From -- ./inp_files/284289.got.cif
#   From: 2010.06.25/outbox.cif.g09.slc.cpg/sg15_143_cif.got.tgz:284289.got - 2010.06.28 07:06:18.
