data_PCOD8136443
_publ_section_title
;
Structure prediction by ZEFSAII (Michael W. Deem and Ramdas Pophale) SiO2 
 PCOD8136443
Probable space group: C 2/C
;
_chemical_formula_sum "Si O2"
_cell_formula_units_Z 52
_cell_length_a 19.445375
_cell_length_b 6.532475
_cell_length_c 26.685818
_cell_angle_alpha 90.000000
_cell_angle_beta 120.536040
_cell_angle_gamma 90.000000
_cell_volume 2919.671276
_symmetry_space_group_name_H-M "C 2/C"
_symmetry_group_IT_number 15
_symmetry_cell_setting 'monoclinic'
loop_
_space_group_symop_operation_xyz
x,y,z
-x,y,1/2-z
-x,-y,-z
x,-y,1/2+z
1/2+x,1/2+y,z
1/2-x,1/2+y,1/2-z
1/2-x,1/2-y,-z
1/2+x,1/2-y,1/2+z
loop_
_atom_site_type_symbol
_atom_site_label
_atom_site_fract_x
_atom_site_fract_y
_atom_site_fract_z
Si Si1 0.156863 0.447409 0.484168
Si Si2 0.526301 0.393349 0.693075
Si Si3 0.994554 0.837142 0.570471
Si Si4 0.896832 0.837089 0.977962
Si Si5 0.750793 0.118963 0.923159
Si Si6 0.892748 0.349238 0.196758
Si Si7 0.500000 0.228201 0.250000
O O1 0.074894 0.325732 0.446499
O O2 0.140634 0.661541 0.503096
O O3 0.219520 0.333107 0.543238
O O4 0.196155 0.491888 0.444745
O O5 0.539950 0.388780 0.638832
O O6 0.598433 0.269029 0.746784
O O7 0.444094 0.276786 0.675239
O O8 0.520248 0.628087 0.709762
O O9 0.059377 0.748480 0.555200
O O10 0.960326 0.048495 0.536494
O O11 0.826076 0.985681 0.934346
O O12 0.699148 0.155700 0.853998
O O13 0.923557 0.583646 0.211118
#
# Coordination Sequence:
#
# PCOD8136443 Si02
#       7
#     8   8   8   8   8   8   4
#     4  10  20  35  54  77 106 143 167 217 275 311
#     4   9  18  32  53  75 103 134 174 217 255 306
#     4  10  20  36  53  79 108 139 179 216 260 327
#     4  10  22  33  53  80 109 138 177 217 264 324
#     4  10  20  34  52  79 108 133 176 220 267 318
#     4   9  18  33  51  78 103 129 175 224 251 311
#     4   8  18  30  52  84  96 134 176 214 270 290
#
# _framework density 17.810224000000002
#
# number of rings (size 3 to 8) (size 9 to 14) (size 15 to 20)
#    0.000    2.769    1.538    0.923    2.154    2.462 
#    0.000    0.000    6.769    0.000    0.000    0.000 
#    0.000    0.000    0.000    0.000    0.000    0.000 
#
# Total GULP energy -322373.490908 kJ/mol
# GULP energy per Si atom -12398.980420 kJ/mol
# Density = 1.776969 g / cm^3
# Si number density = 17.810224 Si / 1000 Ang^3
#
#
#
# Elastic Constant Matrix: (Units=GPa)
#
#
# Indices 1 2 3 4 5 6 
#
# 1 70.5227 7.2782 34.7637 0.0000 -1.6156 -0.0003
# 2 7.2782 76.1145 25.9106 0.0001 1.1838 -0.0008
# 3 34.7637 25.9106 136.6274 0.0000 5.2028 -0.0001
# 4 0.0000 0.0001 0.0000 9.3429 0.0000 -5.3407
# 5 -1.6156 1.1838 5.2028 0.0000 22.3463 0.0000
# 6 -0.0003 -0.0008 -0.0001 -5.3407 0.0000 12.9922
#
#
#
# Elastic Compliance Matrix: (Units=1/GPa)
#
#
# Indices 1 2 3 4 5 6 
#
# 1 0.016319 -0.000163 -0.004204 0.000000 0.002167 0.000000
# 2 -0.000163 0.014047 -0.002617 0.000001 -0.000147 0.000001
# 3 -0.004204 -0.002617 0.008971 0.000000 -0.002254 0.000000
# 4 0.000000 0.000001 0.000000 0.139910 0.000000 0.057513
# 5 0.002167 -0.000147 -0.002254 0.000000 0.045439 0.000000
# 6 0.000000 0.000001 0.000000 0.057513 0.000000 0.100611
#
#
# Mechanical properties :
#
#
# Convention : Reuss Voigt Hill
#
# Bulk Modulus (GPa) = 39.41831 46.57440 42.99635
# Shear Modulus (GPa) = 14.37937 23.29041 18.83489
#
# Velocity S-wave (km/s) = 2.84450 3.62014 3.25550
# Velocity P-wave (km/s) = 5.74184 6.60916 6.19071
#
# Compressibility (1/GPa) = 0.02536892
#
# Stress axis : x y z
#
# Youngs Moduli (GPa) = 61.28014 71.19068 111.47198
#
# Poissons Ratio (x) = 0.01161 0.46859
# Poissons Ratio (y) = 0.01000 0.29170
# Poissons Ratio (z) = 0.25760 0.18629
#
# Static dielectric constant tensor:
#      x y z
#    x 3.207130 0.000000 0.029820 
#    y 0.000000 3.248690 0.000000 
#    z 0.029820 0.000000 3.279220 
# 
# 
# High freq. dielectric constant tensor:
#      x y z
#    x 1.666430 0.000000 0.001500 
#    y 0.000000 1.689320 0.000000 
#    z 0.001500 0.000000 1.689650 
# 
# From -- ./inp_files/314927.got.cif
#   From: 2010.06.25/outbox.cif.g09.slc.cpg/sg15_158_cif.got.tgz:314927.got - 2010.06.28 07:06:18.
