data_PCOD8136719
_publ_section_title
;
Structure prediction by ZEFSAII (Michael W. Deem and Ramdas Pophale) SiO2 
 PCOD8136719
Probable space group: C 2/C
;
_chemical_formula_sum "Si O2"
_cell_formula_units_Z 48
_cell_length_a 9.328175
_cell_length_b 25.360892
_cell_length_c 14.574051
_cell_angle_alpha 90.000000
_cell_angle_beta 40.073072
_cell_angle_gamma 90.000000
_cell_volume 2219.566806
_symmetry_space_group_name_H-M "C 2/C"
_symmetry_group_IT_number 15
_symmetry_cell_setting 'monoclinic'
loop_
_space_group_symop_operation_xyz
x,y,z
-x,y,1/2-z
-x,-y,-z
x,-y,1/2+z
1/2+x,1/2+y,z
1/2-x,1/2+y,1/2-z
1/2-x,1/2-y,-z
1/2+x,1/2-y,1/2+z
loop_
_atom_site_type_symbol
_atom_site_label
_atom_site_fract_x
_atom_site_fract_y
_atom_site_fract_z
Si Si1 0.412637 0.456904 0.938437
Si Si2 0.940188 0.172770 0.882495
Si Si3 0.640234 0.890956 0.775046
Si Si4 0.508761 0.060443 0.518486
Si Si5 0.968651 0.281988 0.660984
Si Si6 0.390247 0.565302 0.650111
O O1 0.649016 0.428337 0.826540
O O2 0.250216 0.428514 0.946227
O O3 0.450895 0.518167 0.889861
O O4 0.302631 0.453664 0.093416
O O5 0.000000 0.156204 0.750000
O O6 0.083486 0.223416 0.854746
O O7 0.976863 0.120638 0.926446
O O8 0.685809 0.191247 0.010907
O O9 0.500000 0.897539 0.750000
O O10 0.482585 0.906543 0.938094
O O11 0.714710 0.829106 0.753186
O O12 0.315687 0.076827 0.682649
O O13 0.500000 0.000000 0.500000
O O14 0.000000 0.265058 0.750000
#
# Coordination Sequence:
#
# PCOD8136719 Si02
#       6
#     8   8   8   8   8   8
#     4  11  26  41  60  91 127 168 206 254 316 383
#     4  10  20  34  60  95 123 159 207 269 312 359
#     4  11  23  41  65  92 126 167 206 256 318 375
#     4  12  26  40  61  89 127 165 209 257 308 382
#     4   9  19  36  59  90 126 158 209 260 313 364
#     4  11  24  38  65  86 128 160 211 255 321 365
#
# _framework density 21.625841999999999
#
# number of rings (size 3 to 8) (size 9 to 14) (size 15 to 20)
#    0.000    1.333    1.667    4.000    9.333    0.000 
#    0.000    0.000    0.000    6.000    0.000    0.000 
#    0.000    0.000    0.000    0.000    0.000    0.000 
#
# Total GULP energy -297363.123863 kJ/mol
# GULP energy per Si atom -12390.130161 kJ/mol
# Density = 2.157662 g / cm^3
# Si number density = 21.625842 Si / 1000 Ang^3
#
#
#
# Elastic Constant Matrix: (Units=GPa)
#
#
# Indices 1 2 3 4 5 6 
#
# 1 78.0062 30.6268 32.1707 0.0000 9.3664 0.0000
# 2 30.6268 193.0621 18.9675 0.0000 -4.7570 0.0000
# 3 32.1707 18.9675 104.2751 0.0000 13.5738 0.0000
# 4 0.0000 0.0000 0.0000 48.6854 0.0000 22.0251
# 5 9.3664 -4.7570 13.5738 0.0000 25.8957 0.0000
# 6 0.0000 0.0000 0.0000 22.0251 0.0000 43.6337
#
#
#
# Elastic Compliance Matrix: (Units=1/GPa)
#
#
# Indices 1 2 3 4 5 6 
#
# 1 0.015805 -0.002220 -0.003944 0.000000 -0.004057 0.000000
# 2 -0.002220 0.005647 -0.000624 0.000000 0.002167 0.000000
# 3 -0.003944 -0.000624 0.011537 0.000000 -0.004735 0.000000
# 4 0.000000 0.000000 0.000000 0.026619 0.000000 -0.013436
# 5 -0.004057 0.002167 -0.004735 0.000000 0.042964 0.000000
# 6 0.000000 0.000000 0.000000 -0.013436 0.000000 0.029700
#
#
# Mechanical properties :
#
#
# Convention : Reuss Voigt Hill
#
# Bulk Modulus (GPa) = 51.51564 59.87481 55.69523
# Shear Modulus (GPa) = 32.82600 43.21486 38.02043
#
# Velocity S-wave (km/s) = 3.90026 4.47508 4.19752
# Velocity P-wave (km/s) = 6.64498 7.37893 7.02155
#
# Compressibility (1/GPa) = 0.01941158
#
# Stress axis : x y z
#
# Youngs Moduli (GPa) = 63.27218 177.09915 86.67859
#
# Poissons Ratio (x) = 0.39310 0.34188
# Poissons Ratio (y) = 0.14044 0.05412
# Poissons Ratio (z) = 0.24956 0.11059
#
# Static dielectric constant tensor:
#      x y z
#    x 3.805860 0.000000 0.408930 
#    y 0.000000 4.591720 0.000000 
#    z 0.408930 0.000000 4.308580 
# 
# 
# High freq. dielectric constant tensor:
#      x y z
#    x 1.795340 0.000000 0.026480 
#    y 0.000000 1.872200 0.000000 
#    z 0.026480 0.000000 1.871540 
# 
# From -- ./inp_files/138914.got.cif
#   From: 2010.06.25/outbox.cif.g09.slc.cpg/sg15_70_cif.got.tgz:138914.got - 2010.06.28 07:06:18.
