data_PCOD8136608
_publ_section_title
;
Structure prediction by ZEFSAII (Michael W. Deem and Ramdas Pophale) SiO2 
 PCOD8136608
Probable space group: C 2/C
;
_chemical_formula_sum "Si O2"
_cell_formula_units_Z 40
_cell_length_a 21.632502
_cell_length_b 4.869706
_cell_length_c 19.924597
_cell_angle_alpha 90.000000
_cell_angle_beta 107.700671
_cell_angle_gamma 90.000000
_cell_volume 1999.567289
_symmetry_space_group_name_H-M "C 2/C"
_symmetry_group_IT_number 15
_symmetry_cell_setting 'monoclinic'
loop_
_space_group_symop_operation_xyz
x,y,z
-x,y,1/2-z
-x,-y,-z
x,-y,1/2+z
1/2+x,1/2+y,z
1/2-x,1/2+y,1/2-z
1/2-x,1/2-y,-z
1/2+x,1/2-y,1/2+z
loop_
_atom_site_type_symbol
_atom_site_label
_atom_site_fract_x
_atom_site_fract_y
_atom_site_fract_z
Si Si1 0.551867 0.148555 0.819598
Si Si2 0.375068 0.628417 0.702401
Si Si3 0.613757 0.428306 0.139176
Si Si4 0.967345 0.420070 0.420275
Si Si5 0.753593 0.857095 0.797278
O O1 0.500000 0.274906 0.750000
O O2 0.610313 0.372972 0.843058
O O3 0.522923 0.080375 0.882512
O O4 0.574828 0.865073 0.796636
O O5 0.386620 0.520539 0.781442
O O6 0.301549 0.742303 0.670282
O O7 0.561608 0.615885 0.083988
O O8 0.686832 0.512145 0.140248
O O9 0.593778 0.117268 0.116268
O O10 0.000000 0.500000 0.500000
O O11 0.777289 0.600344 0.758885
#
# Coordination Sequence:
#
# PCOD8136608 Si02
#       5
#     8   8   8   8   8
#     4  12  21  36  59  85 120 150 189 248 296 340
#     4  11  20  35  60  90 115 145 192 247 301 342
#     4  11  20  38  59  83 120 151 193 246 288 349
#     4  12  25  38  57  84 119 162 196 233 293 357
#     4  10  20  34  57  91 120 149 190 248 307 346
#
# _framework density 20.004327
#
# number of rings (size 3 to 8) (size 9 to 14) (size 15 to 20)
#    0.000    0.800    4.000    7.200    0.000    0.000 
#    0.000    0.000    0.000    7.200    0.000    0.000 
#    0.000    0.000    0.000    0.000    0.000    0.000 
#
# Total GULP energy -247957.033126 kJ/mol
# GULP energy per Si atom -12397.851656 kJ/mol
# Density = 1.995880 g / cm^3
# Si number density = 20.004327 Si / 1000 Ang^3
#
#
#
# Elastic Constant Matrix: (Units=GPa)
#
#
# Indices 1 2 3 4 5 6 
#
# 1 111.4545 30.3602 54.1133 0.0001 -4.0513 -0.0003
# 2 30.3602 100.6518 11.9910 -0.0012 -4.5035 0.0003
# 3 54.1133 11.9910 59.5803 -0.0012 -0.6739 0.0006
# 4 0.0001 -0.0012 -0.0012 18.5904 0.0003 7.7464
# 5 -4.0513 -4.5035 -0.6739 0.0003 16.6320 -0.0001
# 6 -0.0003 0.0003 0.0006 7.7464 -0.0001 53.3607
#
#
#
# Elastic Compliance Matrix: (Units=1/GPa)
#
#
# Indices 1 2 3 4 5 6 
#
# 1 0.017228 -0.003294 -0.014954 -0.000002 0.002699 0.000001
# 2 -0.003294 0.010930 0.000817 0.000001 0.002190 0.000000
# 3 -0.014954 0.000817 0.030176 0.000002 -0.002199 -0.000001
# 4 -0.000002 0.000001 0.000002 0.057254 -0.000001 -0.008312
# 5 0.002699 0.002190 -0.002199 -0.000001 0.061286 0.000000
# 6 0.000001 0.000000 -0.000001 -0.008312 0.000000 0.019947
#
#
# Mechanical properties :
#
#
# Convention : Reuss Voigt Hill
#
# Bulk Modulus (GPa) = 42.60360 51.62397 47.11379
# Shear Modulus (GPa) = 20.87617 29.39810 25.13713
#
# Velocity S-wave (km/s) = 3.23396 3.83768 3.54868
# Velocity P-wave (km/s) = 5.94038 6.74533 6.35561
#
# Compressibility (1/GPa) = 0.02347220
#
# Stress axis : x y z
#
# Youngs Moduli (GPa) = 58.04484 91.49479 33.13857
#
# Poissons Ratio (x) = 0.30142 0.49554
# Poissons Ratio (y) = 0.19122 -0.02708
# Poissons Ratio (z) = 0.86799 -0.07477
#
# Static dielectric constant tensor:
#      x y z
#    x 4.047420 0.000000 0.002140 
#    y 0.000000 3.950750 0.000000 
#    z 0.002140 0.000000 3.098270 
# 
# 
# High freq. dielectric constant tensor:
#      x y z
#    x 1.793060 0.000000 0.005490 
#    y 0.000000 1.812010 0.000000 
#    z 0.005490 0.000000 1.710090 
# 
# From -- ./inp_files/212722.got.cif
#   From: 2010.06.25/outbox.cif.g09.slc.cpg/sg15_107_cif.got.tgz:212722.got - 2010.06.28 07:06:18.
