data_PCOD8136012
_publ_section_title
;
Structure prediction by ZEFSAII (Michael W. Deem and Ramdas Pophale) SiO2 
 PCOD8136012
Probable space group: C 2/C
;
_chemical_formula_sum "Si O2"
_cell_formula_units_Z 56
_cell_length_a 24.857885
_cell_length_b 12.367006
_cell_length_c 15.098882
_cell_angle_alpha 90.000000
_cell_angle_beta 29.537042
_cell_angle_gamma 90.000000
_cell_volume 2288.275191
_symmetry_space_group_name_H-M "C 2/C"
_symmetry_group_IT_number 15
_symmetry_cell_setting 'monoclinic'
loop_
_space_group_symop_operation_xyz
x,y,z
-x,y,1/2-z
-x,-y,-z
x,-y,1/2+z
1/2+x,1/2+y,z
1/2-x,1/2+y,1/2-z
1/2-x,1/2-y,-z
1/2+x,1/2-y,1/2+z
loop_
_atom_site_type_symbol
_atom_site_label
_atom_site_fract_x
_atom_site_fract_y
_atom_site_fract_z
Si Si1 0.680345 0.359733 0.283473
Si Si2 0.323496 0.879933 0.376604
Si Si3 0.802045 0.849046 0.625678
Si Si4 0.019703 0.449147 0.877295
Si Si5 0.329590 0.048370 0.049965
Si Si6 0.959170 0.762735 0.543339
Si Si7 0.126611 0.065184 0.051721
O O1 0.764829 0.263700 0.135152
O O2 0.730110 0.466727 0.167227
O O3 0.555562 0.341247 0.435697
O O4 0.678262 0.377868 0.391971
O O5 0.335747 0.858058 0.464814
O O6 0.398141 0.797209 0.213076
O O7 0.196486 0.879802 0.530967
O O8 0.360869 0.006201 0.318209
O O9 0.689981 0.896058 0.826687
O O10 0.878234 0.836041 0.602856
O O11 0.856224 0.934269 0.479543
O O12 0.000000 0.500000 0.000000
O O13 0.941102 0.484543 0.909040
O O14 0.012822 0.320846 0.896809
O O15 0.000000 0.091098 0.250000
#
# Coordination Sequence:
#
# PCOD8136012 Si02
#       7
#     8   8   8   8   8   8   8
#     4  11  23  44  66  97 130 180 219 271 335 400
#     4  11  23  43  65  99 131 171 225 280 331 390
#     4  11  22  44  66  91 132 175 224 265 335 405
#     4  10  19  42  66  93 126 174 218 265 323 392
#     4  11  24  39  69  99 133 169 222 278 335 388
#     4  11  22  39  71  92 129 176 225 268 330 402
#     4  11  26  44  65  96 139 176 219 279 337 394
#
# _framework density 24.472581000000002
#
# number of rings (size 3 to 8) (size 9 to 14) (size 15 to 20)
#    0.000    1.143    2.857    5.571    4.000    2.857 
#    2.571    1.429    0.000    0.000    0.000    0.000 
#    0.000    0.000    0.000    0.000    0.000    0.000 
#
# Total GULP energy -346933.316501 kJ/mol
# GULP energy per Si atom -12390.475589 kJ/mol
# Density = 2.441688 g / cm^3
# Si number density = 24.472581 Si / 1000 Ang^3
#
#
#
# Elastic Constant Matrix: (Units=GPa)
#
#
# Indices 1 2 3 4 5 6 
#
# 1 87.5886 -12.0016 18.2178 0.0000 -20.1972 0.0000
# 2 -12.0016 41.6798 -4.5539 0.0000 -12.8137 0.0000
# 3 18.2178 -4.5539 76.7901 0.0000 -21.9550 0.0000
# 4 0.0000 0.0000 0.0000 32.1867 0.0000 -10.7976
# 5 -20.1972 -12.8137 -21.9550 0.0000 36.3954 0.0000
# 6 0.0000 0.0000 0.0000 -10.7976 0.0000 26.3859
#
#
#
# Elastic Compliance Matrix: (Units=1/GPa)
#
#
# Indices 1 2 3 4 5 6 
#
# 1 0.015026 0.007750 0.000071 0.000000 0.011110 0.000000
# 2 0.007750 0.032738 0.005592 0.000000 0.019200 0.000000
# 3 0.000071 0.005592 0.016811 0.000000 0.012149 0.000000
# 4 0.000000 0.000000 0.000000 0.036012 0.000000 0.014737
# 5 0.011110 0.019200 0.012149 0.000000 0.047730 0.000000
# 6 0.000000 0.000000 0.000000 0.014737 0.000000 0.043930
#
#
# Mechanical properties :
#
#
# Convention : Reuss Voigt Hill
#
# Bulk Modulus (GPa) = 10.94068 23.26479 17.10274
# Shear Modulus (GPa) = 25.52493 32.62001 29.07247
#
# Velocity S-wave (km/s) = 3.23306 3.65488 3.45042
# Velocity P-wave (km/s) = 4.29152 5.22857 4.78305
#
# Compressibility (1/GPa) = 0.09140201
#
# Stress axis : x y z
#
# Youngs Moduli (GPa) = 66.55142 30.54574 59.48531
#
# Poissons Ratio (x) = -0.23673 -0.00424
# Poissons Ratio (y) = -0.51578 -0.33266
# Poissons Ratio (z) = -0.00474 -0.17082
#
# Static dielectric constant tensor:
#      x y z
#    x 4.602650 0.000000 0.631560 
#    y 0.000000 2.914940 0.000000 
#    z 0.631560 0.000000 5.914810 
# 
# 
# High freq. dielectric constant tensor:
#      x y z
#    x 1.970340 0.000000 -0.014650 
#    y 0.000000 1.970980 0.000000 
#    z -0.014650 0.000000 1.963430 
# 
# From -- ./inp_files/173808.got.cif
#   From: 2010.06.25/outbox.cif.g09.slc.cpg/sg15_87_cif.got.tgz:173808.got - 2010.06.28 07:06:18.
