data_PCOD8136793
_publ_section_title
;
Structure prediction by ZEFSAII (Michael W. Deem and Ramdas Pophale) SiO2 
 PCOD8136793
Probable space group: C 2/C
;
_chemical_formula_sum "Si O2"
_cell_formula_units_Z 36
_cell_length_a 15.555622
_cell_length_b 23.375273
_cell_length_c 5.377547
_cell_angle_alpha 90.000000
_cell_angle_beta 75.291774
_cell_angle_gamma 90.000000
_cell_volume 1891.292214
_symmetry_space_group_name_H-M "C 2/C"
_symmetry_group_IT_number 15
_symmetry_cell_setting 'monoclinic'
loop_
_space_group_symop_operation_xyz
x,y,z
-x,y,1/2-z
-x,-y,-z
x,-y,1/2+z
1/2+x,1/2+y,z
1/2-x,1/2+y,1/2-z
1/2-x,1/2-y,-z
1/2+x,1/2-y,1/2+z
loop_
_atom_site_type_symbol
_atom_site_label
_atom_site_fract_x
_atom_site_fract_y
_atom_site_fract_z
Si Si1 0.674953 0.298646 0.037430
Si Si2 0.758740 0.181835 0.511272
Si Si3 0.400841 0.024544 0.274814
Si Si4 0.000000 0.735060 0.250000
Si Si5 0.076345 0.637295 0.515814
O O1 0.682764 0.334963 0.288739
O O2 0.576677 0.273648 0.073974
O O3 0.750000 0.250000 0.000000
O O4 0.694170 0.338266 0.781238
O O5 0.750000 0.250000 0.500000
O O6 0.664123 0.150533 0.610925
O O7 0.500000 0.000552 0.250000
O O8 0.353711 0.008781 0.574895
O O9 0.401807 0.092617 0.221292
O O10 0.043241 0.697040 0.432118
O O11 0.000000 0.610997 0.750000
#
# Coordination Sequence:
#
# PCOD8136793 Si02
#       5
#     8   8   8   4   8
#     4  10  20  35  45  68 102 125 164 211 239 279
#     4  10  20  35  46  66 102 121 164 210 245 270
#     4  10  21  35  46  67  99 127 166 220 247 274
#     4  12  22  30  54  72  96 142 182 190 244 312
#     4  12  22  31  53  72  93 139 182 198 242 309
#
# _framework density 19.034604000000002
#
# number of rings (size 3 to 8) (size 9 to 14) (size 15 to 20)
#    0.000    1.333    5.556    4.667    0.000    0.000 
#    0.000    0.000    0.000    0.000    0.000    0.000 
#    0.000    0.000    0.000   20.000    1.333    3.556 
#
# Total GULP energy -223057.625446 kJ/mol
# GULP energy per Si atom -12392.090303 kJ/mol
# Density = 1.899128 g / cm^3
# Si number density = 19.034604 Si / 1000 Ang^3
#
#
#
# Elastic Constant Matrix: (Units=GPa)
#
#
# Indices 1 2 3 4 5 6 
#
# 1 84.2215 36.2673 41.2032 0.0000 -2.4802 0.0000
# 2 36.2673 43.7462 26.4625 0.0000 2.9967 0.0000
# 3 41.2032 26.4625 159.0820 0.0000 26.5556 0.0000
# 4 0.0000 0.0000 0.0000 23.2677 0.0000 10.7608
# 5 -2.4802 2.9967 26.5556 0.0000 32.9560 0.0000
# 6 0.0000 0.0000 0.0000 10.7608 0.0000 8.2869
#
#
#
# Elastic Compliance Matrix: (Units=1/GPa)
#
#
# Indices 1 2 3 4 5 6 
#
# 1 0.020349 -0.014998 -0.003765 0.000000 0.005929 0.000000
# 2 -0.014998 0.036517 -0.001672 0.000000 -0.003102 0.000000
# 3 -0.003765 -0.001672 0.008737 0.000000 -0.007171 0.000000
# 4 0.000000 0.000000 0.000000 0.107593 0.000000 -0.139714
# 5 0.005929 -0.003102 -0.007171 0.000000 0.036850 0.000000
# 6 0.000000 0.000000 0.000000 -0.139714 0.000000 0.302097
#
#
# Mechanical properties :
#
#
# Convention : Reuss Voigt Hill
#
# Bulk Modulus (GPa) = 40.43483 54.99063 47.71273
# Shear Modulus (GPa) = 8.90856 25.10990 17.00923
#
# Velocity S-wave (km/s) = 2.16572 3.63598 2.99255
# Velocity P-wave (km/s) = 5.24812 6.82493 6.08779
#
# Compressibility (1/GPa) = 0.02473116
#
# Stress axis : x y z
#
# Youngs Moduli (GPa) = 49.14319 27.38435 114.46225
#
# Poissons Ratio (x) = 0.41072 0.43099
# Poissons Ratio (y) = 0.73707 0.19138
# Poissons Ratio (z) = 0.18504 0.04579
#
# Static dielectric constant tensor:
#      x y z
#    x 3.269820 0.000000 0.228560 
#    y 0.000000 3.048300 0.000000 
#    z 0.228560 0.000000 4.536760 
# 
# 
# High freq. dielectric constant tensor:
#      x y z
#    x 1.697740 0.000000 0.024990 
#    y 0.000000 1.677320 0.000000 
#    z 0.024990 0.000000 1.770370 
# 
# From -- ./inp_files/6846.got.cif
#   From: 2010.06.25/outbox.cif.g09.slc.cpg/sg15_4_cif.got.tgz:6846.got - 2010.06.28 07:06:18.
