data_PCOD8136355
_publ_section_title
;
Structure prediction by ZEFSAII (Michael W. Deem and Ramdas Pophale) SiO2 
 PCOD8136355
Probable space group: C 2/C
;
_chemical_formula_sum "Si O2"
_cell_formula_units_Z 48
_cell_length_a 5.331990
_cell_length_b 29.479999
_cell_length_c 14.284913
_cell_angle_alpha 90.000000
_cell_angle_beta 92.691976
_cell_angle_gamma 90.000000
_cell_volume 2242.925587
_symmetry_space_group_name_H-M "C 2/C"
_symmetry_group_IT_number 15
_symmetry_cell_setting 'monoclinic'
loop_
_space_group_symop_operation_xyz
x,y,z
-x,y,1/2-z
-x,-y,-z
x,-y,1/2+z
1/2+x,1/2+y,z
1/2-x,1/2+y,1/2-z
1/2-x,1/2-y,-z
1/2+x,1/2-y,1/2+z
loop_
_atom_site_type_symbol
_atom_site_label
_atom_site_fract_x
_atom_site_fract_y
_atom_site_fract_z
Si Si1 0.309972 0.574448 0.608553
Si Si2 0.749808 0.981111 0.695761
Si Si3 0.291065 0.922327 0.987015
Si Si4 0.835745 0.322568 0.984287
Si Si5 0.452112 0.261434 0.080307
Si Si6 0.319821 0.168073 0.834408
O O1 0.285557 0.534813 0.684116
O O2 0.563261 0.567501 0.553676
O O3 0.336209 0.621202 0.668657
O O4 0.059604 0.572898 0.541220
O O5 0.500000 0.970068 0.750000
O O6 0.721762 0.958695 0.594500
O O7 0.000000 0.961327 0.750000
O O8 0.258173 0.871598 0.942111
O O9 0.904429 0.286822 0.901161
O O10 0.616436 0.301245 0.040349
O O11 0.057091 0.331037 0.061465
O O12 0.344831 0.285095 0.173084
O O13 0.250000 0.250000 0.000000
O O14 0.500000 0.169430 0.750000
#
# Coordination Sequence:
#
# PCOD8136355 Si02
#       6
#     8   8   8   8   8   8
#     4  11  22  40  62  96 120 167 205 254 308 384
#     4  12  25  42  63  92 129 163 201 264 314 356
#     4  11  22  41  67  89 120 168 216 247 297 385
#     4   9  19  35  60  83 113 163 202 247 293 363
#     4   9  17  35  57  81 113 153 199 242 306 359
#     4  10  20  33  56  90 125 152 195 257 316 358
#
# _framework density 21.40062
#
# number of rings (size 3 to 8) (size 9 to 14) (size 15 to 20)
#    0.000    1.667    1.667    3.500    0.000    2.000 
#    0.000    0.000   11.000    0.000    0.000    0.000 
#    0.000    0.000    0.000    0.000    0.000    0.000 
#
# Total GULP energy -297346.523726 kJ/mol
# GULP energy per Si atom -12389.438489 kJ/mol
# Density = 2.135191 g / cm^3
# Si number density = 21.400620 Si / 1000 Ang^3
#
#
#
# Elastic Constant Matrix: (Units=GPa)
#
#
# Indices 1 2 3 4 5 6 
#
# 1 99.6711 4.4932 17.9407 0.0000 -11.2277 0.0000
# 2 4.4932 88.8972 21.7068 0.0000 -13.8629 0.0000
# 3 17.9407 21.7068 71.7581 0.0000 -27.1329 0.0000
# 4 0.0000 0.0000 0.0000 20.5071 0.0000 -10.4948
# 5 -11.2277 -13.8629 -27.1329 0.0000 39.8985 0.0000
# 6 0.0000 0.0000 0.0000 -10.4948 0.0000 20.3469
#
#
#
# Elastic Compliance Matrix: (Units=1/GPa)
#
#
# Indices 1 2 3 4 5 6 
#
# 1 0.010584 0.000232 -0.002100 0.000000 0.001631 0.000000
# 2 0.000232 0.012312 -0.002881 0.000000 0.002384 0.000000
# 3 -0.002100 -0.002881 0.019829 0.000000 0.011893 0.000000
# 4 0.000000 0.000000 0.000000 0.066252 0.000000 0.034172
# 5 0.001631 0.002384 0.011893 0.000000 0.034439 0.000000
# 6 0.000000 0.000000 0.000000 0.034172 0.000000 0.066773
#
#
# Mechanical properties :
#
#
# Convention : Reuss Voigt Hill
#
# Bulk Modulus (GPa) = 30.09467 38.73421 34.41444
# Shear Modulus (GPa) = 21.66725 30.56289 26.11507
#
# Velocity S-wave (km/s) = 3.18537 3.78316 3.49706
# Velocity P-wave (km/s) = 5.25565 6.10098 5.69402
#
# Compressibility (1/GPa) = 0.03322848
#
# Stress axis : x y z
#
# Youngs Moduli (GPa) = 94.48024 81.21833 50.43115
#
# Poissons Ratio (x) = -0.01885 0.10589
# Poissons Ratio (y) = -0.02193 0.14530
# Poissons Ratio (z) = 0.19837 0.23400
#
# Static dielectric constant tensor:
#      x y z
#    x 4.175430 0.000000 -0.176550 
#    y 0.000000 4.692830 0.000000 
#    z -0.176550 0.000000 3.530360 
# 
# 
# High freq. dielectric constant tensor:
#      x y z
#    x 1.857910 0.000000 -0.013570 
#    y 0.000000 1.860790 0.000000 
#    z -0.013570 0.000000 1.802010 
# 
# From -- ./inp_files/130365.got.cif
#   From: 2010.06.25/outbox.cif.g09.slc.cpg/sg15_66_cif.got.tgz:130365.got - 2010.06.28 07:06:18.
