data_PCOD8136210
_publ_section_title
;
Structure prediction by ZEFSAII (Michael W. Deem and Ramdas Pophale) SiO2 
 PCOD8136210
Probable space group: C 2/C
;
_chemical_formula_sum "Si O2"
_cell_formula_units_Z 56
_cell_length_a 18.818987
_cell_length_b 5.017970
_cell_length_c 32.797316
_cell_angle_alpha 90.000000
_cell_angle_beta 119.689495
_cell_angle_gamma 90.000000
_cell_volume 2690.565675
_symmetry_space_group_name_H-M "C 2/C"
_symmetry_group_IT_number 15
_symmetry_cell_setting 'monoclinic'
loop_
_space_group_symop_operation_xyz
x,y,z
-x,y,1/2-z
-x,-y,-z
x,-y,1/2+z
1/2+x,1/2+y,z
1/2-x,1/2+y,1/2-z
1/2-x,1/2-y,-z
1/2+x,1/2-y,1/2+z
loop_
_atom_site_type_symbol
_atom_site_label
_atom_site_fract_x
_atom_site_fract_y
_atom_site_fract_z
Si Si1 0.020796 0.040107 0.301509
Si Si2 0.104273 0.387494 0.929960
Si Si3 0.962952 0.554028 0.331153
Si Si4 0.789237 0.987793 0.648645
Si Si5 0.251373 0.984020 0.589897
Si Si6 0.774466 0.459789 0.781517
Si Si7 0.663096 0.357179 0.989747
O O1 0.115641 0.972865 0.334167
O O2 0.000000 0.131660 0.250000
O O3 0.995089 0.271817 0.324758
O O4 0.970127 0.774038 0.297611
O O5 0.165985 0.492712 0.912971
O O6 0.100516 0.610467 0.965097
O O7 0.014639 0.353653 0.885288
O O8 0.135272 0.106163 0.955018
O O9 0.870013 0.529776 0.318879
O O10 0.758633 0.695108 0.628366
O O11 0.775287 0.037044 0.692297
O O12 0.738546 0.197582 0.606998
O O13 0.172016 0.051498 0.539368
O O14 0.752136 0.666053 0.739689
O O15 0.750000 0.250000 0.000000
#
# Coordination Sequence:
#
# PCOD8136210 Si02
#       7
#     8   8   8   8   8   8   8
#     4  12  23  39  62  92 119 156 203 267 314 349
#     4  11  19  36  58  92 127 158 202 246 311 361
#     4  12  24  41  64  89 125 160 207 256 303 374
#     4  12  22  39  63  89 125 158 206 258 300 367
#     4  11  20  36  59  94 125 157 203 248 311 356
#     4  12  27  47  63  88 123 170 211 247 312 379
#     4  10  20  32  58  91 131 160 190 252 307 370
#
# _framework density 20.813465999999998
#
# number of rings (size 3 to 8) (size 9 to 14) (size 15 to 20)
#    0.000    0.571    2.857    9.000    0.000    0.000 
#    0.000    0.000    0.000    5.143    0.000    0.000 
#    0.000    0.000    0.000    0.000    0.000    0.000 
#
# Total GULP energy -347340.789195 kJ/mol
# GULP energy per Si atom -12405.028186 kJ/mol
# Density = 2.076609 g / cm^3
# Si number density = 20.813466 Si / 1000 Ang^3
#
#
#
# Elastic Constant Matrix: (Units=GPa)
#
#
# Indices 1 2 3 4 5 6 
#
# 1 66.5176 28.4774 18.7751 0.0010 8.1494 -0.0013
# 2 28.4774 127.1537 33.7428 0.0038 8.3808 -0.0033
# 3 18.7751 33.7428 109.4626 0.0018 17.7701 -0.0009
# 4 0.0010 0.0038 0.0018 47.8174 -0.0012 -6.1392
# 5 8.1494 8.3808 17.7701 -0.0012 25.7518 0.0013
# 6 -0.0013 -0.0033 -0.0009 -6.1392 0.0013 11.6512
#
#
#
# Elastic Compliance Matrix: (Units=1/GPa)
#
#
# Indices 1 2 3 4 5 6 
#
# 1 0.017246 -0.003266 -0.001394 0.000000 -0.003433 0.000001
# 2 -0.003266 0.009211 -0.002208 0.000000 -0.000441 0.000002
# 3 -0.001394 -0.002208 0.011112 0.000000 -0.006508 0.000001
# 4 0.000000 0.000000 0.000000 0.022430 0.000001 0.011819
# 5 -0.003433 -0.000441 -0.006508 0.000001 0.044553 -0.000006
# 6 0.000001 0.000002 0.000001 0.011819 -0.000006 0.092056
#
#
# Mechanical properties :
#
#
# Convention : Reuss Voigt Hill
#
# Bulk Modulus (GPa) = 41.95856 51.68050 46.81953
# Shear Modulus (GPa) = 22.90557 31.85331 27.37944
#
# Velocity S-wave (km/s) = 3.32100 3.91630 3.63087
# Velocity P-wave (km/s) = 5.90834 6.73306 6.33414
#
# Compressibility (1/GPa) = 0.02383304
#
# Stress axis : x y z
#
# Youngs Moduli (GPa) = 57.98459 108.56734 89.99570
#
# Poissons Ratio (x) = 0.35461 0.12545
# Poissons Ratio (y) = 0.18939 0.19867
# Poissons Ratio (z) = 0.08083 0.23967
#
# Static dielectric constant tensor:
#      x y z
#    x 3.405080 -0.000010 0.110810 
#    y -0.000010 3.986640 0.000010 
#    z 0.110810 0.000010 4.155170 
# 
# 
# High freq. dielectric constant tensor:
#      x y z
#    x 1.764300 0.000000 0.008360 
#    y 0.000000 1.837770 0.000000 
#    z 0.008360 0.000000 1.832790 
# 
# From -- ./inp_files/315118.got.cif
#   From: 2010.06.25/outbox.cif.g09.slc.cpg/sg15_158_cif.got.tgz:315118.got - 2010.06.28 07:06:18.
