data_PCOD8136353
_publ_section_title
;
Structure prediction by ZEFSAII (Michael W. Deem and Ramdas Pophale) SiO2 
 PCOD8136353
Probable space group: C 2/C
;
_chemical_formula_sum "Si O2"
_cell_formula_units_Z 48
_cell_length_a 15.627659
_cell_length_b 19.828991
_cell_length_c 13.438447
_cell_angle_alpha 90.000000
_cell_angle_beta 34.037959
_cell_angle_gamma 90.000000
_cell_volume 2330.942391
_symmetry_space_group_name_H-M "C 2/C"
_symmetry_group_IT_number 15
_symmetry_cell_setting 'monoclinic'
loop_
_space_group_symop_operation_xyz
x,y,z
-x,y,1/2-z
-x,-y,-z
x,-y,1/2+z
1/2+x,1/2+y,z
1/2-x,1/2+y,1/2-z
1/2-x,1/2-y,-z
1/2+x,1/2-y,1/2+z
loop_
_atom_site_type_symbol
_atom_site_label
_atom_site_fract_x
_atom_site_fract_y
_atom_site_fract_z
Si Si1 0.777722 0.676877 0.232798
Si Si2 0.441563 0.305777 0.003800
Si Si3 0.772610 0.898208 0.537553
Si Si4 0.740471 0.947392 0.879630
Si Si5 0.895805 0.914763 0.208992
Si Si6 0.000000 0.870542 0.750000
Si Si7 0.500000 0.992721 0.750000
O O1 0.619653 0.702026 0.343948
O O2 0.894111 0.731308 0.080592
O O3 0.777400 0.669299 0.353726
O O4 0.811100 0.602207 0.158272
O O5 0.369705 0.363728 0.142924
O O6 0.412264 0.324265 0.916432
O O7 0.816057 0.880466 0.382272
O O8 0.630205 0.948925 0.679244
O O9 0.923870 0.928883 0.446156
O O10 0.871381 0.917026 0.824308
O O11 0.811425 0.015478 0.764238
O O12 0.584158 0.960621 0.088954
#
# Coordination Sequence:
#
# PCOD8136353 Si02
#       7
#     8   8   8   8   8   4   4
#     4  10  23  39  57  83 114 152 192 228 276 335
#     4  10  23  39  58  83 113 153 190 228 278 332
#     4   9  19  36  57  84 116 144 184 233 282 335
#     4  10  21  36  59  87 113 147 189 232 279 332
#     4   9  19  38  60  82 113 151 186 224 282 344
#     4  10  22  39  58  79 114 154 190 226 272 341
#     4  10  20  33  56  89 116 142 180 242 290 313
#
# _framework density 20.592531000000001
#
# number of rings (size 3 to 8) (size 9 to 14) (size 15 to 20)
#    0.000    2.333    0.000    2.000    0.000   17.333 
#    0.000    1.667    0.000    0.000    0.000    0.000 
#    0.000    0.000    0.000    0.000    0.000    0.000 
#
# Total GULP energy -297464.949064 kJ/mol
# GULP energy per Si atom -12394.372878 kJ/mol
# Density = 2.054566 g / cm^3
# Si number density = 20.592531 Si / 1000 Ang^3
#
#
#
# Elastic Constant Matrix: (Units=GPa)
#
#
# Indices 1 2 3 4 5 6 
#
# 1 60.6193 38.1648 30.5876 -0.0031 23.2411 -0.0091
# 2 38.1648 104.0920 53.7414 -0.1444 21.8859 0.1111
# 3 30.5876 53.7414 122.9349 -0.1030 11.8447 0.0570
# 4 -0.0031 -0.1444 -0.1030 47.2860 0.0775 11.1762
# 5 23.2411 21.8859 11.8447 0.0775 33.0219 -0.0417
# 6 -0.0091 0.1111 0.0570 11.1762 -0.0417 5.8287
#
#
#
# Elastic Compliance Matrix: (Units=1/GPa)
#
#
# Indices 1 2 3 4 5 6 
#
# 1 0.026809 -0.005283 -0.002983 -0.000025 -0.014297 0.000119
# 2 -0.005283 0.014962 -0.004794 0.000198 -0.004479 -0.000658
# 3 -0.002983 -0.004794 0.010839 0.000016 0.001389 -0.000040
# 4 -0.000025 0.000198 0.000016 0.038680 -0.000303 -0.074172
# 5 -0.014297 -0.004479 0.001389 -0.000303 0.042817 0.000937
# 6 0.000119 -0.000658 -0.000040 -0.074172 0.000937 0.313804
#
#
# Mechanical properties :
#
#
# Convention : Reuss Voigt Hill
#
# Bulk Modulus (GPa) = 37.75271 59.18153 48.46712
# Shear Modulus (GPa) = 10.35491 28.23746 19.29619
#
# Velocity S-wave (km/s) = 2.24486 3.70705 3.06444
# Velocity P-wave (km/s) = 5.00921 6.86474 6.00903
#
# Compressibility (1/GPa) = 0.02648816
#
# Stress axis : x y z
#
# Youngs Moduli (GPa) = 37.30035 66.83620 92.26292
#
# Poissons Ratio (x) = 0.35313 0.27526
# Poissons Ratio (y) = 0.19708 0.44231
# Poissons Ratio (z) = 0.11128 0.32041
#
# Static dielectric constant tensor:
#      x y z
#    x 3.708980 -0.000060 0.225720 
#    y -0.000060 3.651530 0.000080 
#    z 0.225720 0.000080 4.078150 
# 
# 
# High freq. dielectric constant tensor:
#      x y z
#    x 1.795820 0.000000 0.010660 
#    y 0.000000 1.789970 0.000000 
#    z 0.010660 0.000000 1.823020 
# 
# From -- ./inp_files/70655.got.cif
#   From: 2010.06.25/outbox.cif.g09.slc.cpg/sg15_36_cif.got.tgz:70655.got - 2010.06.28 07:06:18.
