data_PCOD8136347
_publ_section_title
;
Structure prediction by ZEFSAII (Michael W. Deem and Ramdas Pophale) SiO2 
 PCOD8136347
Probable space group: C 2/C
;
_chemical_formula_sum "Si O2"
_cell_formula_units_Z 56
_cell_length_a 12.688575
_cell_length_b 8.215558
_cell_length_c 27.176320
_cell_angle_alpha 90.000000
_cell_angle_beta 110.182386
_cell_angle_gamma 90.000000
_cell_volume 2659.014542
_symmetry_space_group_name_H-M "C 2/C"
_symmetry_group_IT_number 15
_symmetry_cell_setting 'monoclinic'
loop_
_space_group_symop_operation_xyz
x,y,z
-x,y,1/2-z
-x,-y,-z
x,-y,1/2+z
1/2+x,1/2+y,z
1/2-x,1/2+y,1/2-z
1/2-x,1/2-y,-z
1/2+x,1/2-y,1/2+z
loop_
_atom_site_type_symbol
_atom_site_label
_atom_site_fract_x
_atom_site_fract_y
_atom_site_fract_z
Si Si1 0.505545 0.157827 0.109175
Si Si2 0.147872 0.969126 0.429220
Si Si3 0.874760 0.605039 0.921816
Si Si4 0.622170 0.564732 0.030187
Si Si5 0.944265 0.441161 0.191779
Si Si6 0.687146 0.590980 0.643612
Si Si7 0.457311 0.678162 0.352777
O O1 0.415513 0.295281 0.082172
O O2 0.629271 0.233149 0.138841
O O3 0.526557 0.032683 0.066454
O O4 0.460020 0.066475 0.149945
O O5 0.252521 0.977460 0.409041
O O6 0.193450 0.983667 0.492900
O O7 0.063948 0.116713 0.402513
O O8 0.889521 0.739388 0.966820
O O9 0.879585 0.696755 0.870410
O O10 0.676793 0.480783 0.086480
O O11 0.500000 0.500000 0.000000
O O12 0.814656 0.402903 0.180574
O O13 0.000000 0.513898 0.250000
O O14 0.001474 0.266627 0.189686
O O15 0.620908 0.475968 0.671933
#
# Coordination Sequence:
#
# PCOD8136347 Si02
#       7
#     8   8   8   8   8   8   8
#     4  10  21  38  61  86 118 150 196 248 287 348
#     4  11  20  38  60  85 122 158 194 234 287 350
#     4  10  20  33  56  84 117 158 192 232 286 335
#     4  11  19  38  59  86 125 164 191 236 287 348
#     4  11  24  41  62  88 113 149 199 248 300 351
#     4  10  21  41  60  83 123 155 191 241 292 344
#     4   9  20  39  60  81 119 151 189 242 290 349
#
# _framework density 21.060434000000001
#
# number of rings (size 3 to 8) (size 9 to 14) (size 15 to 20)
#    0.000    1.714    4.286    3.000    0.000    1.714 
#    0.000    8.571    0.000    0.000    0.000    0.000 
#    0.000    0.000    0.000    0.000    0.000    0.000 
#
# Total GULP energy -346978.429429 kJ/mol
# GULP energy per Si atom -12392.086765 kJ/mol
# Density = 2.101250 g / cm^3
# Si number density = 21.060434 Si / 1000 Ang^3
#
#
#
# Elastic Constant Matrix: (Units=GPa)
#
#
# Indices 1 2 3 4 5 6 
#
# 1 106.4035 13.4566 12.8113 0.0000 2.1020 0.0000
# 2 13.4566 54.8978 -4.9012 0.0000 -9.6460 0.0000
# 3 12.8113 -4.9012 47.4488 0.0000 4.4827 0.0000
# 4 0.0000 0.0000 0.0000 13.8512 0.0000 -3.3872
# 5 2.1020 -9.6460 4.4827 0.0000 20.0264 0.0000
# 6 0.0000 0.0000 0.0000 -3.3872 0.0000 28.4305
#
#
#
# Elastic Compliance Matrix: (Units=1/GPa)
#
#
# Indices 1 2 3 4 5 6 
#
# 1 0.010174 -0.003087 -0.002885 0.000000 -0.001909 0.000000
# 2 -0.003087 0.020901 0.002054 0.000000 0.009931 0.000000
# 3 -0.002885 0.002054 0.022419 0.000000 -0.003726 0.000000
# 4 0.000000 0.000000 0.000000 0.074362 0.000000 0.008859
# 5 -0.001909 0.009931 -0.003726 0.000000 0.055752 0.000000
# 6 0.000000 0.000000 0.000000 0.008859 0.000000 0.036229
#
#
# Mechanical properties :
#
#
# Convention : Reuss Voigt Hill
#
# Bulk Modulus (GPa) = 21.90255 27.94262 24.92258
# Shear Modulus (GPa) = 20.58534 24.95385 22.76960
#
# Velocity S-wave (km/s) = 3.12980 3.44593 3.29166
# Velocity P-wave (km/s) = 4.84596 5.39715 5.12896
#
# Compressibility (1/GPa) = 0.04565679
#
# Stress axis : x y z
#
# Youngs Moduli (GPa) = 98.29284 47.84533 44.60578
#
# Poissons Ratio (x) = 0.14769 0.12871
# Poissons Ratio (y) = 0.30341 -0.09163
# Poissons Ratio (z) = 0.28362 -0.09828
#
# Static dielectric constant tensor:
#      x y z
#    x 4.089970 0.000000 -0.395250 
#    y 0.000000 4.187980 0.000000 
#    z -0.395250 0.000000 3.876320 
# 
# 
# High freq. dielectric constant tensor:
#      x y z
#    x 1.840780 0.000000 -0.013330 
#    y 0.000000 1.835770 0.000000 
#    z -0.013330 0.000000 1.776380 
# 
# From -- ./inp_files/310049.got.cif
#   From: 2010.06.25/outbox.cif.g09.slc.cpg/sg15_156_cif.got.tgz:310049.got - 2010.06.28 07:06:18.
