data_PCOD8136645
_publ_section_title
;
Structure prediction by ZEFSAII (Michael W. Deem and Ramdas Pophale) SiO2 
 PCOD8136645
Probable space group: C 2/C
;
_chemical_formula_sum "Si O2"
_cell_formula_units_Z 60
_cell_length_a 20.038257
_cell_length_b 12.932043
_cell_length_c 13.898948
_cell_angle_alpha 90.000000
_cell_angle_beta 127.816246
_cell_angle_gamma 90.000000
_cell_volume 2845.284937
_symmetry_space_group_name_H-M "C 2/C"
_symmetry_group_IT_number 15
_symmetry_cell_setting 'monoclinic'
loop_
_space_group_symop_operation_xyz
x,y,z
-x,y,1/2-z
-x,-y,-z
x,-y,1/2+z
1/2+x,1/2+y,z
1/2-x,1/2+y,1/2-z
1/2-x,1/2-y,-z
1/2+x,1/2-y,1/2+z
loop_
_atom_site_type_symbol
_atom_site_label
_atom_site_fract_x
_atom_site_fract_y
_atom_site_fract_z
Si Si1 0.219962 0.156357 0.210315
Si Si2 0.709255 0.996257 0.362896
Si Si3 0.812916 0.151499 0.831566
Si Si4 0.578065 0.526495 0.138258
Si Si5 0.500000 0.623877 0.250000
Si Si6 0.443200 0.216927 0.551076
Si Si7 0.425848 0.071380 0.894817
Si Si8 0.324842 0.036065 0.455163
O O1 0.235952 0.280005 0.219329
O O2 0.120337 0.128990 0.128143
O O3 0.257248 0.107474 0.341570
O O4 0.262626 0.106394 0.154393
O O5 0.776068 0.906755 0.392380
O O6 0.615165 0.969627 0.240984
O O7 0.712409 0.009297 0.479867
O O8 0.852025 0.065569 0.794422
O O9 0.887750 0.232385 0.918288
O O10 0.551445 0.549091 0.224158
O O11 0.500000 0.500000 0.000000
O O12 0.557632 0.699619 0.364432
O O13 0.536351 0.186725 0.590725
O O14 0.403535 0.109830 0.553535
O O15 0.500000 0.000000 0.000000
O O16 0.351682 0.061027 0.910371
#
# Coordination Sequence:
#
# PCOD8136645 Si02
#       8
#     8   8   8   8   4   8   8   8
#     4   9  22  38  61  86 123 167 203 259 323 364
#     4  10  20  35  59  85 122 156 202 252 309 371
#     4  10  22  40  58  85 126 161 205 260 303 373
#     4  11  24  42  61  93 129 165 208 270 317 370
#     4  12  24  36  66  92 120 166 218 256 320 372
#     4  10  20  34  58  91 120 157 206 252 316 374
#     4   9  19  36  54  88 129 153 191 257 311 362
#     4   9  19  35  60  92 122 159 203 262 312 377
#
# _framework density 21.087519
#
# number of rings (size 3 to 8) (size 9 to 14) (size 15 to 20)
#    0.000    2.133    1.333    1.600    5.600    2.667 
#    0.000    1.333    0.000    8.000    0.000    0.000 
#    0.000    0.000    0.000    0.000    0.000    0.000 
#
# Total GULP energy -371756.569159 kJ/mol
# GULP energy per Si atom -12391.885639 kJ/mol
# Density = 2.103952 g / cm^3
# Si number density = 21.087519 Si / 1000 Ang^3
#
#
#
# Elastic Constant Matrix: (Units=GPa)
#
#
# Indices 1 2 3 4 5 6 
#
# 1 92.5888 52.0258 35.0962 0.0000 -14.8934 0.0000
# 2 52.0258 106.9971 30.2851 0.0000 -12.2274 0.0000
# 3 35.0962 30.2851 67.4135 0.0000 -15.7127 0.0000
# 4 0.0000 0.0000 0.0000 34.6254 0.0000 6.6948
# 5 -14.8934 -12.2274 -15.7127 0.0000 42.0497 0.0000
# 6 0.0000 0.0000 0.0000 6.6948 0.0000 30.6603
#
#
#
# Elastic Compliance Matrix: (Units=1/GPa)
#
#
# Indices 1 2 3 4 5 6 
#
# 1 0.016762 -0.006393 -0.005372 0.000000 0.002071 0.000000
# 2 -0.006393 0.013226 -0.002459 0.000000 0.000663 0.000000
# 3 -0.005372 -0.002459 0.019854 0.000000 0.004801 0.000000
# 4 0.000000 0.000000 0.000000 0.030154 0.000000 -0.006584
# 5 0.002071 0.000663 0.004801 0.000000 0.026502 0.000000
# 6 0.000000 0.000000 0.000000 -0.006584 0.000000 0.034053
#
#
# Mechanical properties :
#
#
# Convention : Reuss Voigt Hill
#
# Bulk Modulus (GPa) = 46.74073 55.75704 51.24889
# Shear Modulus (GPa) = 28.38805 31.43992 29.91398
#
# Velocity S-wave (km/s) = 3.67304 3.86544 3.77047
# Velocity P-wave (km/s) = 6.34047 6.81325 6.58111
#
# Compressibility (1/GPa) = 0.02139462
#
# Stress axis : x y z
#
# Youngs Moduli (GPa) = 59.65851 75.60623 50.36718
#
# Poissons Ratio (x) = 0.48337 0.27056
# Poissons Ratio (y) = 0.38141 0.12385
# Poissons Ratio (z) = 0.32047 0.18592
#
# Static dielectric constant tensor:
#      x y z
#    x 4.011550 0.000000 0.291130 
#    y 0.000000 4.117760 0.000000 
#    z 0.291130 0.000000 3.760240 
# 
# 
# High freq. dielectric constant tensor:
#      x y z
#    x 1.825820 0.000000 0.022970 
#    y 0.000000 1.825170 0.000000 
#    z 0.022970 0.000000 1.812750 
# 
# From -- ./inp_files/167705.got.cif
#   From: 2010.06.25/outbox.cif.g09.slc.cpg/sg15_84_cif.got.tgz:167705.got - 2010.06.28 07:06:18.
