data_PCOD8136375
_publ_section_title
;
Structure prediction by ZEFSAII (Michael W. Deem and Ramdas Pophale) SiO2 
 PCOD8136375
Probable space group: C 2/C
;
_chemical_formula_sum "Si O2"
_cell_formula_units_Z 48
_cell_length_a 27.701228
_cell_length_b 13.512157
_cell_length_c 20.613684
_cell_angle_alpha 90.000000
_cell_angle_beta 163.470249
_cell_angle_gamma 90.000000
_cell_volume 2195.238461
_symmetry_space_group_name_H-M "C 2/C"
_symmetry_group_IT_number 15
_symmetry_cell_setting 'monoclinic'
loop_
_space_group_symop_operation_xyz
x,y,z
-x,y,1/2-z
-x,-y,-z
x,-y,1/2+z
1/2+x,1/2+y,z
1/2-x,1/2+y,1/2-z
1/2-x,1/2-y,-z
1/2+x,1/2-y,1/2+z
loop_
_atom_site_type_symbol
_atom_site_label
_atom_site_fract_x
_atom_site_fract_y
_atom_site_fract_z
Si Si1 0.177182 0.436395 0.793121
Si Si2 0.033478 0.136132 0.909510
Si Si3 0.275070 0.829336 0.841703
Si Si4 0.563204 0.847564 0.118163
Si Si5 0.015986 0.356210 0.846402
Si Si6 0.169914 0.977575 0.258817
O O1 0.373364 0.411292 0.032651
O O2 0.153465 0.548340 0.742188
O O3 0.063179 0.357582 0.605676
O O4 0.129504 0.421777 0.806702
O O5 0.156975 0.139895 0.130028
O O6 0.973930 0.244480 0.812197
O O7 0.877321 0.065441 0.730583
O O8 0.210359 0.730866 0.793178
O O9 0.273647 0.918712 0.893084
O O10 0.463638 0.814665 0.055284
O O11 0.000000 0.374302 0.750000
O O12 0.204525 0.394288 0.111996
O O13 0.000000 0.000000 0.000000
#
# Coordination Sequence:
#
# PCOD8136375 Si02
#       6
#     8   8   8   8   8   8
#     4  10  21  37  54  92 125 166 206 252 317 371
#     4  10  22  34  58  89 125 164 207 255 305 379
#     4  10  20  33  58  89 124 154 202 270 318 352
#     4  10  20  33  59  87 126 156 207 265 315 362
#     4  12  24  42  62  89 133 172 205 251 320 390
#     4  10  23  39  58  92 127 160 211 265 312 359
#
# _framework density 21.865506
#
# number of rings (size 3 to 8) (size 9 to 14) (size 15 to 20)
#    0.000    1.667    3.333    1.000   11.667    2.667 
#    0.000    0.000    0.000    1.000    0.000    0.000 
#    0.000    0.000    0.000    0.000    0.000    0.000 
#
# Total GULP energy -297453.553870 kJ/mol
# GULP energy per Si atom -12393.898078 kJ/mol
# Density = 2.181574 g / cm^3
# Si number density = 21.865506 Si / 1000 Ang^3
#
#
#
# Elastic Constant Matrix: (Units=GPa)
#
#
# Indices 1 2 3 4 5 6 
#
# 1 130.5759 55.0122 33.7508 -0.0001 37.4239 0.0002
# 2 55.0122 115.3290 26.9377 -0.0005 19.8952 -0.0010
# 3 33.7508 26.9377 33.8592 0.0002 21.6913 -0.0024
# 4 -0.0001 -0.0005 0.0002 15.4403 -0.0012 17.9773
# 5 37.4239 19.8952 21.6913 -0.0012 39.6922 -0.0031
# 6 0.0002 -0.0010 -0.0024 17.9773 -0.0031 47.2585
#
#
#
# Elastic Compliance Matrix: (Units=1/GPa)
#
#
# Indices 1 2 3 4 5 6 
#
# 1 0.012543 -0.003556 -0.004984 0.000001 -0.007320 -0.000001
# 2 -0.003556 0.011689 -0.006384 0.000001 0.000983 0.000000
# 3 -0.004984 -0.006384 0.053117 -0.000007 -0.021128 0.000004
# 4 0.000001 0.000001 -0.000007 0.116256 0.000003 -0.044224
# 5 -0.007320 0.000983 -0.021128 0.000003 0.043149 0.000001
# 6 -0.000001 0.000000 0.000004 -0.044224 0.000001 0.037983
#
#
# Mechanical properties :
#
#
# Convention : Reuss Voigt Hill
#
# Bulk Modulus (GPa) = 21.05288 56.79617 38.92452
# Shear Modulus (GPa) = 15.60452 31.41575 23.51014
#
# Velocity S-wave (km/s) = 2.67434 3.79459 3.28261
# Velocity P-wave (km/s) = 4.38011 6.72534 5.67519
#
# Compressibility (1/GPa) = 0.04749944
#
# Stress axis : x y z
#
# Youngs Moduli (GPa) = 79.72748 85.55249 18.82624
#
# Poissons Ratio (x) = 0.30423 0.09383
# Poissons Ratio (y) = 0.28351 0.12020
# Poissons Ratio (z) = 0.39738 0.54621
#
# Static dielectric constant tensor:
#      x y z
#    x 4.335530 0.000000 0.572860 
#    y 0.000000 4.058820 0.000010 
#    z 0.572860 0.000010 3.711580 
# 
# 
# High freq. dielectric constant tensor:
#      x y z
#    x 1.862090 0.000000 0.046460 
#    y 0.000000 1.862380 0.000000 
#    z 0.046460 0.000000 1.822000 
# 
# From -- ./inp_files/252505.got.cif
#   From: 2010.06.25/outbox.cif.g09.slc.cpg/sg15_127_cif.got.tgz:252505.got - 2010.06.28 07:06:18.
