data_PCOD8136040
_publ_section_title
;
Structure prediction by ZEFSAII (Michael W. Deem and Ramdas Pophale) SiO2 
 PCOD8136040
Probable space group: C 2/C
;
_chemical_formula_sum "Si O2"
_cell_formula_units_Z 44
_cell_length_a 8.952322
_cell_length_b 18.259264
_cell_length_c 14.345784
_cell_angle_alpha 90.000000
_cell_angle_beta 115.279245
_cell_angle_gamma 90.000000
_cell_volume 2120.438431
_symmetry_space_group_name_H-M "C 2/C"
_symmetry_group_IT_number 15
_symmetry_cell_setting 'monoclinic'
loop_
_space_group_symop_operation_xyz
x,y,z
-x,y,1/2-z
-x,-y,-z
x,-y,1/2+z
1/2+x,1/2+y,z
1/2-x,1/2+y,1/2-z
1/2-x,1/2-y,-z
1/2+x,1/2-y,1/2+z
loop_
_atom_site_type_symbol
_atom_site_label
_atom_site_fract_x
_atom_site_fract_y
_atom_site_fract_z
Si Si1 0.822585 0.877700 0.248436
Si Si2 0.000000 0.872086 0.750000
Si Si3 0.292478 0.779844 0.784797
Si Si4 0.342153 0.188513 0.084269
Si Si5 0.993742 0.994721 0.889101
Si Si6 0.158293 0.554284 0.543849
O O1 0.762813 0.806948 0.288970
O O2 0.667945 0.893692 0.137440
O O3 0.000000 0.855829 0.250000
O O4 0.854492 0.946840 0.323044
O O5 0.156910 0.820675 0.811166
O O6 0.951298 0.917491 0.830194
O O7 0.465064 0.798872 0.876935
O O8 0.282404 0.805123 0.674328
O O9 0.250000 0.250000 0.000000
O O10 0.317175 0.104978 0.041242
O O11 0.175846 0.007799 0.897151
O O12 0.000000 0.000000 0.000000
O O13 0.000000 0.500000 0.500000
#
# Coordination Sequence:
#
# PCOD8136040 Si02
#       6
#     8   4   8   8   8   8
#     4  10  19  43  67  85 128 175 214 255 319 394
#     4  12  24  42  64 100 138 164 214 278 326 386
#     4  11  23  40  64  97 131 168 217 277 322 387
#     4  11  20  38  68  94 122 172 228 259 318 395
#     4  11  23  44  66  89 130 179 210 257 335 392
#     4  11  21  38  65  94 124 162 219 272 311 378
#
# _framework density 20.750426000000001
#
# number of rings (size 3 to 8) (size 9 to 14) (size 15 to 20)
#    0.000    1.091    6.364    3.273    0.000    0.000 
#    3.273    1.818    0.000    0.000    0.000    0.000 
#    0.000    0.000    0.000    0.000    0.000    0.000 
#
# Total GULP energy -272645.375032 kJ/mol
# GULP energy per Si atom -12392.971592 kJ/mol
# Density = 2.070320 g / cm^3
# Si number density = 20.750426 Si / 1000 Ang^3
#
#
#
# Elastic Constant Matrix: (Units=GPa)
#
#
# Indices 1 2 3 4 5 6 
#
# 1 53.9501 41.3719 23.2575 0.0000 10.4314 0.0000
# 2 41.3719 136.7544 36.9102 0.0000 9.9623 0.0000
# 3 23.2575 36.9102 106.0657 0.0000 8.1361 0.0000
# 4 0.0000 0.0000 0.0000 27.4221 0.0000 12.0780
# 5 10.4314 9.9623 8.1361 0.0000 33.3516 0.0000
# 6 0.0000 0.0000 0.0000 12.0780 0.0000 29.6984
#
#
#
# Elastic Compliance Matrix: (Units=1/GPa)
#
#
# Indices 1 2 3 4 5 6 
#
# 1 0.025967 -0.006663 -0.002960 0.000000 -0.005409 0.000000
# 2 -0.006663 0.009882 -0.001948 0.000000 -0.000393 0.000000
# 3 -0.002960 -0.001948 0.010842 0.000000 -0.001137 0.000000
# 4 0.000000 0.000000 0.000000 0.044424 0.000000 -0.018067
# 5 -0.005409 -0.000393 -0.001137 0.000000 0.032070 0.000000
# 6 0.000000 0.000000 0.000000 -0.018067 0.000000 0.041019
#
#
# Mechanical properties :
#
#
# Convention : Reuss Voigt Hill
#
# Bulk Modulus (GPa) = 42.46317 55.53884 49.00101
# Shear Modulus (GPa) = 25.61503 31.10978 28.36241
#
# Velocity S-wave (km/s) = 3.51726 3.87620 3.70108
# Velocity P-wave (km/s) = 6.08301 6.84518 6.47532
#
# Compressibility (1/GPa) = 0.02354982
#
# Stress axis : x y z
#
# Youngs Moduli (GPa) = 38.51034 101.19024 92.23091
#
# Poissons Ratio (x) = 0.67420 0.27304
# Poissons Ratio (y) = 0.25658 0.17966
# Poissons Ratio (z) = 0.11401 0.19711
#
# Static dielectric constant tensor:
#      x y z
#    x 3.479540 0.000000 0.149970 
#    y 0.000000 4.259420 0.000000 
#    z 0.149970 0.000000 3.910480 
# 
# 
# High freq. dielectric constant tensor:
#      x y z
#    x 1.778160 0.000000 0.018530 
#    y 0.000000 1.828760 0.000000 
#    z 0.018530 0.000000 1.820690 
# 
# From -- ./inp_files/134722.got.cif
#   From: 2010.06.25/outbox.cif.g09.slc.cpg/sg15_68_cif.got.tgz:134722.got - 2010.06.28 07:06:18.
