data_PCOD8136101
_publ_section_title
;
Structure prediction by ZEFSAII (Michael W. Deem and Ramdas Pophale) SiO2 
 PCOD8136101
Probable space group: C 2/C
;
_chemical_formula_sum "Si O2"
_cell_formula_units_Z 64
_cell_length_a 21.806220
_cell_length_b 18.183277
_cell_length_c 10.162888
_cell_angle_alpha 90.000000
_cell_angle_beta 79.031509
_cell_angle_gamma 90.000000
_cell_volume 3956.057693
_symmetry_space_group_name_H-M "C 2/C"
_symmetry_group_IT_number 15
_symmetry_cell_setting 'monoclinic'
loop_
_space_group_symop_operation_xyz
x,y,z
-x,y,1/2-z
-x,-y,-z
x,-y,1/2+z
1/2+x,1/2+y,z
1/2-x,1/2+y,1/2-z
1/2-x,1/2-y,-z
1/2+x,1/2-y,1/2+z
loop_
_atom_site_type_symbol
_atom_site_label
_atom_site_fract_x
_atom_site_fract_y
_atom_site_fract_z
Si Si1 0.687866 0.193048 0.890585
Si Si2 0.233225 0.341896 0.643776
Si Si3 0.151714 0.931950 0.832783
Si Si4 0.922815 0.784634 0.641544
Si Si5 0.356943 0.560953 0.470841
Si Si6 0.329302 0.792237 0.586740
Si Si7 0.757060 0.650830 0.890091
Si Si8 0.935912 0.795578 0.940531
O O1 0.726708 0.267969 0.873009
O O2 0.615174 0.216542 0.906559
O O3 0.710635 0.138920 0.764786
O O4 0.699188 0.146844 0.018339
O O5 0.276820 0.411322 0.661110
O O6 0.178366 0.335764 0.773921
O O7 0.109100 0.861759 0.875815
O O8 0.147110 0.959350 0.682827
O O9 0.125070 0.991743 0.946120
O O10 0.923962 0.771037 0.796426
O O11 0.991684 0.789343 0.551142
O O12 0.289550 0.585907 0.551680
O O13 0.410468 0.621862 0.472116
O O14 0.280565 0.726216 0.597694
O O15 0.312758 0.846615 0.473676
O O16 0.399511 0.761608 0.548599
#
# Coordination Sequence:
#
# PCOD8136101 Si02
#       8
#     8   8   8   8   8   8   8   8
#     4   9  16  27  46  68  87 112 144 189 240 277
#     4   9  17  28  44  65  91 114 141 191 244 271
#     4  10  20  32  45  64  94 127 159 190 222 265
#     4   9  17  31  47  67  93 123 158 191 222 265
#     4  10  20  31  45  66  92 126 161 191 221 264
#     4   9  14  27  46  65  84 112 147 188 235 275
#     4   9  15  26  46  65  84 110 150 189 231 276
#     4   9  17  30  49  66  90 127 160 187 219 270
#
# _framework density 16.177720999999998
#
# number of rings (size 3 to 8) (size 9 to 14) (size 15 to 20)
#    0.000    2.750    2.500    0.000    1.750    0.500 
#    2.250    0.625    0.000    0.000    0.000    0.000 
#    0.000    6.000    0.000    0.000    0.000    0.000 
#
# Total GULP energy -396631.996253 kJ/mol
# GULP energy per Si atom -12394.749883 kJ/mol
# Density = 1.614090 g / cm^3
# Si number density = 16.177721 Si / 1000 Ang^3
#
#
#
# Elastic Constant Matrix: (Units=GPa)
#
#
# Indices 1 2 3 4 5 6 
#
# 1 104.3031 26.3985 53.4024 0.0000 -10.9057 0.0000
# 2 26.3985 9.5846 16.9404 0.0000 -4.2141 0.0000
# 3 53.4024 16.9404 112.0713 0.0000 -3.0447 0.0000
# 4 0.0000 0.0000 0.0000 26.0021 0.0000 -1.3993
# 5 -10.9057 -4.2141 -3.0447 0.0000 21.2308 0.0000
# 6 0.0000 0.0000 0.0000 -1.3993 0.0000 11.7419
#
#
#
# Elastic Compliance Matrix: (Units=1/GPa)
#
#
# Indices 1 2 3 4 5 6 
#
# 1 0.032222 -0.084375 -0.002615 0.000000 -0.000571 0.000000
# 2 -0.084375 0.378235 -0.016169 0.000000 0.029415 0.000000
# 3 -0.002615 -0.016169 0.012538 0.000000 -0.002755 0.000000
# 4 0.000000 0.000000 0.000000 0.038707 0.000000 0.004613
# 5 -0.000571 0.029415 -0.002755 0.000000 0.052252 0.000000
# 6 0.000000 0.000000 0.000000 0.004613 0.000000 0.085715
#
#
# Mechanical properties :
#
#
# Convention : Reuss Voigt Hill
#
# Bulk Modulus (GPa) = 4.61517 46.60462 25.60990
# Shear Modulus (GPa) = 5.69338 20.40947 13.05143
#
# Velocity S-wave (km/s) = 1.87801 3.55572 2.84342
# Velocity P-wave (km/s) = 2.74983 6.76225 5.16186
#
# Compressibility (1/GPa) = 0.21667655
#
# Stress axis : x y z
#
# Youngs Moduli (GPa) = 31.03500 2.64386 79.75591
#
# Poissons Ratio (x) = 0.22308 0.20859
# Poissons Ratio (y) = 2.61859 1.28953
# Poissons Ratio (z) = 0.08117 0.04275
#
# Static dielectric constant tensor:
#      x y z
#    x 3.012670 0.000000 -0.013900 
#    y 0.000000 2.704510 0.000000 
#    z -0.013900 0.000000 3.255230 
# 
# 
# High freq. dielectric constant tensor:
#      x y z
#    x 1.602650 0.000000 -0.000570 
#    y 0.000000 1.579030 0.000000 
#    z -0.000570 0.000000 1.629360 
# 
# From -- ./inp_files/57506.got.cif
#   From: 2010.06.25/outbox.cif.g09.slc.cpg/sg15_29_cif.got.tgz:57506.got - 2010.06.28 07:06:18.
