data_PCOD8136616
_publ_section_title
;
Structure prediction by ZEFSAII (Michael W. Deem and Ramdas Pophale) SiO2 
 PCOD8136616
Probable space group: C 2/C
;
_chemical_formula_sum "Si O2"
_cell_formula_units_Z 60
_cell_length_a 23.199219
_cell_length_b 20.652027
_cell_length_c 11.312119
_cell_angle_alpha 90.000000
_cell_angle_beta 29.186311
_cell_angle_gamma 90.000000
_cell_volume 2642.951610
_symmetry_space_group_name_H-M "C 2/C"
_symmetry_group_IT_number 15
_symmetry_cell_setting 'monoclinic'
loop_
_space_group_symop_operation_xyz
x,y,z
-x,y,1/2-z
-x,-y,-z
x,-y,1/2+z
1/2+x,1/2+y,z
1/2-x,1/2+y,1/2-z
1/2-x,1/2-y,-z
1/2+x,1/2-y,1/2+z
loop_
_atom_site_type_symbol
_atom_site_label
_atom_site_fract_x
_atom_site_fract_y
_atom_site_fract_z
Si Si1 0.175446 0.482154 0.641487
Si Si2 0.687146 0.238548 0.940828
Si Si3 0.973167 0.134136 0.541676
Si Si4 0.500000 0.660340 0.750000
Si Si5 0.607138 0.534985 0.138693
Si Si6 0.005055 0.408629 0.381297
Si Si7 0.241206 0.603817 0.824685
Si Si8 0.572919 0.773256 0.899075
O O1 0.317123 0.484140 0.419096
O O2 0.156743 0.444065 0.550974
O O3 0.121532 0.554124 0.720574
O O4 0.111009 0.445261 0.863112
O O5 0.676715 0.168912 0.892080
O O6 0.820722 0.265855 0.696899
O O7 0.609687 0.293690 0.018258
O O8 0.636415 0.221257 0.160068
O O9 0.978655 0.116423 0.672057
O O10 0.056427 0.087089 0.319939
O O11 0.838127 0.128694 0.744572
O O12 0.010260 0.209028 0.451399
O O13 0.500000 0.505473 0.250000
O O14 0.705330 0.566846 0.880935
O O15 0.007080 0.335222 0.426262
O O16 0.000000 0.408604 0.250000
#
# Coordination Sequence:
#
# PCOD8136616 Si02
#       8
#     8   8   8   4   8   8   8   8
#     4  11  24  43  61  89 125 172 216 253 310 378
#     4   9  18  34  59  88 116 162 198 243 313 373
#     4   9  21  39  62  94 123 157 201 254 321 374
#     4  10  20  34  58 100 122 152 206 256 316 384
#     4  10  23  42  63  92 127 164 213 262 314 369
#     4  11  24  40  62  92 124 165 213 263 310 369
#     4  10  20  42  64  83 124 171 205 252 311 376
#     4   9  18  37  60  81 122 156 199 250 310 367
#
# _framework density 22.701891
#
# number of rings (size 3 to 8) (size 9 to 14) (size 15 to 20)
#    0.000    2.133    1.333    1.600    0.000    8.000 
#    4.800    1.333    0.000    0.000    0.000    0.000 
#    0.000    0.000    0.000    0.000    0.000    0.000 
#
# Total GULP energy -371842.737391 kJ/mol
# GULP energy per Si atom -12394.757913 kJ/mol
# Density = 2.265022 g / cm^3
# Si number density = 22.701891 Si / 1000 Ang^3
#
#
#
# Elastic Constant Matrix: (Units=GPa)
#
#
# Indices 1 2 3 4 5 6 
#
# 1 69.1322 7.6562 13.1094 -0.0001 6.6136 0.0001
# 2 7.6562 72.9314 11.7213 0.0000 1.0271 0.0000
# 3 13.1094 11.7213 70.6495 -0.0001 6.8413 0.0002
# 4 -0.0001 0.0000 -0.0001 34.4753 0.0001 0.1925
# 5 6.6136 1.0271 6.8413 0.0001 35.7315 -0.0002
# 6 0.0001 0.0000 0.0002 0.1925 -0.0002 19.9646
#
#
#
# Elastic Compliance Matrix: (Units=1/GPa)
#
#
# Indices 1 2 3 4 5 6 
#
# 1 0.015277 -0.001183 -0.002413 0.000000 -0.002332 0.000000
# 2 -0.001183 0.014179 -0.002155 0.000000 0.000224 0.000000
# 3 -0.002413 -0.002155 0.015192 0.000000 -0.002400 0.000000
# 4 0.000000 0.000000 0.000000 0.029008 0.000000 -0.000280
# 5 -0.002332 0.000224 -0.002400 0.000000 0.028871 0.000000
# 6 0.000000 0.000000 0.000000 -0.000280 0.000000 0.050091
#
#
# Mechanical properties :
#
#
# Convention : Reuss Voigt Hill
#
# Bulk Modulus (GPa) = 30.16874 30.85410 30.51142
# Shear Modulus (GPa) = 28.54413 30.04935 29.29674
#
# Velocity S-wave (km/s) = 3.54975 3.64215 3.59625
# Velocity P-wave (km/s) = 5.48807 5.59531 5.54195
#
# Compressibility (1/GPa) = 0.03314689
#
# Stress axis : x y z
#
# Youngs Moduli (GPa) = 65.45951 70.52769 65.82439
#
# Poissons Ratio (x) = 0.08344 0.15881
# Poissons Ratio (y) = 0.07745 0.14182
# Poissons Ratio (z) = 0.15793 0.15195
#
# Static dielectric constant tensor:
#      x y z
#    x 3.996790 0.000000 -0.080510 
#    y 0.000000 4.354020 0.000000 
#    z -0.080510 0.000000 3.907190 
# 
# 
# High freq. dielectric constant tensor:
#      x y z
#    x 1.883950 0.000000 0.002320 
#    y 0.000000 1.908000 0.000000 
#    z 0.002320 0.000000 1.878400 
# 
# From -- ./inp_files/119954.got.cif
#   From: 2010.06.25/outbox.cif.g09.slc.cpg/sg15_60_cif.got.tgz:119954.got - 2010.06.28 07:06:18.
