data_PCOD8136377
_publ_section_title
;
Structure prediction by ZEFSAII (Michael W. Deem and Ramdas Pophale) SiO2 
 PCOD8136377
Probable space group: C 2/C
;
_chemical_formula_sum "Si O2"
_cell_formula_units_Z 56
_cell_length_a 11.888339
_cell_length_b 19.670343
_cell_length_c 12.116643
_cell_angle_alpha 90.000000
_cell_angle_beta 112.472263
_cell_angle_gamma 90.000000
_cell_volume 2618.290304
_symmetry_space_group_name_H-M "C 2/C"
_symmetry_group_IT_number 15
_symmetry_cell_setting 'monoclinic'
loop_
_space_group_symop_operation_xyz
x,y,z
-x,y,1/2-z
-x,-y,-z
x,-y,1/2+z
1/2+x,1/2+y,z
1/2-x,1/2+y,1/2-z
1/2-x,1/2-y,-z
1/2+x,1/2-y,1/2+z
loop_
_atom_site_type_symbol
_atom_site_label
_atom_site_fract_x
_atom_site_fract_y
_atom_site_fract_z
Si Si1 0.140502 0.714641 0.319919
Si Si2 0.743514 0.854994 0.463058
Si Si3 0.945302 0.236647 0.113467
Si Si4 0.162595 0.687577 0.580653
Si Si5 0.414300 0.057149 0.017826
Si Si6 0.854570 0.523252 0.691880
Si Si7 0.342901 0.901155 0.833400
O O1 0.175639 0.690800 0.454179
O O2 0.214601 0.783929 0.318002
O O3 0.202092 0.658171 0.263449
O O4 0.000000 0.731392 0.250000
O O5 0.881626 0.826920 0.526049
O O6 0.655704 0.793160 0.398895
O O7 0.726033 0.908794 0.356094
O O8 0.708464 0.892254 0.563686
O O9 0.000000 0.210927 0.250000
O O10 0.046939 0.268576 0.073788
O O11 0.149330 0.605451 0.599881
O O12 0.509935 0.107876 0.115441
O O13 0.325318 0.025214 0.074950
O O14 0.500000 0.000000 0.000000
O O15 0.810749 0.478925 0.781600
O O16 0.000000 0.540158 0.750000
#
# Coordination Sequence:
#
# PCOD8136377 Si02
#       7
#     8   8   8   8   8   8   8
#     4  11  20  37  61  91 116 156 200 251 314 373
#     4  11  22  38  60  87 128 163 205 261 307 372
#     4  11  23  39  58  87 124 169 206 249 311 373
#     4  11  22  36  61  89 121 154 203 256 304 365
#     4  11  18  33  57  87 121 149 193 258 305 348
#     4  10  20  33  58  91 120 159 208 259 316 362
#     4  11  19  36  59  85 125 156 204 255 317 361
#
# _framework density 21.388003000000001
#
# number of rings (size 3 to 8) (size 9 to 14) (size 15 to 20)
#    0.000    1.143    5.714    1.714    0.000    2.286 
#    0.000    0.000    0.000    4.286    0.000    0.000 
#    0.000    0.000    0.000    0.000    0.000    0.000 
#
# Total GULP energy -346979.265522 kJ/mol
# GULP energy per Si atom -12392.116626 kJ/mol
# Density = 2.133932 g / cm^3
# Si number density = 21.388003 Si / 1000 Ang^3
#
#
#
# Elastic Constant Matrix: (Units=GPa)
#
#
# Indices 1 2 3 4 5 6 
#
# 1 46.1666 31.3810 8.5913 0.0000 19.6932 0.0000
# 2 31.3810 140.6755 35.5929 0.0000 29.8489 0.0000
# 3 8.5913 35.5929 75.6234 0.0000 16.6838 0.0000
# 4 0.0000 0.0000 0.0000 44.2298 0.0000 10.3363
# 5 19.6932 29.8489 16.6838 0.0000 25.8491 0.0000
# 6 0.0000 0.0000 0.0000 10.3363 0.0000 29.3212
#
#
#
# Elastic Compliance Matrix: (Units=1/GPa)
#
#
# Indices 1 2 3 4 5 6 
#
# 1 0.033351 -0.003161 0.002914 0.000000 -0.023639 0.000000
# 2 -0.003161 0.010094 -0.002742 0.000000 -0.007478 0.000000
# 3 0.002914 -0.002742 0.016294 0.000000 -0.009571 0.000000
# 4 0.000000 0.000000 0.000000 0.024639 0.000000 -0.008686
# 5 -0.023639 -0.007478 -0.009571 0.000000 0.071508 0.000000
# 6 0.000000 0.000000 0.000000 -0.008686 0.000000 0.037167
#
#
# Mechanical properties :
#
#
# Convention : Reuss Voigt Hill
#
# Bulk Modulus (GPa) = 18.60086 45.95513 32.27800
# Shear Modulus (GPa) = 23.04664 32.34005 27.69335
#
# Velocity S-wave (km/s) = 3.28617 3.89275 3.60225
# Velocity P-wave (km/s) = 4.80773 6.46047 5.69438
#
# Compressibility (1/GPa) = 0.05376094
#
# Stress axis : x y z
#
# Youngs Moduli (GPa) = 29.98437 99.06659 61.37087
#
# Poissons Ratio (x) = 0.31317 -0.17884
# Poissons Ratio (y) = 0.09479 0.16828
# Poissons Ratio (z) = -0.08738 0.27165
#
# Static dielectric constant tensor:
#      x y z
#    x 3.618750 0.000000 0.122780 
#    y 0.000000 4.581400 0.000000 
#    z 0.122780 0.000000 4.315560 
# 
# 
# High freq. dielectric constant tensor:
#      x y z
#    x 1.781350 0.000000 -0.014830 
#    y 0.000000 1.851910 0.000000 
#    z -0.014830 0.000000 1.855240 
# 
# From -- ./inp_files/89657.got.cif
#   From: 2010.06.25/outbox.cif.g09.slc.cpg/sg15_45_cif.got.tgz:89657.got - 2010.06.28 07:06:18.
