data_PCOD8136059
_publ_section_title
;
Structure prediction by ZEFSAII (Michael W. Deem and Ramdas Pophale) SiO2 
 PCOD8136059
Probable space group: C 2/C
;
_chemical_formula_sum "Si O2"
_cell_formula_units_Z 60
_cell_length_a 17.355488
_cell_length_b 18.976050
_cell_length_c 8.565829
_cell_angle_alpha 90.000000
_cell_angle_beta 103.957844
_cell_angle_gamma 90.000000
_cell_volume 2737.762113
_symmetry_space_group_name_H-M "C 2/C"
_symmetry_group_IT_number 15
_symmetry_cell_setting 'monoclinic'
loop_
_space_group_symop_operation_xyz
x,y,z
-x,y,1/2-z
-x,-y,-z
x,-y,1/2+z
1/2+x,1/2+y,z
1/2-x,1/2+y,1/2-z
1/2-x,1/2-y,-z
1/2+x,1/2-y,1/2+z
loop_
_atom_site_type_symbol
_atom_site_label
_atom_site_fract_x
_atom_site_fract_y
_atom_site_fract_z
Si Si1 0.251806 0.903018 0.339734
Si Si2 0.783985 0.462832 0.691660
Si Si3 0.743137 0.672731 0.345174
Si Si4 0.577266 0.713485 0.363009
Si Si5 0.637971 0.853833 0.344149
Si Si6 0.000000 0.683788 0.250000
Si Si7 0.362561 0.278581 0.267339
Si Si8 0.560459 0.061834 0.065774
O O1 0.270852 0.941772 0.508005
O O2 0.334206 0.866956 0.320142
O O3 0.176218 0.850453 0.321599
O O4 0.237831 0.963444 0.200677
O O5 0.747448 0.406175 0.788372
O O6 0.878394 0.467288 0.774515
O O7 0.651008 0.687406 0.299549
O O8 0.782076 0.679350 0.536192
O O9 0.790047 0.724788 0.253416
O O10 0.500000 0.675889 0.250000
O O11 0.568631 0.796634 0.321434
O O12 0.588590 0.700194 0.552717
O O13 0.607429 0.921468 0.427106
O O14 0.075494 0.736708 0.315170
O O15 0.017700 0.633244 0.109285
O O16 0.500000 0.000000 0.000000
#
# Coordination Sequence:
#
# PCOD8136059 Si02
#       8
#     8   8   8   8   8   4   8   8
#     4  12  25  44  71 102 137 192 250 292 357 434
#     4  11  26  43  69 105 137 190 243 295 359 448
#     4  10  19  45  68  98 135 184 236 292 361 440
#     4  11  21  37  67 104 131 175 232 296 360 424
#     4  10  20  43  67  95 141 190 226 269 360 442
#     4  12  24  44  74 110 148 186 258 290 372 428
#     4  11  23  44  73  97 147 194 240 312 352 435
#     4  11  26  45  68 103 157 189 218 297 369 450
#
# _framework density 21.915709
#
# number of rings (size 3 to 8) (size 9 to 14) (size 15 to 20)
#    0.000    1.067    6.667    2.400    3.733    3.733 
#    0.000    0.667    1.467    1.600    0.000    0.000 
#    0.000    0.000    0.000    0.000    0.000    0.000 
#
# Total GULP energy -371772.837309 kJ/mol
# GULP energy per Si atom -12392.427910 kJ/mol
# Density = 2.186583 g / cm^3
# Si number density = 21.915709 Si / 1000 Ang^3
#
#
#
# Elastic Constant Matrix: (Units=GPa)
#
#
# Indices 1 2 3 4 5 6 
#
# 1 140.4790 53.6910 44.0180 0.0000 16.6126 0.0000
# 2 53.6910 118.3117 35.0983 0.0000 11.7862 0.0000
# 3 44.0180 35.0983 63.8227 0.0000 8.8673 0.0000
# 4 0.0000 0.0000 0.0000 26.9222 0.0000 -0.2076
# 5 16.6126 11.7862 8.8673 0.0000 28.9607 0.0000
# 6 0.0000 0.0000 0.0000 -0.2076 0.0000 41.8866
#
#
#
# Elastic Compliance Matrix: (Units=1/GPa)
#
#
# Indices 1 2 3 4 5 6 
#
# 1 0.010129 -0.002797 -0.005012 0.000000 -0.003137 0.000000
# 2 -0.002797 0.011051 -0.003913 0.000000 -0.001695 0.000000
# 3 -0.005012 -0.003913 0.021574 0.000000 -0.002138 0.000000
# 4 0.000000 0.000000 0.000000 0.037145 0.000000 0.000184
# 5 -0.003137 -0.001695 -0.002138 0.000000 0.037674 0.000000
# 6 0.000000 0.000000 0.000000 0.000184 0.000000 0.023875
#
#
# Mechanical properties :
#
#
# Convention : Reuss Voigt Hill
#
# Bulk Modulus (GPa) = 51.78489 65.35866 58.57178
# Shear Modulus (GPa) = 29.18372 32.20764 30.69568
#
# Velocity S-wave (km/s) = 3.65312 3.83771 3.74655
# Velocity P-wave (km/s) = 6.44004 7.03739 6.74533
#
# Compressibility (1/GPa) = 0.01931065
#
# Stress axis : x y z
#
# Youngs Moduli (GPa) = 98.72629 90.48712 46.35272
#
# Poissons Ratio (x) = 0.25312 0.23230
# Poissons Ratio (y) = 0.27617 0.18136
# Poissons Ratio (z) = 0.49478 0.35405
#
# Static dielectric constant tensor:
#      x y z
#    x 3.982870 0.000000 -0.093290 
#    y 0.000000 4.185080 0.000000 
#    z -0.093290 0.000000 3.843330 
# 
# 
# High freq. dielectric constant tensor:
#      x y z
#    x 1.852590 0.000000 -0.011800 
#    y 0.000000 1.864790 0.000000 
#    z -0.011800 0.000000 1.846450 
# 
# From -- ./inp_files/50299.got.cif
#   From: 2010.06.25/outbox.cif.g09.slc.cpg/sg15_26_cif.got.tgz:50299.got - 2010.06.28 07:06:18.
