data_PCOD8136411
_publ_section_title
;
Structure prediction by ZEFSAII (Michael W. Deem and Ramdas Pophale) SiO2 
 PCOD8136411
Probable space group: C 2/C
;
_chemical_formula_sum "Si O2"
_cell_formula_units_Z 40
_cell_length_a 24.008209
_cell_length_b 11.828415
_cell_length_c 9.146483
_cell_angle_alpha 90.000000
_cell_angle_beta 52.608435
_cell_angle_gamma 90.000000
_cell_volume 2063.652423
_symmetry_space_group_name_H-M "C 2/C"
_symmetry_group_IT_number 15
_symmetry_cell_setting 'monoclinic'
loop_
_space_group_symop_operation_xyz
x,y,z
-x,y,1/2-z
-x,-y,-z
x,-y,1/2+z
1/2+x,1/2+y,z
1/2-x,1/2+y,1/2-z
1/2-x,1/2-y,-z
1/2+x,1/2-y,1/2+z
loop_
_atom_site_type_symbol
_atom_site_label
_atom_site_fract_x
_atom_site_fract_y
_atom_site_fract_z
Si Si1 0.277838 0.315583 0.685121
Si Si2 0.190116 0.495736 0.936807
Si Si3 0.005558 0.619393 0.412769
Si Si4 0.157830 0.708386 0.171170
Si Si5 0.860789 0.356569 0.229341
O O1 0.265546 0.442926 0.766497
O O2 0.201224 0.270185 0.750388
O O3 0.333508 0.310934 0.460929
O O4 0.303406 0.237079 0.778066
O O5 0.146860 0.531246 0.861465
O O6 0.198471 0.603896 0.026792
O O7 0.148623 0.396160 0.088904
O O8 0.939211 0.692432 0.577091
O O9 0.000000 0.599031 0.250000
O O10 0.000000 0.500000 0.500000
O O11 0.076855 0.686117 0.336027
#
# Coordination Sequence:
#
# PCOD8136411 Si02
#       5
#     8   8   8   8   8
#     4  10  20  34  49  76 112 142 179 217 254 327
#     4  11  18  34  51  77 112 138 176 216 263 318
#     4  12  19  33  53  80 110 139 167 213 275 330
#     4  10  21  33  53  78 112 140 175 218 274 309
#     4  11  21  33  55  82 109 142 175 214 273 320
#
# _framework density 19.383109999999999
#
# number of rings (size 3 to 8) (size 9 to 14) (size 15 to 20)
#    0.000    1.200    8.000    0.600    0.000    0.000 
#    0.000    0.000    0.000    0.000    0.000   22.400 
#    0.000    0.000    0.000    0.000    0.000    0.000 
#
# Total GULP energy -247765.158649 kJ/mol
# GULP energy per Si atom -12388.257932 kJ/mol
# Density = 1.933899 g / cm^3
# Si number density = 19.383110 Si / 1000 Ang^3
#
#
#
# Elastic Constant Matrix: (Units=GPa)
#
#
# Indices 1 2 3 4 5 6 
#
# 1 65.9016 17.3636 27.9982 0.0000 -24.0067 0.0000
# 2 17.3636 48.6387 40.7690 0.0000 -16.2627 0.0000
# 3 27.9982 40.7690 101.4346 0.0000 -25.7178 0.0000
# 4 0.0000 0.0000 0.0000 37.4681 0.0000 1.7877
# 5 -24.0067 -16.2627 -25.7178 0.0000 35.4534 0.0000
# 6 0.0000 0.0000 0.0000 1.7877 0.0000 21.3885
#
#
#
# Elastic Compliance Matrix: (Units=1/GPa)
#
#
# Indices 1 2 3 4 5 6 
#
# 1 0.020804 -0.001774 -0.002039 0.000000 0.011794 0.000000
# 2 -0.001774 0.032369 -0.011102 0.000000 0.005593 0.000000
# 3 -0.002039 -0.011102 0.016227 0.000000 0.005298 0.000000
# 4 0.000000 0.000000 0.000000 0.026796 0.000000 -0.002240
# 5 0.011794 0.005593 0.005298 0.000000 0.042601 0.000000
# 6 0.000000 0.000000 0.000000 -0.002240 0.000000 0.046941
#
#
# Mechanical properties :
#
#
# Convention : Reuss Voigt Hill
#
# Bulk Modulus (GPa) = 25.27212 43.13739 34.20476
# Shear Modulus (GPa) = 21.85706 27.51827 24.68767
#
# Velocity S-wave (km/s) = 3.36167 3.77198 3.57272
# Velocity P-wave (km/s) = 5.30418 6.42448 5.89102
#
# Compressibility (1/GPa) = 0.03956929
#
# Stress axis : x y z
#
# Youngs Moduli (GPa) = 48.06674 30.89378 61.62692
#
# Poissons Ratio (x) = 0.05482 0.12565
# Poissons Ratio (y) = 0.08529 0.68418
# Poissons Ratio (z) = 0.09800 0.34298
#
# Static dielectric constant tensor:
#      x y z
#    x 3.649590 0.000000 0.017580 
#    y 0.000000 3.331410 0.000000 
#    z 0.017580 0.000000 3.968300 
# 
# 
# High freq. dielectric constant tensor:
#      x y z
#    x 1.757810 0.000000 0.015630 
#    y 0.000000 1.701770 0.000000 
#    z 0.015630 0.000000 1.759550 
# 
# From -- ./inp_files/122359.got.cif
#   From: 2010.06.25/outbox.cif.g09.slc.cpg/sg15_62_cif.got.tgz:122359.got - 2010.06.28 07:06:18.
