data_PCOD8136778
_publ_section_title
;
Structure prediction by ZEFSAII (Michael W. Deem and Ramdas Pophale) SiO2 
 PCOD8136778
Probable space group: C 2/C
;
_chemical_formula_sum "Si O2"
_cell_formula_units_Z 44
_cell_length_a 12.221887
_cell_length_b 20.547128
_cell_length_c 12.446911
_cell_angle_alpha 90.000000
_cell_angle_beta 46.825251
_cell_angle_gamma 90.000000
_cell_volume 2279.499332
_symmetry_space_group_name_H-M "C 2/C"
_symmetry_group_IT_number 15
_symmetry_cell_setting 'monoclinic'
loop_
_space_group_symop_operation_xyz
x,y,z
-x,y,1/2-z
-x,-y,-z
x,-y,1/2+z
1/2+x,1/2+y,z
1/2-x,1/2+y,1/2-z
1/2-x,1/2-y,-z
1/2+x,1/2-y,1/2+z
loop_
_atom_site_type_symbol
_atom_site_label
_atom_site_fract_x
_atom_site_fract_y
_atom_site_fract_z
Si Si1 0.921926 0.252172 0.408295
Si Si2 0.500000 0.814558 0.750000
Si Si3 0.091965 0.794416 0.353652
Si Si4 0.669130 0.079076 0.014995
Si Si5 0.000000 0.893627 0.250000
Si Si6 0.897999 0.630511 0.661100
Si Si7 0.500000 0.030428 0.750000
O O1 0.750000 0.250000 0.500000
O O2 0.969783 0.213604 0.483967
O O3 0.000000 0.222104 0.250000
O O4 0.956773 0.328237 0.403028
O O5 0.428173 0.771483 0.702476
O O6 0.362656 0.859990 0.883808
O O7 0.264168 0.816857 0.245844
O O8 0.999053 0.850776 0.358449
O O9 0.606790 0.012311 0.103097
O O10 0.578446 0.095693 0.968249
O O11 0.845232 0.066508 0.867308
O O12 0.883222 0.573491 0.759084
#
# Coordination Sequence:
#
# PCOD8136778 Si02
#       7
#     8   4   8   8   4   8   4
#     4  12  22  35  56  86 124 158 187 232 295 370
#     4  10  20  34  64  96 118 151 199 246 298 366
#     4  10  21  36  61  90 126 150 191 246 307 359
#     4  10  22  38  61  90 115 157 205 248 295 342
#     4   9  22  37  62  90 121 150 191 260 308 333
#     4  11  21  39  61  85 120 159 197 247 296 349
#     4  11  22  41  62  78 115 165 216 238 280 355
#
# _framework density 19.302484
#
# number of rings (size 3 to 8) (size 9 to 14) (size 15 to 20)
#    0.000    1.455    4.545    0.545    2.545    2.182 
#    0.000    3.636    8.000    0.000    0.000    0.000 
#    0.000    0.000    0.000    0.000    0.000    0.000 
#
# Total GULP energy -272655.185791 kJ/mol
# GULP energy per Si atom -12393.417536 kJ/mol
# Density = 1.925855 g / cm^3
# Si number density = 19.302484 Si / 1000 Ang^3
#
#
#
# Elastic Constant Matrix: (Units=GPa)
#
#
# Indices 1 2 3 4 5 6 
#
# 1 108.7811 50.4776 61.7596 0.0000 9.6533 0.0000
# 2 50.4776 85.8631 41.0270 0.0000 0.2534 0.0000
# 3 61.7596 41.0270 128.3499 0.0000 14.5805 0.0000
# 4 0.0000 0.0000 0.0000 24.7883 0.0000 13.2908
# 5 9.6533 0.2534 14.5805 0.0000 47.5839 0.0000
# 6 0.0000 0.0000 0.0000 13.2908 0.0000 26.5277
#
#
#
# Elastic Compliance Matrix: (Units=1/GPa)
#
#
# Indices 1 2 3 4 5 6 
#
# 1 0.015236 -0.006528 -0.005074 0.000000 -0.001501 0.000000
# 2 -0.006528 0.016623 -0.002396 0.000000 0.001970 0.000000
# 3 -0.005074 -0.002396 0.011273 0.000000 -0.002412 0.000000
# 4 0.000000 0.000000 0.000000 0.055159 0.000000 -0.027636
# 5 -0.001501 0.001970 -0.002412 0.000000 0.022049 0.000000
# 6 0.000000 0.000000 0.000000 -0.027636 0.000000 0.051542
#
#
# Mechanical properties :
#
#
# Convention : Reuss Voigt Hill
#
# Bulk Modulus (GPa) = 66.07068 69.94694 68.00881
# Shear Modulus (GPa) = 24.39930 31.09531 27.74731
#
# Velocity S-wave (km/s) = 3.55920 4.01802 3.79555
# Velocity P-wave (km/s) = 7.15500 7.60539 7.38363
#
# Compressibility (1/GPa) = 0.01513531
#
# Stress axis : x y z
#
# Youngs Moduli (GPa) = 65.63431 60.15630 88.71009
#
# Poissons Ratio (x) = 0.39271 0.45011
# Poissons Ratio (y) = 0.42847 0.21257
# Poissons Ratio (z) = 0.33303 0.14415
#
# Static dielectric constant tensor:
#      x y z
#    x 3.782800 0.000000 0.285020 
#    y 0.000000 3.455530 0.000000 
#    z 0.285020 0.000000 3.561980 
# 
# 
# High freq. dielectric constant tensor:
#      x y z
#    x 1.764750 0.000000 0.020130 
#    y 0.000000 1.731490 0.000000 
#    z 0.020130 0.000000 1.751700 
# 
# From -- ./inp_files/30777.got.cif
#   From: 2010.06.25/outbox.cif.g09.slc.cpg/sg15_16_cif.got.tgz:30777.got - 2010.06.28 07:06:18.
