data_PCOD8136844
_publ_section_title
;
Structure prediction by ZEFSAII (Michael W. Deem and Ramdas Pophale) SiO2 
 PCOD8136844
Probable space group: C 2/C
;
_chemical_formula_sum "Si O2"
_cell_formula_units_Z 56
_cell_length_a 10.409918
_cell_length_b 9.818567
_cell_length_c 28.244462
_cell_angle_alpha 90.000000
_cell_angle_beta 112.003427
_cell_angle_gamma 90.000000
_cell_volume 2676.603785
_symmetry_space_group_name_H-M "C 2/C"
_symmetry_group_IT_number 15
_symmetry_cell_setting 'monoclinic'
loop_
_space_group_symop_operation_xyz
x,y,z
-x,y,1/2-z
-x,-y,-z
x,-y,1/2+z
1/2+x,1/2+y,z
1/2-x,1/2+y,1/2-z
1/2-x,1/2-y,-z
1/2+x,1/2-y,1/2+z
loop_
_atom_site_type_symbol
_atom_site_label
_atom_site_fract_x
_atom_site_fract_y
_atom_site_fract_z
Si Si1 0.886945 0.212773 0.774290
Si Si2 0.011941 0.761554 0.110447
Si Si3 0.809009 0.551956 0.508379
Si Si4 0.061242 0.188752 0.515827
Si Si5 0.197987 0.299874 0.059406
Si Si6 0.611667 0.965268 0.226022
Si Si7 0.455001 0.039173 0.886893
O O1 0.750453 0.122824 0.749282
O O2 0.851896 0.373770 0.766399
O O3 0.000000 0.173734 0.750000
O O4 0.947399 0.170079 0.834191
O O5 0.847272 0.733767 0.086062
O O6 0.054820 0.851149 0.070678
O O7 0.089426 0.618013 0.115917
O O8 0.870793 0.660857 0.479772
O O9 0.650009 0.579574 0.499298
O O10 0.815100 0.404774 0.485964
O O11 0.896659 0.563659 0.568612
O O12 0.910329 0.182239 0.470056
O O13 0.162289 0.371018 0.104074
O O14 0.500000 0.924218 0.250000
O O15 0.537185 0.921730 0.167020
#
# Coordination Sequence:
#
# PCOD8136844 Si02
#       7
#     8   8   8   8   8   8   8
#     4  10  23  44  63  91 125 157 206 264 312 361
#     4  11  21  36  63  84 113 157 197 237 297 358
#     4  10  20  35  57  82 121 154 187 237 287 349
#     4  10  20  35  54  85 118 152 193 234 278 351
#     4  11  20  38  56  85 119 155 190 230 295 351
#     4  10  23  42  65  91 120 158 208 261 311 365
#     4  10  20  39  60  80 117 156 191 243 300 347
#
# _framework density 20.922035999999999
#
# number of rings (size 3 to 8) (size 9 to 14) (size 15 to 20)
#    0.000    1.714    2.857    2.143    2.000    1.143 
#    0.000    4.286    0.000    0.000    0.000    0.000 
#    0.000    0.000    0.000    0.000    0.000    0.000 
#
# Total GULP energy -347160.795665 kJ/mol
# GULP energy per Si atom -12398.599845 kJ/mol
# Density = 2.087442 g / cm^3
# Si number density = 20.922036 Si / 1000 Ang^3
#
#
#
# Elastic Constant Matrix: (Units=GPa)
#
#
# Indices 1 2 3 4 5 6 
#
# 1 119.4080 32.5713 70.9815 0.0000 -3.0298 0.0000
# 2 32.5713 49.2815 25.0994 0.0000 0.6468 0.0000
# 3 70.9815 25.0994 156.9748 0.0000 -21.3777 0.0000
# 4 0.0000 0.0000 0.0000 14.3747 0.0000 4.4426
# 5 -3.0298 0.6468 -21.3777 0.0000 28.2531 0.0000
# 6 0.0000 0.0000 0.0000 4.4426 0.0000 29.1781
#
#
#
# Elastic Compliance Matrix: (Units=1/GPa)
#
#
# Indices 1 2 3 4 5 6 
#
# 1 0.013078 -0.005908 -0.005306 0.000000 -0.002477 0.000000
# 2 -0.005908 0.025083 -0.001676 0.000000 -0.002476 0.000000
# 3 -0.005306 -0.001676 0.009996 0.000000 0.007032 0.000000
# 4 0.000000 0.000000 0.000000 0.073002 0.000000 -0.011115
# 5 -0.002477 -0.002476 0.007032 0.000000 0.040507 0.000000
# 6 0.000000 0.000000 0.000000 -0.011115 0.000000 0.035965
#
#
# Mechanical properties :
#
#
# Convention : Reuss Voigt Hill
#
# Bulk Modulus (GPa) = 44.69345 64.77431 54.73388
# Shear Modulus (GPa) = 21.65736 27.49530 24.57633
#
# Velocity S-wave (km/s) = 3.22086 3.62909 3.43105
# Velocity P-wave (km/s) = 5.93634 6.97047 6.47409
#
# Compressibility (1/GPa) = 0.02237464
#
# Stress axis : x y z
#
# Youngs Moduli (GPa) = 76.46634 39.86807 100.04471
#
# Poissons Ratio (x) = 0.23555 0.53085
# Poissons Ratio (y) = 0.45179 0.16769
# Poissons Ratio (z) = 0.40574 0.06682
#
# Static dielectric constant tensor:
#      x y z
#    x 3.914460 0.000000 -0.192040 
#    y 0.000000 3.560260 0.000000 
#    z -0.192040 0.000000 3.973230 
# 
# 
# High freq. dielectric constant tensor:
#      x y z
#    x 1.827540 0.000000 -0.012300 
#    y 0.000000 1.803820 0.000000 
#    z -0.012300 0.000000 1.823180 
# 
# From -- ./inp_files/292060.got.cif
#   From: 2010.06.25/outbox.cif.g09.slc.cpg/sg15_147_cif.got.tgz:292060.got - 2010.06.28 07:06:18.
