data_PCOD8136406
_publ_section_title
;
Structure prediction by ZEFSAII (Michael W. Deem and Ramdas Pophale) SiO2 
 PCOD8136406
Probable space group: C 2/C
;
_chemical_formula_sum "Si O2"
_cell_formula_units_Z 60
_cell_length_a 5.050887
_cell_length_b 31.065752
_cell_length_c 19.445093
_cell_angle_alpha 90.000000
_cell_angle_beta 89.216406
_cell_angle_gamma 90.000000
_cell_volume 3050.836483
_symmetry_space_group_name_H-M "C 2/C"
_symmetry_group_IT_number 15
_symmetry_cell_setting 'monoclinic'
loop_
_space_group_symop_operation_xyz
x,y,z
-x,y,1/2-z
-x,-y,-z
x,-y,1/2+z
1/2+x,1/2+y,z
1/2-x,1/2+y,1/2-z
1/2-x,1/2-y,-z
1/2+x,1/2-y,1/2+z
loop_
_atom_site_type_symbol
_atom_site_label
_atom_site_fract_x
_atom_site_fract_y
_atom_site_fract_z
Si Si1 0.145483 0.128440 0.530233
Si Si2 0.245586 0.963499 0.070265
Si Si3 0.897854 0.312885 0.835498
Si Si4 0.000000 0.851451 0.750000
Si Si5 0.739957 0.013056 0.089051
Si Si6 0.126025 0.772369 0.602118
Si Si7 0.817875 0.106207 0.121292
Si Si8 0.666964 0.184045 0.536886
O O1 0.222692 0.087996 0.577990
O O2 0.389838 0.160868 0.524674
O O3 0.055688 0.111500 0.454881
O O4 0.888999 0.151155 0.564470
O O5 0.500313 0.981445 0.109519
O O6 0.267800 0.975308 0.990659
O O7 0.001836 0.987085 0.107387
O O8 0.769481 0.321834 0.758489
O O9 0.666790 0.287780 0.878233
O O10 0.929791 0.360376 0.870799
O O11 0.166610 0.285446 0.838436
O O12 0.969316 0.880271 0.819489
O O13 0.723168 0.057207 0.133039
O O14 0.223244 0.795494 0.533077
O O15 0.121847 0.720979 0.593780
#
# Coordination Sequence:
#
# PCOD8136406 Si02
#       8
#     8   8   8   4   8   8   8   8
#     4  11  19  31  49  70 100 130 163 187 249 274
#     4   9  18  29  44  66  92 125 156 192 222 288
#     4  10  20  34  46  70  95 133 156 199 229 288
#     4   8  18  36  48  74  94 132 164 196 230 286
#     4   9  17  30  44  65  94 125 160 184 229 272
#     4  11  20  32  47  67  98 128 167 190 247 271
#     4   9  18  32  50  70  99 135 156 200 229 288
#     4  11  19  30  47  70  94 129 161 203 225 302
#
# _framework density 19.666737999999999
#
# number of rings (size 3 to 8) (size 9 to 14) (size 15 to 20)
#    0.800    1.333    2.667    1.600    0.000    6.933 
#    0.000    0.000    0.000    0.000    0.000    0.000 
#    0.000   21.333    0.000    0.000    0.000    0.000 
#
# Total GULP energy -371680.361489 kJ/mol
# GULP energy per Si atom -12389.345383 kJ/mol
# Density = 1.962198 g / cm^3
# Si number density = 19.666738 Si / 1000 Ang^3
#
#
#
# Elastic Constant Matrix: (Units=GPa)
#
#
# Indices 1 2 3 4 5 6 
#
# 1 83.2627 38.0058 12.0440 0.0000 17.2057 0.0000
# 2 38.0058 145.8922 44.6583 0.0000 7.8337 0.0000
# 3 12.0440 44.6583 50.1366 0.0000 7.5444 0.0000
# 4 0.0000 0.0000 0.0000 24.7290 0.0000 7.8609
# 5 17.2057 7.8337 7.5444 0.0000 16.6535 0.0000
# 6 0.0000 0.0000 0.0000 7.8609 0.0000 24.5881
#
#
#
# Elastic Compliance Matrix: (Units=1/GPa)
#
#
# Indices 1 2 3 4 5 6 
#
# 1 0.017053 -0.004209 0.002153 0.000000 -0.016614 0.000000
# 2 -0.004209 0.010470 -0.008830 0.000000 0.003424 0.000000
# 3 0.002153 -0.008830 0.028979 0.000000 -0.011199 0.000000
# 4 0.000000 0.000000 0.000000 0.045013 0.000000 -0.014391
# 5 -0.016614 0.003424 -0.011199 0.000000 0.080675 0.000000
# 6 0.000000 0.000000 0.000000 -0.014391 0.000000 0.045271
#
#
# Mechanical properties :
#
#
# Convention : Reuss Voigt Hill
#
# Bulk Modulus (GPa) = 28.79448 52.07863 40.43656
# Shear Modulus (GPa) = 19.17104 25.49968 22.33536
#
# Velocity S-wave (km/s) = 3.12556 3.60472 3.37366
# Velocity P-wave (km/s) = 5.26293 6.62295 5.98172
#
# Compressibility (1/GPa) = 0.03472888
#
# Stress axis : x y z
#
# Youngs Moduli (GPa) = 58.63946 95.51084 34.50812
#
# Poissons Ratio (x) = 0.40205 -0.07429
# Poissons Ratio (y) = 0.24684 0.30471
# Poissons Ratio (z) = -0.12624 0.84336
#
# Static dielectric constant tensor:
#      x y z
#    x 3.620670 0.000000 0.154600 
#    y 0.000000 3.848570 0.000000 
#    z 0.154600 0.000000 3.234550 
# 
# 
# High freq. dielectric constant tensor:
#      x y z
#    x 1.771420 0.000000 0.016700 
#    y 0.000000 1.768880 0.000000 
#    z 0.016700 0.000000 1.712820 
# 
# From -- ./inp_files/261948.got.cif
#   From: 2010.06.25/outbox.cif.g09.slc.cpg/sg15_131_cif.got.tgz:261948.got - 2010.06.28 07:06:18.
