data_PCOD8136124
_publ_section_title
;
Structure prediction by ZEFSAII (Michael W. Deem and Ramdas Pophale) SiO2 
 PCOD8136124
Probable space group: C 2/C
;
_chemical_formula_sum "Si O2"
_cell_formula_units_Z 60
_cell_length_a 14.241586
_cell_length_b 17.524300
_cell_length_c 28.875500
_cell_angle_alpha 90.000000
_cell_angle_beta 27.079283
_cell_angle_gamma 90.000000
_cell_volume 3280.595920
_symmetry_space_group_name_H-M "C 2/C"
_symmetry_group_IT_number 15
_symmetry_cell_setting 'monoclinic'
loop_
_space_group_symop_operation_xyz
x,y,z
-x,y,1/2-z
-x,-y,-z
x,-y,1/2+z
1/2+x,1/2+y,z
1/2-x,1/2+y,1/2-z
1/2-x,1/2-y,-z
1/2+x,1/2-y,1/2+z
loop_
_atom_site_type_symbol
_atom_site_label
_atom_site_fract_x
_atom_site_fract_y
_atom_site_fract_z
Si Si1 0.811376 0.798680 0.730178
Si Si2 0.699622 0.777899 0.358167
Si Si3 0.286687 0.220072 0.833016
Si Si4 0.694519 0.007087 0.947378
Si Si5 0.245307 0.832412 0.570960
Si Si6 0.583968 0.137174 0.064877
Si Si7 0.345524 0.287846 0.526741
Si Si8 0.500000 0.406390 0.250000
O O1 0.729483 0.771259 0.716639
O O2 0.778309 0.731980 0.781866
O O3 0.657168 0.867076 0.813914
O O4 0.053534 0.816034 0.621219
O O5 0.456476 0.795223 0.460374
O O6 0.762265 0.730558 0.376879
O O7 0.824634 0.856494 0.302116
O O8 0.500000 0.173533 0.750000
O O9 0.299329 0.299674 0.857665
O O10 0.073429 0.176338 0.938393
O O11 0.893990 0.041889 0.835192
O O12 0.748525 0.922240 0.936897
O O13 0.642302 0.057248 0.015771
O O14 0.500000 0.000000 0.000000
O O15 0.622872 0.205848 0.011794
O O16 0.719823 0.152080 0.051358
#
# Coordination Sequence:
#
# PCOD8136124 Si02
#       8
#     8   8   8   8   8   8   8   4
#     4  10  20  31  57  75 110 146 188 226 279 322
#     4  11  20  36  52  84 109 140 188 236 275 318
#     4   8  16  30  50  75 104 146 175 222 275 328
#     4  12  23  37  54  81 120 149 176 219 278 350
#     4  10  21  36  52  80 116 149 179 221 279 344
#     4  10  20  34  52  79 109 149 178 224 278 329
#     4   9  17  33  50  74 113 134 186 231 270 319
#     4  12  24  32  56  82 112 148 176 228 282 332
#
# _framework density 18.289359999999999
#
# number of rings (size 3 to 8) (size 9 to 14) (size 15 to 20)
#    0.000    1.867    2.667    2.800    8.400    0.000 
#    0.000    0.000    0.000    0.800    0.000    0.000 
#    0.000    0.000    0.000    0.000    0.000    0.000 
#
# Total GULP energy -371692.462254 kJ/mol
# GULP energy per Si atom -12389.748742 kJ/mol
# Density = 1.824773 g / cm^3
# Si number density = 18.289360 Si / 1000 Ang^3
#
#
#
# Elastic Constant Matrix: (Units=GPa)
#
#
# Indices 1 2 3 4 5 6 
#
# 1 99.1275 25.5793 30.8747 -0.0106 5.7557 -0.0015
# 2 25.5793 48.2362 16.5431 -0.0572 11.1752 0.0186
# 3 30.8747 16.5431 82.9555 -0.0879 3.1229 0.0048
# 4 -0.0106 -0.0572 -0.0879 18.6935 0.0363 3.6382
# 5 5.7557 11.1752 3.1229 0.0363 38.9923 -0.0095
# 6 -0.0015 0.0186 0.0048 3.6382 -0.0095 13.6078
#
#
#
# Elastic Compliance Matrix: (Units=1/GPa)
#
#
# Indices 1 2 3 4 5 6 
#
# 1 0.012620 -0.005452 -0.003609 -0.000030 -0.000011 0.000018
# 2 -0.005452 0.026124 -0.002938 0.000088 -0.006447 -0.000063
# 3 -0.003609 -0.002938 0.013974 0.000057 0.000255 -0.000016
# 4 -0.000030 0.000088 0.000057 0.056432 -0.000082 -0.015088
# 5 -0.000011 -0.006447 0.000255 -0.000082 0.027475 0.000050
# 6 0.000018 -0.000063 -0.000016 -0.015088 0.000050 0.077521
#
#
# Mechanical properties :
#
#
# Convention : Reuss Voigt Hill
#
# Bulk Modulus (GPa) = 34.81886 41.81261 38.31574
# Shear Modulus (GPa) = 20.18437 24.74687 22.46562
#
# Velocity S-wave (km/s) = 3.32567 3.68241 3.50858
# Velocity P-wave (km/s) = 5.81600 6.40246 6.11626
#
# Compressibility (1/GPa) = 0.02872007
#
# Stress axis : x y z
#
# Youngs Moduli (GPa) = 79.24176 38.27953 71.56021
#
# Poissons Ratio (x) = 0.20869 0.25828
# Poissons Ratio (y) = 0.43200 0.21023
# Poissons Ratio (z) = 0.28600 0.11246
#
# Static dielectric constant tensor:
#      x y z
#    x 3.457780 -0.000260 -0.292630 
#    y -0.000260 2.529290 0.000650 
#    z -0.292630 0.000650 3.817820 
# 
# 
# High freq. dielectric constant tensor:
#      x y z
#    x 1.715620 0.000000 -0.018330 
#    y 0.000000 1.643210 0.000000 
#    z -0.018330 0.000000 1.733180 
# 
# From -- ./inp_files/296817.got.cif
#   From: 2010.06.25/outbox.cif.g09.slc.cpg/sg15_149_cif.got.tgz:296817.got - 2010.06.28 07:06:18.
