data_PCOD8136790
_publ_section_title
;
Structure prediction by ZEFSAII (Michael W. Deem and Ramdas Pophale) SiO2 
 PCOD8136790
Probable space group: C 2/C
;
_chemical_formula_sum "Si O2"
_cell_formula_units_Z 36
_cell_length_a 11.088667
_cell_length_b 15.642273
_cell_length_c 9.121654
_cell_angle_alpha 90.000000
_cell_angle_beta 104.563263
_cell_angle_gamma 90.000000
_cell_volume 1531.334590
_symmetry_space_group_name_H-M "C 2/C"
_symmetry_group_IT_number 15
_symmetry_cell_setting 'monoclinic'
loop_
_space_group_symop_operation_xyz
x,y,z
-x,y,1/2-z
-x,-y,-z
x,-y,1/2+z
1/2+x,1/2+y,z
1/2-x,1/2+y,1/2-z
1/2-x,1/2-y,-z
1/2+x,1/2-y,1/2+z
loop_
_atom_site_type_symbol
_atom_site_label
_atom_site_fract_x
_atom_site_fract_y
_atom_site_fract_z
Si Si1 0.053565 0.222933 0.924617
Si Si2 0.793471 0.611519 0.997736
Si Si3 0.000000 0.998020 0.250000
Si Si4 0.627680 0.396778 0.025403
Si Si5 0.144377 0.465079 0.279450
O O1 0.150363 0.142902 0.953882
O O2 0.000000 0.243393 0.750000
O O3 0.937375 0.196871 0.994664
O O4 0.117856 0.307678 0.004880
O O5 0.817563 0.542647 0.878302
O O6 0.823254 0.562063 0.158294
O O7 0.926802 0.942800 0.346186
O O8 0.100583 0.056401 0.365071
O O9 0.776695 0.396319 0.098333
O O10 0.000000 0.443648 0.250000
#
# Coordination Sequence:
#
# PCOD8136790 Si02
#       5
#     8   8   4   8   8
#     4  11  22  43  70 102 136 179 225 286 349 403
#     4  11  25  43  72  99 139 180 229 282 346 406
#     4  10  20  34  68 102 130 168 228 290 332 398
#     4  11  20  39  66 101 135 173 229 282 339 398
#     4  12  24  43  67 100 136 184 230 274 334 417
#
# _framework density 23.508906
#
# number of rings (size 3 to 8) (size 9 to 14) (size 15 to 20)
#    0.000    0.889    3.333    5.333    0.000    0.000 
#    2.000    3.333    0.000    0.000    0.000    0.000 
#    0.000    0.000    0.000    0.000    0.000    0.000 
#
# Total GULP energy -223143.391767 kJ/mol
# GULP energy per Si atom -12396.855098 kJ/mol
# Density = 2.345540 g / cm^3
# Si number density = 23.508906 Si / 1000 Ang^3
#
#
#
# Elastic Constant Matrix: (Units=GPa)
#
#
# Indices 1 2 3 4 5 6 
#
# 1 136.1575 45.5279 33.8435 0.0000 43.5160 0.0000
# 2 45.5279 95.0847 31.8561 0.0000 -4.7899 0.0000
# 3 33.8435 31.8561 112.2722 0.0000 14.0376 0.0000
# 4 0.0000 0.0000 0.0000 27.8998 0.0000 8.2672
# 5 43.5160 -4.7899 14.0376 0.0000 35.1184 0.0000
# 6 0.0000 0.0000 0.0000 8.2672 0.0000 29.3508
#
#
#
# Elastic Compliance Matrix: (Units=1/GPa)
#
#
# Indices 1 2 3 4 5 6 
#
# 1 0.018468 -0.010201 0.000382 0.000000 -0.024428 0.000000
# 2 -0.010201 0.017577 -0.003992 0.000000 0.016633 0.000000
# 3 0.000382 -0.003992 0.010581 0.000000 -0.005247 0.000000
# 4 0.000000 0.000000 0.000000 0.039107 0.000000 -0.011015
# 5 -0.024428 0.016633 -0.005247 0.000000 0.063110 0.000000
# 6 0.000000 0.000000 0.000000 -0.011015 0.000000 0.037173
#
#
# Mechanical properties :
#
#
# Convention : Reuss Voigt Hill
#
# Bulk Modulus (GPa) = 52.62464 62.88549 57.75506
# Shear Modulus (GPa) = 22.73033 33.95959 28.34496
#
# Velocity S-wave (km/s) = 3.11285 3.80484 3.47610
# Velocity P-wave (km/s) = 5.94587 6.79044 6.38214
#
# Compressibility (1/GPa) = 0.01900251
#
# Stress axis : x y z
#
# Youngs Moduli (GPa) = 54.14901 56.89383 94.51330
#
# Poissons Ratio (x) = 0.58037 -0.03608
# Poissons Ratio (y) = 0.55237 0.37729
# Poissons Ratio (z) = -0.02067 0.22711
#
# Static dielectric constant tensor:
#      x y z
#    x 4.661120 0.000000 0.346410 
#    y 0.000000 4.104600 0.000000 
#    z 0.346410 0.000000 4.311280 
# 
# 
# High freq. dielectric constant tensor:
#      x y z
#    x 1.939940 0.000000 0.028430 
#    y 0.000000 1.906090 0.000000 
#    z 0.028430 0.000000 1.934380 
# 
# From -- ./inp_files/28824.got.cif
#   From: 2010.06.25/outbox.cif.g09.slc.cpg/sg15_15_cif.got.tgz:28824.got - 2010.06.28 07:06:18.
