data_PCOD8136446
_publ_section_title
;
Structure prediction by ZEFSAII (Michael W. Deem and Ramdas Pophale) SiO2 
 PCOD8136446
Probable space group: C 2/C
;
_chemical_formula_sum "Si O2"
_cell_formula_units_Z 44
_cell_length_a 13.024695
_cell_length_b 25.092128
_cell_length_c 11.070080
_cell_angle_alpha 90.000000
_cell_angle_beta 40.246901
_cell_angle_gamma 90.000000
_cell_volume 2337.458592
_symmetry_space_group_name_H-M "C 2/C"
_symmetry_group_IT_number 15
_symmetry_cell_setting 'monoclinic'
loop_
_space_group_symop_operation_xyz
x,y,z
-x,y,1/2-z
-x,-y,-z
x,-y,1/2+z
1/2+x,1/2+y,z
1/2-x,1/2+y,1/2-z
1/2-x,1/2-y,-z
1/2+x,1/2-y,1/2+z
loop_
_atom_site_type_symbol
_atom_site_label
_atom_site_fract_x
_atom_site_fract_y
_atom_site_fract_z
Si Si1 0.807914 0.431049 0.167657
Si Si2 0.000000 0.756167 0.250000
Si Si3 0.216225 0.309212 0.377287
Si Si4 0.163901 0.904468 0.536746
Si Si5 0.901362 0.526211 0.950688
Si Si6 0.825378 0.703401 0.856907
O O1 0.805240 0.373373 0.106270
O O2 0.679364 0.433533 0.392098
O O3 0.986137 0.446887 0.049979
O O4 0.777225 0.479595 0.102766
O O5 0.899263 0.716270 0.421691
O O6 0.895094 0.794316 0.257520
O O7 0.169479 0.283293 0.290149
O O8 0.299766 0.923607 0.503144
O O9 0.196385 0.842809 0.486855
O O10 0.000000 0.915431 0.750000
O O11 0.000000 0.502195 0.750000
O O12 0.000000 0.688381 0.750000
O O13 0.750000 0.750000 0.000000
#
# Coordination Sequence:
#
# PCOD8136446 Si02
#       6
#     8   4   8   8   8   8
#     4   9  19  36  57  79 106 145 191 235 279 343
#     4  10  22  38  56  78 118 158 188 228 276 342
#     4  10  21  38  56  82 115 150 192 232 280 344
#     4  10  20  34  52  80 115 143 176 231 287 340
#     4   9  18  35  58  80 107 142 188 236 290 342
#     4  11  21  36  61  87 113 147 191 244 293 342
#
# _framework density 18.823862999999999
#
# number of rings (size 3 to 8) (size 9 to 14) (size 15 to 20)
#    0.000    2.182    0.000    4.364    1.273    2.182 
#    1.636    3.636    0.000    0.000    0.000    0.000 
#    0.000    0.000    0.000    0.000    0.000    0.000 
#
# Total GULP energy -272623.227044 kJ/mol
# GULP energy per Si atom -12391.964866 kJ/mol
# Density = 1.878102 g / cm^3
# Si number density = 18.823863 Si / 1000 Ang^3
#
#
#
# Elastic Constant Matrix: (Units=GPa)
#
#
# Indices 1 2 3 4 5 6 
#
# 1 87.3675 18.4461 22.3970 0.0000 6.5267 0.0000
# 2 18.4461 81.6120 33.8994 0.0000 9.6460 0.0000
# 3 22.3970 33.8994 107.3720 0.0000 3.7553 0.0000
# 4 0.0000 0.0000 0.0000 32.3292 0.0000 -0.6184
# 5 6.5267 9.6460 3.7553 0.0000 24.4457 0.0000
# 6 0.0000 0.0000 0.0000 -0.6184 0.0000 13.0992
#
#
#
# Elastic Compliance Matrix: (Units=1/GPa)
#
#
# Indices 1 2 3 4 5 6 
#
# 1 0.012493 -0.001724 -0.001980 0.000000 -0.002351 0.000000
# 2 -0.001724 0.014951 -0.004193 0.000000 -0.004795 0.000000
# 3 -0.001980 -0.004193 0.011033 0.000000 0.000488 0.000000
# 4 0.000000 0.000000 0.000000 0.030960 0.000000 0.001462
# 5 -0.002351 -0.004795 0.000488 0.000000 0.043352 0.000000
# 6 0.000000 0.000000 0.000000 0.001462 0.000000 0.076409
#
#
# Mechanical properties :
#
#
# Convention : Reuss Voigt Hill
#
# Bulk Modulus (GPa) = 44.08248 47.31519 45.69883
# Shear Modulus (GPa) = 23.52365 27.41543 25.46954
#
# Velocity S-wave (km/s) = 3.53890 3.82045 3.68237
# Velocity P-wave (km/s) = 6.33780 6.68217 6.51226
#
# Compressibility (1/GPa) = 0.02268475
#
# Stress axis : x y z
#
# Youngs Moduli (GPa) = 80.04540 66.88460 90.63627
#
# Poissons Ratio (x) = 0.11528 0.17942
# Poissons Ratio (y) = 0.13796 0.38005
# Poissons Ratio (z) = 0.15845 0.28046
#
# Static dielectric constant tensor:
#      x y z
#    x 3.686460 0.000000 0.147950 
#    y 0.000000 3.561990 0.000000 
#    z 0.147950 0.000000 3.648980 
# 
# 
# High freq. dielectric constant tensor:
#      x y z
#    x 1.729010 0.000000 0.012710 
#    y 0.000000 1.735390 0.000000 
#    z 0.012710 0.000000 1.731410 
# 
# From -- ./inp_files/91140.got.cif
#   From: 2010.06.25/outbox.cif.g09.slc.cpg/sg15_46_cif.got.tgz:91140.got - 2010.06.28 07:06:18.
