data_PCOD8136217
_publ_section_title
;
Structure prediction by ZEFSAII (Michael W. Deem and Ramdas Pophale) SiO2 
 PCOD8136217
Probable space group: C 2/C
;
_chemical_formula_sum "Si O2"
_cell_formula_units_Z 60
_cell_length_a 30.260849
_cell_length_b 13.550880
_cell_length_c 21.502113
_cell_angle_alpha 90.000000
_cell_angle_beta 19.821798
_cell_angle_gamma 90.000000
_cell_volume 2989.869436
_symmetry_space_group_name_H-M "C 2/C"
_symmetry_group_IT_number 15
_symmetry_cell_setting 'monoclinic'
loop_
_space_group_symop_operation_xyz
x,y,z
-x,y,1/2-z
-x,-y,-z
x,-y,1/2+z
1/2+x,1/2+y,z
1/2-x,1/2+y,1/2-z
1/2-x,1/2-y,-z
1/2+x,1/2-y,1/2+z
loop_
_atom_site_type_symbol
_atom_site_label
_atom_site_fract_x
_atom_site_fract_y
_atom_site_fract_z
Si Si1 0.075856 0.067416 0.590673
Si Si2 0.841319 0.520559 0.775922
Si Si3 0.597960 0.475246 0.780254
Si Si4 0.329191 0.765088 0.075951
Si Si5 0.445069 0.656814 0.574124
Si Si6 0.458224 0.854864 0.013186
Si Si7 0.614356 0.963003 0.142988
Si Si8 0.500000 0.851558 0.750000
O O1 0.130221 0.149627 0.469781
O O2 0.000000 0.114608 0.750000
O O3 0.975673 0.998289 0.686088
O O4 0.188644 0.999094 0.470598
O O5 0.879212 0.601418 0.675089
O O6 0.881446 0.568152 0.789743
O O7 0.909662 0.415547 0.671798
O O8 0.603788 0.570803 0.816290
O O9 0.745614 0.440053 0.572810
O O10 0.520650 0.386341 0.915046
O O11 0.175089 0.773718 0.286185
O O12 0.378536 0.854093 0.054762
O O13 0.389633 0.786585 0.928494
O O14 0.534537 0.736332 0.489573
O O15 0.500000 0.912805 0.250000
O O16 0.583913 0.080046 0.186156
#
# Coordination Sequence:
#
# PCOD8136217 Si02
#       8
#     8   8   8   8   8   8   8   4
#     4  12  23  36  65  92 126 163 198 260 315 374
#     4  11  23  40  63  88 121 168 204 258 316 360
#     4  11  23  40  63  88 121 168 204 258 316 360
#     4  12  21  37  58  96 128 158 203 257 323 372
#     4  11  23  40  60  88 125 162 209 257 309 375
#     4  11  23  40  60  88 125 162 209 257 309 375
#     4  10  20  40  64  88 121 159 207 260 318 375
#     4  10  20  32  60  88 126 160 182 258 310 370
#
# _framework density 20.067765999999999
#
# number of rings (size 3 to 8) (size 9 to 14) (size 15 to 20)
#    0.400    0.533    7.333    0.800    0.000    0.000 
#    4.800    4.667    0.000    0.000    0.000    0.000 
#    0.000    0.000    0.000    0.000    0.000    0.000 
#
# Total GULP energy -371696.132114 kJ/mol
# GULP energy per Si atom -12389.871070 kJ/mol
# Density = 2.002209 g / cm^3
# Si number density = 20.067766 Si / 1000 Ang^3
#
#
#
# Elastic Constant Matrix: (Units=GPa)
#
#
# Indices 1 2 3 4 5 6 
#
# 1 114.2210 17.5853 50.5473 0.0002 -0.0499 0.0000
# 2 17.5853 40.6008 29.2192 0.0003 8.1844 -0.0001
# 3 50.5473 29.2192 139.4752 0.0005 1.3462 -0.0004
# 4 0.0002 0.0003 0.0005 18.0746 -0.0003 14.4112
# 5 -0.0499 8.1844 1.3462 -0.0003 36.1048 0.0002
# 6 0.0000 -0.0001 -0.0004 14.4112 0.0002 18.2374
#
#
#
# Elastic Compliance Matrix: (Units=1/GPa)
#
#
# Indices 1 2 3 4 5 6 
#
# 1 0.010599 -0.002302 -0.003365 0.000000 0.000662 0.000000
# 2 -0.002302 0.031035 -0.005601 -0.000001 -0.006830 0.000001
# 3 -0.003365 -0.005601 0.009554 -0.000001 0.000909 0.000001
# 4 0.000000 -0.000001 -0.000001 0.149545 0.000002 -0.118171
# 5 0.000662 -0.006830 0.000909 0.000002 0.029212 -0.000002
# 6 0.000000 0.000001 0.000001 -0.118171 -0.000002 0.148211
#
#
# Mechanical properties :
#
#
# Convention : Reuss Voigt Hill
#
# Bulk Modulus (GPa) = 34.90371 54.33342 44.61856
# Shear Modulus (GPa) = 12.18785 27.61303 19.90044
#
# Velocity S-wave (km/s) = 2.46709 3.71346 3.15248
# Velocity P-wave (km/s) = 5.05431 6.74686 5.96096
#
# Compressibility (1/GPa) = 0.02865025
#
# Stress axis : x y z
#
# Youngs Moduli (GPa) = 94.34884 32.22161 104.66797
#
# Poissons Ratio (x) = 0.07418 0.35223
# Poissons Ratio (y) = 0.21722 0.58629
# Poissons Ratio (z) = 0.31751 0.18049
#
# Static dielectric constant tensor:
#      x y z
#    x 3.654440 0.000000 0.003340 
#    y 0.000000 3.313620 0.000000 
#    z 0.003340 0.000000 3.591320 
# 
# 
# High freq. dielectric constant tensor:
#      x y z
#    x 1.787640 0.000000 -0.001240 
#    y 0.000000 1.753130 0.000000 
#    z -0.001240 0.000000 1.788110 
# 
# From -- ./inp_files/259395.got.cif
#   From: 2010.06.25/outbox.cif.g09.slc.cpg/sg15_130_cif.got.tgz:259395.got - 2010.06.28 07:06:18.
