data_PCOD8136006
_publ_section_title
;
Structure prediction by ZEFSAII (Michael W. Deem and Ramdas Pophale) SiO2 
 PCOD8136006
Probable space group: C 2/C
;
_chemical_formula_sum "Si O2"
_cell_formula_units_Z 40
_cell_length_a 28.293056
_cell_length_b 8.672927
_cell_length_c 15.443770
_cell_angle_alpha 90.000000
_cell_angle_beta 150.159072
_cell_angle_gamma 90.000000
_cell_volume 1885.704996
_symmetry_space_group_name_H-M "C 2/C"
_symmetry_group_IT_number 15
_symmetry_cell_setting 'monoclinic'
loop_
_space_group_symop_operation_xyz
x,y,z
-x,y,1/2-z
-x,-y,-z
x,-y,1/2+z
1/2+x,1/2+y,z
1/2-x,1/2+y,1/2-z
1/2-x,1/2-y,-z
1/2+x,1/2-y,1/2+z
loop_
_atom_site_type_symbol
_atom_site_label
_atom_site_fract_x
_atom_site_fract_y
_atom_site_fract_z
Si Si1 0.548069 0.040204 0.461827
Si Si2 0.192639 0.097993 0.885079
Si Si3 0.078155 0.881629 0.807828
Si Si4 0.522472 0.744689 0.519301
Si Si5 0.863658 0.453857 0.068154
O O1 0.550005 0.200152 0.519043
O O2 0.574640 0.897588 0.566173
O O3 0.440299 0.018354 0.257262
O O4 0.622418 0.042250 0.501042
O O5 0.101567 0.131354 0.681751
O O6 0.158562 0.011331 0.919008
O O7 0.250000 0.250000 0.000000
O O8 0.258664 0.982826 0.935707
O O9 0.122112 0.729376 0.922355
O O10 0.000000 0.949347 0.750000
O O11 0.034770 0.843924 0.645213
#
# Coordination Sequence:
#
# PCOD8136006 Si02
#       5
#     8   8   8   8   8
#     4   9  18  38  71  85 124 172 202 249 320 376
#     4  12  25  39  61  98 130 155 215 272 307 363
#     4  11  23  45  66  88 127 176 211 252 318 384
#     4  10  20  41  63  92 122 167 209 254 311 381
#     4  10  19  42  65  93 125 164 212 257 315 372
#
# _framework density 21.212226999999999
#
# number of rings (size 3 to 8) (size 9 to 14) (size 15 to 20)
#    0.000    1.600    6.000    1.200    0.000    1.600 
#    7.200    0.000    0.000    0.000    0.000    0.000 
#    0.000    0.000    0.000    0.000    0.000    0.000 
#
# Total GULP energy -248009.190890 kJ/mol
# GULP energy per Si atom -12400.459545 kJ/mol
# Density = 2.116395 g / cm^3
# Si number density = 21.212227 Si / 1000 Ang^3
#
#
#
# Elastic Constant Matrix: (Units=GPa)
#
#
# Indices 1 2 3 4 5 6 
#
# 1 198.7951 65.4564 38.7773 0.0000 12.5301 0.0000
# 2 65.4564 74.4193 29.7986 0.0000 10.3940 0.0000
# 3 38.7773 29.7986 30.7735 0.0000 -1.7100 0.0000
# 4 0.0000 0.0000 0.0000 26.9098 0.0000 7.7005
# 5 12.5301 10.3940 -1.7100 0.0000 33.9014 0.0000
# 6 0.0000 0.0000 0.0000 7.7005 0.0000 41.0309
#
#
#
# Elastic Compliance Matrix: (Units=1/GPa)
#
#
# Indices 1 2 3 4 5 6 
#
# 1 0.007628 -0.004191 -0.005655 0.000000 -0.001820 0.000000
# 2 -0.004191 0.026533 -0.020836 0.000000 -0.007637 0.000000
# 3 -0.005655 -0.020836 0.060438 0.000000 0.011527 0.000000
# 4 0.000000 0.000000 0.000000 0.039270 0.000000 -0.007370
# 5 -0.001820 -0.007637 0.011527 0.000000 0.033093 0.000000
# 6 0.000000 0.000000 0.000000 -0.007370 0.000000 0.025755
#
#
# Mechanical properties :
#
#
# Convention : Reuss Voigt Hill
#
# Bulk Modulus (GPa) = 30.08870 63.56140 46.82505
# Shear Modulus (GPa) = 18.85655 31.69881 25.27768
#
# Velocity S-wave (km/s) = 2.98476 3.86990 3.45578
# Velocity P-wave (km/s) = 5.10820 7.07090 6.16812
#
# Compressibility (1/GPa) = 0.03323507
#
# Stress axis : x y z
#
# Youngs Moduli (GPa) = 131.09690 37.68860 16.54584
#
# Poissons Ratio (x) = 0.15794 0.09357
# Poissons Ratio (y) = 0.54939 0.34476
# Poissons Ratio (z) = 0.74136 0.78529
#
# Static dielectric constant tensor:
#      x y z
#    x 4.024360 0.000000 -0.072630 
#    y 0.000000 3.876000 0.000000 
#    z -0.072630 0.000000 3.568820 
# 
# 
# High freq. dielectric constant tensor:
#      x y z
#    x 1.840810 0.000000 -0.009960 
#    y 0.000000 1.830170 0.000000 
#    z -0.009960 0.000000 1.802720 
# 
# From -- ./inp_files/159089.got.cif
#   From: 2010.06.25/outbox.cif.g09.slc.cpg/sg15_80_cif.got.tgz:159089.got - 2010.06.28 07:06:18.
