data_PCOD8136726
_publ_section_title
;
Structure prediction by ZEFSAII (Michael W. Deem and Ramdas Pophale) SiO2 
 PCOD8136726
Probable space group: C 2/C
;
_chemical_formula_sum "Si O2"
_cell_formula_units_Z 64
_cell_length_a 9.271510
_cell_length_b 29.558005
_cell_length_c 14.528263
_cell_angle_alpha 90.000000
_cell_angle_beta 55.223425
_cell_angle_gamma 90.000000
_cell_volume 3270.278310
_symmetry_space_group_name_H-M "C 2/C"
_symmetry_group_IT_number 15
_symmetry_cell_setting 'monoclinic'
loop_
_space_group_symop_operation_xyz
x,y,z
-x,y,1/2-z
-x,-y,-z
x,-y,1/2+z
1/2+x,1/2+y,z
1/2-x,1/2+y,1/2-z
1/2-x,1/2-y,-z
1/2+x,1/2-y,1/2+z
loop_
_atom_site_type_symbol
_atom_site_label
_atom_site_fract_x
_atom_site_fract_y
_atom_site_fract_z
Si Si1 0.724805 0.662263 0.404561
Si Si2 0.497773 0.575540 0.033237
Si Si3 0.969649 0.242259 0.517736
Si Si4 0.222131 0.991561 0.347748
Si Si5 0.597560 0.201096 0.623151
Si Si6 0.834055 0.385017 0.497447
Si Si7 0.095519 0.327357 0.849847
Si Si8 0.500696 0.024492 0.902981
O O1 0.609214 0.618103 0.466464
O O2 0.627227 0.707033 0.479284
O O3 0.761433 0.668296 0.282786
O O4 0.905960 0.653605 0.391274
O O5 0.370918 0.540081 0.131401
O O6 0.584471 0.549143 0.915225
O O7 0.641868 0.593598 0.052896
O O8 0.799102 0.215077 0.550202
O O9 0.015572 0.275635 0.416593
O O10 0.928871 0.273895 0.620372
O O11 0.316521 0.981441 0.217037
O O12 0.349227 0.993890 0.390367
O O13 0.500000 0.215377 0.750000
O O14 0.605816 0.147329 0.607545
O O15 0.830024 0.356779 0.593316
O O16 0.979552 0.423634 0.439936
O O17 0.500000 0.000000 0.000000
#
# Coordination Sequence:
#
# PCOD8136726 Si02
#       8
#     8   8   8   8   8   8   8   8
#     4  11  22  38  64  84 119 168 197 248 313 361
#     4  10  21  40  62  87 120 157 202 249 311 359
#     4  10  20  39  55  89 118 155 199 252 298 362
#     4   9  22  42  61  89 123 161 201 258 311 371
#     4  10  20  34  61  86 119 153 197 247 303 355
#     4  10  22  39  58  91 117 153 203 248 298 365
#     4  10  24  38  58  89 123 155 206 250 299 374
#     4  10  22  38  65  88 122 162 204 251 315 373
#
# _framework density 19.5702
#
# number of rings (size 3 to 8) (size 9 to 14) (size 15 to 20)
#    0.000    2.000    1.250    1.125    7.000    1.500 
#    2.250    1.875    0.000    4.500    0.000    0.000 
#    0.000    0.000    0.000    0.000    0.000    0.000 
#
# Total GULP energy -396765.933316 kJ/mol
# GULP energy per Si atom -12398.935416 kJ/mol
# Density = 1.952566 g / cm^3
# Si number density = 19.570200 Si / 1000 Ang^3
#
#
#
# Elastic Constant Matrix: (Units=GPa)
#
#
# Indices 1 2 3 4 5 6 
#
# 1 51.7359 35.6798 19.8049 0.0000 -3.1914 0.0000
# 2 35.6798 145.8720 44.8616 0.0000 -8.2318 0.0000
# 3 19.8049 44.8616 93.4472 0.0000 -0.3021 0.0000
# 4 0.0000 0.0000 0.0000 19.5152 0.0000 -2.2514
# 5 -3.1914 -8.2318 -0.3021 0.0000 29.0259 0.0000
# 6 0.0000 0.0000 0.0000 -2.2514 0.0000 31.4939
#
#
#
# Elastic Compliance Matrix: (Units=1/GPa)
#
#
# Indices 1 2 3 4 5 6 
#
# 1 0.023833 -0.004939 -0.002676 0.000000 0.001192 0.000000
# 2 -0.004939 0.009215 -0.003370 0.000000 0.002035 0.000000
# 3 -0.002676 -0.003370 0.012883 0.000000 -0.001116 0.000000
# 4 0.000000 0.000000 0.000000 0.051668 0.000000 0.003694
# 5 0.001192 0.002035 -0.001116 0.000000 0.035149 0.000000
# 6 0.000000 0.000000 0.000000 0.003694 0.000000 0.032016
#
#
# Mechanical properties :
#
#
# Convention : Reuss Voigt Hill
#
# Bulk Modulus (GPa) = 41.73726 54.63863 48.18794
# Shear Modulus (GPa) = 25.67764 28.72093 27.19929
#
# Velocity S-wave (km/s) = 3.62619 3.83506 3.73209
# Velocity P-wave (km/s) = 6.23744 6.89856 6.57631
#
# Compressibility (1/GPa) = 0.02395941
#
# Stress axis : x y z
#
# Youngs Moduli (GPa) = 41.95817 108.52050 77.62269
#
# Poissons Ratio (x) = 0.53601 0.20772
# Poissons Ratio (y) = 0.20724 0.26162
# Poissons Ratio (z) = 0.11228 0.36576
#
# Static dielectric constant tensor:
#      x y z
#    x 3.492960 0.000000 -0.094280 
#    y 0.000000 3.768450 0.000000 
#    z -0.094280 0.000000 3.495160 
# 
# 
# High freq. dielectric constant tensor:
#      x y z
#    x 1.753990 0.000000 -0.009230 
#    y 0.000000 1.778800 0.000000 
#    z -0.009230 0.000000 1.756410 
# 
# From -- ./inp_files/139519.got.cif
#   From: 2010.06.25/outbox.cif.g09.slc.cpg/sg15_70_cif.got.tgz:139519.got - 2010.06.28 07:06:18.
