data_PCOD8136241
_publ_section_title
;
Structure prediction by ZEFSAII (Michael W. Deem and Ramdas Pophale) SiO2 
 PCOD8136241
Probable space group: C 2/C
;
_chemical_formula_sum "Si O2"
_cell_formula_units_Z 64
_cell_length_a 23.506640
_cell_length_b 22.798245
_cell_length_c 9.022068
_cell_angle_alpha 90.000000
_cell_angle_beta 130.075236
_cell_angle_gamma 90.000000
_cell_volume 3699.754235
_symmetry_space_group_name_H-M "C 2/C"
_symmetry_group_IT_number 15
_symmetry_cell_setting 'monoclinic'
loop_
_space_group_symop_operation_xyz
x,y,z
-x,y,1/2-z
-x,-y,-z
x,-y,1/2+z
1/2+x,1/2+y,z
1/2-x,1/2+y,1/2-z
1/2-x,1/2-y,-z
1/2+x,1/2-y,1/2+z
loop_
_atom_site_type_symbol
_atom_site_label
_atom_site_fract_x
_atom_site_fract_y
_atom_site_fract_z
Si Si1 0.336955 0.946130 0.397702
Si Si2 0.208545 0.673996 0.303436
Si Si3 0.477160 0.118279 0.041779
Si Si4 0.101752 0.772584 0.049174
Si Si5 0.622163 0.937700 0.695332
Si Si6 0.767398 0.849007 0.219714
Si Si7 0.703910 0.258033 0.773679
Si Si8 0.447761 0.241925 0.853752
O O1 0.395784 0.909114 0.401783
O O2 0.354056 0.948976 0.598280
O O3 0.256475 0.912784 0.252913
O O4 0.342482 0.011278 0.344662
O O5 0.156361 0.731578 0.239725
O O6 0.155239 0.620268 0.175504
O O7 0.256484 0.656023 0.525792
O O8 0.265074 0.685916 0.263164
O O9 0.500000 0.131339 0.250000
O O10 0.532747 0.072230 0.052022
O O11 0.475005 0.177730 0.945332
O O12 0.145953 0.834184 0.097658
O O13 0.086060 0.739724 0.868004
O O14 0.021365 0.783419 0.990222
O O15 0.711553 0.801439 0.194308
O O16 0.616110 0.268378 0.648943
O O17 0.750000 0.250000 0.000000
#
# Coordination Sequence:
#
# PCOD8136241 Si02
#       8
#     8   8   8   8   8   8   8   8
#     4  10  21  35  52  72 100 142 183 223 256 306
#     4  10  20  35  51  72 107 140 171 220 266 308
#     4  10  20  33  48  72 108 145 178 210 254 316
#     4  10  20  33  49  78 109 137 173 217 267 310
#     4  10  21  36  50  74 103 138 184 220 263 305
#     4  10  20  35  52  71 106 142 177 219 264 310
#     4  11  19  31  51  78 103 135 179 214 256 317
#     4  11  20  31  51  80 109 138 173 211 264 317
#
# _framework density 17.298445999999998
#
# number of rings (size 3 to 8) (size 9 to 14) (size 15 to 20)
#    0.000    1.750    5.000    1.875    0.000    3.000 
#    0.000    0.000    0.000    0.000    0.000    0.875 
#    0.000    0.000    0.000    0.000    0.000    0.000 
#
# Total GULP energy -396496.473263 kJ/mol
# GULP energy per Si atom -12390.514789 kJ/mol
# Density = 1.725907 g / cm^3
# Si number density = 17.298446 Si / 1000 Ang^3
#
#
#
# Elastic Constant Matrix: (Units=GPa)
#
#
# Indices 1 2 3 4 5 6 
#
# 1 141.4497 51.6161 29.5432 0.0000 20.0080 0.0000
# 2 51.6161 80.4723 24.7843 0.0000 6.3361 0.0000
# 3 29.5432 24.7843 37.8876 0.0000 8.5028 0.0000
# 4 0.0000 0.0000 0.0000 18.5792 0.0000 -1.2285
# 5 20.0080 6.3361 8.5028 0.0000 30.7270 0.0000
# 6 0.0000 0.0000 0.0000 -1.2285 0.0000 33.5203
#
#
#
# Elastic Compliance Matrix: (Units=1/GPa)
#
#
# Indices 1 2 3 4 5 6 
#
# 1 0.010381 -0.005160 -0.003669 0.000000 -0.004680 0.000000
# 2 -0.005160 0.018132 -0.008266 0.000000 0.001908 0.000000
# 3 -0.003669 -0.008266 0.035977 0.000000 -0.005862 0.000000
# 4 0.000000 0.000000 0.000000 0.053954 0.000000 0.001977
# 5 -0.004680 0.001908 -0.005862 0.000000 0.036821 0.000000
# 6 0.000000 0.000000 0.000000 0.001977 0.000000 0.029905
#
#
# Mechanical properties :
#
#
# Convention : Reuss Voigt Hill
#
# Bulk Modulus (GPa) = 33.00221 52.41076 42.70648
# Shear Modulus (GPa) = 21.79032 26.82304 24.30668
#
# Velocity S-wave (km/s) = 3.55303 3.94204 3.75258
# Velocity P-wave (km/s) = 5.99597 7.14726 6.59678
#
# Compressibility (1/GPa) = 0.03030100
#
# Stress axis : x y z
#
# Youngs Moduli (GPa) = 96.33118 55.15174 27.79530
#
# Poissons Ratio (x) = 0.28458 0.10197
# Poissons Ratio (y) = 0.49707 0.22975
# Poissons Ratio (z) = 0.35342 0.45587
#
# Static dielectric constant tensor:
#      x y z
#    x 3.709620 0.000000 0.046480 
#    y 0.000000 3.169650 0.000000 
#    z 0.046480 0.000000 3.213270 
# 
# 
# High freq. dielectric constant tensor:
#      x y z
#    x 1.679080 0.000000 -0.004350 
#    y 0.000000 1.632560 0.000000 
#    z -0.004350 0.000000 1.658070 
# 
# From -- ./inp_files/63417.got.cif
#   From: 2010.06.25/outbox.cif.g09.slc.cpg/sg15_32_cif.got.tgz:63417.got - 2010.06.28 07:06:18.
