data_PCOD8136071
_publ_section_title
;
Structure prediction by ZEFSAII (Michael W. Deem and Ramdas Pophale) SiO2 
 PCOD8136071
Probable space group: C 2/C
;
_chemical_formula_sum "Si O2"
_cell_formula_units_Z 60
_cell_length_a 11.041501
_cell_length_b 29.567845
_cell_length_c 13.576256
_cell_angle_alpha 90.000000
_cell_angle_beta 52.158658
_cell_angle_gamma 90.000000
_cell_volume 3500.232183
_symmetry_space_group_name_H-M "C 2/C"
_symmetry_group_IT_number 15
_symmetry_cell_setting 'monoclinic'
loop_
_space_group_symop_operation_xyz
x,y,z
-x,y,1/2-z
-x,-y,-z
x,-y,1/2+z
1/2+x,1/2+y,z
1/2-x,1/2+y,1/2-z
1/2-x,1/2-y,-z
1/2+x,1/2-y,1/2+z
loop_
_atom_site_type_symbol
_atom_site_label
_atom_site_fract_x
_atom_site_fract_y
_atom_site_fract_z
Si Si1 0.000000 0.005527 0.250000
Si Si2 0.180363 0.807270 0.137906
Si Si3 0.885143 0.373020 0.717713
Si Si4 0.740604 0.967087 0.498711
Si Si5 0.813620 0.707938 0.353618
Si Si6 0.390458 0.113442 0.546774
Si Si7 0.716610 0.535583 0.298217
Si Si8 0.973014 0.536201 0.651804
O O1 0.870042 0.972666 0.353515
O O2 0.939117 0.035318 0.188342
O O3 0.232726 0.758568 0.157183
O O4 0.265789 0.849670 0.146640
O O5 0.000000 0.814295 0.250000
O O6 0.231540 0.804625 0.997854
O O7 0.764109 0.332476 0.804338
O O8 0.796586 0.417891 0.732585
O O9 0.000000 0.384574 0.750000
O O10 0.974453 0.358263 0.573452
O O11 0.670643 0.918055 0.512008
O O12 0.815724 0.967882 0.569336
O O13 0.616671 0.006730 0.542912
O O14 0.000000 0.704346 0.250000
O O15 0.453280 0.083139 0.604252
O O16 0.821658 0.493620 0.212982
O O17 0.000000 0.550377 0.750000
#
# Coordination Sequence:
#
# PCOD8136071 Si02
#       8
#     4   8   8   8   8   8   8   8
#     4  12  24  32  44  72 116 144 168 218 274 314
#     4  10  20  29  49  79 117 138 165 223 286 320
#     4  11  17  32  58  77  96 136 190 220 251 318
#     4  11  21  35  51  74 104 143 184 217 260 313
#     4   9  17  34  49  76 109 139 178 220 267 330
#     4  12  19  32  55  81 101 139 180 218 268 322
#     4  11  20  35  52  74 103 144 179 223 260 313
#     4  10  21  37  56  75 104 139 188 228 253 306
#
# _framework density 17.141721
#
# number of rings (size 3 to 8) (size 9 to 14) (size 15 to 20)
#    0.000    1.333    6.667    2.000    0.933    0.000 
#    0.000    0.000    0.000    0.000    1.733    0.933 
#    0.000    0.000    0.000    0.000    0.000    0.000 
#
# Total GULP energy -371648.039770 kJ/mol
# GULP energy per Si atom -12388.267992 kJ/mol
# Density = 1.710271 g / cm^3
# Si number density = 17.141721 Si / 1000 Ang^3
#
#
#
# Elastic Constant Matrix: (Units=GPa)
#
#
# Indices 1 2 3 4 5 6 
#
# 1 78.3354 38.0352 23.4301 0.0000 12.6135 0.0000
# 2 38.0352 109.0330 36.9667 0.0000 2.5002 0.0000
# 3 23.4301 36.9667 107.8922 0.0000 -3.2674 0.0000
# 4 0.0000 0.0000 0.0000 -711.6019 0.0000 89.1551
# 5 12.6135 2.5002 -3.2674 0.0000 14.7829 0.0000
# 6 0.0000 0.0000 0.0000 89.1551 0.0000 4.4690
#
#
#
# Elastic Compliance Matrix: (Units=1/GPa)
#
#
# Indices 1 2 3 4 5 6 
#
# 1 0.018629 -0.005214 -0.002732 0.000000 -0.015617 0.000000
# 2 -0.005214 0.011933 -0.002902 0.000000 0.001789 0.000000
# 3 -0.002732 -0.002902 0.011015 0.000000 0.005257 0.000000
# 4 0.000000 0.000000 0.000000 -0.000402 0.000000 0.008011
# 5 -0.015617 0.001789 0.005257 0.000000 0.081830 0.000000
# 6 0.000000 0.000000 0.000000 0.008011 0.000000 0.063942
#
#
# Mechanical properties :
#
#
# Convention : Reuss Voigt Hill
#
# Bulk Modulus (GPa) = 50.29893 54.68051 52.48972
# Shear Modulus (GPa) = 23.22632 -125.34808 -51.06088
#
# Velocity S-wave (km/s) = 3.68497 -8.56057 -5.46371
# Velocity P-wave (km/s) = 6.89290 8.10819 3.01917
#
# Compressibility (1/GPa) = 0.01988114
#
# Stress axis : x y z
#
# Youngs Moduli (GPa) = 53.67917 83.79834 90.78255
#
# Poissons Ratio (x) = 0.43695 0.24802
# Poissons Ratio (y) = 0.27990 0.26347
# Poissons Ratio (z) = 0.14665 0.24320
#
# Static dielectric constant tensor:
#      x y z
#    x 2.992340 0.000000 -0.067360 
#    y 0.000000 3.498670 0.000000 
#    z -0.067360 0.000000 3.416590 
# 
# 
# High freq. dielectric constant tensor:
#      x y z
#    x 1.611730 0.000000 -0.002580 
#    y 0.000000 1.663810 0.000000 
#    z -0.002580 0.000000 1.681820 
# 
# From -- ./inp_files/148377.got.cif
#   From: 2010.06.25/outbox.cif.g09.slc.cpg/sg15_75_cif.got.tgz:148377.got - 2010.06.28 07:06:18.
