data_PCOD8136822
_publ_section_title
;
Structure prediction by ZEFSAII (Michael W. Deem and Ramdas Pophale) SiO2 
 PCOD8136822
Probable space group: C 2/C
;
_chemical_formula_sum "Si O2"
_cell_formula_units_Z 64
_cell_length_a 26.758473
_cell_length_b 11.629927
_cell_length_c 11.442722
_cell_angle_alpha 90.000000
_cell_angle_beta 104.353337
_cell_angle_gamma 90.000000
_cell_volume 3449.810483
_symmetry_space_group_name_H-M "C 2/C"
_symmetry_group_IT_number 15
_symmetry_cell_setting 'monoclinic'
loop_
_space_group_symop_operation_xyz
x,y,z
-x,y,1/2-z
-x,-y,-z
x,-y,1/2+z
1/2+x,1/2+y,z
1/2-x,1/2+y,1/2-z
1/2-x,1/2-y,-z
1/2+x,1/2-y,1/2+z
loop_
_atom_site_type_symbol
_atom_site_label
_atom_site_fract_x
_atom_site_fract_y
_atom_site_fract_z
Si Si1 0.307085 0.857497 0.692655
Si Si2 0.315975 0.253343 0.640842
Si Si3 0.808222 0.084036 0.342921
Si Si4 0.007096 0.602390 0.627896
Si Si5 0.125382 0.573438 0.703374
Si Si6 0.704278 0.327341 0.120550
Si Si7 0.474020 0.853091 0.612390
Si Si8 0.138479 0.721044 0.496650
O O1 0.249227 0.900133 0.641680
O O2 0.313025 0.765453 0.796871
O O3 0.320978 0.796287 0.581231
O O4 0.347113 0.957838 0.743030
O O5 0.312218 0.370221 0.713223
O O6 0.365555 0.174814 0.696912
O O7 0.323623 0.292598 0.514191
O O8 0.265930 0.172885 0.636118
O O9 0.850345 0.152526 0.444366
O O10 0.818759 0.948646 0.350776
O O11 0.064909 0.551276 0.654748
O O12 0.998213 0.674529 0.500390
O O13 0.000000 0.669902 0.750000
O O14 0.968637 0.492277 0.611276
O O15 0.149933 0.620855 0.597299
O O16 0.500000 0.810884 0.750000
O O17 0.419928 0.787165 0.582115
#
# Coordination Sequence:
#
# PCOD8136822 Si02
#       8
#     8   8   8   8   8   8   8   8
#     4  11  21  32  54  80 107 145 191 221 268 331
#     4   9  20  37  51  75 110 149 183 228 275 313
#     4  10  21  36  54  72 110 150 188 231 267 324
#     4   9  17  31  53  79 111 147 169 217 291 345
#     4  10  20  35  53  82 118 144 175 228 279 332
#     4  10  21  35  52  76 105 151 190 223 267 313
#     4   9  17  33  50  77 111 138 173 224 283 335
#     4  10  22  35  53  81 110 147 182 223 284 329
#
# _framework density 18.551745
#
# number of rings (size 3 to 8) (size 9 to 14) (size 15 to 20)
#    0.000    2.250    1.250    1.875    3.500    1.000 
#    2.250    0.000    0.000    0.000    0.000    4.375 
#    0.000    0.000    0.000    0.000    0.000    0.000 
#
# Total GULP energy -396531.969682 kJ/mol
# GULP energy per Si atom -12391.624053 kJ/mol
# Density = 1.850952 g / cm^3
# Si number density = 18.551745 Si / 1000 Ang^3
#
#
#
# Elastic Constant Matrix: (Units=GPa)
#
#
# Indices 1 2 3 4 5 6 
#
# 1 50.2355 18.0836 25.7506 0.0000 5.9607 0.0000
# 2 18.0836 79.5280 25.6146 0.0000 4.5822 0.0000
# 3 25.7506 25.6146 140.6451 0.0000 -7.2117 0.0000
# 4 0.0000 0.0000 0.0000 7.6462 0.0000 6.0873
# 5 5.9607 4.5822 -7.2117 0.0000 35.4129 0.0000
# 6 0.0000 0.0000 0.0000 6.0873 0.0000 15.7275
#
#
#
# Elastic Compliance Matrix: (Units=1/GPa)
#
#
# Indices 1 2 3 4 5 6 
#
# 1 0.023808 -0.003922 -0.003864 0.000000 -0.004287 0.000000
# 2 -0.003922 0.014183 -0.001946 0.000000 -0.001571 0.000000
# 3 -0.003864 -0.001946 0.008305 0.000000 0.002593 0.000000
# 4 0.000000 0.000000 0.000000 0.189031 0.000000 -0.073164
# 5 -0.004287 -0.001571 0.002593 0.000000 0.029691 0.000000
# 6 0.000000 0.000000 0.000000 -0.073164 0.000000 0.091901
#
#
# Mechanical properties :
#
#
# Convention : Reuss Voigt Hill
#
# Bulk Modulus (GPa) = 37.26912 45.47848 41.37380
# Shear Modulus (GPa) = 12.97599 25.15463 19.06531
#
# Velocity S-wave (km/s) = 2.64758 3.68627 3.20923
# Velocity P-wave (km/s) = 5.42947 6.53343 6.00687
#
# Compressibility (1/GPa) = 0.02683186
#
# Stress axis : x y z
#
# Youngs Moduli (GPa) = 42.00340 70.50627 120.41006
#
# Poissons Ratio (x) = 0.27652 0.46532
# Poissons Ratio (y) = 0.16473 0.23427
# Poissons Ratio (z) = 0.16232 0.13718
#
# Static dielectric constant tensor:
#      x y z
#    x 3.279480 0.000000 -0.037790 
#    y 0.000000 3.122390 0.000000 
#    z -0.037790 0.000000 3.888630 
# 
# 
# High freq. dielectric constant tensor:
#      x y z
#    x 1.698830 0.000000 -0.002370 
#    y 0.000000 1.682220 0.000000 
#    z -0.002370 0.000000 1.748410 
# 
# From -- ./inp_files/117627.got.cif
#   From: 2010.06.25/outbox.cif.g09.slc.cpg/sg15_59_cif.got.tgz:117627.got - 2010.06.28 07:06:18.
