data_PCOD8136303
_publ_section_title
;
Structure prediction by ZEFSAII (Michael W. Deem and Ramdas Pophale) SiO2 
 PCOD8136303
Probable space group: C 2/C
;
_chemical_formula_sum "Si O2"
_cell_formula_units_Z 56
_cell_length_a 18.130703
_cell_length_b 21.106099
_cell_length_c 14.035421
_cell_angle_alpha 90.000000
_cell_angle_beta 31.775810
_cell_angle_gamma 90.000000
_cell_volume 2828.305903
_symmetry_space_group_name_H-M "C 2/C"
_symmetry_group_IT_number 15
_symmetry_cell_setting 'monoclinic'
loop_
_space_group_symop_operation_xyz
x,y,z
-x,y,1/2-z
-x,-y,-z
x,-y,1/2+z
1/2+x,1/2+y,z
1/2-x,1/2+y,1/2-z
1/2-x,1/2-y,-z
1/2+x,1/2-y,1/2+z
loop_
_atom_site_type_symbol
_atom_site_label
_atom_site_fract_x
_atom_site_fract_y
_atom_site_fract_z
Si Si1 0.991300 0.581160 0.872799
Si Si2 0.488917 0.600242 0.019587
Si Si3 0.389146 0.268837 0.668675
Si Si4 0.891664 0.708179 0.954926
Si Si5 0.694664 0.134672 0.795783
Si Si6 0.386026 0.045292 0.454889
Si Si7 0.076915 0.992496 0.265249
O O1 0.137401 0.601268 0.761898
O O2 0.000000 0.570726 0.750000
O O3 0.884726 0.638753 0.011717
O O4 0.932413 0.513620 0.972780
O O5 0.397925 0.664560 0.102299
O O6 0.420996 0.558093 0.178024
O O7 0.642447 0.620337 0.884468
O O8 0.492916 0.561108 0.916963
O O9 0.541321 0.258978 0.546929
O O10 0.342577 0.209432 0.655284
O O11 0.269893 0.272479 0.884515
O O12 0.000000 0.703016 0.750000
O O13 0.621758 0.105754 0.968733
O O14 0.500000 0.062086 0.250000
O O15 0.236205 0.029369 0.571231
O O16 0.000000 0.002949 0.250000
#
# Coordination Sequence:
#
# PCOD8136303 Si02
#       7
#     8   8   8   8   8   8   8
#     4   9  19  33  56  87 117 148 193 243 295 357
#     4  10  22  41  64  88 123 161 202 246 303 363
#     4  11  20  38  56  85 116 161 196 245 291 360
#     4  10  20  33  53  81 118 151 197 236 296 355
#     4  10  21  38  60  87 121 161 200 245 299 355
#     4  10  21  39  61  89 118 153 202 255 299 354
#     4  10  23  42  64  92 120 156 203 251 307 359
#
# _framework density 19.799838999999999
#
# number of rings (size 3 to 8) (size 9 to 14) (size 15 to 20)
#    0.000    2.000    1.429    1.714    4.000    0.571 
#   10.286    0.714    0.000    3.429    0.000    0.000 
#    0.000    0.000    0.000    0.000    0.000    0.000 
#
# Total GULP energy -346885.170517 kJ/mol
# GULP energy per Si atom -12388.756090 kJ/mol
# Density = 1.975477 g / cm^3
# Si number density = 19.799839 Si / 1000 Ang^3
#
#
#
# Elastic Constant Matrix: (Units=GPa)
#
#
# Indices 1 2 3 4 5 6 
#
# 1 67.6322 26.2613 30.7892 -0.0037 0.6990 0.0025
# 2 26.2613 141.0077 47.1247 -0.0009 8.1108 0.0007
# 3 30.7892 47.1247 108.6531 -0.0020 4.3190 0.0027
# 4 -0.0037 -0.0009 -0.0020 18.7885 0.0050 3.7282
# 5 0.6990 8.1108 4.3190 0.0050 21.2776 -0.0041
# 6 0.0025 0.0007 0.0027 3.7282 -0.0041 17.9827
#
#
#
# Elastic Compliance Matrix: (Units=1/GPa)
#
#
# Indices 1 2 3 4 5 6 
#
# 1 0.017404 -0.001915 -0.004141 0.000003 0.000999 -0.000002
# 2 -0.001915 0.008633 -0.003099 0.000000 -0.002599 0.000000
# 3 -0.004141 -0.003099 0.011764 0.000001 -0.001071 -0.000001
# 4 0.000003 0.000000 0.000001 0.055508 -0.000016 -0.011508
# 5 0.000999 -0.002599 -0.001071 -0.000016 0.048173 0.000014
# 6 -0.000002 0.000000 -0.000001 -0.011508 0.000014 0.057995
#
#
# Mechanical properties :
#
#
# Convention : Reuss Voigt Hill
#
# Bulk Modulus (GPa) = 51.30232 58.40480 54.85356
# Shear Modulus (GPa) = 22.29324 25.81761 24.05542
#
# Velocity S-wave (km/s) = 3.35913 3.61491 3.48937
# Velocity P-wave (km/s) = 6.40404 6.85457 6.63313
#
# Compressibility (1/GPa) = 0.01949230
#
# Stress axis : x y z
#
# Youngs Moduli (GPa) = 57.45715 115.82824 85.00868
#
# Poissons Ratio (x) = 0.22180 0.35203
# Poissons Ratio (y) = 0.11002 0.26340
# Poissons Ratio (z) = 0.23793 0.35890
#
# Static dielectric constant tensor:
#      x y z
#    x 3.322920 -0.000010 -0.184160 
#    y -0.000010 4.082020 0.000010 
#    z -0.184160 0.000010 3.544630 
# 
# 
# High freq. dielectric constant tensor:
#      x y z
#    x 1.739680 0.000000 -0.021730 
#    y 0.000000 1.791420 0.000000 
#    z -0.021730 0.000000 1.771910 
# 
# From -- ./inp_files/163771.got.cif
#   From: 2010.06.25/outbox.cif.g09.slc.cpg/sg15_82_cif.got.tgz:163771.got - 2010.06.28 07:06:18.
