data_PCOD8136863
_publ_section_title
;
Structure prediction by ZEFSAII (Michael W. Deem and Ramdas Pophale) SiO2 
 PCOD8136863
Probable space group: C 2/C
;
_chemical_formula_sum "Si O2"
_cell_formula_units_Z 64
_cell_length_a 20.875914
_cell_length_b 9.787985
_cell_length_c 19.601399
_cell_angle_alpha 90.000000
_cell_angle_beta 62.453416
_cell_angle_gamma 90.000000
_cell_volume 3551.164514
_symmetry_space_group_name_H-M "C 2/C"
_symmetry_group_IT_number 15
_symmetry_cell_setting 'monoclinic'
loop_
_space_group_symop_operation_xyz
x,y,z
-x,y,1/2-z
-x,-y,-z
x,-y,1/2+z
1/2+x,1/2+y,z
1/2-x,1/2+y,1/2-z
1/2-x,1/2-y,-z
1/2+x,1/2-y,1/2+z
loop_
_atom_site_type_symbol
_atom_site_label
_atom_site_fract_x
_atom_site_fract_y
_atom_site_fract_z
Si Si1 0.789935 0.894053 0.778410
Si Si2 0.434729 0.736672 0.047591
Si Si3 0.918278 0.936568 0.429970
Si Si4 0.705731 0.152639 0.830537
Si Si5 0.922493 0.022651 0.647664
Si Si6 0.225313 0.136369 0.563977
Si Si7 0.093117 0.800365 0.469952
Si Si8 0.229945 0.652344 0.448353
O O1 0.781786 0.765886 0.732968
O O2 0.864264 0.979953 0.733152
O O3 0.787922 0.840285 0.857389
O O4 0.724468 0.000534 0.794741
O O5 0.378092 0.847826 0.103975
O O6 0.430387 0.598111 0.090996
O O7 0.415175 0.696507 0.979999
O O8 0.517778 0.783624 0.013602
O O9 0.858914 0.906880 0.401146
O O10 0.899342 0.075041 0.480254
O O11 0.998784 0.947919 0.357474
O O12 0.759421 0.188356 0.866890
O O13 0.896687 0.149688 0.613445
O O14 0.250000 0.250000 0.500000
O O15 0.273633 0.002789 0.523362
O O16 0.152705 0.688477 0.456002
O O17 0.250000 0.750000 0.500000
#
# Coordination Sequence:
#
# PCOD8136863 Si02
#       8
#     8   8   8   8   8   8   8   8
#     4  10  21  35  53  80 109 143 186 226 272 329
#     4   8  15  29  54  82 106 141 180 221 267 321
#     4   9  15  30  55  82 109 141 178 225 270 319
#     4  10  20  35  55  81 111 143 185 221 278 330
#     4   8  16  30  55  81 105 142 185 221 265 318
#     4  11  21  33  54  83 116 141 175 223 284 334
#     4   9  16  31  56  81 107 139 183 228 267 318
#     4  11  22  35  54  81 109 140 184 230 277 318
#
# _framework density 18.022257
#
# number of rings (size 3 to 8) (size 9 to 14) (size 15 to 20)
#    0.000    2.500    2.500    2.250    0.000    1.000 
#    0.000    5.000    2.750    0.000    0.000    0.000 
#    0.000    0.000    0.000    0.000    0.000    0.000 
#
# Total GULP energy -396515.398540 kJ/mol
# GULP energy per Si atom -12391.106204 kJ/mol
# Density = 1.798124 g / cm^3
# Si number density = 18.022257 Si / 1000 Ang^3
#
#
#
# Elastic Constant Matrix: (Units=GPa)
#
#
# Indices 1 2 3 4 5 6 
#
# 1 129.0391 38.2749 51.6165 0.0000 -11.9037 0.0000
# 2 38.2749 83.2053 47.7767 0.0000 -1.7503 -0.0001
# 3 51.6165 47.7767 108.6479 0.0000 -6.7394 0.0000
# 4 0.0000 0.0000 0.0000 27.9419 0.0000 0.4001
# 5 -11.9037 -1.7503 -6.7394 0.0000 28.0676 0.0000
# 6 0.0000 -0.0001 0.0000 0.4001 0.0000 31.1399
#
#
#
# Elastic Compliance Matrix: (Units=1/GPa)
#
#
# Indices 1 2 3 4 5 6 
#
# 1 0.010238 -0.002629 -0.003501 0.000000 0.003337 0.000000
# 2 -0.002629 0.016767 -0.006221 0.000000 -0.001563 0.000000
# 3 -0.003501 -0.006221 0.013690 0.000000 0.001415 0.000000
# 4 0.000000 0.000000 0.000000 0.035795 0.000000 -0.000460
# 5 0.003337 -0.001563 0.001415 0.000000 0.037286 0.000000
# 6 0.000000 0.000000 0.000000 -0.000460 0.000000 0.032119
#
#
# Mechanical properties :
#
#
# Convention : Reuss Voigt Hill
#
# Bulk Modulus (GPa) = 62.52452 66.24762 64.38607
# Shear Modulus (GPa) = 28.42074 29.64484 29.03279
#
# Velocity S-wave (km/s) = 3.97543 4.06014 4.01801
# Velocity P-wave (km/s) = 7.47264 7.66930 7.57161
#
# Compressibility (1/GPa) = 0.01599373
#
# Stress axis : x y z
#
# Youngs Moduli (GPa) = 97.67996 59.64034 73.04347
#
# Poissons Ratio (x) = 0.15680 0.25569
# Poissons Ratio (y) = 0.25681 0.45441
# Poissons Ratio (z) = 0.34193 0.37103
#
# Static dielectric constant tensor:
#      x y z
#    x 3.627630 0.000000 -0.336300 
#    y 0.000000 3.248640 0.000000 
#    z -0.336300 0.000000 3.605870 
# 
# 
# High freq. dielectric constant tensor:
#      x y z
#    x 1.700640 0.000000 -0.007750 
#    y 0.000000 1.682090 0.000000 
#    z -0.007750 0.000000 1.684380 
# 
# From -- ./inp_files/214816.got.cif
#   From: 2010.06.25/outbox.cif.g09.slc.cpg/sg15_108_cif.got.tgz:214816.got - 2010.06.28 07:06:18.
