data_PCOD8136268
_publ_section_title
;
Structure prediction by ZEFSAII (Michael W. Deem and Ramdas Pophale) SiO2 
 PCOD8136268
Probable space group: C 2/C
;
_chemical_formula_sum "Si O2"
_cell_formula_units_Z 64
_cell_length_a 12.573318
_cell_length_b 27.859511
_cell_length_c 14.128305
_cell_angle_alpha 90.000000
_cell_angle_beta 40.489811
_cell_angle_gamma 90.000000
_cell_volume 3213.419497
_symmetry_space_group_name_H-M "C 2/C"
_symmetry_group_IT_number 15
_symmetry_cell_setting 'monoclinic'
loop_
_space_group_symop_operation_xyz
x,y,z
-x,y,1/2-z
-x,-y,-z
x,-y,1/2+z
1/2+x,1/2+y,z
1/2-x,1/2+y,1/2-z
1/2-x,1/2-y,-z
1/2+x,1/2-y,1/2+z
loop_
_atom_site_type_symbol
_atom_site_label
_atom_site_fract_x
_atom_site_fract_y
_atom_site_fract_z
Si Si1 0.037045 0.152290 0.937079
Si Si2 0.835830 0.228218 0.314839
Si Si3 0.652648 0.853537 0.397990
Si Si4 0.413576 0.010514 0.405871
Si Si5 0.585612 0.375806 0.781056
Si Si6 0.482179 0.752659 0.032533
Si Si7 0.607649 0.066495 0.429047
Si Si8 0.150991 0.908493 0.084285
O O1 0.222129 0.149123 0.774484
O O2 0.914782 0.116423 0.966024
O O3 0.033754 0.138196 0.050851
O O4 0.979425 0.207785 0.961531
O O5 0.836650 0.170960 0.321902
O O6 0.658938 0.247487 0.469914
O O7 0.837305 0.243197 0.204091
O O8 0.000000 0.251254 0.250000
O O9 0.557903 0.803938 0.487757
O O10 0.524251 0.893589 0.453349
O O11 0.746495 0.868149 0.429705
O O12 0.500000 0.995119 0.250000
O O13 0.546906 0.034673 0.383366
O O14 0.262765 0.045830 0.484005
O O15 0.351089 0.963651 0.504060
O O16 0.500000 0.402663 0.750000
O O17 0.728224 0.409792 0.722727
O O18 0.000000 0.927029 0.250000
#
# Coordination Sequence:
#
# PCOD8136268 Si02
#       8
#     8   8   8   8   8   8   8   8
#     4  10  21  37  58  84 115 155 196 235 284 349
#     4  10  20  33  51  77 112 155 194 231 281 335
#     4  10  20  37  57  83 117 154 191 242 287 338
#     4  10  21  38  61  87 111 147 189 237 300 356
#     4  10  21  36  56  80 113 147 189 234 284 338
#     4  11  19  34  55  80 117 154 194 241 281 342
#     4  10  21  38  59  83 116 147 188 242 292 347
#     4   9  20  39  61  83 113 151 194 239 294 347
#
# _framework density 19.916478999999999
#
# number of rings (size 3 to 8) (size 9 to 14) (size 15 to 20)
#    0.000    2.000    2.500    1.125    0.000    2.000 
#    0.000    0.625    0.000    7.500    0.000    0.000 
#    0.000    0.000    0.000    0.000    0.000    0.000 
#
# Total GULP energy -396618.528554 kJ/mol
# GULP energy per Si atom -12394.329017 kJ/mol
# Density = 1.987115 g / cm^3
# Si number density = 19.916479 Si / 1000 Ang^3
#
#
#
# Elastic Constant Matrix: (Units=GPa)
#
#
# Indices 1 2 3 4 5 6 
#
# 1 71.7258 23.1371 27.8724 0.0000 0.1752 0.0000
# 2 23.1371 76.3398 26.0845 0.0000 3.4788 0.0000
# 3 27.8724 26.0845 92.0972 0.0000 3.8481 0.0000
# 4 0.0000 0.0000 0.0000 26.6562 0.0000 -2.2137
# 5 0.1752 3.4788 3.8481 0.0000 30.3597 0.0000
# 6 0.0000 0.0000 0.0000 -2.2137 0.0000 23.6746
#
#
#
# Elastic Compliance Matrix: (Units=1/GPa)
#
#
# Indices 1 2 3 4 5 6 
#
# 1 0.016710 -0.003723 -0.004038 0.000000 0.000842 0.000000
# 2 -0.003723 0.015372 -0.003171 0.000000 -0.001338 0.000000
# 3 -0.004038 -0.003171 0.013031 0.000000 -0.001265 0.000000
# 4 0.000000 0.000000 0.000000 0.037808 0.000000 0.003535
# 5 0.000842 -0.001338 -0.001265 0.000000 0.033247 0.000000
# 6 0.000000 0.000000 0.000000 0.003535 0.000000 0.042570
#
#
# Mechanical properties :
#
#
# Convention : Reuss Voigt Hill
#
# Bulk Modulus (GPa) = 43.01240 43.81675 43.41458
# Shear Modulus (GPa) = 26.54591 27.00935 26.77763
#
# Velocity S-wave (km/s) = 3.65480 3.68656 3.67072
# Velocity P-wave (km/s) = 6.28119 6.33790 6.30961
#
# Compressibility (1/GPa) = 0.02324911
#
# Stress axis : x y z
#
# Youngs Moduli (GPa) = 59.84438 65.05221 76.73941
#
# Poissons Ratio (x) = 0.24220 0.30986
# Poissons Ratio (y) = 0.22281 0.24335
# Poissons Ratio (z) = 0.24164 0.20629
#
# Static dielectric constant tensor:
#      x y z
#    x 3.540200 0.000000 -0.175940 
#    y 0.000000 3.644980 0.000000 
#    z -0.175940 0.000000 3.615370 
# 
# 
# High freq. dielectric constant tensor:
#      x y z
#    x 1.762240 0.000000 -0.007570 
#    y 0.000000 1.774050 0.000000 
#    z -0.007570 0.000000 1.781830 
# 
# From -- ./inp_files/148735.got.cif
#   From: 2010.06.25/outbox.cif.g09.slc.cpg/sg15_75_cif.got.tgz:148735.got - 2010.06.28 07:06:18.
