data_PCOD8136657
_publ_section_title
;
Structure prediction by ZEFSAII (Michael W. Deem and Ramdas Pophale) SiO2 
 PCOD8136657
Probable space group: C 2/C
;
_chemical_formula_sum "Si O2"
_cell_formula_units_Z 64
_cell_length_a 8.514752
_cell_length_b 20.240908
_cell_length_c 19.437160
_cell_angle_alpha 90.000000
_cell_angle_beta 126.569206
_cell_angle_gamma 90.000000
_cell_volume 2690.449674
_symmetry_space_group_name_H-M "C 2/C"
_symmetry_group_IT_number 15
_symmetry_cell_setting 'monoclinic'
loop_
_space_group_symop_operation_xyz
x,y,z
-x,y,1/2-z
-x,-y,-z
x,-y,1/2+z
1/2+x,1/2+y,z
1/2-x,1/2+y,1/2-z
1/2-x,1/2-y,-z
1/2+x,1/2-y,1/2+z
loop_
_atom_site_type_symbol
_atom_site_label
_atom_site_fract_x
_atom_site_fract_y
_atom_site_fract_z
Si Si1 0.759722 0.350917 0.536100
Si Si2 0.777488 0.068808 0.067133
Si Si3 0.580543 0.065261 0.867326
Si Si4 0.581880 0.656085 0.197762
Si Si5 0.940297 0.710184 0.628728
Si Si6 0.475634 0.241092 0.486639
Si Si7 0.908828 0.569148 0.332744
Si Si8 0.484022 0.538995 0.924306
O O1 0.628486 0.299425 0.544717
O O2 0.924881 0.311967 0.536911
O O3 0.611039 0.393928 0.451879
O O4 0.873103 0.400077 0.617128
O O5 0.645946 0.071506 0.100732
O O6 0.918043 0.133614 0.099063
O O7 0.649511 0.061931 0.965044
O O8 0.930172 0.007390 0.113662
O O9 0.492937 0.137927 0.827435
O O10 0.755907 0.056649 0.857929
O O11 0.420556 0.007687 0.812420
O O12 0.500000 0.635948 0.250000
O O13 0.602659 0.735731 0.195359
O O14 0.780651 0.613194 0.246321
O O15 0.724428 0.731399 0.600422
O O16 0.924630 0.702922 0.542675
O O17 0.500000 0.500000 0.000000
#
# Coordination Sequence:
#
# PCOD8136657 Si02
#       8
#     8   8   8   8   8   8   8   8
#     4  11  20  37  58  95 133 155 208 264 317 361
#     4  10  20  37  64  89 124 164 211 260 306 373
#     4  11  21  36  65  98 119 154 214 269 312 360
#     4  10  23  41  61  86 125 174 208 251 319 394
#     4  11  21  39  62  88 125 163 216 253 310 375
#     4  10  22  34  63  94 121 166 206 264 312 369
#     4  11  22  38  63  92 127 169 208 253 324 385
#     4  10  20  34  58  93 128 157 198 272 312 353
#
# _framework density 23.787845000000001
#
# number of rings (size 3 to 8) (size 9 to 14) (size 15 to 20)
#    0.000    1.500    3.750    4.125    3.500    0.000 
#    0.000    3.750    0.000    0.000    0.000    0.000 
#    0.000    0.000    0.000    0.000    0.000    0.000 
#
# Total GULP energy -396543.694346 kJ/mol
# GULP energy per Si atom -12391.990448 kJ/mol
# Density = 2.373370 g / cm^3
# Si number density = 23.787845 Si / 1000 Ang^3
#
#
#
# Elastic Constant Matrix: (Units=GPa)
#
#
# Indices 1 2 3 4 5 6 
#
# 1 70.2144 39.8704 15.3733 0.0000 14.2040 0.0000
# 2 39.8704 207.9909 33.7290 0.0000 32.8027 0.0000
# 3 15.3733 33.7290 58.9761 0.0000 9.9144 0.0000
# 4 0.0000 0.0000 0.0000 36.6976 0.0000 16.9081
# 5 14.2040 32.8027 9.9144 0.0000 21.9272 0.0000
# 6 0.0000 0.0000 0.0000 16.9081 0.0000 40.6816
#
#
#
# Elastic Compliance Matrix: (Units=1/GPa)
#
#
# Indices 1 2 3 4 5 6 
#
# 1 0.017252 -0.001757 -0.002225 0.000000 -0.007541 0.000000
# 2 -0.001757 0.006742 -0.002049 0.000000 -0.008021 0.000000
# 3 -0.002225 -0.002049 0.019427 0.000000 -0.004277 0.000000
# 4 0.000000 0.000000 0.000000 0.033704 0.000000 -0.014008
# 5 -0.007541 -0.008021 -0.004277 0.000000 0.064424 0.000000
# 6 0.000000 0.000000 0.000000 -0.014008 0.000000 0.030403
#
#
# Mechanical properties :
#
#
# Convention : Reuss Voigt Hill
#
# Bulk Modulus (GPa) = 31.88823 57.23632 44.56228
# Shear Modulus (GPa) = 25.71120 36.40853 31.05986
#
# Velocity S-wave (km/s) = 3.29120 3.91647 3.61737
# Velocity P-wave (km/s) = 5.27987 6.67571 6.01839
#
# Compressibility (1/GPa) = 0.03135953
#
# Stress axis : x y z
#
# Youngs Moduli (GPa) = 57.96267 148.32162 51.47482
#
# Poissons Ratio (x) = 0.26061 0.11451
# Poissons Ratio (y) = 0.10184 0.10549
# Poissons Ratio (z) = 0.12894 0.30397
#
# Static dielectric constant tensor:
#      x y z
#    x 4.361730 0.000000 0.241390 
#    y 0.000000 4.703870 0.000000 
#    z 0.241390 0.000000 3.807930 
# 
# 
# High freq. dielectric constant tensor:
#      x y z
#    x 1.937780 0.000000 0.011490 
#    y 0.000000 1.967590 0.000000 
#    z 0.011490 0.000000 1.899820 
# 
# From -- ./inp_files/266128.got.cif
#   From: 2010.06.25/outbox.cif.g09.slc.cpg/sg15_134_cif.got.tgz:266128.got - 2010.06.28 07:06:18.
