data_PCOD8136769
_publ_section_title
;
Structure prediction by ZEFSAII (Michael W. Deem and Ramdas Pophale) SiO2 
 PCOD8136769
Probable space group: C 2/C
;
_chemical_formula_sum "Si O2"
_cell_formula_units_Z 44
_cell_length_a 13.285358
_cell_length_b 15.292499
_cell_length_c 10.886172
_cell_angle_alpha 90.000000
_cell_angle_beta 97.861829
_cell_angle_gamma 90.000000
_cell_volume 2190.915326
_symmetry_space_group_name_H-M "C 2/C"
_symmetry_group_IT_number 15
_symmetry_cell_setting 'monoclinic'
loop_
_space_group_symop_operation_xyz
x,y,z
-x,y,1/2-z
-x,-y,-z
x,-y,1/2+z
1/2+x,1/2+y,z
1/2-x,1/2+y,1/2-z
1/2-x,1/2-y,-z
1/2+x,1/2-y,1/2+z
loop_
_atom_site_type_symbol
_atom_site_label
_atom_site_fract_x
_atom_site_fract_y
_atom_site_fract_z
Si Si1 0.267710 0.885304 0.583766
Si Si2 0.736741 0.156728 0.933290
Si Si3 0.000000 0.132494 0.750000
Si Si4 0.562074 0.025374 0.887791
Si Si5 0.795766 0.197648 0.670715
Si Si6 0.606214 0.475984 0.073247
O O1 0.265268 0.857855 0.440499
O O2 0.270091 0.799631 0.666930
O O3 0.364065 0.944920 0.628504
O O4 0.166116 0.935105 0.608292
O O5 0.625372 0.113802 0.932894
O O6 0.755911 0.162924 0.792415
O O7 0.823629 0.089236 0.998612
O O8 0.750000 0.250000 0.000000
O O9 0.918382 0.191779 0.662834
O O10 0.920208 0.072182 0.806259
O O11 0.500000 0.041092 0.750000
O O12 0.500000 0.000000 0.000000
O O13 0.500000 0.500000 0.000000
#
# Coordination Sequence:
#
# PCOD8136769 Si02
#       6
#     8   8   4   8   8   8
#     4  10  22  39  66  90 129 166 210 261 318 380
#     4  10  24  42  62  91 130 163 208 267 312 374
#     4  10  20  34  64  86 128 156 206 252 306 376
#     4  11  25  43  68  96 132 174 222 263 326 393
#     4  10  21  39  60  95 127 163 212 261 314 379
#     4  10  20  39  60  91 116 160 204 249 310 371
#
# _framework density 20.082930000000001
#
# number of rings (size 3 to 8) (size 9 to 14) (size 15 to 20)
#    0.000    1.818    1.818    1.091    3.818    2.909 
#    3.273    0.000    0.000    0.000    0.000    0.000 
#    0.000    0.000    0.000    0.000    0.000    0.000 
#
# Total GULP energy -272575.405217 kJ/mol
# GULP energy per Si atom -12389.791146 kJ/mol
# Density = 2.003722 g / cm^3
# Si number density = 20.082930 Si / 1000 Ang^3
#
#
#
# Elastic Constant Matrix: (Units=GPa)
#
#
# Indices 1 2 3 4 5 6 
#
# 1 140.3256 73.8191 43.2809 0.0000 10.0856 0.0000
# 2 73.8191 147.9563 30.6900 0.0000 11.7565 0.0000
# 3 43.2809 30.6900 67.3192 0.0000 5.4023 0.0000
# 4 0.0000 0.0000 0.0000 22.4483 0.0000 6.6027
# 5 10.0856 11.7565 5.4023 0.0000 36.1056 0.0000
# 6 0.0000 0.0000 0.0000 6.6027 0.0000 34.0734
#
#
#
# Elastic Compliance Matrix: (Units=1/GPa)
#
#
# Indices 1 2 3 4 5 6 
#
# 1 0.011059 -0.004402 -0.005030 0.000000 -0.000903 0.000000
# 2 -0.004402 0.009354 -0.001304 0.000000 -0.001621 0.000000
# 3 -0.005030 -0.001304 0.018762 0.000000 -0.000977 0.000000
# 4 0.000000 0.000000 0.000000 0.047239 0.000000 -0.009154
# 5 -0.000903 -0.001621 -0.000977 0.000000 0.028623 0.000000
# 6 0.000000 0.000000 0.000000 -0.009154 0.000000 0.031122
#
#
# Mechanical properties :
#
#
# Convention : Reuss Voigt Hill
#
# Bulk Modulus (GPa) = 56.49360 72.35345 64.42352
# Shear Modulus (GPa) = 28.81298 32.37955 30.59626
#
# Velocity S-wave (km/s) = 3.79185 4.01969 3.90743
# Velocity P-wave (km/s) = 6.88201 7.59272 7.24609
#
# Compressibility (1/GPa) = 0.01770112
#
# Stress axis : x y z
#
# Youngs Moduli (GPa) = 90.42803 106.90087 53.29992
#
# Poissons Ratio (x) = 0.47060 0.26812
# Poissons Ratio (y) = 0.39808 0.06951
# Poissons Ratio (z) = 0.45489 0.13942
#
# Static dielectric constant tensor:
#      x y z
#    x 4.325490 0.000000 0.323000 
#    y 0.000000 3.782460 0.000000 
#    z 0.323000 0.000000 3.495580 
# 
# 
# High freq. dielectric constant tensor:
#      x y z
#    x 1.798230 0.000000 0.009600 
#    y 0.000000 1.798240 0.000000 
#    z 0.009600 0.000000 1.768480 
# 
# From -- ./inp_files/86203.got.cif
#   From: 2010.06.25/outbox.cif.g09.slc.cpg/sg15_44_cif.got.tgz:86203.got - 2010.06.28 07:06:18.
