data_PCOD8136507
_publ_section_title
;
Structure prediction by ZEFSAII (Michael W. Deem and Ramdas Pophale) SiO2 
 PCOD8136507
Probable space group: C 2/C
;
_chemical_formula_sum "Si O2"
_cell_formula_units_Z 44
_cell_length_a 23.803428
_cell_length_b 15.020776
_cell_length_c 8.897289
_cell_angle_alpha 90.000000
_cell_angle_beta 50.224241
_cell_angle_gamma 90.000000
_cell_volume 2444.916975
_symmetry_space_group_name_H-M "C 2/C"
_symmetry_group_IT_number 15
_symmetry_cell_setting 'monoclinic'
loop_
_space_group_symop_operation_xyz
x,y,z
-x,y,1/2-z
-x,-y,-z
x,-y,1/2+z
1/2+x,1/2+y,z
1/2-x,1/2+y,1/2-z
1/2-x,1/2-y,-z
1/2+x,1/2-y,1/2+z
loop_
_atom_site_type_symbol
_atom_site_label
_atom_site_fract_x
_atom_site_fract_y
_atom_site_fract_z
Si Si1 0.923767 0.768305 0.963398
Si Si2 0.000000 0.511737 0.250000
Si Si3 0.251756 0.565246 0.144971
Si Si4 0.914188 0.402810 0.643950
Si Si5 0.775603 0.729562 0.120762
Si Si6 0.693416 0.604079 0.769006
O O1 0.000000 0.780137 0.750000
O O2 0.926515 0.703833 0.105137
O O3 0.864088 0.718044 0.958442
O O4 0.891859 0.866677 0.059086
O O5 0.059001 0.572989 0.234801
O O6 0.961247 0.449193 0.435392
O O7 0.168444 0.562400 0.231463
O O8 0.263405 0.641703 0.249497
O O9 0.280855 0.475545 0.169097
O O10 0.300599 0.582635 0.915817
O O11 0.756783 0.810765 0.267750
O O12 0.750000 0.750000 0.000000
#
# Coordination Sequence:
#
# PCOD8136507 Si02
#       6
#     8   4   8   8   8   8
#     4   9  20  40  58  82 122 157 192 243 301 348
#     4  10  20  34  54  90 114 162 188 230 312 360
#     4  11  20  38  59  88 118 154 198 250 297 345
#     4  10  20  35  56  84 125 149 191 242 294 365
#     4   9  20  36  61  88 113 155 196 243 295 352
#     4  10  22  36  63  83 117 155 195 250 295 348
#
# _framework density 17.996521000000001
#
# number of rings (size 3 to 8) (size 9 to 14) (size 15 to 20)
#    1.091    1.091    0.909    2.727    0.000    1.455 
#    3.273    0.909    0.000    0.000    0.000    0.000 
#    0.000    0.000    0.000    0.000    0.000    0.000 
#
# Total GULP energy -272570.541028 kJ/mol
# GULP energy per Si atom -12389.570047 kJ/mol
# Density = 1.795556 g / cm^3
# Si number density = 17.996521 Si / 1000 Ang^3
#
#
#
# Elastic Constant Matrix: (Units=GPa)
#
#
# Indices 1 2 3 4 5 6 
#
# 1 87.7914 52.1172 45.2951 0.0000 13.4276 0.0000
# 2 52.1172 123.1031 35.1958 0.0000 -4.3032 0.0000
# 3 45.2951 35.1958 85.1140 0.0000 -9.0849 0.0000
# 4 0.0000 0.0000 0.0000 22.9756 0.0000 -0.8093
# 5 13.4276 -4.3032 -9.0849 0.0000 32.0117 0.0000
# 6 0.0000 0.0000 0.0000 -0.8093 0.0000 31.2386
#
#
#
# Elastic Compliance Matrix: (Units=1/GPa)
#
#
# Indices 1 2 3 4 5 6 
#
# 1 0.023544 -0.007312 -0.010998 0.000000 -0.013980 0.000000
# 2 -0.007312 0.011484 -0.000377 0.000000 0.004504 0.000000
# 3 -0.010998 -0.000377 0.018815 0.000000 0.009902 0.000000
# 4 0.000000 0.000000 0.000000 0.043564 0.000000 0.001129
# 5 -0.013980 0.004504 0.009902 0.000000 0.040518 0.000000
# 6 0.000000 0.000000 0.000000 0.001129 0.000000 0.032041
#
#
# Mechanical properties :
#
#
# Convention : Reuss Voigt Hill
#
# Bulk Modulus (GPa) = 60.72046 62.35831 61.53939
# Shear Modulus (GPa) = 23.49307 28.13853 25.81580
#
# Velocity S-wave (km/s) = 3.61698 3.95847 3.79157
# Velocity P-wave (km/s) = 7.15938 7.45775 7.31009
#
# Compressibility (1/GPa) = 0.01646891
#
# Stress axis : x y z
#
# Youngs Moduli (GPa) = 42.47404 87.07743 53.15042
#
# Poissons Ratio (x) = 0.63670 0.58454
# Poissons Ratio (y) = 0.31056 0.02003
# Poissons Ratio (z) = 0.46713 0.03282
#
# Static dielectric constant tensor:
#      x y z
#    x 3.217110 0.000000 0.056950 
#    y 0.000000 3.489050 0.000000 
#    z 0.056950 0.000000 3.158720 
# 
# 
# High freq. dielectric constant tensor:
#      x y z
#    x 1.685550 0.000000 0.007510 
#    y 0.000000 1.699410 0.000000 
#    z 0.007510 0.000000 1.689640 
# 
# From -- ./inp_files/54949.got.cif
#   From: 2010.06.25/outbox.cif.g09.slc.cpg/sg15_28_cif.got.tgz:54949.got - 2010.06.28 07:06:18.
