data_PCOD8136445
_publ_section_title
;
Structure prediction by ZEFSAII (Michael W. Deem and Ramdas Pophale) SiO2 
 PCOD8136445
Probable space group: C 2/C
;
_chemical_formula_sum "Si O2"
_cell_formula_units_Z 60
_cell_length_a 5.416207
_cell_length_b 33.628012
_cell_length_c 14.525611
_cell_angle_alpha 90.000000
_cell_angle_beta 81.040184
_cell_angle_gamma 90.000000
_cell_volume 2613.358060
_symmetry_space_group_name_H-M "C 2/C"
_symmetry_group_IT_number 15
_symmetry_cell_setting 'monoclinic'
loop_
_space_group_symop_operation_xyz
x,y,z
-x,y,1/2-z
-x,-y,-z
x,-y,1/2+z
1/2+x,1/2+y,z
1/2-x,1/2+y,1/2-z
1/2-x,1/2-y,-z
1/2+x,1/2-y,1/2+z
loop_
_atom_site_type_symbol
_atom_site_label
_atom_site_fract_x
_atom_site_fract_y
_atom_site_fract_z
Si Si1 0.500000 0.303608 0.750000
Si Si2 0.227875 0.035278 0.585030
Si Si3 0.707480 0.116411 0.007477
Si Si4 0.036639 0.197683 0.538277
Si Si5 0.659391 0.231133 0.133468
Si Si6 0.702955 0.166178 0.421906
Si Si7 0.287234 0.998834 0.879486
Si Si8 0.766155 0.085929 0.196593
O O1 0.732202 0.275026 0.768650
O O2 0.558969 0.333650 0.661491
O O3 0.263504 0.082584 0.570469
O O4 0.441675 0.020809 0.645236
O O5 0.946251 0.026847 0.637694
O O6 0.260874 0.012650 0.487415
O O7 0.792685 0.158465 0.959599
O O8 0.416300 0.122481 0.055049
O O9 0.850679 0.105267 0.093783
O O10 0.111094 0.227944 0.451250
O O11 0.035010 0.224699 0.630760
O O12 0.765855 0.182321 0.521060
O O13 0.482406 0.195004 0.119747
O O14 0.284031 0.960702 0.814603
O O15 0.500000 0.104219 0.250000
O O16 0.000000 0.092678 0.250000
#
# Coordination Sequence:
#
# PCOD8136445 Si02
#       8
#     4   8   8   8   8   8   8   8
#     4  10  20  34  56  76 112 152 204 236 294 366
#     4   9  18  33  59  79 110 143 192 244 283 328
#     4  10  23  35  53  85 119 149 189 237 308 351
#     4   9  19  34  54  76 112 145 193 246 292 341
#     4   9  18  35  53  78 103 150 199 241 285 345
#     4  10  20  34  52  79 115 152 191 239 300 355
#     4   9  18  35  56  81 107 148 196 235 272 336
#     4  11  24  38  57  86 126 163 193 230 295 370
#
# _framework density 22.958967000000001
#
# number of rings (size 3 to 8) (size 9 to 14) (size 15 to 20)
#    0.000    2.400    0.000    1.600    3.733    6.400 
#    4.800    0.000    0.000    0.000    5.200    0.000 
#    0.000    0.000    0.000    0.000    0.000    0.000 
#
# Total GULP energy -371658.224239 kJ/mol
# GULP energy per Si atom -12388.607475 kJ/mol
# Density = 2.290671 g / cm^3
# Si number density = 22.958967 Si / 1000 Ang^3
#
#
#
# Elastic Constant Matrix: (Units=GPa)
#
#
# Indices 1 2 3 4 5 6 
#
# 1 112.6050 13.1104 6.4766 0.0000 20.9205 0.0000
# 2 13.1104 107.5314 13.1545 0.0000 8.2242 0.0000
# 3 6.4766 13.1545 19.1463 0.0000 9.4798 0.0000
# 4 0.0000 0.0000 0.0000 28.9278 0.0000 0.4094
# 5 20.9205 8.2242 9.4798 0.0000 30.3692 0.0000
# 6 0.0000 0.0000 0.0000 0.4094 0.0000 28.1119
#
#
#
# Elastic Compliance Matrix: (Units=1/GPa)
#
#
# Indices 1 2 3 4 5 6 
#
# 1 0.010243 -0.000779 0.000543 0.000000 -0.007015 0.000000
# 2 -0.000779 0.010224 -0.006690 0.000000 -0.000144 0.000000
# 3 0.000543 -0.006690 0.066154 0.000000 -0.019213 0.000000
# 4 0.000000 0.000000 0.000000 0.034576 0.000000 -0.000503
# 5 -0.007015 -0.000144 -0.019213 0.000000 0.043797 0.000000
# 6 0.000000 0.000000 0.000000 -0.000503 0.000000 0.035579
#
#
# Mechanical properties :
#
#
# Convention : Reuss Voigt Hill
#
# Bulk Modulus (GPa) = 13.74164 33.86287 23.80225
# Shear Modulus (GPa) = 20.94845 31.25120 26.09983
#
# Velocity S-wave (km/s) = 3.02392 3.69341 3.37531
# Velocity P-wave (km/s) = 4.26503 5.74193 5.05768
#
# Compressibility (1/GPa) = 0.07277153
#
# Stress axis : x y z
#
# Youngs Moduli (GPa) = 97.62457 97.80968 15.11616
#
# Poissons Ratio (x) = 0.07618 -0.00821
# Poissons Ratio (y) = 0.07603 0.10112
# Poissons Ratio (z) = -0.05305 0.65431
#
# Static dielectric constant tensor:
#      x y z
#    x 4.553400 0.000000 -0.005100 
#    y 0.000000 4.153410 0.000000 
#    z -0.005100 0.000000 4.079760 
# 
# 
# High freq. dielectric constant tensor:
#      x y z
#    x 1.921600 0.000000 0.015000 
#    y 0.000000 1.894990 0.000000 
#    z 0.015000 0.000000 1.862280 
# 
# From -- ./inp_files/186188.got.cif
#   From: 2010.06.25/outbox.cif.g09.slc.cpg/sg15_94_cif.got.tgz:186188.got - 2010.06.28 07:06:18.
