data_PCOD8136650
_publ_section_title
;
Structure prediction by ZEFSAII (Michael W. Deem and Ramdas Pophale) SiO2 
 PCOD8136650
Probable space group: C 2/C
;
_chemical_formula_sum "Si O2"
_cell_formula_units_Z 52
_cell_length_a 25.484219
_cell_length_b 7.412658
_cell_length_c 18.989624
_cell_angle_alpha 90.000000
_cell_angle_beta 44.977181
_cell_angle_gamma 90.000000
_cell_volume 2535.558447
_symmetry_space_group_name_H-M "C 2/C"
_symmetry_group_IT_number 15
_symmetry_cell_setting 'monoclinic'
loop_
_space_group_symop_operation_xyz
x,y,z
-x,y,1/2-z
-x,-y,-z
x,-y,1/2+z
1/2+x,1/2+y,z
1/2-x,1/2+y,1/2-z
1/2-x,1/2-y,-z
1/2+x,1/2-y,1/2+z
loop_
_atom_site_type_symbol
_atom_site_label
_atom_site_fract_x
_atom_site_fract_y
_atom_site_fract_z
Si Si1 0.757158 0.962137 0.897410
Si Si2 0.000000 0.937881 0.750000
Si Si3 0.651141 0.402003 0.064034
Si Si4 0.225386 0.830324 0.855569
Si Si5 0.040088 0.377430 0.301895
Si Si6 0.671935 0.836743 0.268043
Si Si7 0.110760 0.494359 0.596864
O O1 0.795247 0.983574 0.937331
O O2 0.766247 0.153271 0.848069
O O3 0.795932 0.800267 0.819835
O O4 0.671207 0.898998 0.991677
O O5 0.988702 0.821476 0.689704
O O6 0.932873 0.062320 0.835482
O O7 0.655625 0.188125 0.069641
O O8 0.673973 0.435582 0.961021
O O9 0.173060 0.760386 0.842258
O O10 0.285268 0.972598 0.769428
O O11 0.085466 0.380806 0.331661
O O12 0.098383 0.419914 0.184473
O O13 0.968500 0.513003 0.370100
#
# Coordination Sequence:
#
# PCOD8136650 Si02
#       7
#     8   4   8   8   8   8   8
#     4  11  22  41  66  95 120 165 212 271 313 376
#     4  10  20  34  58  92 124 154 204 258 306 378
#     4  11  21  39  65  95 123 161 215 263 316 369
#     4  11  25  40  64  95 124 168 213 262 313 380
#     4  10  21  37  58  92 125 164 201 254 326 371
#     4  12  23  42  64  89 134 166 211 259 324 372
#     4   9  20  37  61  92 123 156 213 263 311 368
#
# _framework density 20.508303000000002
#
# number of rings (size 3 to 8) (size 9 to 14) (size 15 to 20)
#    0.000    1.538    3.077    4.615    4.308    1.231 
#    0.000    3.846    3.385    0.000    0.000    0.000 
#    0.000    0.000    0.000    0.000    0.000    0.000 
#
# Total GULP energy -322204.093470 kJ/mol
# GULP energy per Si atom -12392.465133 kJ/mol
# Density = 2.046162 g / cm^3
# Si number density = 20.508303 Si / 1000 Ang^3
#
#
#
# Elastic Constant Matrix: (Units=GPa)
#
#
# Indices 1 2 3 4 5 6 
#
# 1 138.2474 16.9884 37.8390 0.0049 11.5833 -0.0024
# 2 16.9884 45.9489 10.2792 -0.0011 3.6270 0.0048
# 3 37.8390 10.2792 73.3578 0.0030 -1.4545 -0.0039
# 4 0.0049 -0.0011 0.0030 24.9279 0.0001 5.7320
# 5 11.5833 3.6270 -1.4545 0.0001 31.1353 -0.0014
# 6 -0.0024 0.0048 -0.0039 5.7320 -0.0014 27.5020
#
#
#
# Elastic Compliance Matrix: (Units=1/GPa)
#
#
# Indices 1 2 3 4 5 6 
#
# 1 0.008969 -0.002071 -0.004402 -0.000001 -0.003301 0.000001
# 2 -0.002071 0.023186 -0.002221 0.000003 -0.002034 -0.000005
# 3 -0.004402 -0.002221 0.016266 -0.000002 0.002656 0.000003
# 4 -0.000001 0.000003 -0.000002 0.042135 0.000000 -0.008782
# 5 -0.003301 -0.002034 0.002656 0.000000 0.033707 0.000002
# 6 0.000001 -0.000005 0.000003 -0.008782 0.000002 0.038191
#
#
# Mechanical properties :
#
#
# Convention : Reuss Voigt Hill
#
# Bulk Modulus (GPa) = 32.22228 43.08525 37.65377
# Shear Modulus (GPa) = 26.28984 29.54288 27.91636
#
# Velocity S-wave (km/s) = 3.58426 3.79955 3.69348
# Velocity P-wave (km/s) = 5.73369 6.34847 6.04890
#
# Compressibility (1/GPa) = 0.03103442
#
# Stress axis : x y z
#
# Youngs Moduli (GPa) = 111.49183 43.12865 61.47719
#
# Poissons Ratio (x) = 0.08931 0.27061
# Poissons Ratio (y) = 0.23088 0.13655
# Poissons Ratio (z) = 0.49076 0.09579
#
# Static dielectric constant tensor:
#      x y z
#    x 3.938950 -0.000030 -0.287610 
#    y -0.000030 3.777190 0.000030 
#    z -0.287610 0.000030 3.972230 
# 
# 
# High freq. dielectric constant tensor:
#      x y z
#    x 1.795190 0.000000 -0.011220 
#    y 0.000000 1.806750 0.000000 
#    z -0.011220 0.000000 1.791410 
# 
# From -- ./inp_files/221848.got.cif
#   From: 2010.06.25/outbox.cif.g09.slc.cpg/sg15_111_cif.got.tgz:221848.got - 2010.06.28 07:06:18.
