data_PCOD8136137
_publ_section_title
;
Structure prediction by ZEFSAII (Michael W. Deem and Ramdas Pophale) SiO2 
 PCOD8136137
Probable space group: C 2/C
;
_chemical_formula_sum "Si O2"
_cell_formula_units_Z 64
_cell_length_a 28.457138
_cell_length_b 16.550053
_cell_length_c 24.394457
_cell_angle_alpha 90.000000
_cell_angle_beta 161.634242
_cell_angle_gamma 90.000000
_cell_volume 3619.972055
_symmetry_space_group_name_H-M "C 2/C"
_symmetry_group_IT_number 15
_symmetry_cell_setting 'monoclinic'
loop_
_space_group_symop_operation_xyz
x,y,z
-x,y,1/2-z
-x,-y,-z
x,-y,1/2+z
1/2+x,1/2+y,z
1/2-x,1/2+y,1/2-z
1/2-x,1/2-y,-z
1/2+x,1/2-y,1/2+z
loop_
_atom_site_type_symbol
_atom_site_label
_atom_site_fract_x
_atom_site_fract_y
_atom_site_fract_z
Si Si1 0.695940 0.416110 0.180876
Si Si2 0.099845 0.159205 0.160273
Si Si3 0.640975 0.935698 0.593791
Si Si4 0.725568 0.652238 0.519348
Si Si5 0.055454 0.790545 0.734161
Si Si6 0.669322 0.143840 0.238900
Si Si7 0.317961 0.975074 0.203203
Si Si8 0.381735 0.233192 0.920164
O O1 0.750672 0.488517 0.279115
O O2 0.745838 0.426811 0.173469
O O3 0.756450 0.333933 0.274191
O O4 0.516564 0.411651 0.984283
O O5 0.269646 0.128671 0.343881
O O6 0.064802 0.189013 0.181497
O O7 0.075883 0.233340 0.092563
O O8 0.599844 0.898659 0.607634
O O9 0.495162 0.962230 0.400122
O O10 0.881561 0.700147 0.687104
O O11 0.616315 0.705987 0.437089
O O12 0.650683 0.644966 0.376244
O O13 0.752535 0.563090 0.574650
O O14 0.815820 0.196699 0.386925
O O15 0.717262 0.071414 0.333344
O O16 0.535009 0.197251 0.115919
#
# Coordination Sequence:
#
# PCOD8136137 Si02
#       8
#     8   8   8   8   8   8   8   8
#     4  11  18  33  47  69 104 138 170 209 248 312
#     4  11  22  30  49  72 103 138 169 210 255 304
#     4  10  21  31  48  71 102 139 174 204 255 312
#     4  10  22  37  55  71 103 138 175 225 258 299
#     4  10  22  37  51  77 100 133 183 216 255 302
#     4  10  20  32  47  72 104 140 174 208 250 313
#     4  11  19  35  52  70 101 145 178 210 265 307
#     4  11  19  30  47  73 102 138 174 206 246 310
#
# _framework density 17.679694000000001
#
# number of rings (size 3 to 8) (size 9 to 14) (size 15 to 20)
#    0.000    1.500    5.000    1.875    1.750    0.000 
#    0.000    0.000    0.000    0.000    0.000    0.000 
#    0.000    9.000    0.000    0.000    0.000    0.000 
#
# Total GULP energy -396772.491963 kJ/mol
# GULP energy per Si atom -12399.140374 kJ/mol
# Density = 1.763945 g / cm^3
# Si number density = 17.679694 Si / 1000 Ang^3
#
#
#
# Elastic Constant Matrix: (Units=GPa)
#
#
# Indices 1 2 3 4 5 6 
#
# 1 35.0175 20.1147 16.0657 0.0052 2.9499 0.0023
# 2 20.1147 93.5643 27.4075 0.0070 0.0997 0.0045
# 3 16.0657 27.4075 58.8433 0.0168 12.3474 0.0123
# 4 0.0052 0.0070 0.0168 31.6148 0.0068 0.9624
# 5 2.9499 0.0997 12.3474 0.0068 20.9612 0.0043
# 6 0.0023 0.0045 0.0123 0.9624 0.0043 26.7966
#
#
#
# Elastic Compliance Matrix: (Units=1/GPa)
#
#
# Indices 1 2 3 4 5 6 
#
# 1 0.034911 -0.005521 -0.006772 -0.000001 -0.000898 0.000001
# 2 -0.005521 0.013522 -0.005637 0.000000 0.004033 0.000000
# 3 -0.006772 -0.005637 0.024262 -0.000007 -0.013312 -0.000007
# 4 -0.000001 0.000000 -0.000007 0.031665 -0.000006 -0.001137
# 5 -0.000898 0.004033 -0.013312 -0.000006 0.055656 -0.000003
# 6 0.000001 0.000000 -0.000007 -0.001137 -0.000003 0.037359
#
#
# Mechanical properties :
#
#
# Convention : Reuss Voigt Hill
#
# Bulk Modulus (GPa) = 27.14764 34.95566 31.05165
# Shear Modulus (GPa) = 20.36560 24.13032 22.24796
#
# Velocity S-wave (km/s) = 3.39768 3.69841 3.55123
# Velocity P-wave (km/s) = 5.54805 6.16865 5.86656
#
# Compressibility (1/GPa) = 0.03683562
#
# Stress axis : x y z
#
# Youngs Moduli (GPa) = 28.64451 73.95568 41.21667
#
# Poissons Ratio (x) = 0.40828 0.27911
# Poissons Ratio (y) = 0.15814 0.23234
# Poissons Ratio (z) = 0.19397 0.41689
#
# Static dielectric constant tensor:
#      x y z
#    x 3.043940 -0.000020 0.219370 
#    y -0.000020 3.370380 -0.000040 
#    z 0.219370 -0.000040 3.338570 
# 
# 
# High freq. dielectric constant tensor:
#      x y z
#    x 1.647230 0.000000 0.032070 
#    y 0.000000 1.678840 0.000000 
#    z 0.032070 0.000000 1.684720 
# 
# From -- ./inp_files/62499.got.cif
#   From: 2010.06.25/outbox.cif.g09.slc.cpg/sg15_32_cif.got.tgz:62499.got - 2010.06.28 07:06:18.
