data_PCOD8136128
_publ_section_title
;
Structure prediction by ZEFSAII (Michael W. Deem and Ramdas Pophale) SiO2 
 PCOD8136128
Probable space group: C 2/C
;
_chemical_formula_sum "Si O2"
_cell_formula_units_Z 52
_cell_length_a 14.370808
_cell_length_b 18.456222
_cell_length_c 14.979672
_cell_angle_alpha 90.000000
_cell_angle_beta 37.932239
_cell_angle_gamma 90.000000
_cell_volume 2442.362202
_symmetry_space_group_name_H-M "C 2/C"
_symmetry_group_IT_number 15
_symmetry_cell_setting 'monoclinic'
loop_
_space_group_symop_operation_xyz
x,y,z
-x,y,1/2-z
-x,-y,-z
x,-y,1/2+z
1/2+x,1/2+y,z
1/2-x,1/2+y,1/2-z
1/2-x,1/2-y,-z
1/2+x,1/2-y,1/2+z
loop_
_atom_site_type_symbol
_atom_site_label
_atom_site_fract_x
_atom_site_fract_y
_atom_site_fract_z
Si Si1 0.500000 0.366630 0.750000
Si Si2 0.366341 0.691324 0.172418
Si Si3 0.279148 0.509898 0.440592
Si Si4 0.847226 0.433962 0.646630
Si Si5 0.381333 0.085482 0.668191
Si Si6 0.000000 0.441559 0.250000
Si Si7 0.000000 0.119864 0.750000
Si Si8 0.623130 0.682946 0.832961
O O1 0.577001 0.315567 0.767585
O O2 0.617783 0.420345 0.610975
O O3 0.269129 0.620726 0.219995
O O4 0.259031 0.759605 0.237194
O O5 0.505161 0.698818 0.000096
O O6 0.226950 0.522104 0.378997
O O7 0.363515 0.432527 0.384579
O O8 0.138895 0.507450 0.613952
O O9 0.888820 0.498395 0.682348
O O10 0.001547 0.392129 0.499631
O O11 0.447923 0.114670 0.711478
O O12 0.208759 0.106965 0.782261
O O13 0.956543 0.175564 0.703033
#
# Coordination Sequence:
#
# PCOD8136128 Si02
#       8
#     4   8   8   8   8   4   4   8
#     4   9  20  41  68  92 128 158 200 262 319 377
#     4  11  25  42  63  94 124 170 207 258 318 378
#     4   9  18  38  61  96 124 155 204 260 314 362
#     4   9  19  39  63  89 126 154 201 257 312 369
#     4  10  20  37  62  94 123 158 201 259 314 371
#     4  10  20  31  61 101 125 152 194 260 324 377
#     4  11  24  42  61  87 125 170 214 264 299 364
#     4  12  26  43  63  89 127 172 216 257 311 372
#
# _framework density 21.290863999999999
#
# number of rings (size 3 to 8) (size 9 to 14) (size 15 to 20)
#    0.000    1.846    1.538    1.846    2.154    2.462 
#    0.000    0.769    0.000    0.000    0.000    0.000 
#    0.000    0.000    0.000    0.000    0.000    0.000 
#
# Total GULP energy -322203.228925 kJ/mol
# GULP energy per Si atom -12392.431882 kJ/mol
# Density = 2.124240 g / cm^3
# Si number density = 21.290864 Si / 1000 Ang^3
#
#
#
# Elastic Constant Matrix: (Units=GPa)
#
#
# Indices 1 2 3 4 5 6 
#
# 1 101.1534 34.9012 44.2765 0.0012 2.4807 -0.0010
# 2 34.9012 72.2336 49.0586 0.0003 -1.5370 -0.0006
# 3 44.2765 49.0586 161.6490 -0.0003 -20.9711 0.0004
# 4 0.0012 0.0003 -0.0003 24.9555 0.0009 -13.1618
# 5 2.4807 -1.5370 -20.9711 0.0009 33.0414 -0.0008
# 6 -0.0010 -0.0006 0.0004 -13.1618 -0.0008 40.2811
#
#
#
# Elastic Compliance Matrix: (Units=1/GPa)
#
#
# Indices 1 2 3 4 5 6 
#
# 1 0.012560 -0.004474 -0.002432 0.000000 -0.002695 0.000000
# 2 -0.004474 0.019269 -0.004863 0.000000 -0.001854 0.000000
# 3 -0.002432 -0.004863 0.009069 0.000000 0.005713 0.000000
# 4 0.000000 0.000000 0.000000 0.048415 -0.000001 0.015819
# 5 -0.002695 -0.001854 0.005713 -0.000001 0.034007 0.000000
# 6 0.000000 0.000000 0.000000 0.015819 0.000000 0.029995
#
#
# Mechanical properties :
#
#
# Convention : Reuss Voigt Hill
#
# Bulk Modulus (GPa) = 57.60320 65.72317 61.66318
# Shear Modulus (GPa) = 27.37620 33.44225 30.40923
#
# Velocity S-wave (km/s) = 3.58972 3.96755 3.78335
# Velocity P-wave (km/s) = 6.65549 7.20588 6.93615
#
# Compressibility (1/GPa) = 0.01736015
#
# Stress axis : x y z
#
# Youngs Moduli (GPa) = 79.61522 51.89640 110.26148
#
# Poissons Ratio (x) = 0.23221 0.26816
# Poissons Ratio (y) = 0.35623 0.53620
# Poissons Ratio (z) = 0.19363 0.25237
#
# Static dielectric constant tensor:
#      x y z
#    x 4.158920 0.000000 -0.299090 
#    y 0.000000 3.647240 0.000010 
#    z -0.299090 0.000010 3.896590 
# 
# 
# High freq. dielectric constant tensor:
#      x y z
#    x 1.847110 0.000000 -0.016380 
#    y 0.000000 1.807460 0.000000 
#    z -0.016380 0.000000 1.838720 
# 
# From -- ./inp_files/155462.got.cif
#   From: 2010.06.25/outbox.cif.g09.slc.cpg/sg15_78_cif.got.tgz:155462.got - 2010.06.28 07:06:18.
