data_PCOD8136801
_publ_section_title
;
Structure prediction by ZEFSAII (Michael W. Deem and Ramdas Pophale) SiO2 
 PCOD8136801
Probable space group: C 2/C
;
_chemical_formula_sum "Si O2"
_cell_formula_units_Z 56
_cell_length_a 33.636688
_cell_length_b 20.906781
_cell_length_c 9.233588
_cell_angle_alpha 90.000000
_cell_angle_beta 153.100612
_cell_angle_gamma 90.000000
_cell_volume 2937.769115
_symmetry_space_group_name_H-M "C 2/C"
_symmetry_group_IT_number 15
_symmetry_cell_setting 'monoclinic'
loop_
_space_group_symop_operation_xyz
x,y,z
-x,y,1/2-z
-x,-y,-z
x,-y,1/2+z
1/2+x,1/2+y,z
1/2-x,1/2+y,1/2-z
1/2-x,1/2-y,-z
1/2+x,1/2-y,1/2+z
loop_
_atom_site_type_symbol
_atom_site_label
_atom_site_fract_x
_atom_site_fract_y
_atom_site_fract_z
Si Si1 0.706306 0.005187 0.484200
Si Si2 0.051011 0.634013 0.660188
Si Si3 0.381028 0.077086 0.036603
Si Si4 0.332471 0.223314 0.852785
Si Si5 0.821213 0.778648 0.124763
Si Si6 0.000000 0.719942 0.250000
Si Si7 0.255016 0.913848 0.650658
Si Si8 0.000000 0.720416 0.750000
O O1 0.764849 0.955142 0.768794
O O2 0.661676 0.051631 0.454752
O O3 0.764738 0.046288 0.560833
O O4 0.635844 0.967038 0.157984
O O5 0.985975 0.576641 0.403072
O O6 0.064106 0.678043 0.561885
O O7 0.995793 0.674911 0.597331
O O8 0.142339 0.607320 0.017327
O O9 0.342800 0.147000 0.874764
O O10 0.250000 0.250000 0.500000
O O11 0.312012 0.239815 0.949331
O O12 0.424913 0.257545 0.098226
O O13 0.917194 0.766970 0.501103
O O14 0.750000 0.750000 0.000000
O O15 0.808899 0.853708 0.057371
#
# Coordination Sequence:
#
# PCOD8136801 Si02
#       8
#     8   8   8   8   8   4   8   4
#     4  10  22  36  53  81 120 159 207 238 282 359
#     4  11  20  35  57  83 126 157 194 243 291 366
#     4  10  20  35  51  81 116 160 191 240 287 351
#     4  11  22  37  60  84 116 155 197 243 309 357
#     4  12  23  39  63  91 121 161 198 252 312 360
#     4  10  20  36  50  85 121 154 180 242 290 360
#     4  11  22  37  58  84 118 161 198 247 297 355
#     4  12  22  38  60  91 127 156 198 250 304 372
#
# _framework density 19.062083000000001
#
# number of rings (size 3 to 8) (size 9 to 14) (size 15 to 20)
#    0.000    1.143    4.286    5.143    0.000    3.429 
#    0.000    0.000    0.000    0.857    0.000    4.000 
#    0.000    0.000    0.000    0.000    0.000    0.000 
#
# Total GULP energy -347025.177769 kJ/mol
# GULP energy per Si atom -12393.756349 kJ/mol
# Density = 1.901870 g / cm^3
# Si number density = 19.062083 Si / 1000 Ang^3
#
#
#
# Elastic Constant Matrix: (Units=GPa)
#
#
# Indices 1 2 3 4 5 6 
#
# 1 124.4123 28.6987 38.9761 0.0000 -8.4908 0.0000
# 2 28.6987 81.8724 34.3036 0.0000 3.3895 0.0000
# 3 38.9761 34.3036 79.9661 0.0000 7.0022 0.0000
# 4 0.0000 0.0000 0.0000 -11.4702 0.0000 -12.5340
# 5 -8.4908 3.3895 7.0022 0.0000 28.1860 0.0000
# 6 0.0000 0.0000 0.0000 -12.5340 0.0000 26.6969
#
#
#
# Elastic Compliance Matrix: (Units=1/GPa)
#
#
# Indices 1 2 3 4 5 6 
#
# 1 0.010196 -0.001844 -0.004566 0.000000 0.004428 0.000000
# 2 -0.001844 0.015225 -0.005544 0.000000 -0.001009 0.000000
# 3 -0.004566 -0.005544 0.017553 0.000000 -0.005069 0.000000
# 4 0.000000 0.000000 0.000000 -0.057621 0.000000 -0.027053
# 5 0.004428 -0.001009 -0.005069 0.000000 0.038193 0.000000
# 6 0.000000 0.000000 0.000000 -0.027053 0.000000 0.024757
#
#
# Mechanical properties :
#
#
# Convention : Reuss Voigt Hill
#
# Bulk Modulus (GPa) = 52.45080 54.46752 53.45916
# Shear Modulus (GPa) = 63.64023 20.96736 42.30380
#
# Velocity S-wave (km/s) = 5.78431 3.32015 4.71602
# Velocity P-wave (km/s) = 8.49626 6.58283 7.60000
#
# Compressibility (1/GPa) = 0.01906549
#
# Stress axis : x y z
#
# Youngs Moduli (GPa) = 98.07929 65.68052 56.97007
#
# Poissons Ratio (x) = 0.12112 0.26013
# Poissons Ratio (y) = 0.18087 0.31585
# Poissons Ratio (z) = 0.44785 0.36414
#
# Static dielectric constant tensor:
#      x y z
#    x 5.391160 0.000000 -1.494500 
#    y 0.000000 4.154040 0.000000 
#    z -1.494500 0.000000 4.000590 
# 
# 
# High freq. dielectric constant tensor:
#      x y z
#    x 1.767270 0.000000 -0.025740 
#    y 0.000000 1.728480 0.000000 
#    z -0.025740 0.000000 1.714000 
# 
# From -- ./inp_files/50159.got.cif
#   From: 2010.06.25/outbox.cif.g09.slc.cpg/sg15_26_cif.got.tgz:50159.got - 2010.06.28 07:06:18.
