data_PCOD8136744
_publ_section_title
;
Structure prediction by ZEFSAII (Michael W. Deem and Ramdas Pophale) SiO2 
 PCOD8136744
Probable space group: C 2/C
;
_chemical_formula_sum "Si O2"
_cell_formula_units_Z 52
_cell_length_a 15.368944
_cell_length_b 19.743209
_cell_length_c 19.015151
_cell_angle_alpha 90.000000
_cell_angle_beta 151.071293
_cell_angle_gamma 90.000000
_cell_volume 2790.978262
_symmetry_space_group_name_H-M "C 2/C"
_symmetry_group_IT_number 15
_symmetry_cell_setting 'monoclinic'
loop_
_space_group_symop_operation_xyz
x,y,z
-x,y,1/2-z
-x,-y,-z
x,-y,1/2+z
1/2+x,1/2+y,z
1/2-x,1/2+y,1/2-z
1/2-x,1/2-y,-z
1/2+x,1/2-y,1/2+z
loop_
_atom_site_type_symbol
_atom_site_label
_atom_site_fract_x
_atom_site_fract_y
_atom_site_fract_z
Si Si1 0.132235 0.287008 0.287638
Si Si2 0.024574 0.580751 0.879602
Si Si3 0.661992 0.588080 0.083872
Si Si4 0.357804 0.567637 0.203941
Si Si5 0.000000 0.465608 0.750000
Si Si6 0.960233 0.819601 0.884403
Si Si7 0.188116 0.031582 0.712476
O O1 0.028474 0.357636 0.207107
O O2 0.141222 0.244746 0.221227
O O3 0.333317 0.299921 0.456308
O O4 0.000000 0.247527 0.250000
O O5 0.060793 0.513525 0.858128
O O6 0.865766 0.573854 0.823638
O O7 0.196608 0.602284 0.047063
O O8 0.643193 0.657024 0.117190
O O9 0.667837 0.523913 0.138091
O O10 0.838719 0.585009 0.159381
O O11 0.484368 0.581347 0.909886
O O12 0.500000 0.538976 0.250000
O O13 0.455278 0.619098 0.325670
O O14 0.285165 0.502076 0.193004
#
# Coordination Sequence:
#
# PCOD8136744 Si02
#       7
#     8   8   8   8   4   8   8
#     4  12  22  36  56  81 116 149 191 229 281 343
#     4  11  20  34  54  85 114 147 183 229 285 338
#     4   9  18  35  56  82 110 150 187 233 281 337
#     4  11  21  32  51  80 115 146 183 227 275 337
#     4  10  20  34  62  86 114 146 188 232 288 338
#     4  11  23  38  54  81 113 156 188 231 282 334
#     4   9  18  32  53  77 114 143 184 229 285 332
#
# _framework density 18.631461000000002
#
# number of rings (size 3 to 8) (size 9 to 14) (size 15 to 20)
#    0.000    1.538    2.308    4.154    2.154    0.000 
#    0.000    0.000    0.000    0.923    2.000    0.000 
#    0.000    0.000    0.000    0.000    0.000    0.000 
#
# Total GULP energy -322300.227257 kJ/mol
# GULP energy per Si atom -12396.162587 kJ/mol
# Density = 1.858905 g / cm^3
# Si number density = 18.631461 Si / 1000 Ang^3
#
#
#
# Elastic Constant Matrix: (Units=GPa)
#
#
# Indices 1 2 3 4 5 6 
#
# 1 114.9537 36.3336 42.8277 -0.0147 18.7465 -0.0068
# 2 36.3336 55.7822 25.3447 -0.0454 0.4722 -0.0260
# 3 42.8277 25.3447 121.1547 -0.0625 5.0956 -0.0355
# 4 -0.0147 -0.0454 -0.0625 25.6029 -0.0109 -7.5016
# 5 18.7465 0.4722 5.0956 -0.0109 26.6914 -0.0030
# 6 -0.0068 -0.0260 -0.0355 -7.5016 -0.0030 23.0712
#
#
#
# Elastic Compliance Matrix: (Units=1/GPa)
#
#
# Indices 1 2 3 4 5 6 
#
# 1 0.013567 -0.007461 -0.002863 -0.000021 -0.008850 -0.000017
# 2 -0.007461 0.023918 -0.002589 0.000045 0.005312 0.000036
# 3 -0.002863 -0.002589 0.009800 0.000023 0.000186 0.000019
# 4 -0.000021 0.000045 0.000023 0.043171 0.000029 0.014037
# 5 -0.008850 0.005312 0.000186 0.000029 0.043552 0.000019
# 6 -0.000017 0.000036 0.000019 0.014037 0.000019 0.047908
#
#
# Mechanical properties :
#
#
# Convention : Reuss Voigt Hill
#
# Bulk Modulus (GPa) = 46.60211 55.65584 51.12898
# Shear Modulus (GPa) = 23.26695 27.56542 25.41618
#
# Velocity S-wave (km/s) = 3.53767 3.85061 3.69745
# Velocity P-wave (km/s) = 6.46171 7.05028 6.76240
#
# Compressibility (1/GPa) = 0.02145825
#
# Stress axis : x y z
#
# Youngs Moduli (GPa) = 73.70583 41.80877 102.04267
#
# Poissons Ratio (x) = 0.31195 0.29214
# Poissons Ratio (y) = 0.54995 0.26422
# Poissons Ratio (z) = 0.21101 0.10826
#
# Static dielectric constant tensor:
#      x y z
#    x 3.598920 -0.000010 0.057430 
#    y -0.000010 3.245300 -0.000020 
#    z 0.057430 -0.000020 3.521860 
# 
# 
# High freq. dielectric constant tensor:
#      x y z
#    x 1.718400 0.000000 0.003460 
#    y 0.000000 1.688530 0.000000 
#    z 0.003460 0.000000 1.734690 
# 
# From -- ./inp_files/40829.got.cif
#   From: 2010.06.25/outbox.cif.g09.slc.cpg/sg15_21_cif.got.tgz:40829.got - 2010.06.28 07:06:18.
