data_PCOD8136360
_publ_section_title
;
Structure prediction by ZEFSAII (Michael W. Deem and Ramdas Pophale) SiO2 
 PCOD8136360
Probable space group: C 2/C
;
_chemical_formula_sum "Si O2"
_cell_formula_units_Z 52
_cell_length_a 26.232347
_cell_length_b 14.676405
_cell_length_c 9.028630
_cell_angle_alpha 90.000000
_cell_angle_beta 41.151220
_cell_angle_gamma 90.000000
_cell_volume 2287.371395
_symmetry_space_group_name_H-M "C 2/C"
_symmetry_group_IT_number 15
_symmetry_cell_setting 'monoclinic'
loop_
_space_group_symop_operation_xyz
x,y,z
-x,y,1/2-z
-x,-y,-z
x,-y,1/2+z
1/2+x,1/2+y,z
1/2-x,1/2+y,1/2-z
1/2-x,1/2-y,-z
1/2+x,1/2-y,1/2+z
loop_
_atom_site_type_symbol
_atom_site_label
_atom_site_fract_x
_atom_site_fract_y
_atom_site_fract_z
Si Si1 0.928736 0.168670 0.493992
Si Si2 0.500000 0.843007 0.250000
Si Si3 0.783139 0.171964 0.624126
Si Si4 0.884698 0.375546 0.959200
Si Si5 0.422012 0.665877 0.844788
Si Si6 0.607845 0.045012 0.728328
Si Si7 0.234011 0.870823 0.664092
O O1 0.849926 0.140158 0.587506
O O2 0.927374 0.136019 0.664167
O O3 0.000000 0.121367 0.250000
O O4 0.938809 0.278467 0.470819
O O5 0.453354 0.899452 0.232438
O O6 0.706120 0.133925 0.865414
O O7 0.798980 0.130053 0.429310
O O8 0.778793 0.279922 0.613611
O O9 0.902565 0.426218 0.077377
O O10 0.921199 0.274958 0.876723
O O11 0.914092 0.438894 0.758005
O O12 0.500000 0.627418 0.750000
O O13 0.343543 0.614680 0.069932
O O14 0.697017 0.055155 0.474875
#
# Coordination Sequence:
#
# PCOD8136360 Si02
#       7
#     8   4   8   8   8   8   8
#     4  10  20  33  57  83 109 139 184 233 272 325
#     4  10  22  34  56  78 114 148 180 224 274 330
#     4   9  17  36  54  80 103 147 184 229 274 319
#     4  10  25  35  57  78 117 147 189 223 271 335
#     4  11  22  36  55  87 111 147 184 230 276 328
#     4  11  22  39  53  82 112 157 179 227 275 324
#     4   9  18  35  57  72 113 144 186 226 275 325
#
# _framework density 22.733516999999999
#
# number of rings (size 3 to 8) (size 9 to 14) (size 15 to 20)
#    0.462    1.538    1.538    2.769    3.231    4.308 
#    0.000    0.000    0.000    0.923    0.000    6.462 
#    0.000    0.000    0.000    0.000    0.000    0.000 
#
# Total GULP energy -322168.974302 kJ/mol
# GULP energy per Si atom -12391.114396 kJ/mol
# Density = 2.268177 g / cm^3
# Si number density = 22.733517 Si / 1000 Ang^3
#
#
#
# Elastic Constant Matrix: (Units=GPa)
#
#
# Indices 1 2 3 4 5 6 
#
# 1 179.7603 -1.9704 45.3715 0.0000 -13.6019 0.0000
# 2 -1.9704 34.7508 -22.6454 0.0000 -6.4041 0.0000
# 3 45.3715 -22.6454 95.9480 0.0000 2.6168 0.0000
# 4 0.0000 0.0000 0.0000 18.3657 0.0000 1.6751
# 5 -13.6019 -6.4041 2.6168 0.0000 41.4332 0.0000
# 6 0.0000 0.0000 0.0000 1.6751 0.0000 8.3195
#
#
#
# Elastic Compliance Matrix: (Units=1/GPa)
#
#
# Indices 1 2 3 4 5 6 
#
# 1 0.006604 -0.001538 -0.003545 0.000000 0.002154 0.000000
# 2 -0.001538 0.035328 0.008946 0.000000 0.004390 0.000000
# 3 -0.003545 0.008946 0.014228 0.000000 -0.000680 0.000000
# 4 0.000000 0.000000 0.000000 0.055468 0.000000 -0.011168
# 5 0.002154 0.004390 -0.000680 0.000000 0.025564 0.000000
# 6 0.000000 0.000000 0.000000 -0.011168 0.000000 0.122448
#
#
# Mechanical properties :
#
#
# Convention : Reuss Voigt Hill
#
# Bulk Modulus (GPa) = 15.65312 39.10783 27.38047
# Shear Modulus (GPa) = 18.30102 32.93726 25.61914
#
# Velocity S-wave (km/s) = 2.84037 3.81049 3.36062
# Velocity P-wave (km/s) = 4.20207 6.04978 5.20852
#
# Compressibility (1/GPa) = 0.06388503
#
# Stress axis : x y z
#
# Youngs Moduli (GPa) = 151.42933 28.30645 70.28223
#
# Poissons Ratio (x) = 0.04355 0.24912
# Poissons Ratio (y) = 0.23297 -0.62872
# Poissons Ratio (z) = 0.53676 -0.25322
#
# Static dielectric constant tensor:
#      x y z
#    x 4.044890 0.000000 -0.120530 
#    y 0.000000 3.736850 0.000000 
#    z -0.120530 0.000000 4.201440 
# 
# 
# High freq. dielectric constant tensor:
#      x y z
#    x 1.909790 0.000000 -0.010150 
#    y 0.000000 1.859940 0.000000 
#    z -0.010150 0.000000 1.901130 
# 
# From -- ./inp_files/66989.got.cif
#   From: 2010.06.25/outbox.cif.g09.slc.cpg/sg15_34_cif.got.tgz:66989.got - 2010.06.28 07:06:18.
