data_PCOD8136785
_publ_section_title
;
Structure prediction by ZEFSAII (Michael W. Deem and Ramdas Pophale) SiO2 
 PCOD8136785
Probable space group: C 2/C
;
_chemical_formula_sum "Si O2"
_cell_formula_units_Z 52
_cell_length_a 16.585153
_cell_length_b 15.114329
_cell_length_c 12.951827
_cell_angle_alpha 90.000000
_cell_angle_beta 56.437352
_cell_angle_gamma 90.000000
_cell_volume 2705.398841
_symmetry_space_group_name_H-M "C 2/C"
_symmetry_group_IT_number 15
_symmetry_cell_setting 'monoclinic'
loop_
_space_group_symop_operation_xyz
x,y,z
-x,y,1/2-z
-x,-y,-z
x,-y,1/2+z
1/2+x,1/2+y,z
1/2-x,1/2+y,1/2-z
1/2-x,1/2-y,-z
1/2+x,1/2-y,1/2+z
loop_
_atom_site_type_symbol
_atom_site_label
_atom_site_fract_x
_atom_site_fract_y
_atom_site_fract_z
Si Si1 0.525245 0.901295 0.010836
Si Si2 0.148511 0.784543 0.167591
Si Si3 0.463144 0.445500 0.169219
Si Si4 0.865815 0.263098 0.048054
Si Si5 0.634477 0.419865 0.891209
Si Si6 0.000000 0.454411 0.250000
Si Si7 0.851415 0.591060 0.260298
O O1 0.444312 0.836685 0.019603
O O2 0.535098 0.892235 0.128648
O O3 0.625604 0.887774 0.877422
O O4 0.500000 0.000000 0.000000
O O5 0.083704 0.847664 0.285067
O O6 0.260311 0.808488 0.113733
O O7 0.125234 0.682014 0.199514
O O8 0.118972 0.795389 0.068082
O O9 0.500000 0.483360 0.250000
O O10 0.382095 0.517072 0.194774
O O11 0.553308 0.446062 0.029988
O O12 0.870533 0.185749 0.132160
O O13 0.742155 0.440160 0.855508
O O14 0.913547 0.514479 0.269530
#
# Coordination Sequence:
#
# PCOD8136785 Si02
#       7
#     8   8   8   8   8   4   8
#     4  10  21  35  59  86 121 152 190 247 296 360
#     4  10  20  34  66  88 111 150 197 261 295 346
#     4  11  22  37  59  84 115 156 200 247 291 343
#     4  10  20  38  60  91 117 151 199 246 310 351
#     4  10  23  38  56  85 119 157 196 241 294 352
#     4  10  22  36  58  90 120 158 190 238 316 362
#     4  10  21  37  58  88 118 148 196 247 298 355
#
# _framework density 19.220825000000001
#
# number of rings (size 3 to 8) (size 9 to 14) (size 15 to 20)
#    0.000    1.846    1.538    2.769    5.385    1.231 
#    1.385    0.000    0.000    1.846    0.000    0.000 
#    0.000    0.000    0.000    0.000    0.000    0.000 
#
# Total GULP energy -322107.780907 kJ/mol
# GULP energy per Si atom -12388.760804 kJ/mol
# Density = 1.917708 g / cm^3
# Si number density = 19.220825 Si / 1000 Ang^3
#
#
#
# Elastic Constant Matrix: (Units=GPa)
#
#
# Indices 1 2 3 4 5 6 
#
# 1 104.7247 60.1057 47.0709 0.0000 -5.0003 0.0000
# 2 60.1057 83.8931 16.7844 0.0000 -6.6015 0.0000
# 3 47.0709 16.7844 91.9724 0.0000 -7.1276 0.0000
# 4 0.0000 0.0000 0.0000 22.6052 0.0000 13.2642
# 5 -5.0003 -6.6015 -7.1276 0.0000 31.4926 0.0000
# 6 0.0000 0.0000 0.0000 13.2642 0.0000 4.4023
#
#
#
# Elastic Compliance Matrix: (Units=1/GPa)
#
#
# Indices 1 2 3 4 5 6 
#
# 1 0.020979 -0.013461 -0.008388 0.000000 -0.001389 0.000000
# 2 -0.013461 0.021150 0.003265 0.000000 0.003035 0.000000
# 3 -0.008388 0.003265 0.014779 0.000000 0.002697 0.000000
# 4 0.000000 0.000000 0.000000 -0.057603 0.000000 0.173560
# 5 -0.001389 0.003035 0.002697 0.000000 0.032780 0.000000
# 6 0.000000 0.000000 0.000000 0.173560 0.000000 -0.295786
#
#
# Mechanical properties :
#
#
# Convention : Reuss Voigt Hill
#
# Bulk Modulus (GPa) = 50.66113 58.72358 54.69236
# Shear Modulus (GPa) = -22.73208 22.14198 -0.29505
#
# Velocity S-wave (km/s) = -3.44274 3.39776 -0.39222
# Velocity P-wave (km/s) = 3.25751 6.78317 5.32085
#
# Compressibility (1/GPa) = 0.01973900
#
# Stress axis : x y z
#
# Youngs Moduli (GPa) = 47.66751 47.28113 67.66433
#
# Poissons Ratio (x) = 0.63647 0.56755
# Poissons Ratio (y) = 0.64167 -0.22092
# Poissons Ratio (z) = 0.39982 -0.15437
#
# Static dielectric constant tensor:
#      x y z
#    x 3.686260 0.000000 0.107230 
#    y 0.000000 3.613970 0.000000 
#    z 0.107230 0.000000 4.583820 
# 
# 
# High freq. dielectric constant tensor:
#      x y z
#    x 1.736340 0.000000 -0.015190 
#    y 0.000000 1.742670 0.000000 
#    z -0.015190 0.000000 1.754870 
# 
# From -- ./inp_files/161842.got.cif
#   From: 2010.06.25/outbox.cif.g09.slc.cpg/sg15_81_cif.got.tgz:161842.got - 2010.06.28 07:06:18.
