data_PCOD8136458
_publ_section_title
;
Structure prediction by ZEFSAII (Michael W. Deem and Ramdas Pophale) SiO2 
 PCOD8136458
Probable space group: C 2/C
;
_chemical_formula_sum "Si O2"
_cell_formula_units_Z 64
_cell_length_a 14.991584
_cell_length_b 9.152862
_cell_length_c 25.971740
_cell_angle_alpha 90.000000
_cell_angle_beta 110.679292
_cell_angle_gamma 90.000000
_cell_volume 3334.130319
_symmetry_space_group_name_H-M "C 2/C"
_symmetry_group_IT_number 15
_symmetry_cell_setting 'monoclinic'
loop_
_space_group_symop_operation_xyz
x,y,z
-x,y,1/2-z
-x,-y,-z
x,-y,1/2+z
1/2+x,1/2+y,z
1/2-x,1/2+y,1/2-z
1/2-x,1/2-y,-z
1/2+x,1/2-y,1/2+z
loop_
_atom_site_type_symbol
_atom_site_label
_atom_site_fract_x
_atom_site_fract_y
_atom_site_fract_z
Si Si1 0.528338 0.124755 0.698270
Si Si2 0.959261 0.160501 0.990650
Si Si3 0.942874 0.180561 0.098408
Si Si4 0.631314 0.098120 0.358337
Si Si5 0.823808 0.818059 0.317653
Si Si6 0.969272 0.836272 0.103134
Si Si7 0.200087 0.436595 0.761494
Si Si8 0.251494 0.839620 0.087297
O O1 0.500000 0.174215 0.750000
O O2 0.515277 0.263006 0.657340
O O3 0.463431 0.998543 0.661026
O O4 0.634185 0.060434 0.721330
O O5 0.844083 0.164651 0.965611
O O6 0.008017 0.230125 0.949581
O O7 0.983583 0.235693 0.050709
O O8 0.000000 0.000000 0.000000
O O9 0.834563 0.235844 0.082754
O O10 0.939575 0.005021 0.097093
O O11 0.615629 0.245495 0.387761
O O12 0.655634 0.133169 0.304138
O O13 0.715003 0.008417 0.403621
O O14 0.780187 0.696798 0.271636
O O15 0.771349 0.784492 0.360237
O O16 0.937277 0.811663 0.343255
O O17 0.798826 0.981352 0.293383
#
# Coordination Sequence:
#
# PCOD8136458 Si02
#       8
#     8   8   8   8   8   8   8   8
#     4   9  18  35  53  76 109 147 179 217 271 329
#     4   9  19  37  60  81 110 142 179 229 280 324
#     4  10  20  35  59  82 108 145 185 222 276 325
#     4   9  18  36  56  78 107 150 181 221 275 329
#     4  10  21  34  53  79 114 145 184 227 273 323
#     4  10  20  36  57  84 110 139 188 233 269 321
#     4  10  20  34  53  78 113 151 183 221 279 329
#     4   9  19  37  58  76 110 147 179 223 280 329
#
# _framework density 19.195409999999999
#
# number of rings (size 3 to 8) (size 9 to 14) (size 15 to 20)
#    0.000    2.500    1.250    1.125    1.750    1.000 
#    2.250    5.000    2.750    0.000    0.000    0.000 
#    0.000    0.000    0.000    0.000    0.000    0.000 
#
# Total GULP energy -396583.744907 kJ/mol
# GULP energy per Si atom -12393.242028 kJ/mol
# Density = 1.915172 g / cm^3
# Si number density = 19.195410 Si / 1000 Ang^3
#
#
#
# Elastic Constant Matrix: (Units=GPa)
#
#
# Indices 1 2 3 4 5 6 
#
# 1 62.3894 33.2105 26.0912 0.0000 -15.3738 0.0000
# 2 33.2105 82.0357 44.2465 0.0000 -22.3195 0.0000
# 3 26.0912 44.2465 105.9709 0.0000 -19.4106 0.0000
# 4 0.0000 0.0000 0.0000 24.7141 0.0000 -6.9703
# 5 -15.3738 -22.3195 -19.4106 0.0000 17.9458 0.0000
# 6 0.0000 0.0000 0.0000 -6.9703 0.0000 26.7042
#
#
#
# Elastic Compliance Matrix: (Units=1/GPa)
#
#
# Indices 1 2 3 4 5 6 
#
# 1 0.022061 -0.005280 -0.001207 0.000000 0.011027 0.000000
# 2 -0.005280 0.021458 -0.004489 0.000000 0.017309 0.000000
# 3 -0.001207 -0.004489 0.012965 0.000000 0.007405 0.000000
# 4 0.000000 0.000000 0.000000 0.043678 0.000000 0.011401
# 5 0.011027 0.017309 0.007405 0.000000 0.094707 0.000000
# 6 0.000000 0.000000 0.000000 0.011401 0.000000 0.040423
#
#
# Mechanical properties :
#
#
# Convention : Reuss Voigt Hill
#
# Bulk Modulus (GPa) = 28.95949 50.83250 39.89599
# Shear Modulus (GPa) = 18.60441 23.66266 21.13353
#
# Velocity S-wave (km/s) = 3.11659 3.51483 3.32168
# Velocity P-wave (km/s) = 5.29814 6.55828 5.96160
#
# Compressibility (1/GPa) = 0.03453100
#
# Stress axis : x y z
#
# Youngs Moduli (GPa) = 45.32915 46.60371 77.13334
#
# Poissons Ratio (x) = 0.24605 0.09314
# Poissons Ratio (y) = 0.23932 0.34625
# Poissons Ratio (z) = 0.05473 0.20920
#
# Static dielectric constant tensor:
#      x y z
#    x 3.529930 0.000000 -0.032570 
#    y 0.000000 3.228450 0.000000 
#    z -0.032570 0.000000 3.923410 
# 
# 
# High freq. dielectric constant tensor:
#      x y z
#    x 1.740110 0.000000 -0.002350 
#    y 0.000000 1.723360 0.000000 
#    z -0.002350 0.000000 1.758330 
# 
# From -- ./inp_files/295116.got.cif
#   From: 2010.06.25/outbox.cif.g09.slc.cpg/sg15_148_cif.got.tgz:295116.got - 2010.06.28 07:06:18.
