data_PCOD8136661
_publ_section_title
;
Structure prediction by ZEFSAII (Michael W. Deem and Ramdas Pophale) SiO2 
 PCOD8136661
Probable space group: C 2/C
;
_chemical_formula_sum "Si O2"
_cell_formula_units_Z 48
_cell_length_a 9.162997
_cell_length_b 11.450354
_cell_length_c 24.444774
_cell_angle_alpha 90.000000
_cell_angle_beta 61.775401
_cell_angle_gamma 90.000000
_cell_volume 2259.789189
_symmetry_space_group_name_H-M "C 2/C"
_symmetry_group_IT_number 15
_symmetry_cell_setting 'monoclinic'
loop_
_space_group_symop_operation_xyz
x,y,z
-x,y,1/2-z
-x,-y,-z
x,-y,1/2+z
1/2+x,1/2+y,z
1/2-x,1/2+y,1/2-z
1/2-x,1/2-y,-z
1/2+x,1/2-y,1/2+z
loop_
_atom_site_type_symbol
_atom_site_label
_atom_site_fract_x
_atom_site_fract_y
_atom_site_fract_z
Si Si1 0.871413 0.972762 0.889492
Si Si2 0.551781 0.766186 0.179175
Si Si3 0.664139 0.564745 0.904005
Si Si4 0.635555 0.153645 0.883012
Si Si5 0.350082 0.990536 0.968527
Si Si6 0.425089 0.755686 0.997430
O O1 0.866742 0.852273 0.857710
O O2 0.799690 0.075408 0.862407
O O3 0.760488 0.960146 0.962859
O O4 0.058077 0.004959 0.874772
O O5 0.500000 0.744711 0.250000
O O6 0.683187 0.871361 0.152854
O O7 0.382437 0.795779 0.175079
O O8 0.724162 0.468117 0.938947
O O9 0.555588 0.661671 0.954964
O O10 0.465243 0.087576 0.923649
O O11 0.617066 0.257191 0.930773
O O12 0.472352 0.887929 0.969304
O O13 0.250000 0.750000 0.000000
#
# Coordination Sequence:
#
# PCOD8136661 Si02
#       6
#     8   8   8   8   8   8
#     4  11  21  37  64  89 118 153 193 239 301 357
#     4  11  26  43  58  80 116 162 212 250 279 327
#     4  11  22  37  61  91 122 154 194 236 298 358
#     4  10  21  38  60  87 123 154 190 241 298 353
#     4  10  20  34  58  95 126 151 181 232 307 369
#     4  11  19  32  60  94 125 142 178 236 301 370
#
# _framework density 21.240918000000001
#
# number of rings (size 3 to 8) (size 9 to 14) (size 15 to 20)
#    0.000    1.333    3.333    5.500    2.333    4.000 
#    0.000    0.000    0.000    0.000    0.000    0.000 
#    0.000    0.000    0.000    0.000    0.000    0.000 
#
# Total GULP energy -297341.906024 kJ/mol
# GULP energy per Si atom -12389.246084 kJ/mol
# Density = 2.119257 g / cm^3
# Si number density = 21.240918 Si / 1000 Ang^3
#
#
#
# Elastic Constant Matrix: (Units=GPa)
#
#
# Indices 1 2 3 4 5 6 
#
# 1 106.2671 7.2045 27.9089 0.0000 21.8920 0.0000
# 2 7.2045 32.1359 31.2063 0.0000 15.1413 0.0000
# 3 27.9089 31.2063 75.3990 0.0000 20.9747 0.0000
# 4 0.0000 0.0000 0.0000 10.7537 0.0000 7.6365
# 5 21.8920 15.1413 20.9747 0.0000 26.6438 0.0000
# 6 0.0000 0.0000 0.0000 7.6365 0.0000 37.7737
#
#
#
# Elastic Compliance Matrix: (Units=1/GPa)
#
#
# Indices 1 2 3 4 5 6 
#
# 1 0.012208 0.006193 -0.004241 0.000000 -0.010211 0.000000
# 2 0.006193 0.061232 -0.021177 0.000000 -0.023214 0.000000
# 3 -0.004241 -0.021177 0.024686 0.000000 -0.003914 0.000000
# 4 0.000000 0.000000 0.000000 0.108580 0.000000 -0.021951
# 5 -0.010211 -0.023214 -0.003914 0.000000 0.062196 0.000000
# 6 0.000000 0.000000 0.000000 -0.021951 0.000000 0.030911
#
#
# Mechanical properties :
#
#
# Convention : Reuss Voigt Hill
#
# Bulk Modulus (GPa) = 16.75748 38.49346 27.62547
# Shear Modulus (GPa) = 13.96040 24.86640 19.41340
#
# Velocity S-wave (km/s) = 2.56645 3.42524 3.02646
# Velocity P-wave (km/s) = 4.08517 5.81418 5.02460
#
# Compressibility (1/GPa) = 0.05967486
#
# Stress axis : x y z
#
# Youngs Moduli (GPa) = 81.91430 16.33136 40.50808
#
# Poissons Ratio (x) = -0.10114 0.17181
# Poissons Ratio (y) = -0.50729 0.85785
# Poissons Ratio (z) = 0.34742 0.34585
#
# Static dielectric constant tensor:
#      x y z
#    x 4.320460 0.000000 0.254630 
#    y 0.000000 3.393730 0.000000 
#    z 0.254630 0.000000 3.281260 
# 
# 
# High freq. dielectric constant tensor:
#      x y z
#    x 1.862320 0.000000 0.024530 
#    y 0.000000 1.839540 0.000000 
#    z 0.024530 0.000000 1.784720 
# 
# From -- ./inp_files/263055.got.cif
#   From: 2010.06.25/outbox.cif.g09.slc.cpg/sg15_132_cif.got.tgz:263055.got - 2010.06.28 07:06:18.
