data_PCOD8136058
_publ_section_title
;
Structure prediction by ZEFSAII (Michael W. Deem and Ramdas Pophale) SiO2 
 PCOD8136058
Probable space group: C 2/C
;
_chemical_formula_sum "Si O2"
_cell_formula_units_Z 40
_cell_length_a 23.253333
_cell_length_b 9.966820
_cell_length_c 10.893107
_cell_angle_alpha 90.000000
_cell_angle_beta 142.442827
_cell_angle_gamma 90.000000
_cell_volume 1538.880552
_symmetry_space_group_name_H-M "C 2/C"
_symmetry_group_IT_number 15
_symmetry_cell_setting 'monoclinic'
loop_
_space_group_symop_operation_xyz
x,y,z
-x,y,1/2-z
-x,-y,-z
x,-y,1/2+z
1/2+x,1/2+y,z
1/2-x,1/2+y,1/2-z
1/2-x,1/2-y,-z
1/2+x,1/2-y,1/2+z
loop_
_atom_site_type_symbol
_atom_site_label
_atom_site_fract_x
_atom_site_fract_y
_atom_site_fract_z
Si Si1 0.106348 0.717729 0.808580
Si Si2 0.000000 0.495540 0.750000
Si Si3 0.649565 0.034893 0.682742
Si Si4 0.500000 0.629043 0.750000
Si Si5 0.080940 0.253639 0.650997
Si Si6 0.842438 0.069531 0.907815
O O1 0.087853 0.589909 0.863199
O O2 0.172764 0.661651 0.811039
O O3 0.007268 0.769070 0.587672
O O4 0.150103 0.837026 0.959616
O O5 0.947972 0.413321 0.552409
O O6 0.622768 0.903573 0.716582
O O7 0.738338 0.004437 0.744776
O O8 0.560551 0.720202 0.758588
O O9 0.424409 0.541754 0.546066
O O10 0.156378 0.148753 0.719842
#
# Coordination Sequence:
#
# PCOD8136058 Si02
#       6
#     8   4   8   4   8   8
#     4  11  21  45  77 101 153 200 238 303 381 439
#     4  10  19  45  68 102 150 193 243 306 356 436
#     4  11  26  41  78 113 148 191 258 306 370 438
#     4  12  27  47  78 100 158 199 251 306 372 446
#     4  11  24  49  74 108 149 201 250 301 370 444
#     4  12  24  47  74 114 149 202 240 310 376 449
#
# _framework density 25.992920000000002
#
# number of rings (size 3 to 8) (size 9 to 14) (size 15 to 20)
#    0.000    0.800    6.000    3.600    0.000    7.200 
#    0.000    0.000    0.000    0.000    0.000    0.000 
#    0.000    0.000    0.000    0.000    0.000    0.000 
#
# Total GULP energy -247946.303907 kJ/mol
# GULP energy per Si atom -12397.315195 kJ/mol
# Density = 2.593376 g / cm^3
# Si number density = 25.992920 Si / 1000 Ang^3
#
#
#
# Elastic Constant Matrix: (Units=GPa)
#
#
# Indices 1 2 3 4 5 6 
#
# 1 164.1203 54.2932 31.8514 0.0000 3.1774 0.0000
# 2 54.2932 97.1499 26.0322 0.0000 -7.3223 0.0000
# 3 31.8514 26.0322 58.2000 0.0000 1.4873 0.0000
# 4 0.0000 0.0000 0.0000 15.9479 0.0000 0.1709
# 5 3.1774 -7.3223 1.4873 0.0000 46.7412 0.0000
# 6 0.0000 0.0000 0.0000 0.1709 0.0000 53.2752
#
#
#
# Elastic Compliance Matrix: (Units=1/GPa)
#
#
# Indices 1 2 3 4 5 6 
#
# 1 0.007866 -0.003782 -0.002587 0.000000 -0.001045 0.000000
# 2 -0.003782 0.013703 -0.004124 0.000000 0.002535 0.000000
# 3 -0.002587 -0.004124 0.020471 0.000000 -0.001122 0.000000
# 4 0.000000 0.000000 0.000000 0.062706 0.000000 -0.000201
# 5 -0.001045 0.002535 -0.001122 0.000000 0.021898 0.000000
# 6 0.000000 0.000000 0.000000 -0.000201 0.000000 0.018771
#
#
# Mechanical properties :
#
#
# Convention : Reuss Voigt Hill
#
# Bulk Modulus (GPa) = 47.49501 60.42487 53.95994
# Shear Modulus (GPa) = 28.83162 37.01242 32.92202
#
# Velocity S-wave (km/s) = 3.33409 3.77761 3.56276
# Velocity P-wave (km/s) = 5.75617 6.50571 6.14238
#
# Compressibility (1/GPa) = 0.02105484
#
# Stress axis : x y z
#
# Youngs Moduli (GPa) = 127.12242 72.97623 48.84891
#
# Poissons Ratio (x) = 0.27598 0.12636
# Poissons Ratio (y) = 0.48075 0.20147
# Poissons Ratio (z) = 0.32885 0.30098
#
# Static dielectric constant tensor:
#      x y z
#    x 5.144070 0.000000 -0.056940 
#    y 0.000000 4.628250 0.000000 
#    z -0.056940 0.000000 4.329330 
# 
# 
# High freq. dielectric constant tensor:
#      x y z
#    x 2.060150 0.000000 0.000010 
#    y 0.000000 2.039260 0.000000 
#    z 0.000010 0.000000 2.017820 
# 
# From -- ./inp_files/122861.got.cif
#   From: 2010.06.25/outbox.cif.g09.slc.cpg/sg15_62_cif.got.tgz:122861.got - 2010.06.28 07:06:18.
