data_PCOD8136736
_publ_section_title
;
Structure prediction by ZEFSAII (Michael W. Deem and Ramdas Pophale) SiO2 
 PCOD8136736
Probable space group: C 2/C
;
_chemical_formula_sum "Si O2"
_cell_formula_units_Z 56
_cell_length_a 11.919536
_cell_length_b 15.389208
_cell_length_c 15.605949
_cell_angle_alpha 90.000000
_cell_angle_beta 66.457398
_cell_angle_gamma 90.000000
_cell_volume 2624.357750
_symmetry_space_group_name_H-M "C 2/C"
_symmetry_group_IT_number 15
_symmetry_cell_setting 'monoclinic'
loop_
_space_group_symop_operation_xyz
x,y,z
-x,y,1/2-z
-x,-y,-z
x,-y,1/2+z
1/2+x,1/2+y,z
1/2-x,1/2+y,1/2-z
1/2-x,1/2-y,-z
1/2+x,1/2-y,1/2+z
loop_
_atom_site_type_symbol
_atom_site_label
_atom_site_fract_x
_atom_site_fract_y
_atom_site_fract_z
Si Si1 0.482947 0.371374 0.348364
Si Si2 0.132764 0.438365 0.364062
Si Si3 0.926267 0.319198 0.854245
Si Si4 0.254741 0.568373 0.006892
Si Si5 0.649169 0.105032 0.564122
Si Si6 0.755395 0.813928 0.192260
Si Si7 0.344353 0.134479 0.129537
O O1 0.500000 0.418874 0.250000
O O2 0.407941 0.283541 0.348269
O O3 0.397390 0.425318 0.438723
O O4 0.608475 0.353091 0.359900
O O5 0.167649 0.422864 0.451106
O O6 0.194534 0.363045 0.289778
O O7 0.179010 0.536848 0.326474
O O8 0.988375 0.431227 0.394238
O O9 0.000000 0.358452 0.750000
O O10 0.012063 0.342299 0.908707
O O11 0.791413 0.359568 0.910326
O O12 0.237398 0.476014 0.057597
O O13 0.674000 0.173754 0.631761
O O14 0.687500 0.144423 0.461018
O O15 0.766391 0.708986 0.204804
#
# Coordination Sequence:
#
# PCOD8136736 Si02
#       7
#     8   8   8   8   8   8   8
#     4  10  21  39  58  89 130 172 204 265 328 388
#     4  11  21  40  68  93 124 169 221 267 324 387
#     4  10  20  34  61  94 123 160 220 272 319 374
#     4  11  20  38  63  91 126 166 212 267 323 381
#     4  11  22  39  66  92 129 169 218 271 323 389
#     4  11  24  39  66  95 131 171 216 266 328 398
#     4  10  21  41  62  93 130 168 207 272 335 369
#
# _framework density 21.338554999999999
#
# number of rings (size 3 to 8) (size 9 to 14) (size 15 to 20)
#    0.000    1.429    4.286    2.143    2.000    0.571 
#    0.000    0.000   15.714    0.000    0.000    0.000 
#    0.000    0.000    0.000    0.000    0.000    0.000 
#
# Total GULP energy -347022.372106 kJ/mol
# GULP energy per Si atom -12393.656147 kJ/mol
# Density = 2.128999 g / cm^3
# Si number density = 21.338555 Si / 1000 Ang^3
#
#
#
# Elastic Constant Matrix: (Units=GPa)
#
#
# Indices 1 2 3 4 5 6 
#
# 1 60.5619 11.7037 10.9721 0.0000 -1.6190 0.0000
# 2 11.7037 107.4556 42.5967 0.0000 -13.1837 0.0000
# 3 10.9721 42.5967 72.8264 0.0000 -23.3545 0.0000
# 4 0.0000 0.0000 0.0000 33.4918 0.0000 -4.6206
# 5 -1.6190 -13.1837 -23.3545 0.0000 31.6679 0.0000
# 6 0.0000 0.0000 0.0000 -4.6206 0.0000 23.2736
#
#
#
# Elastic Compliance Matrix: (Units=1/GPa)
#
#
# Indices 1 2 3 4 5 6 
#
# 1 0.017116 -0.001088 -0.002366 0.000000 -0.001323 0.000000
# 2 -0.001088 0.012186 -0.007013 0.000000 -0.000155 0.000000
# 3 -0.002366 -0.007013 0.022547 0.000000 0.013588 0.000000
# 4 0.000000 0.000000 0.000000 0.030699 0.000000 0.006095
# 5 -0.001323 -0.000155 0.013588 0.000000 0.041466 0.000000
# 6 0.000000 0.000000 0.000000 0.006095 0.000000 0.044177
#
#
# Mechanical properties :
#
#
# Convention : Reuss Voigt Hill
#
# Bulk Modulus (GPa) = 32.34917 41.26544 36.80731
# Shear Modulus (GPa) = 25.07127 29.39141 27.23134
#
# Velocity S-wave (km/s) = 3.43144 3.71534 3.57621
# Velocity P-wave (km/s) = 5.55811 6.14699 5.85995
#
# Compressibility (1/GPa) = 0.03091270
#
# Stress axis : x y z
#
# Youngs Moduli (GPa) = 58.42584 82.06225 44.35137
#
# Poissons Ratio (x) = 0.08932 0.10495
# Poissons Ratio (y) = 0.06359 0.31105
# Poissons Ratio (z) = 0.13826 0.57552
#
# Static dielectric constant tensor:
#      x y z
#    x 3.721290 0.000000 0.011930 
#    y 0.000000 3.894770 0.000000 
#    z 0.011930 0.000000 3.793400 
# 
# 
# High freq. dielectric constant tensor:
#      x y z
#    x 1.822930 0.000000 0.006700 
#    y 0.000000 1.828400 0.000000 
#    z 0.006700 0.000000 1.829430 
# 
# From -- ./inp_files/205024.got.cif
#   From: 2010.06.25/outbox.cif.g09.slc.cpg/sg15_103_cif.got.tgz:205024.got - 2010.06.28 07:06:18.
