data_PCOD8136030
_publ_section_title
;
Structure prediction by ZEFSAII (Michael W. Deem and Ramdas Pophale) SiO2 
 PCOD8136030
Probable space group: C 2/C
;
_chemical_formula_sum "Si O2"
_cell_formula_units_Z 64
_cell_length_a 23.631512
_cell_length_b 18.345406
_cell_length_c 14.217711
_cell_angle_alpha 90.000000
_cell_angle_beta 28.891754
_cell_angle_gamma 90.000000
_cell_volume 2978.079174
_symmetry_space_group_name_H-M "C 2/C"
_symmetry_group_IT_number 15
_symmetry_cell_setting 'monoclinic'
loop_
_space_group_symop_operation_xyz
x,y,z
-x,y,1/2-z
-x,-y,-z
x,-y,1/2+z
1/2+x,1/2+y,z
1/2-x,1/2+y,1/2-z
1/2-x,1/2-y,-z
1/2+x,1/2-y,1/2+z
loop_
_atom_site_type_symbol
_atom_site_label
_atom_site_fract_x
_atom_site_fract_y
_atom_site_fract_z
Si Si1 0.730123 0.677542 0.291087
Si Si2 0.105319 0.470452 0.285551
Si Si3 0.036855 0.032377 0.347456
Si Si4 0.800095 0.015522 0.139904
Si Si5 0.001267 0.669534 0.638906
Si Si6 0.761845 0.538672 0.563522
Si Si7 0.785968 0.206704 0.855329
Si Si8 0.955300 0.807861 0.597202
O O1 0.683180 0.601964 0.403720
O O2 0.718758 0.748818 0.372164
O O3 0.659374 0.697421 0.300469
O O4 0.865457 0.659754 0.082958
O O5 0.219705 0.474223 0.183263
O O6 0.000000 0.500000 0.500000
O O7 0.080563 0.387491 0.295679
O O8 0.121588 0.515827 0.164032
O O9 0.052521 0.118255 0.333113
O O10 0.156520 0.989902 0.147819
O O11 0.000000 0.000000 0.500000
O O12 0.929176 0.017863 0.433569
O O13 0.748580 0.001168 0.320313
O O14 0.000000 0.656970 0.750000
O O15 0.949221 0.747328 0.686443
O O16 0.764382 0.625329 0.571134
O O17 0.926450 0.201691 0.636912
O O18 0.750000 0.250000 0.000000
#
# Coordination Sequence:
#
# PCOD8136030 Si02
#       8
#     8   8   8   8   8   8   8   8
#     4  11  22  43  71  96 139 180 218 294 343 406
#     4  12  27  43  68 101 138 187 239 279 343 421
#     4  10  19  42  72 102 131 177 227 291 341 408
#     4  11  21  43  72 101 141 175 231 292 346 415
#     4  11  27  46  66  99 142 184 235 283 348 421
#     4  11  23  44  72 101 135 185 232 287 348 413
#     4  11  24  41  66 101 141 176 226 277 350 418
#     4  11  23  44  70  99 136 175 229 282 351 408
#
# _framework density 21.490362999999999
#
# number of rings (size 3 to 8) (size 9 to 14) (size 15 to 20)
#    0.000    1.000    6.250    1.500    3.500    1.500 
#    2.250    3.750    0.000    0.000    0.000    0.000 
#    0.000    0.000    0.000    0.000    0.000    0.000 
#
# Total GULP energy -396703.155083 kJ/mol
# GULP energy per Si atom -12396.973596 kJ/mol
# Density = 2.144145 g / cm^3
# Si number density = 21.490363 Si / 1000 Ang^3
#
#
#
# Elastic Constant Matrix: (Units=GPa)
#
#
# Indices 1 2 3 4 5 6 
#
# 1 110.4885 58.5925 25.3593 0.0000 -27.8725 0.0000
# 2 58.5925 190.2239 43.0444 0.0000 -7.5340 0.0000
# 3 25.3593 43.0444 71.5814 0.0001 8.5611 0.0000
# 4 0.0000 0.0000 0.0001 33.4637 0.0000 -0.8440
# 5 -27.8725 -7.5340 8.5611 0.0000 31.3423 0.0000
# 6 0.0000 0.0000 0.0000 -0.8440 0.0000 50.1186
#
#
#
# Elastic Compliance Matrix: (Units=1/GPa)
#
#
# Indices 1 2 3 4 5 6 
#
# 1 0.015580 -0.002980 -0.005478 0.000000 0.014636 0.000000
# 2 -0.002980 0.006858 -0.003048 0.000000 -0.000169 0.000000
# 3 -0.005478 -0.003048 0.019036 0.000000 -0.010804 0.000000
# 4 0.000000 0.000000 0.000000 0.029896 0.000000 0.000503
# 5 0.014636 -0.000169 -0.010804 0.000000 0.047832 0.000000
# 6 0.000000 0.000000 0.000000 0.000503 0.000000 0.019961
#
#
# Mechanical properties :
#
#
# Convention : Reuss Voigt Hill
#
# Bulk Modulus (GPa) = 54.16516 69.58735 61.87626
# Shear Modulus (GPa) = 29.70379 39.33811 34.52095
#
# Velocity S-wave (km/s) = 3.72182 4.28308 4.01227
# Velocity P-wave (km/s) = 6.61274 7.54392 7.09362
#
# Compressibility (1/GPa) = 0.01846205
#
# Stress axis : x y z
#
# Youngs Moduli (GPa) = 64.18351 145.81932 52.53217
#
# Poissons Ratio (x) = 0.43450 0.28779
# Poissons Ratio (y) = 0.19125 0.16012
# Poissons Ratio (z) = 0.35161 0.44446
#
# Static dielectric constant tensor:
#      x y z
#    x 4.568990 0.000000 -0.665020 
#    y 0.000000 4.087070 0.000000 
#    z -0.665020 0.000000 4.450120 
# 
# 
# High freq. dielectric constant tensor:
#      x y z
#    x 1.846690 0.000000 -0.004850 
#    y 0.000000 1.856260 0.000000 
#    z -0.004850 0.000000 1.844780 
# 
# From -- ./inp_files/174229.got.cif
#   From: 2010.06.25/outbox.cif.g09.slc.cpg/sg15_88_cif.got.tgz:174229.got - 2010.06.28 07:06:18.
