data_PCOD8136117
_publ_section_title
;
Structure prediction by ZEFSAII (Michael W. Deem and Ramdas Pophale) SiO2 
 PCOD8136117
Probable space group: C 2/C
;
_chemical_formula_sum "Si O2"
_cell_formula_units_Z 56
_cell_length_a 8.035249
_cell_length_b 32.926205
_cell_length_c 10.607005
_cell_angle_alpha 90.000000
_cell_angle_beta 114.885009
_cell_angle_gamma 90.000000
_cell_volume 2545.744884
_symmetry_space_group_name_H-M "C 2/C"
_symmetry_group_IT_number 15
_symmetry_cell_setting 'monoclinic'
loop_
_space_group_symop_operation_xyz
x,y,z
-x,y,1/2-z
-x,-y,-z
x,-y,1/2+z
1/2+x,1/2+y,z
1/2-x,1/2+y,1/2-z
1/2-x,1/2-y,-z
1/2+x,1/2-y,1/2+z
loop_
_atom_site_type_symbol
_atom_site_label
_atom_site_fract_x
_atom_site_fract_y
_atom_site_fract_z
Si Si1 0.850080 0.421744 0.608161
Si Si2 0.718755 0.609396 0.641176
Si Si3 0.968198 0.968180 0.100421
Si Si4 0.084491 0.725016 0.011310
Si Si5 0.335232 0.720621 0.299847
Si Si6 0.926572 0.864506 0.867243
Si Si7 0.026368 0.366972 0.070281
O O1 0.744068 0.453156 0.482383
O O2 0.697869 0.403602 0.652301
O O3 0.943808 0.385445 0.558478
O O4 0.000000 0.442406 0.750000
O O5 0.618232 0.567383 0.639540
O O6 0.583995 0.638813 0.522152
O O7 0.781499 0.632258 0.790214
O O8 0.891838 0.602625 0.603422
O O9 0.000000 0.987706 0.250000
O O10 0.000000 0.000000 0.000000
O O11 0.135864 0.728868 0.175018
O O12 0.250000 0.750000 0.000000
O O13 0.888060 0.745797 0.921100
O O14 0.065299 0.677861 0.963460
O O15 0.500000 0.719742 0.250000
O O16 0.313709 0.676562 0.354794
O O17 0.000000 0.868230 0.750000
#
# Coordination Sequence:
#
# PCOD8136117 Si02
#       7
#     8   8   8   8   8   8   8
#     4  11  23  42  70  99 133 173 228 281 341 411
#     4  10  22  38  68  92 131 175 221 272 333 417
#     4  11  25  49  70 103 141 180 219 282 358 435
#     4  10  20  31  53  87 129 173 223 279 330 386
#     4   9  18  30  48  80 120 159 224 267 328 383
#     4  10  20  37  61  88 131 175 229 279 344 404
#     4  11  22  38  65  98 133 172 236 280 330 400
#
# _framework density 21.997491
#
# number of rings (size 3 to 8) (size 9 to 14) (size 15 to 20)
#    0.000    1.714    1.429    4.286    8.000    3.429 
#    2.571    2.143    0.000    0.000    0.000    0.000 
#    0.000    0.000    0.000    0.000    0.000    0.000 
#
# Total GULP energy -346902.620075 kJ/mol
# GULP energy per Si atom -12389.379288 kJ/mol
# Density = 2.194742 g / cm^3
# Si number density = 21.997491 Si / 1000 Ang^3
#
#
#
# Elastic Constant Matrix: (Units=GPa)
#
#
# Indices 1 2 3 4 5 6 
#
# 1 46.6627 18.6649 36.9705 0.0000 2.2119 0.0000
# 2 18.6649 78.2998 56.4886 0.0000 5.2206 0.0000
# 3 36.9705 56.4886 214.1412 0.0000 30.6557 0.0000
# 4 0.0000 0.0000 0.0000 26.4095 0.0000 3.6258
# 5 2.2119 5.2206 30.6557 0.0000 38.8989 0.0000
# 6 0.0000 0.0000 0.0000 3.6258 0.0000 24.2459
#
#
#
# Elastic Compliance Matrix: (Units=1/GPa)
#
#
# Indices 1 2 3 4 5 6 
#
# 1 0.025761 -0.003531 -0.003803 0.000000 0.002006 0.000000
# 2 -0.003531 0.016317 -0.003843 0.000000 0.001040 0.000000
# 3 -0.003803 -0.003843 0.007028 0.000000 -0.004807 0.000000
# 4 0.000000 0.000000 0.000000 0.038659 0.000000 -0.005781
# 5 0.002006 0.001040 -0.004807 0.000000 0.029242 0.000000
# 6 0.000000 0.000000 0.000000 -0.005781 0.000000 0.042109
#
#
# Mechanical properties :
#
#
# Convention : Reuss Voigt Hill
#
# Bulk Modulus (GPa) = 37.38198 62.59463 49.98831
# Shear Modulus (GPa) = 26.26221 33.04286 29.65253
#
# Velocity S-wave (km/s) = 3.45900 3.87992 3.67549
# Velocity P-wave (km/s) = 5.74313 6.97057 6.38641
#
# Compressibility (1/GPa) = 0.02675085
#
# Stress axis : x y z
#
# Youngs Moduli (GPa) = 38.81852 61.28743 142.27843
#
# Poissons Ratio (x) = 0.21639 0.54114
# Poissons Ratio (y) = 0.13706 0.54684
# Poissons Ratio (z) = 0.14764 0.23556
#
# Static dielectric constant tensor:
#      x y z
#    x 4.632020 0.000000 1.219590 
#    y 0.000000 3.809730 0.000000 
#    z 1.219590 0.000000 5.621900 
# 
# 
# High freq. dielectric constant tensor:
#      x y z
#    x 1.839630 0.000000 0.017650 
#    y 0.000000 1.838500 0.000000 
#    z 0.017650 0.000000 1.898560 
# 
# From -- ./inp_files/82708.got.cif
#   From: 2010.06.25/outbox.cif.g09.slc.cpg/sg15_42_cif.got.tgz:82708.got - 2010.06.28 07:06:18.
