data_PCOD8136631
_publ_section_title
;
Structure prediction by ZEFSAII (Michael W. Deem and Ramdas Pophale) SiO2 
 PCOD8136631
Probable space group: C 2/C
;
_chemical_formula_sum "Si O2"
_cell_formula_units_Z 60
_cell_length_a 8.818771
_cell_length_b 23.352929
_cell_length_c 22.769464
_cell_angle_alpha 90.000000
_cell_angle_beta 140.642620
_cell_angle_gamma 90.000000
_cell_volume 2973.705919
_symmetry_space_group_name_H-M "C 2/C"
_symmetry_group_IT_number 15
_symmetry_cell_setting 'monoclinic'
loop_
_space_group_symop_operation_xyz
x,y,z
-x,y,1/2-z
-x,-y,-z
x,-y,1/2+z
1/2+x,1/2+y,z
1/2-x,1/2+y,1/2-z
1/2-x,1/2-y,-z
1/2+x,1/2-y,1/2+z
loop_
_atom_site_type_symbol
_atom_site_label
_atom_site_fract_x
_atom_site_fract_y
_atom_site_fract_z
Si Si1 0.220378 0.036141 0.359233
Si Si2 0.617105 0.224223 0.544725
Si Si3 0.507154 0.409880 0.012810
Si Si4 0.735652 0.989575 0.493522
Si Si5 0.548088 0.309178 0.105518
Si Si6 0.822554 0.842670 0.607260
Si Si7 0.236237 0.166228 0.146506
Si Si8 0.000000 0.247680 0.250000
O O1 0.179458 0.015088 0.413604
O O2 0.253531 0.105048 0.372814
O O3 0.000000 0.020422 0.250000
O O4 0.456240 0.005565 0.404000
O O5 0.533313 0.261760 0.465148
O O6 0.406648 0.179465 0.499129
O O7 0.682586 0.266691 0.617925
O O8 0.843314 0.185026 0.593750
O O9 0.397547 0.462802 0.013326
O O10 0.289985 0.373283 0.918917
O O11 0.708382 0.430723 0.025757
O O12 0.620539 0.368576 0.095922
O O13 0.784677 0.287016 0.209082
O O14 0.917451 0.789686 0.671567
O O15 0.040990 0.861026 0.631535
O O16 0.500000 0.158316 0.250000
#
# Coordination Sequence:
#
# PCOD8136631 Si02
#       8
#     8   8   8   8   8   8   8   4
#     4  11  23  41  66  92 123 159 217 265 322 383
#     4   9  19  34  55  84 125 158 197 243 314 367
#     4  10  21  40  62  85 125 164 210 256 319 377
#     4  10  23  42  63  91 123 164 210 270 321 372
#     4   9  18  35  56  83 115 164 195 245 304 375
#     4  11  20  35  60  89 120 164 204 260 313 376
#     4  11  22  34  59  94 124 160 216 265 305 373
#     4  10  20  34  58  86 122 152 204 256 308 372
#
# _framework density 20.176843999999999
#
# number of rings (size 3 to 8) (size 9 to 14) (size 15 to 20)
#    0.000    1.867    2.000    2.000    1.867    2.133 
#    2.400    1.333    0.000    1.600    0.000    0.000 
#    0.000    0.000    0.000    0.000    0.000    0.000 
#
# Total GULP energy -371837.018038 kJ/mol
# GULP energy per Si atom -12394.567268 kJ/mol
# Density = 2.013092 g / cm^3
# Si number density = 20.176844 Si / 1000 Ang^3
#
#
#
# Elastic Constant Matrix: (Units=GPa)
#
#
# Indices 1 2 3 4 5 6 
#
# 1 110.7152 45.8317 42.0869 -0.0007 19.0607 -0.0004
# 2 45.8317 95.9042 56.3168 -0.0001 12.6728 0.0000
# 3 42.0869 56.3168 104.8690 -0.0005 19.7593 -0.0007
# 4 -0.0007 -0.0001 -0.0005 33.2742 -0.0004 1.0369
# 5 19.0607 12.6728 19.7593 -0.0004 28.7893 -0.0004
# 6 -0.0004 0.0000 -0.0007 1.0369 -0.0004 41.3025
#
#
#
# Elastic Compliance Matrix: (Units=1/GPa)
#
#
# Indices 1 2 3 4 5 6 
#
# 1 0.012303 -0.004192 -0.001722 0.000000 -0.005119 0.000000
# 2 -0.004192 0.016698 -0.007377 0.000000 0.000488 0.000000
# 3 -0.001722 -0.007377 0.015346 0.000000 -0.006145 0.000000
# 4 0.000000 0.000000 0.000000 0.030077 0.000000 -0.000755
# 5 -0.005119 0.000488 -0.006145 0.000000 0.042127 0.000000
# 6 0.000000 0.000000 0.000000 -0.000755 0.000000 0.024231
#
#
# Mechanical properties :
#
#
# Convention : Reuss Voigt Hill
#
# Bulk Modulus (GPa) = 56.28812 66.66213 61.47513
# Shear Modulus (GPa) = 28.85429 31.82341 30.33885
#
# Velocity S-wave (km/s) = 3.78573 3.97574 3.88190
# Velocity P-wave (km/s) = 6.86053 7.36111 7.11523
#
# Compressibility (1/GPa) = 0.01776574
#
# Stress axis : x y z
#
# Youngs Moduli (GPa) = 81.27861 59.88894 65.16329
#
# Poissons Ratio (x) = 0.25106 0.11221
# Poissons Ratio (y) = 0.34073 0.48068
# Poissons Ratio (z) = 0.13996 0.44177
#
# Static dielectric constant tensor:
#      x y z
#    x 3.868430 0.000000 0.186350 
#    y 0.000000 3.826650 0.000000 
#    z 0.186350 0.000000 3.638100 
# 
# 
# High freq. dielectric constant tensor:
#      x y z
#    x 1.789970 0.000000 0.007480 
#    y 0.000000 1.786210 0.000000 
#    z 0.007480 0.000000 1.771870 
# 
# From -- ./inp_files/234611.got.cif
#   From: 2010.06.25/outbox.cif.g09.slc.cpg/sg15_118_cif.got.tgz:234611.got - 2010.06.28 07:06:18.
