data_PCOD8136139
_publ_section_title
;
Structure prediction by ZEFSAII (Michael W. Deem and Ramdas Pophale) SiO2 
 PCOD8136139
Probable space group: C 2/C
;
_chemical_formula_sum "Si O2"
_cell_formula_units_Z 64
_cell_length_a 13.072657
_cell_length_b 13.072628
_cell_length_c 20.754096
_cell_angle_alpha 90.000000
_cell_angle_beta 89.939348
_cell_angle_gamma 90.000000
_cell_volume 3546.748120
_symmetry_space_group_name_H-M "C 2/C"
_symmetry_group_IT_number 15
_symmetry_cell_setting 'monoclinic'
loop_
_space_group_symop_operation_xyz
x,y,z
-x,y,1/2-z
-x,-y,-z
x,-y,1/2+z
1/2+x,1/2+y,z
1/2-x,1/2+y,1/2-z
1/2-x,1/2-y,-z
1/2+x,1/2-y,1/2+z
loop_
_atom_site_type_symbol
_atom_site_label
_atom_site_fract_x
_atom_site_fract_y
_atom_site_fract_z
Si Si1 0.752064 0.418576 0.306185
Si Si2 0.252256 0.080864 0.193361
Si Si3 0.081248 0.251874 0.193600
Si Si4 0.581040 0.752445 0.806425
Si Si5 0.167096 0.004825 0.570757
Si Si6 0.833104 0.004758 0.071217
Si Si7 0.995312 0.833044 0.570999
Si Si8 0.995106 0.832963 0.429025
O O1 0.747259 0.499415 0.249600
O O2 0.857588 0.357381 0.302630
O O3 0.655337 0.344268 0.299417
O O4 0.750217 0.479039 0.374230
O O5 0.155515 0.155120 0.200403
O O6 0.357765 0.142028 0.197096
O O7 0.250538 0.020996 0.125105
O O8 0.000000 0.246739 0.250000
O O9 0.021219 0.250286 0.125439
O O10 0.500000 0.747780 0.750000
O O11 0.520739 0.750471 0.874564
O O12 0.081639 0.918498 0.570557
O O13 0.219489 0.008556 0.499706
O O14 0.113895 0.113806 0.586238
O O15 0.886359 0.113731 0.086559
O O16 0.918450 0.918312 0.070861
O O17 0.991444 0.780510 0.500031
#
# Coordination Sequence:
#
# PCOD8136139 Si02
#       8
#     8   8   8   8   8   8   8   8
#     4  10  20  32  48  71  98 130 166 202 242 288
#     4  10  20  32  48  71  98 130 166 202 242 288
#     4  10  20  32  48  71  98 130 166 202 242 288
#     4  10  20  32  48  71  98 130 166 202 242 288
#     4   8  14  26  46  72  99 125 155 195 243 291
#     4   8  14  26  46  72  99 125 155 195 243 291
#     4   8  14  26  46  72  99 125 155 195 243 291
#     4   8  14  26  46  72  99 125 155 195 243 291
#
# _framework density 18.044698
#
# number of rings (size 3 to 8) (size 9 to 14) (size 15 to 20)
#    0.000    3.000    0.000    3.000    0.000    4.000 
#    0.000    5.000    0.000    1.500    0.000   10.500 
#    0.000    0.000    0.000    0.000    0.000    0.000 
#
# Total GULP energy -396620.656456 kJ/mol
# GULP energy per Si atom -12394.395514 kJ/mol
# Density = 1.800363 g / cm^3
# Si number density = 18.044698 Si / 1000 Ang^3
#
#
#
# Elastic Constant Matrix: (Units=GPa)
#
#
# Indices 1 2 3 4 5 6 
#
# 1 47.9464 17.0773 42.3309 0.0000 0.1497 0.0000
# 2 17.0773 47.9440 42.3252 0.0000 0.3247 0.0000
# 3 42.3309 42.3252 156.0327 0.0000 0.7220 0.0000
# 4 0.0000 0.0000 0.0000 -1.2551 0.0000 0.0474
# 5 0.1497 0.3247 0.7220 0.0000 -1.2491 0.0000
# 6 0.0000 0.0000 0.0000 0.0474 0.0000 8.6502
#
#
#
# Elastic Compliance Matrix: (Units=1/GPa)
#
#
# Indices 1 2 3 4 5 6 
#
# 1 0.028084 -0.004304 -0.006445 0.000000 -0.001478 0.000000
# 2 -0.004304 0.028075 -0.006462 0.000000 0.003047 0.000000
# 3 -0.006445 -0.006462 0.009895 0.000000 0.003267 0.000000
# 4 0.000000 0.000000 0.000000 -0.796592 0.000000 0.004361
# 5 -0.001478 0.003047 0.003267 0.000000 -0.798081 0.000000
# 6 0.000000 0.000000 0.000000 0.004361 0.000000 0.115580
#
#
# Mechanical properties :
#
#
# Convention : Reuss Voigt Hill
#
# Bulk Modulus (GPa) = 31.61289 50.59887 41.10588
# Shear Modulus (GPa) = -3.65478 11.24184 3.79353
#
# Velocity S-wave (km/s) = -1.42471 2.49870 1.45150
# Velocity P-wave (km/s) = 3.85368 6.03543 5.06346
#
# Compressibility (1/GPa) = 0.03163266
#
# Stress axis : x y z
#
# Youngs Moduli (GPa) = 35.60723 35.61923 101.06009
#
# Poissons Ratio (x) = 0.15330 0.65131
# Poissons Ratio (y) = 0.15325 0.65305
# Poissons Ratio (z) = 0.22948 0.23017
#
# Static dielectric constant tensor:
#      x y z
#    x 3.104210 0.000000 0.001440 
#    y 0.000000 3.104210 0.000000 
#    z 0.001440 0.000000 3.875870 
# 
# 
# High freq. dielectric constant tensor:
#      x y z
#    x 1.665300 0.000000 0.000130 
#    y 0.000000 1.665300 0.000000 
#    z 0.000130 0.000000 1.720730 
# 
# From -- ./inp_files/205105.got.cif
#   From: 2010.06.25/outbox.cif.g09.slc.cpg/sg15_103_cif.got.tgz:205105.got - 2010.06.28 07:06:18.
