data_PCOD8136881
_publ_section_title
;
Structure prediction by ZEFSAII (Michael W. Deem and Ramdas Pophale) SiO2 
 PCOD8136881
Probable space group: C 2/C
;
_chemical_formula_sum "Si O2"
_cell_formula_units_Z 60
_cell_length_a 21.681877
_cell_length_b 8.479660
_cell_length_c 23.211846
_cell_angle_alpha 90.000000
_cell_angle_beta 136.882992
_cell_angle_gamma 90.000000
_cell_volume 2916.872673
_symmetry_space_group_name_H-M "C 2/C"
_symmetry_group_IT_number 15
_symmetry_cell_setting 'monoclinic'
loop_
_space_group_symop_operation_xyz
x,y,z
-x,y,1/2-z
-x,-y,-z
x,-y,1/2+z
1/2+x,1/2+y,z
1/2-x,1/2+y,1/2-z
1/2-x,1/2-y,-z
1/2+x,1/2-y,1/2+z
loop_
_atom_site_type_symbol
_atom_site_label
_atom_site_fract_x
_atom_site_fract_y
_atom_site_fract_z
Si Si1 0.235299 0.644942 0.190205
Si Si2 0.822552 0.064909 0.436459
Si Si3 0.469786 0.422524 0.607004
Si Si4 0.975171 0.587914 0.894820
Si Si5 0.124678 0.402921 0.056797
Si Si6 0.143668 0.392892 0.288774
Si Si7 0.865745 0.936558 0.347590
Si Si8 0.000000 0.799543 0.750000
O O1 0.194134 0.547819 0.108570
O O2 0.313735 0.750585 0.218146
O O3 0.156922 0.749358 0.167477
O O4 0.276499 0.527781 0.265414
O O5 0.824292 0.253757 0.435381
O O6 0.872821 0.001712 0.527912
O O7 0.718226 0.010369 0.365584
O O8 0.880571 0.991843 0.423386
O O9 0.470143 0.245736 0.582803
O O10 0.547227 0.532390 0.631770
O O11 0.484257 0.415180 0.685329
O O12 0.907681 0.634413 0.900374
O O13 0.921744 0.522283 0.802404
O O14 0.041887 0.448576 0.959230
O O15 0.086133 0.315922 0.301039
#
# Coordination Sequence:
#
# PCOD8136881 Si02
#       8
#     8   8   8   8   8   8   8   4
#     4  11  21  35  59  96 128 167 205 259 328 389
#     4  11  22  37  61  96 129 161 208 268 330 382
#     4  11  22  40  62  90 126 170 216 265 311 393
#     4  10  20  35  55  91 129 168 202 247 326 383
#     4  11  22  34  57  95 135 163 194 259 330 398
#     4  10  21  41  64  89 121 169 223 264 311 381
#     4  11  20  35  60  98 131 161 204 265 332 388
#     4  10  22  44  68  90 122 176 234 258 312 384
#
# _framework density 20.569976
#
# number of rings (size 3 to 8) (size 9 to 14) (size 15 to 20)
#    0.000    1.333    4.000    4.400    3.733    0.533 
#    0.000    0.000    0.000   11.200    0.000    0.000 
#    0.000    0.000    0.000    0.000    0.000    0.000 
#
# Total GULP energy -372063.209367 kJ/mol
# GULP energy per Si atom -12402.106979 kJ/mol
# Density = 2.052316 g / cm^3
# Si number density = 20.569976 Si / 1000 Ang^3
#
#
#
# Elastic Constant Matrix: (Units=GPa)
#
#
# Indices 1 2 3 4 5 6 
#
# 1 78.0321 25.7980 41.2522 0.0000 -0.5535 0.0000
# 2 25.7980 106.5302 56.4719 0.0000 10.5275 0.0000
# 3 41.2522 56.4719 127.7926 0.0000 8.3751 0.0000
# 4 0.0000 0.0000 0.0000 29.6498 0.0000 1.0368
# 5 -0.5535 10.5275 8.3751 0.0000 25.4470 0.0000
# 6 0.0000 0.0000 0.0000 1.0368 0.0000 23.6631
#
#
#
# Elastic Compliance Matrix: (Units=1/GPa)
#
#
# Indices 1 2 3 4 5 6 
#
# 1 0.015775 -0.001675 -0.004518 0.000000 0.002523 0.000000
# 2 -0.001675 0.012724 -0.004839 0.000000 -0.003708 0.000000
# 3 -0.004518 -0.004839 0.011546 0.000000 -0.001896 0.000000
# 4 0.000000 0.000000 0.000000 0.033779 0.000000 -0.001480
# 5 0.002523 -0.003708 -0.001896 0.000000 0.041510 0.000000
# 6 0.000000 0.000000 0.000000 -0.001480 0.000000 0.042325
#
#
# Mechanical properties :
#
#
# Convention : Reuss Voigt Hill
#
# Bulk Modulus (GPa) = 55.60975 62.15546 58.88261
# Shear Modulus (GPa) = 26.92272 28.34082 27.63177
#
# Velocity S-wave (km/s) = 3.62171 3.71587 3.66909
# Velocity P-wave (km/s) = 6.67699 6.97800 6.82915
#
# Compressibility (1/GPa) = 0.01798246
#
# Stress axis : x y z
#
# Youngs Moduli (GPa) = 63.39129 78.58973 86.60816
#
# Poissons Ratio (x) = 0.13162 0.39126
# Poissons Ratio (y) = 0.10616 0.41912
# Poissons Ratio (z) = 0.28637 0.38032
#
# Static dielectric constant tensor:
#      x y z
#    x 3.419690 0.000000 0.089050 
#    y 0.000000 3.671890 0.000000 
#    z 0.089050 0.000000 3.893490 
# 
# 
# High freq. dielectric constant tensor:
#      x y z
#    x 1.762640 0.000000 0.013630 
#    y 0.000000 1.801980 0.000000 
#    z 0.013630 0.000000 1.820960 
# 
# From -- ./inp_files/281701.got.cif
#   From: 2010.06.25/outbox.cif.g09.slc.cpg/sg15_141_cif.got.tgz:281701.got - 2010.06.28 07:06:18.
