data_PCOD8136189
_publ_section_title
;
Structure prediction by ZEFSAII (Michael W. Deem and Ramdas Pophale) SiO2 
 PCOD8136189
Probable space group: C 2/C
;
_chemical_formula_sum "Si O2"
_cell_formula_units_Z 64
_cell_length_a 24.564214
_cell_length_b 24.330084
_cell_length_c 12.841184
_cell_angle_alpha 90.000000
_cell_angle_beta 25.768842
_cell_angle_gamma 90.000000
_cell_volume 3336.434337
_symmetry_space_group_name_H-M "C 2/C"
_symmetry_group_IT_number 15
_symmetry_cell_setting 'monoclinic'
loop_
_space_group_symop_operation_xyz
x,y,z
-x,y,1/2-z
-x,-y,-z
x,-y,1/2+z
1/2+x,1/2+y,z
1/2-x,1/2+y,1/2-z
1/2-x,1/2-y,-z
1/2+x,1/2-y,1/2+z
loop_
_atom_site_type_symbol
_atom_site_label
_atom_site_fract_x
_atom_site_fract_y
_atom_site_fract_z
Si Si1 0.281189 0.167527 0.896458
Si Si2 0.128978 0.005010 0.582389
Si Si3 0.134163 0.646116 0.980882
Si Si4 0.177208 0.791642 0.200358
Si Si5 0.817574 0.933968 0.826419
Si Si6 0.553872 0.744338 0.270603
Si Si7 0.254216 0.463498 0.316099
Si Si8 0.917672 0.094513 0.689364
O O1 0.350619 0.152048 0.669552
O O2 0.361135 0.208204 0.828804
O O3 0.273187 0.115037 0.985342
O O4 0.140649 0.189752 0.114497
O O5 0.160729 0.062115 0.586691
O O6 0.000000 0.014906 0.750000
O O7 0.113348 0.955951 0.690441
O O8 0.233961 0.987152 0.320272
O O9 0.000000 0.667290 0.250000
O O10 0.233574 0.686254 0.862821
O O11 0.145376 0.582445 0.999796
O O12 0.120862 0.842206 0.230973
O O13 0.061246 0.761555 0.452986
O O14 0.250000 0.750000 0.000000
O O15 0.932095 0.913996 0.554415
O O16 0.730525 0.982187 0.927093
O O17 0.500000 0.759514 0.250000
O O18 0.376912 0.431060 0.147450
#
# Coordination Sequence:
#
# PCOD8136189 Si02
#       8
#     8   8   8   8   8   8   8   8
#     4  11  23  39  69  95 124 166 216 263 312 381
#     4  11  17  30  56  91 123 154 193 251 311 362
#     4  11  23  42  66  91 119 168 218 252 311 392
#     4  11  23  42  64  89 128 168 206 269 324 364
#     4  11  19  34  58  94 122 158 204 253 310 370
#     4  11  23  43  65  95 126 165 219 268 318 373
#     4  10  20  34  58  85 124 157 195 252 308 367
#     4  10  20  32  55  91 121 153 205 253 301 377
#
# _framework density 19.182154000000001
#
# number of rings (size 3 to 8) (size 9 to 14) (size 15 to 20)
#    0.000    1.250    6.250    1.500    0.000    0.500 
#    2.250    3.125    0.000    0.000    0.000    0.000 
#    0.000    0.000    0.000    0.000    0.000    0.000 
#
# Total GULP energy -396600.980564 kJ/mol
# GULP energy per Si atom -12393.780643 kJ/mol
# Density = 1.913849 g / cm^3
# Si number density = 19.182154 Si / 1000 Ang^3
#
#
#
# Elastic Constant Matrix: (Units=GPa)
#
#
# Indices 1 2 3 4 5 6 
#
# 1 75.8114 38.6810 25.5972 -0.0012 6.9589 0.0001
# 2 38.6810 121.3160 40.2146 -0.0008 11.6611 -0.0054
# 3 25.5972 40.2146 101.9891 -0.0019 11.0295 -0.0087
# 4 -0.0012 -0.0008 -0.0019 31.5853 0.0023 3.2728
# 5 6.9589 11.6611 11.0295 0.0023 27.6231 0.0046
# 6 0.0001 -0.0054 -0.0087 3.2728 0.0046 -58.0540
#
#
#
# Elastic Compliance Matrix: (Units=1/GPa)
#
#
# Indices 1 2 3 4 5 6 
#
# 1 0.016274 -0.004315 -0.002233 0.000000 -0.001386 0.000001
# 2 -0.004315 0.010812 -0.002931 0.000000 -0.002307 -0.000001
# 3 -0.002233 -0.002931 0.011837 0.000001 -0.002927 -0.000002
# 4 0.000000 0.000000 0.000001 0.031476 -0.000003 0.001774
# 5 -0.001386 -0.002307 -0.002927 -0.000003 0.038693 0.000004
# 6 0.000001 -0.000001 -0.000002 0.001774 0.000004 -0.017125
#
#
# Mechanical properties :
#
#
# Convention : Reuss Voigt Hill
#
# Bulk Modulus (GPa) = 50.08666 56.45578 53.27122
# Shear Modulus (GPa) = 42.52409 13.20583 27.86496
#
# Velocity S-wave (km/s) = 4.71346 2.62667 3.81550
# Velocity P-wave (km/s) = 7.46927 6.22049 6.87330
#
# Compressibility (1/GPa) = 0.01996539
#
# Stress axis : x y z
#
# Youngs Moduli (GPa) = 61.44928 92.48910 84.47757
#
# Poissons Ratio (x) = 0.39912 0.18863
# Poissons Ratio (y) = 0.26517 0.24758
# Poissons Ratio (z) = 0.13721 0.27106
#
# Static dielectric constant tensor:
#      x y z
#    x 3.201000 -0.000010 -0.118210 
#    y -0.000010 3.612740 0.000000 
#    z -0.118210 0.000000 3.146060 
# 
# 
# High freq. dielectric constant tensor:
#      x y z
#    x 1.740330 0.000000 0.012960 
#    y 0.000000 1.751700 0.000000 
#    z 0.012960 0.000000 1.728080 
# 
# From -- ./inp_files/120232.got.cif
#   From: 2010.06.25/outbox.cif.g09.slc.cpg/sg15_61_cif.got.tgz:120232.got - 2010.06.28 07:06:18.
