data_PCOD8136746
_publ_section_title
;
Structure prediction by ZEFSAII (Michael W. Deem and Ramdas Pophale) SiO2 
 PCOD8136746
Probable space group: C 2/C
;
_chemical_formula_sum "Si O2"
_cell_formula_units_Z 64
_cell_length_a 17.730678
_cell_length_b 9.479544
_cell_length_c 18.844916
_cell_angle_alpha 90.000000
_cell_angle_beta 92.068849
_cell_angle_gamma 90.000000
_cell_volume 3165.365150
_symmetry_space_group_name_H-M "C 2/C"
_symmetry_group_IT_number 15
_symmetry_cell_setting 'monoclinic'
loop_
_space_group_symop_operation_xyz
x,y,z
-x,y,1/2-z
-x,-y,-z
x,-y,1/2+z
1/2+x,1/2+y,z
1/2-x,1/2+y,1/2-z
1/2-x,1/2-y,-z
1/2+x,1/2-y,1/2+z
loop_
_atom_site_type_symbol
_atom_site_label
_atom_site_fract_x
_atom_site_fract_y
_atom_site_fract_z
Si Si1 0.078125 0.395022 0.595863
Si Si2 0.347859 0.833602 0.754915
Si Si3 0.644231 0.346287 0.013741
Si Si4 0.190618 0.640926 0.589630
Si Si5 0.730259 0.113393 0.746151
Si Si6 0.848090 0.140553 0.524585
Si Si7 0.590540 0.105841 0.391142
Si Si8 0.201492 0.358952 0.403025
O O1 0.101679 0.346800 0.674458
O O2 0.083356 0.257291 0.546499
O O3 0.131634 0.517802 0.566997
O O4 0.992605 0.452097 0.593452
O O5 0.315538 0.674557 0.745931
O O6 0.402378 0.873806 0.692556
O O7 0.275845 0.942374 0.754866
O O8 0.711978 0.381073 0.071087
O O9 0.606964 0.496430 0.991869
O O10 0.672416 0.279182 0.941316
O O11 0.187313 0.669422 0.674249
O O12 0.170626 0.786564 0.551001
O O13 0.273242 0.594426 0.565714
O O14 0.693567 0.169535 0.818345
O O15 0.899401 0.242179 0.572983
O O16 0.653114 0.997389 0.422987
#
# Coordination Sequence:
#
# PCOD8136746 Si02
#       8
#     8   8   8   8   8   8   8   8
#     4  11  23  40  62  89 123 160 195 244 302 357
#     4  10  21  38  62  94 117 150 198 248 293 360
#     4  11  22  36  59  87 122 157 204 248 290 346
#     4  10  21  38  59  88 118 158 203 246 291 357
#     4  10  20  34  62  88 116 152 200 244 300 344
#     4  11  22  36  59  87 122 157 204 248 290 346
#     4  11  23  40  62  89 123 160 195 244 302 357
#     4  10  21  38  59  88 118 158 203 246 291 357
#
# _framework density 20.218837000000001
#
# number of rings (size 3 to 8) (size 9 to 14) (size 15 to 20)
#    0.000    1.500    2.500    4.125    3.500    2.500 
#    0.000    0.000    0.000    0.000    0.000    5.250 
#    0.000    0.000    0.000    0.000    0.000    0.000 
#
# Total GULP energy -396710.847091 kJ/mol
# GULP energy per Si atom -12397.213972 kJ/mol
# Density = 2.017282 g / cm^3
# Si number density = 20.218837 Si / 1000 Ang^3
#
#
#
# Elastic Constant Matrix: (Units=GPa)
#
#
# Indices 1 2 3 4 5 6 
#
# 1 85.7074 21.5715 10.3064 0.0000 -13.1057 0.0000
# 2 21.5715 98.5488 35.8148 0.0000 -9.7799 0.0000
# 3 10.3064 35.8148 115.6639 0.0000 -13.2082 0.0000
# 4 0.0000 0.0000 0.0000 29.3536 0.0000 -0.1252
# 5 -13.1057 -9.7799 -13.2082 0.0000 10.9042 0.0000
# 6 0.0000 0.0000 0.0000 -0.1252 0.0000 25.2839
#
#
#
# Elastic Compliance Matrix: (Units=1/GPa)
#
#
# Indices 1 2 3 4 5 6 
#
# 1 0.014671 -0.001948 0.001288 0.000000 0.017446 0.000000
# 2 -0.001948 0.012162 -0.003034 0.000000 0.004892 0.000000
# 3 0.001288 -0.003034 0.010835 0.000000 0.011952 0.000000
# 4 0.000000 0.000000 0.000000 0.034068 0.000000 0.000169
# 5 0.017446 0.004892 0.011952 0.000000 0.131540 0.000000
# 6 0.000000 0.000000 0.000000 0.000169 0.000000 0.039552
#
#
# Mechanical properties :
#
#
# Convention : Reuss Voigt Hill
#
# Bulk Modulus (GPa) = 33.02482 48.36727 40.69604
# Shear Modulus (GPa) = 19.20806 28.59018 23.89912
#
# Velocity S-wave (km/s) = 3.08556 3.76445 3.44179
# Velocity P-wave (km/s) = 5.39105 6.54741 5.99717
#
# Compressibility (1/GPa) = 0.03028026
#
# Stress axis : x y z
#
# Youngs Moduli (GPa) = 68.16326 82.22599 92.29223
#
# Poissons Ratio (x) = 0.16019 -0.11889
# Poissons Ratio (y) = 0.13279 0.27998
# Poissons Ratio (z) = -0.08781 0.24944
#
# Static dielectric constant tensor:
#      x y z
#    x 3.330460 0.000000 -0.065010 
#    y 0.000000 3.708960 0.000000 
#    z -0.065010 0.000000 3.895650 
# 
# 
# High freq. dielectric constant tensor:
#      x y z
#    x 1.745890 0.000000 -0.004930 
#    y 0.000000 1.788410 0.000000 
#    z -0.004930 0.000000 1.815070 
# 
# From -- ./inp_files/247459.got.cif
#   From: 2010.06.25/outbox.cif.g09.slc.cpg/sg15_124_cif.got.tgz:247459.got - 2010.06.28 07:06:18.
