data_PCOD8136310
_publ_section_title
;
Structure prediction by ZEFSAII (Michael W. Deem and Ramdas Pophale) SiO2 
 PCOD8136310
Probable space group: C 2/C
;
_chemical_formula_sum "Si O2"
_cell_formula_units_Z 36
_cell_length_a 16.557841
_cell_length_b 16.772882
_cell_length_c 8.458282
_cell_angle_alpha 90.000000
_cell_angle_beta 49.635694
_cell_angle_gamma 90.000000
_cell_volume 1789.845031
_symmetry_space_group_name_H-M "C 2/C"
_symmetry_group_IT_number 15
_symmetry_cell_setting 'monoclinic'
loop_
_space_group_symop_operation_xyz
x,y,z
-x,y,1/2-z
-x,-y,-z
x,-y,1/2+z
1/2+x,1/2+y,z
1/2-x,1/2+y,1/2-z
1/2-x,1/2-y,-z
1/2+x,1/2-y,1/2+z
loop_
_atom_site_type_symbol
_atom_site_label
_atom_site_fract_x
_atom_site_fract_y
_atom_site_fract_z
Si Si1 0.621537 0.810476 0.202977
Si Si2 0.293956 0.399476 0.123495
Si Si3 0.683935 0.028744 0.045485
Si Si4 0.420836 0.097759 0.029641
Si Si5 0.000000 0.168794 0.250000
O O1 0.733915 0.816284 0.149915
O O2 0.546498 0.881227 0.372972
O O3 0.567546 0.723711 0.287405
O O4 0.635451 0.830691 0.997684
O O5 0.255666 0.467071 0.051399
O O6 0.267302 0.420552 0.336959
O O7 0.419978 0.386755 0.950071
O O8 0.623476 0.090646 0.237094
O O9 0.599207 0.985698 0.037400
#
# Coordination Sequence:
#
# PCOD8136310 Si02
#       5
#     8   8   8   8   4
#     4   9  19  33  51  73  97 133 167 203 244 289
#     4  10  20  33  54  74 100 131 165 208 246 294
#     4   9  18  31  51  80 101 127 161 206 258 288
#     4   8  16  29  48  75 103 123 159 206 247 291
#     4  10  20  36  52  70 100 138 172 196 238 302
#
# _framework density 20.113474
#
# number of rings (size 3 to 8) (size 9 to 14) (size 15 to 20)
#    0.000    3.111    0.000    0.667    0.000   17.778 
#    0.000    4.444    0.000   16.000    0.000    0.000 
#    0.000    0.000    0.000    0.000    0.000    0.000 
#
# Total GULP energy -223054.989781 kJ/mol
# GULP energy per Si atom -12391.943877 kJ/mol
# Density = 2.006770 g / cm^3
# Si number density = 20.113474 Si / 1000 Ang^3
#
#
#
# Elastic Constant Matrix: (Units=GPa)
#
#
# Indices 1 2 3 4 5 6 
#
# 1 43.4568 1.6381 40.2081 0.0000 -6.5346 0.0000
# 2 1.6381 16.2133 16.3484 0.0000 -6.2863 0.0000
# 3 40.2081 16.3484 148.8386 0.0000 -3.6043 0.0000
# 4 0.0000 0.0000 0.0000 25.6789 0.0000 -10.6027
# 5 -6.5346 -6.2863 -3.6043 0.0000 33.3294 0.0000
# 6 0.0000 0.0000 0.0000 -10.6027 0.0000 14.5105
#
#
#
# Elastic Compliance Matrix: (Units=1/GPa)
#
#
# Indices 1 2 3 4 5 6 
#
# 1 0.032674 0.009195 -0.009665 0.000000 0.007095 0.000000
# 2 0.009195 0.077360 -0.010612 0.000000 0.015246 0.000000
# 3 -0.009665 -0.010612 0.010428 0.000000 -0.002769 0.000000
# 4 0.000000 0.000000 0.000000 0.055768 0.000000 0.040749
# 5 0.007095 0.015246 -0.002769 0.000000 0.033971 0.000000
# 6 0.000000 0.000000 0.000000 0.040749 0.000000 0.098691
#
#
# Mechanical properties :
#
#
# Convention : Reuss Voigt Hill
#
# Bulk Modulus (GPa) = 10.17303 36.09976 23.13640
# Shear Modulus (GPa) = 13.74297 24.72469 19.23383
#
# Velocity S-wave (km/s) = 2.61678 3.50988 3.09571
# Velocity P-wave (km/s) = 3.76814 5.86624 4.93009
#
# Compressibility (1/GPa) = 0.09829913
#
# Stress axis : x y z
#
# Youngs Moduli (GPa) = 30.60530 12.92650 95.89377
#
# Poissons Ratio (x) = -0.11886 0.92681
# Poissons Ratio (y) = -0.28142 1.01763
# Poissons Ratio (z) = 0.29580 0.13718
#
# Static dielectric constant tensor:
#      x y z
#    x 3.460930 0.000000 -0.008690 
#    y 0.000000 3.534070 0.000000 
#    z -0.008690 0.000000 3.702990 
# 
# 
# High freq. dielectric constant tensor:
#      x y z
#    x 1.760620 0.000000 -0.010370 
#    y 0.000000 1.766270 0.000000 
#    z -0.010370 0.000000 1.781410 
# 
# From -- ./inp_files/47851.got.cif
#   From: 2010.06.25/outbox.cif.g09.slc.cpg/sg15_24_cif.got.tgz:47851.got - 2010.06.28 07:06:18.
