data_PCOD8136135
_publ_section_title
;
Structure prediction by ZEFSAII (Michael W. Deem and Ramdas Pophale) SiO2 
 PCOD8136135
Probable space group: C 2/C
;
_chemical_formula_sum "Si O2"
_cell_formula_units_Z 64
_cell_length_a 16.673422
_cell_length_b 29.412236
_cell_length_c 13.586340
_cell_angle_alpha 90.000000
_cell_angle_beta 29.611230
_cell_angle_gamma 90.000000
_cell_volume 3292.159811
_symmetry_space_group_name_H-M "C 2/C"
_symmetry_group_IT_number 15
_symmetry_cell_setting 'monoclinic'
loop_
_space_group_symop_operation_xyz
x,y,z
-x,y,1/2-z
-x,-y,-z
x,-y,1/2+z
1/2+x,1/2+y,z
1/2-x,1/2+y,1/2-z
1/2-x,1/2-y,-z
1/2+x,1/2-y,1/2+z
loop_
_atom_site_type_symbol
_atom_site_label
_atom_site_fract_x
_atom_site_fract_y
_atom_site_fract_z
Si Si1 0.569575 0.193374 0.069637
Si Si2 0.542256 0.977375 0.810713
Si Si3 0.176261 0.959778 0.514256
Si Si4 0.008416 0.946772 0.507689
Si Si5 0.066574 0.120684 0.567932
Si Si6 0.557593 0.286166 0.300074
Si Si7 0.166399 0.566449 0.464077
Si Si8 0.571894 0.888904 0.886515
O O1 0.500000 0.179551 0.250000
O O2 0.485543 0.237203 0.106515
O O3 0.546643 0.151536 0.018776
O O4 0.754606 0.204800 0.889696
O O5 0.500000 0.956576 0.750000
O O6 0.731990 0.992882 0.607386
O O7 0.502888 0.938574 0.931458
O O8 0.426192 0.019766 0.959158
O O9 0.145531 0.934227 0.443451
O O10 0.297714 0.929655 0.455916
O O11 0.000000 0.971075 0.750000
O O12 0.039002 0.917730 0.376488
O O13 0.836632 0.931950 0.729896
O O14 0.000000 0.000000 0.500000
O O15 0.258919 0.114393 0.354102
O O16 0.000000 0.119916 0.750000
O O17 0.034085 0.170575 0.554944
O O18 0.500000 0.280090 0.250000
O O19 0.079683 0.608792 0.499237
#
# Coordination Sequence:
#
# PCOD8136135 Si02
#       8
#     8   8   8   8   8   8   8   8
#     4  11  20  33  52  73  98 131 165 207 255 309
#     4  10  20  32  47  67  98 137 171 210 254 300
#     4   9  18  34  51  69  96 136 177 213 258 302
#     4  10  20  32  50  73 100 136 175 215 254 299
#     4  10  21  35  50  74 104 135 169 210 251 302
#     4  10  20  35  53  72  99 132 165 204 253 309
#     4   9  20  34  48  68 100 136 172 214 256 301
#     4  11  21  33  49  74 102 133 173 213 255 302
#
# _framework density 19.440125999999999
#
# number of rings (size 3 to 8) (size 9 to 14) (size 15 to 20)
#    0.000    2.000    0.000    6.000    0.000    7.000 
#    0.000    0.000    0.000    0.000    0.000    0.875 
#    0.000    7.000    0.000    2.375    0.000    0.875 
#
# Total GULP energy -396417.634798 kJ/mol
# GULP energy per Si atom -12388.051087 kJ/mol
# Density = 1.939588 g / cm^3
# Si number density = 19.440126 Si / 1000 Ang^3
#
#
#
# Elastic Constant Matrix: (Units=GPa)
#
#
# Indices 1 2 3 4 5 6 
#
# 1 129.4787 68.0863 38.1602 0.0023 -12.0214 0.0048
# 2 68.0863 109.2803 18.1264 -0.0007 -1.3343 0.0001
# 3 38.1602 18.1264 24.2386 -0.0007 -13.7578 -0.0005
# 4 0.0023 -0.0007 -0.0007 20.4368 -0.0003 -3.3443
# 5 -12.0214 -1.3343 -13.7578 -0.0003 30.5818 -0.0016
# 6 0.0048 0.0001 -0.0005 -3.3443 -0.0016 27.8816
#
#
#
# Elastic Compliance Matrix: (Units=1/GPa)
#
#
# Indices 1 2 3 4 5 6 
#
# 1 0.019435 -0.007537 -0.027948 -0.000004 -0.005262 -0.000005
# 2 -0.007537 0.013769 0.000308 0.000002 -0.002224 0.000001
# 3 -0.027948 0.000308 0.105819 0.000009 0.036632 0.000010
# 4 -0.000004 0.000002 0.000009 0.049911 0.000003 0.005987
# 5 -0.005262 -0.002224 0.036632 0.000003 0.047013 0.000005
# 6 -0.000005 0.000001 0.000010 0.005987 0.000005 0.036584
#
#
# Mechanical properties :
#
#
# Convention : Reuss Voigt Hill
#
# Bulk Modulus (GPa) = 14.56295 56.86038 35.71166
# Shear Modulus (GPa) = 13.66961 25.02167 19.34564
#
# Velocity S-wave (km/s) = 2.65460 3.59153 3.15801
# Velocity P-wave (km/s) = 4.11137 6.81992 5.63092
#
# Compressibility (1/GPa) = 0.06866741
#
# Stress axis : x y z
#
# Youngs Moduli (GPa) = 51.45322 72.62829 9.45014
#
# Poissons Ratio (x) = 0.54743 0.26411
# Poissons Ratio (y) = 0.38783 -0.00291
# Poissons Ratio (z) = 1.43800 -0.02235
#
# Static dielectric constant tensor:
#      x y z
#    x 4.093300 0.000000 -0.105780 
#    y 0.000000 3.804050 0.000000 
#    z -0.105780 0.000000 3.518940 
# 
# 
# High freq. dielectric constant tensor:
#      x y z
#    x 1.762300 0.000000 -0.026430 
#    y 0.000000 1.730560 0.000000 
#    z -0.026430 0.000000 1.748230 
# 
# From -- ./inp_files/164211.got.cif
#   From: 2010.06.25/outbox.cif.g09.slc.cpg/sg15_83_cif.got.tgz:164211.got - 2010.06.28 07:06:18.
