data_PCOD8136168
_publ_section_title
;
Structure prediction by ZEFSAII (Michael W. Deem and Ramdas Pophale) SiO2 
 PCOD8136168
Probable space group: C 2/C
;
_chemical_formula_sum "Si O2"
_cell_formula_units_Z 60
_cell_length_a 22.538064
_cell_length_b 18.995917
_cell_length_c 22.644573
_cell_angle_alpha 90.000000
_cell_angle_beta 161.199973
_cell_angle_gamma 90.000000
_cell_volume 3124.321274
_symmetry_space_group_name_H-M "C 2/C"
_symmetry_group_IT_number 15
_symmetry_cell_setting 'monoclinic'
loop_
_space_group_symop_operation_xyz
x,y,z
-x,y,1/2-z
-x,-y,-z
x,-y,1/2+z
1/2+x,1/2+y,z
1/2-x,1/2+y,1/2-z
1/2-x,1/2-y,-z
1/2+x,1/2-y,1/2+z
loop_
_atom_site_type_symbol
_atom_site_label
_atom_site_fract_x
_atom_site_fract_y
_atom_site_fract_z
Si Si1 0.562093 0.043720 0.981799
Si Si2 0.200521 0.031947 0.702250
Si Si3 0.143340 0.669259 0.137087
Si Si4 0.114765 0.523255 0.414194
Si Si5 0.543865 0.308524 0.188664
Si Si6 0.463029 0.841886 0.591322
Si Si7 0.528059 0.675524 0.542898
Si Si8 0.000000 0.909842 0.250000
O O1 0.356278 0.012543 0.800301
O O2 0.604755 0.040228 0.952380
O O3 0.566688 0.123712 0.010306
O O4 0.720599 0.995777 0.161256
O O5 0.185053 0.116437 0.689755
O O6 0.000000 0.000000 0.500000
O O7 0.360687 0.653250 0.343405
O O8 0.113935 0.752080 0.099653
O O9 0.059667 0.643929 0.120102
O O10 0.009529 0.591067 0.341142
O O11 0.326596 0.540130 0.598561
O O12 0.000000 0.496788 0.250000
O O13 0.536878 0.225512 0.198124
O O14 0.751223 0.332051 0.376663
O O15 0.447230 0.315829 0.033394
O O16 0.446288 0.358223 0.144905
#
# Coordination Sequence:
#
# PCOD8136168 Si02
#       8
#     8   8   8   8   8   8   8   4
#     4  11  23  41  59  89 125 160 209 251 301 373
#     4  11  21  37  62  94 125 160 193 246 317 369
#     4  11  21  37  60  88 126 157 195 252 302 379
#     4  11  26  39  58  79 113 162 209 257 298 347
#     4  10  20  32  53  78 117 159 197 245 281 356
#     4  10  20  34  52  83 115 156 202 242 301 354
#     4  11  21  35  59  94 123 159 195 241 315 370
#     4  10  24  40  54  78 118 160 218 250 282 352
#
# _framework density 19.204170999999999
#
# number of rings (size 3 to 8) (size 9 to 14) (size 15 to 20)
#    0.000    1.333    1.333    8.000    4.667    2.133 
#    0.000    0.000    0.000    0.000    0.000    3.733 
#    0.000    0.000    0.000    0.000    0.000    0.000 
#
# Total GULP energy -371956.335722 kJ/mol
# GULP energy per Si atom -12398.544524 kJ/mol
# Density = 1.916046 g / cm^3
# Si number density = 19.204171 Si / 1000 Ang^3
#
#
#
# Elastic Constant Matrix: (Units=GPa)
#
#
# Indices 1 2 3 4 5 6 
#
# 1 105.1065 53.8593 44.5101 0.0109 -8.0592 -0.0072
# 2 53.8593 102.1113 38.1320 0.0021 -1.9794 0.0116
# 3 44.5101 38.1320 94.1855 0.0006 -1.4855 -0.0424
# 4 0.0109 0.0021 0.0006 23.7294 -0.0128 -0.5328
# 5 -8.0592 -1.9794 -1.4855 -0.0128 24.9261 -0.0305
# 6 -0.0072 0.0116 -0.0424 -0.5328 -0.0305 33.3469
#
#
#
# Elastic Compliance Matrix: (Units=1/GPa)
#
#
# Indices 1 2 3 4 5 6 
#
# 1 0.014837 -0.006070 -0.004490 -0.000004 0.004047 0.000003
# 2 -0.006070 0.014032 -0.002828 0.000001 -0.001017 -0.000011
# 3 -0.004490 -0.002828 0.013871 0.000002 -0.000850 0.000017
# 4 -0.000004 0.000001 0.000002 0.042157 0.000021 0.000674
# 5 0.004047 -0.001017 -0.000850 0.000021 0.041296 0.000038
# 6 0.000003 -0.000011 0.000017 0.000674 0.000038 0.029999
#
#
# Mechanical properties :
#
#
# Convention : Reuss Voigt Hill
#
# Bulk Modulus (GPa) = 62.64915 63.82291 63.23603
# Shear Modulus (GPa) = 26.55508 27.39394 26.97451
#
# Velocity S-wave (km/s) = 3.72260 3.78095 3.75189
# Velocity P-wave (km/s) = 7.15336 7.23649 7.19504
#
# Compressibility (1/GPa) = 0.01596191
#
# Stress axis : x y z
#
# Youngs Moduli (GPa) = 67.40118 71.26796 72.09405
#
# Poissons Ratio (x) = 0.43263 0.32370
# Poissons Ratio (y) = 0.40916 0.20389
# Poissons Ratio (z) = 0.30262 0.20155
#
# Static dielectric constant tensor:
#      x y z
#    x 3.369680 -0.000060 0.078620 
#    y -0.000060 3.587530 -0.000190 
#    z 0.078620 -0.000190 3.543510 
# 
# 
# High freq. dielectric constant tensor:
#      x y z
#    x 1.710770 -0.000010 0.012830 
#    y -0.000010 1.737190 -0.000010 
#    z 0.012830 -0.000010 1.761590 
# 
# From -- ./inp_files/253533.got.cif
#   From: 2010.06.25/outbox.cif.g09.slc.cpg/sg15_127_cif.got.tgz:253533.got - 2010.06.28 07:06:18.
