data_PCOD8136717
_publ_section_title
;
Structure prediction by ZEFSAII (Michael W. Deem and Ramdas Pophale) SiO2 
 PCOD8136717
Probable space group: C 2/C
;
_chemical_formula_sum "Si O2"
_cell_formula_units_Z 60
_cell_length_a 20.378654
_cell_length_b 17.212168
_cell_length_c 11.654579
_cell_angle_alpha 90.000000
_cell_angle_beta 134.944377
_cell_angle_gamma 90.000000
_cell_volume 2893.435931
_symmetry_space_group_name_H-M "C 2/C"
_symmetry_group_IT_number 15
_symmetry_cell_setting 'monoclinic'
loop_
_space_group_symop_operation_xyz
x,y,z
-x,y,1/2-z
-x,-y,-z
x,-y,1/2+z
1/2+x,1/2+y,z
1/2-x,1/2+y,1/2-z
1/2-x,1/2-y,-z
1/2+x,1/2-y,1/2+z
loop_
_atom_site_type_symbol
_atom_site_label
_atom_site_fract_x
_atom_site_fract_y
_atom_site_fract_z
Si Si1 0.059036 0.570362 0.215833
Si Si2 0.800354 0.320125 0.499114
Si Si3 0.491002 0.650100 0.499543
Si Si4 0.313462 0.924441 0.165602
Si Si5 0.924326 0.317719 0.435136
Si Si6 0.500000 0.445190 0.250000
Si Si7 0.639780 0.445371 0.805844
Si Si8 0.177332 0.920255 0.205659
O O1 0.124194 0.643245 0.324268
O O2 0.119296 0.498521 0.247089
O O3 0.000000 0.539380 0.250000
O O4 0.985945 0.605261 0.035358
O O5 0.750000 0.250000 0.500000
O O6 0.850417 0.295080 0.442940
O O7 0.721962 0.383771 0.375809
O O8 0.488615 0.742850 0.504034
O O9 0.482710 0.608380 0.615265
O O10 0.414751 0.629155 0.308779
O O11 0.588840 0.630751 0.560276
O O12 0.371478 0.843695 0.251919
O O13 0.251908 0.929109 0.201330
O O14 0.244182 0.921439 0.971891
O O15 0.412363 0.503412 0.160482
O O16 0.643222 0.494421 0.693824
#
# Coordination Sequence:
#
# PCOD8136717 Si02
#       8
#     8   8   8   8   8   4   8   8
#     4  10  21  40  65  90 122 166 213 259 313 367
#     4  10  20  34  60  93 125 158 204 262 318 364
#     4  11  23  38  62  93 131 159 206 253 325 378
#     4  11  22  41  65  86 127 165 213 263 301 373
#     4  10  24  38  59  94 127 167 204 258 319 367
#     4  10  22  38  64  92 122 164 204 266 312 366
#     4  11  21  38  61  90 123 168 212 247 311 380
#     4  10  21  37  59  94 118 158 212 257 311 371
#
# _framework density 20.736592000000002
#
# number of rings (size 3 to 8) (size 9 to 14) (size 15 to 20)
#    0.000    1.600    1.333    4.400    6.533    1.600 
#    0.000    0.000    4.400    0.000    0.000    0.000 
#    0.000    0.000    0.000    0.000    0.000    0.000 
#
# Total GULP energy -371753.895933 kJ/mol
# GULP energy per Si atom -12391.796531 kJ/mol
# Density = 2.068939 g / cm^3
# Si number density = 20.736592 Si / 1000 Ang^3
#
#
#
# Elastic Constant Matrix: (Units=GPa)
#
#
# Indices 1 2 3 4 5 6 
#
# 1 80.6790 49.9261 35.9500 0.0000 9.5412 0.0000
# 2 49.9261 93.2640 48.3804 0.0000 3.4996 0.0000
# 3 35.9500 48.3804 107.9067 0.0000 19.7774 0.0000
# 4 0.0000 0.0000 0.0000 31.6399 0.0000 14.7514
# 5 9.5412 3.4996 19.7774 0.0000 21.7911 0.0000
# 6 0.0000 0.0000 0.0000 14.7514 0.0000 23.1062
#
#
#
# Elastic Compliance Matrix: (Units=1/GPa)
#
#
# Indices 1 2 3 4 5 6 
#
# 1 0.019593 -0.009709 -0.001065 0.000000 -0.006053 0.000000
# 2 -0.009709 0.019100 -0.006652 0.000000 0.007221 0.000000
# 3 -0.001065 -0.006652 0.014782 0.000000 -0.011882 0.000000
# 4 0.000000 0.000000 0.000000 0.045000 0.000000 -0.028728
# 5 -0.006053 0.007221 -0.011882 0.000000 0.058164 0.000000
# 6 0.000000 0.000000 0.000000 -0.028728 0.000000 0.061619
#
#
# Mechanical properties :
#
#
# Convention : Reuss Voigt Hill
#
# Bulk Modulus (GPa) = 53.69887 61.15140 57.42514
# Shear Modulus (GPa) = 19.28127 25.14701 22.21414
#
# Velocity S-wave (km/s) = 3.05260 3.48614 3.27655
# Velocity P-wave (km/s) = 6.19487 6.76446 6.48592
#
# Compressibility (1/GPa) = 0.01862237
#
# Stress axis : x y z
#
# Youngs Moduli (GPa) = 51.03734 52.35724 67.64810
#
# Poissons Ratio (x) = 0.50834 0.07206
# Poissons Ratio (y) = 0.49553 0.45001
# Poissons Ratio (z) = 0.05437 0.34829
#
# Static dielectric constant tensor:
#      x y z
#    x 3.797870 0.000000 0.458880 
#    y 0.000000 3.699710 0.000000 
#    z 0.458880 0.000000 4.543700 
# 
# 
# High freq. dielectric constant tensor:
#      x y z
#    x 1.800310 0.000000 0.019940 
#    y 0.000000 1.801840 0.000000 
#    z 0.019940 0.000000 1.825230 
# 
# From -- ./inp_files/113818.got.cif
#   From: 2010.06.25/outbox.cif.g09.slc.cpg/sg15_57_cif.got.tgz:113818.got - 2010.06.28 07:06:18.
