data_PCOD8136813
_publ_section_title
;
Structure prediction by ZEFSAII (Michael W. Deem and Ramdas Pophale) SiO2 
 PCOD8136813
Probable space group: C 2/C
;
_chemical_formula_sum "Si O2"
_cell_formula_units_Z 56
_cell_length_a 24.095316
_cell_length_b 18.948902
_cell_length_c 17.417319
_cell_angle_alpha 90.000000
_cell_angle_beta 159.395678
_cell_angle_gamma 90.000000
_cell_volume 2798.545523
_symmetry_space_group_name_H-M "C 2/C"
_symmetry_group_IT_number 15
_symmetry_cell_setting 'monoclinic'
loop_
_space_group_symop_operation_xyz
x,y,z
-x,y,1/2-z
-x,-y,-z
x,-y,1/2+z
1/2+x,1/2+y,z
1/2-x,1/2+y,1/2-z
1/2-x,1/2-y,-z
1/2+x,1/2-y,1/2+z
loop_
_atom_site_type_symbol
_atom_site_label
_atom_site_fract_x
_atom_site_fract_y
_atom_site_fract_z
Si Si1 0.746644 0.373858 0.681473
Si Si2 0.326097 0.752232 0.514737
Si Si3 0.815932 0.998152 0.511788
Si Si4 0.677748 0.977475 0.492444
Si Si5 0.943688 0.919264 0.922908
Si Si6 0.284040 0.886418 0.360523
Si Si7 0.567976 0.076937 0.601834
O O1 0.754476 0.297432 0.652739
O O2 0.718508 0.431222 0.579118
O O3 0.608346 0.385234 0.563699
O O4 0.918712 0.381771 0.945139
O O5 0.250000 0.750000 0.500000
O O6 0.333069 0.830535 0.488574
O O7 0.500000 0.721966 0.750000
O O8 0.720558 0.930453 0.354200
O O9 0.751793 0.013225 0.513374
O O10 0.000000 0.978642 0.750000
O O11 0.500000 0.948323 0.250000
O O12 0.675312 0.036100 0.555341
O O13 0.796268 0.914316 0.672805
O O14 0.098989 0.876303 0.098704
O O15 0.000000 0.000000 0.000000
O O16 0.384910 0.879905 0.413719
O O17 0.500000 0.000000 0.500000
#
# Coordination Sequence:
#
# PCOD8136813 Si02
#       7
#     8   8   8   8   8   8   8
#     4  11  21  36  53  77 113 148 177 216 266 330
#     4  12  24  38  56  84 114 150 188 218 256 324
#     4  11  19  31  52  80 106 134 172 226 276 316
#     4  11  19  31  52  80 106 134 172 226 276 316
#     4  10  20  35  53  76 107 144 181 221 273 328
#     4  11  21  36  53  77 113 148 177 216 266 330
#     4  10  20  35  53  76 107 144 181 221 273 328
#
# _framework density 20.010394999999999
#
# number of rings (size 3 to 8) (size 9 to 14) (size 15 to 20)
#    0.000    1.143    0.000   12.000    0.000    0.000 
#    0.000    0.000    0.000    0.000    0.000   20.000 
#    0.000    0.000    0.000    0.000    0.000    0.000 
#
# Total GULP energy -347041.658912 kJ/mol
# GULP energy per Si atom -12394.344961 kJ/mol
# Density = 1.996485 g / cm^3
# Si number density = 20.010395 Si / 1000 Ang^3
#
#
#
# Elastic Constant Matrix: (Units=GPa)
#
#
# Indices 1 2 3 4 5 6 
#
# 1 86.1701 9.7976 11.9224 0.0000 19.1680 0.0000
# 2 9.7976 43.2361 14.5471 0.0000 -0.8004 0.0000
# 3 11.9224 14.5471 146.4924 0.0000 12.1191 0.0000
# 4 0.0000 0.0000 0.0000 19.4773 0.0000 -1.3767
# 5 19.1680 -0.8004 12.1191 0.0000 37.3895 0.0000
# 6 0.0000 0.0000 0.0000 -1.3767 0.0000 28.6131
#
#
#
# Elastic Compliance Matrix: (Units=1/GPa)
#
#
# Indices 1 2 3 4 5 6 
#
# 1 0.013532 -0.003122 -0.000218 0.000000 -0.006934 0.000000
# 2 -0.003122 0.024712 -0.002442 0.000000 0.002921 0.000000
# 3 -0.000218 -0.002442 0.007277 0.000000 -0.002299 0.000000
# 4 0.000000 0.000000 0.000000 0.051517 0.000000 0.002479
# 5 -0.006934 0.002921 -0.002299 0.000000 0.031108 0.000000
# 6 0.000000 0.000000 0.000000 0.002479 0.000000 0.035068
#
#
# Mechanical properties :
#
#
# Convention : Reuss Voigt Hill
#
# Bulk Modulus (GPa) = 29.44725 38.71475 34.08100
# Shear Modulus (GPa) = 26.86792 33.07141 29.96966
#
# Velocity S-wave (km/s) = 3.66826 4.06977 3.87422
# Velocity P-wave (km/s) = 5.71747 6.43998 6.08945
#
# Compressibility (1/GPa) = 0.03395903
#
# Stress axis : x y z
#
# Youngs Moduli (GPa) = 73.89684 40.46657 137.42538
#
# Poissons Ratio (x) = 0.12632 0.02992
# Poissons Ratio (y) = 0.23068 0.33553
# Poissons Ratio (z) = 0.01609 0.09880
#
# Static dielectric constant tensor:
#      x y z
#    x 4.383060 0.000000 -0.236920 
#    y 0.000000 3.280340 0.000000 
#    z -0.236920 0.000000 4.670200 
# 
# 
# High freq. dielectric constant tensor:
#      x y z
#    x 1.785930 0.000000 0.017430 
#    y 0.000000 1.722300 0.000000 
#    z 0.017430 0.000000 1.807040 
# 
# From -- ./inp_files/220202.got.cif
#   From: 2010.06.25/outbox.cif.g09.slc.cpg/sg15_111_cif.got.tgz:220202.got - 2010.06.28 07:06:18.
