data_PCOD8136615
_publ_section_title
;
Structure prediction by ZEFSAII (Michael W. Deem and Ramdas Pophale) SiO2 
 PCOD8136615
Probable space group: C 2/C
;
_chemical_formula_sum "Si O2"
_cell_formula_units_Z 60
_cell_length_a 25.144766
_cell_length_b 8.055844
_cell_length_c 22.217549
_cell_angle_alpha 90.000000
_cell_angle_beta 39.044590
_cell_angle_gamma 90.000000
_cell_volume 2834.938507
_symmetry_space_group_name_H-M "C 2/C"
_symmetry_group_IT_number 15
_symmetry_cell_setting 'monoclinic'
loop_
_space_group_symop_operation_xyz
x,y,z
-x,y,1/2-z
-x,-y,-z
x,-y,1/2+z
1/2+x,1/2+y,z
1/2-x,1/2+y,1/2-z
1/2-x,1/2-y,-z
1/2+x,1/2-y,1/2+z
loop_
_atom_site_type_symbol
_atom_site_label
_atom_site_fract_x
_atom_site_fract_y
_atom_site_fract_z
Si Si1 0.947489 0.573616 0.599755
Si Si2 0.621838 0.412368 0.463192
Si Si3 0.340523 0.226223 0.951115
Si Si4 0.669605 0.251919 0.871276
Si Si5 0.144648 0.746499 0.321744
Si Si6 0.485563 0.606539 0.648853
Si Si7 0.000000 0.104398 0.250000
Si Si8 0.086380 0.562574 0.050109
O O1 0.902305 0.745507 0.618930
O O2 0.870980 0.445626 0.680099
O O3 0.000000 0.500000 0.500000
O O4 0.013954 0.578240 0.596890
O O5 0.667326 0.323356 0.478934
O O6 0.678776 0.566059 0.390981
O O7 0.606579 0.285993 0.421472
O O8 0.532232 0.483224 0.562212
O O9 0.418656 0.288596 0.841562
O O10 0.356600 0.029320 0.949861
O O11 0.250000 0.250000 0.000000
O O12 0.757964 0.203701 0.764170
O O13 0.645327 0.113270 0.942145
O O14 0.101404 0.851997 0.307087
O O15 0.465433 0.513881 0.728054
O O16 0.541505 0.771135 0.613878
#
# Coordination Sequence:
#
# PCOD8136615 Si02
#       8
#     8   8   8   8   8   8   4   8
#     4   9  18  35  55  81 123 160 195 241 311 384
#     4  10  21  39  58  89 126 161 207 261 319 369
#     4  11  25  46  67  91 128 171 222 267 318 375
#     4  10  20  34  57  97 128 160 205 255 318 383
#     4  11  20  34  61  95 123 161 205 261 320 377
#     4   9  21  40  63  87 126 162 213 260 317 383
#     4  10  24  46  62  98 122 168 222 268 316 388
#     4   9  20  40  63  88 122 173 203 253 323 380
#
# _framework density 21.164480000000001
#
# number of rings (size 3 to 8) (size 9 to 14) (size 15 to 20)
#    0.000    2.133    0.000    3.600    1.867    2.667 
#    9.600    2.000    0.000    0.000    0.000    0.000 
#    0.000    0.000    0.000    0.000    0.000    0.000 
#
# Total GULP energy -371799.449569 kJ/mol
# GULP energy per Si atom -12393.314986 kJ/mol
# Density = 2.111631 g / cm^3
# Si number density = 21.164480 Si / 1000 Ang^3
#
#
#
# Elastic Constant Matrix: (Units=GPa)
#
#
# Indices 1 2 3 4 5 6 
#
# 1 102.8640 36.4328 35.7497 0.0127 -8.0152 -0.0163
# 2 36.4328 72.4362 21.8582 -0.0335 2.0142 -0.0121
# 3 35.7497 21.8582 83.1666 -0.0256 -3.4841 0.0136
# 4 0.0127 -0.0335 -0.0256 22.3129 0.0253 4.2551
# 5 -8.0152 2.0142 -3.4841 0.0253 34.2851 -0.0083
# 6 -0.0163 -0.0121 0.0136 4.2551 -0.0083 37.7011
#
#
#
# Elastic Compliance Matrix: (Units=1/GPa)
#
#
# Indices 1 2 3 4 5 6 
#
# 1 0.013371 -0.005554 -0.004161 -0.000026 0.003029 0.000009
# 2 -0.005554 0.017358 -0.002282 0.000029 -0.002550 0.000000
# 3 -0.004161 -0.002282 0.014439 0.000017 0.000629 -0.000009
# 4 -0.000026 0.000029 0.000017 0.045803 -0.000041 -0.005170
# 5 0.003029 -0.002550 0.000629 -0.000041 0.030089 0.000012
# 6 0.000009 0.000000 -0.000009 -0.005170 0.000012 0.027108
#
#
# Mechanical properties :
#
#
# Convention : Reuss Voigt Hill
#
# Bulk Modulus (GPa) = 47.22577 49.61646 48.42112
# Shear Modulus (GPa) = 27.89893 29.82155 28.86024
#
# Velocity S-wave (km/s) = 3.63464 3.75779 3.69672
# Velocity P-wave (km/s) = 6.32268 6.50555 6.41476
#
# Compressibility (1/GPa) = 0.02117488
#
# Stress axis : x y z
#
# Youngs Moduli (GPa) = 74.79012 57.61047 69.25831
#
# Poissons Ratio (x) = 0.31995 0.28818
# Poissons Ratio (y) = 0.41536 0.15802
# Poissons Ratio (z) = 0.31120 0.13145
#
# Static dielectric constant tensor:
#      x y z
#    x 4.010100 -0.002490 0.017360 
#    y -0.002490 6.299600 -0.000060 
#    z 0.017360 -0.000060 3.701820 
# 
# 
# High freq. dielectric constant tensor:
#      x y z
#    x 1.816490 0.000000 -0.006910 
#    y 0.000000 1.837370 0.000000 
#    z -0.006910 0.000000 1.822000 
# 
# From -- ./inp_files/281661.got.cif
#   From: 2010.06.25/outbox.cif.g09.slc.cpg/sg15_141_cif.got.tgz:281661.got - 2010.06.28 07:06:18.
