data_PCOD8136365
_publ_section_title
;
Structure prediction by ZEFSAII (Michael W. Deem and Ramdas Pophale) SiO2 
 PCOD8136365
Probable space group: C 2/C
;
_chemical_formula_sum "Si O2"
_cell_formula_units_Z 48
_cell_length_a 20.026141
_cell_length_b 11.640446
_cell_length_c 18.201771
_cell_angle_alpha 90.000000
_cell_angle_beta 145.127940
_cell_angle_gamma 90.000000
_cell_volume 2425.959614
_symmetry_space_group_name_H-M "C 2/C"
_symmetry_group_IT_number 15
_symmetry_cell_setting 'monoclinic'
loop_
_space_group_symop_operation_xyz
x,y,z
-x,y,1/2-z
-x,-y,-z
x,-y,1/2+z
1/2+x,1/2+y,z
1/2-x,1/2+y,1/2-z
1/2-x,1/2-y,-z
1/2+x,1/2-y,1/2+z
loop_
_atom_site_type_symbol
_atom_site_label
_atom_site_fract_x
_atom_site_fract_y
_atom_site_fract_z
Si Si1 0.244915 0.044643 0.798988
Si Si2 0.040441 0.499772 0.207294
Si Si3 0.961167 0.687240 0.028858
Si Si4 0.111842 0.660698 0.024568
Si Si5 0.009305 0.948110 0.426804
Si Si6 0.714297 0.598363 0.601703
O O1 0.227962 0.083367 0.700651
O O2 0.119094 0.044445 0.726112
O O3 0.295291 0.916963 0.848295
O O4 0.331631 0.134399 0.915803
O O5 0.044756 0.609139 0.156076
O O6 0.000000 0.544658 0.250000
O O7 0.166680 0.440162 0.329768
O O8 0.947361 0.405278 0.096302
O O9 0.949934 0.817204 0.044031
O O10 0.009818 0.690818 0.989958
O O11 0.181104 0.769816 0.055383
O O12 0.107521 0.021720 0.473168
O O13 0.000000 0.000000 0.500000
#
# Coordination Sequence:
#
# PCOD8136365 Si02
#       6
#     8   8   8   8   8   8
#     4  10  20  33  57  93 121 146 192 261 305 359
#     4  11  25  43  61  86 125 172 205 240 305 376
#     4  11  20  38  63  91 118 156 205 256 309 350
#     4  11  21  37  64  90 116 160 203 260 308 340
#     4  10  22  31  58  98 121 146 194 258 320 345
#     4  11  22  34  63  89 125 151 204 253 304 360
#
# _framework density 19.785983999999999
#
# number of rings (size 3 to 8) (size 9 to 14) (size 15 to 20)
#    0.000    1.333    6.667    1.000    9.333    0.667 
#    0.000    0.833    0.000    0.000    0.000    0.000 
#    0.000    0.000    0.000    0.000    0.000    0.000 
#
# Total GULP energy -297543.836030 kJ/mol
# GULP energy per Si atom -12397.659835 kJ/mol
# Density = 1.974095 g / cm^3
# Si number density = 19.785984 Si / 1000 Ang^3
#
#
#
# Elastic Constant Matrix: (Units=GPa)
#
#
# Indices 1 2 3 4 5 6 
#
# 1 49.1828 7.6038 20.4691 0.0000 3.6434 0.0000
# 2 7.6038 145.9344 38.5612 0.0000 18.5583 0.0000
# 3 20.4691 38.5612 98.3104 0.0000 33.5482 0.0000
# 4 0.0000 0.0000 0.0000 26.0299 0.0000 7.2270
# 5 3.6434 18.5583 33.5482 0.0000 24.6737 0.0000
# 6 0.0000 0.0000 0.0000 7.2270 0.0000 6.6206
#
#
#
# Elastic Compliance Matrix: (Units=1/GPa)
#
#
# Indices 1 2 3 4 5 6 
#
# 1 0.022691 -0.000166 -0.006639 0.000000 0.005801 0.000000
# 2 -0.000166 0.007777 -0.001918 0.000000 -0.003217 0.000000
# 3 -0.006639 -0.001918 0.021417 0.000000 -0.026697 0.000000
# 4 0.000000 0.000000 0.000000 0.055124 0.000000 -0.060173
# 5 0.005801 -0.003217 -0.026697 0.000000 0.078390 0.000000
# 6 0.000000 0.000000 0.000000 -0.060173 0.000000 0.216727
#
#
# Mechanical properties :
#
#
# Convention : Reuss Voigt Hill
#
# Bulk Modulus (GPa) = 29.03687 47.41065 38.22376
# Shear Modulus (GPa) = 11.59954 26.58443 19.09198
#
# Velocity S-wave (km/s) = 2.42389 3.66949 3.10969
# Velocity P-wave (km/s) = 4.74773 6.47822 5.67927
#
# Compressibility (1/GPa) = 0.03443898
#
# Stress axis : x y z
#
# Youngs Moduli (GPa) = 44.06979 128.58491 46.69256
#
# Poissons Ratio (x) = 0.02131 0.31000
# Poissons Ratio (y) = 0.00730 0.08957
# Poissons Ratio (z) = 0.29258 0.24665
#
# Static dielectric constant tensor:
#      x y z
#    x 3.207460 0.000000 0.493700 
#    y 0.000000 3.739400 0.000000 
#    z 0.493700 0.000000 4.230420 
# 
# 
# High freq. dielectric constant tensor:
#      x y z
#    x 1.717570 0.000000 0.030220 
#    y 0.000000 1.783290 0.000000 
#    z 0.030220 0.000000 1.781180 
# 
# From -- ./inp_files/111215.got.cif
#   From: 2010.06.25/outbox.cif.g09.slc.cpg/sg15_56_cif.got.tgz:111215.got - 2010.06.28 07:06:18.
