data_PCOD8136837
_publ_section_title
;
Structure prediction by ZEFSAII (Michael W. Deem and Ramdas Pophale) SiO2 
 PCOD8136837
Probable space group: C 2/C
;
_chemical_formula_sum "Si O2"
_cell_formula_units_Z 64
_cell_length_a 27.564963
_cell_length_b 20.372549
_cell_length_c 17.732517
_cell_angle_alpha 90.000000
_cell_angle_beta 162.122227
_cell_angle_gamma 90.000000
_cell_volume 3056.988289
_symmetry_space_group_name_H-M "C 2/C"
_symmetry_group_IT_number 15
_symmetry_cell_setting 'monoclinic'
loop_
_space_group_symop_operation_xyz
x,y,z
-x,y,1/2-z
-x,-y,-z
x,-y,1/2+z
1/2+x,1/2+y,z
1/2-x,1/2+y,1/2-z
1/2-x,1/2-y,-z
1/2+x,1/2-y,1/2+z
loop_
_atom_site_type_symbol
_atom_site_label
_atom_site_fract_x
_atom_site_fract_y
_atom_site_fract_z
Si Si1 0.883406 0.663990 0.665666
Si Si2 0.081774 0.189555 0.299052
Si Si3 0.281092 0.573081 0.186560
Si Si4 0.008398 0.770402 0.126506
Si Si5 0.217028 0.647906 0.234546
Si Si6 0.932403 0.154870 0.931790
Si Si7 0.319901 0.930546 0.503878
Si Si8 0.204796 0.648965 0.390491
O O1 0.865267 0.736202 0.602668
O O2 0.738642 0.649502 0.508841
O O3 0.863920 0.613429 0.567104
O O4 0.042973 0.661665 0.947744
O O5 0.000000 0.156060 0.250000
O O6 0.948616 0.187874 0.037059
O O7 0.283406 0.588488 0.280299
O O8 0.448711 0.593778 0.400445
O O9 0.265626 0.496987 0.146329
O O10 0.020527 0.788681 0.056881
O O11 0.054371 0.693232 0.195642
O O12 0.132838 0.811070 0.360398
O O13 0.832236 0.787817 0.896949
O O14 0.199892 0.626122 0.296204
O O15 0.755291 0.129221 0.655337
O O16 0.500000 0.936727 0.750000
O O17 0.295937 0.915785 0.557694
#
# Coordination Sequence:
#
# PCOD8136837 Si02
#       8
#     8   8   8   8   8   8   8   8
#     4  10  21  34  55  83 110 146 189 235 286 342
#     4  10  20  35  54  82 115 143 183 236 289 343
#     4  10  21  41  60  79 113 158 198 230 281 345
#     4   9  20  37  57  83 119 149 183 238 298 351
#     4  11  20  35  61  85 110 151 197 241 285 336
#     4   9  20  38  60  82 109 152 192 231 290 351
#     4  11  23  39  58  82 117 156 192 234 284 339
#     4  10  22  37  56  88 118 151 194 237 285 347
#
# _framework density 20.935638999999998
#
# number of rings (size 3 to 8) (size 9 to 14) (size 15 to 20)
#    0.000    2.000    0.000    3.375    0.000    8.000 
#    0.000    5.000    0.000    0.000    0.000    0.000 
#    0.000    0.000    0.000    0.000    0.000    0.000 
#
# Total GULP energy -396682.973732 kJ/mol
# GULP energy per Si atom -12396.342929 kJ/mol
# Density = 2.088799 g / cm^3
# Si number density = 20.935639 Si / 1000 Ang^3
#
#
#
# Elastic Constant Matrix: (Units=GPa)
#
#
# Indices 1 2 3 4 5 6 
#
# 1 132.4730 22.8035 24.2427 0.0000 -17.6662 0.0000
# 2 22.8035 64.4864 -4.3142 0.0000 -7.1593 0.0000
# 3 24.2427 -4.3142 76.4679 0.0000 -9.4310 0.0000
# 4 0.0000 0.0000 0.0000 24.0623 0.0000 -7.8857
# 5 -17.6662 -7.1593 -9.4310 0.0000 28.2430 0.0000
# 6 0.0000 0.0000 0.0000 -7.8857 0.0000 15.7015
#
#
#
# Elastic Compliance Matrix: (Units=1/GPa)
#
#
# Indices 1 2 3 4 5 6 
#
# 1 0.009059 -0.002920 -0.002534 0.000000 0.004080 0.000000
# 2 -0.002920 0.017055 0.002290 0.000000 0.003262 0.000000
# 3 -0.002534 0.002290 0.014482 0.000000 0.003832 0.000000
# 4 0.000000 0.000000 0.000000 0.049746 0.000000 0.024984
# 5 0.004080 0.003262 0.003832 0.000000 0.040066 0.000000
# 6 0.000000 0.000000 0.000000 0.024984 0.000000 0.076235
#
#
# Mechanical properties :
#
#
# Convention : Reuss Voigt Hill
#
# Bulk Modulus (GPa) = 29.18010 39.87683 34.52847
# Shear Modulus (GPa) = 22.28225 28.98105 25.63165
#
# Velocity S-wave (km/s) = 3.26593 3.72464 3.50281
# Velocity P-wave (km/s) = 5.30943 6.13074 5.73481
#
# Compressibility (1/GPa) = 0.03426993
#
# Stress axis : x y z
#
# Youngs Moduli (GPa) = 110.38597 58.63382 69.04942
#
# Poissons Ratio (x) = 0.17121 0.17494
# Poissons Ratio (y) = 0.32232 -0.15814
# Poissons Ratio (z) = 0.27966 -0.13428
#
# Static dielectric constant tensor:
#      x y z
#    x 3.859990 0.000000 -0.034640 
#    y 0.000000 3.499710 0.000000 
#    z -0.034640 0.000000 4.019010 
# 
# 
# High freq. dielectric constant tensor:
#      x y z
#    x 1.818450 0.000000 -0.000670 
#    y 0.000000 1.780040 0.000000 
#    z -0.000670 0.000000 1.839190 
# 
# From -- ./inp_files/223160.got.cif
#   From: 2010.06.25/outbox.cif.g09.slc.cpg/sg15_112_cif.got.tgz:223160.got - 2010.06.28 07:06:18.
