data_PCOD8136342
_publ_section_title
;
Structure prediction by ZEFSAII (Michael W. Deem and Ramdas Pophale) SiO2 
 PCOD8136342
Probable space group: C 2/C
;
_chemical_formula_sum "Si O2"
_cell_formula_units_Z 52
_cell_length_a 14.879272
_cell_length_b 30.874660
_cell_length_c 8.265115
_cell_angle_alpha 90.000000
_cell_angle_beta 134.572603
_cell_angle_gamma 90.000000
_cell_volume 2704.788655
_symmetry_space_group_name_H-M "C 2/C"
_symmetry_group_IT_number 15
_symmetry_cell_setting 'monoclinic'
loop_
_space_group_symop_operation_xyz
x,y,z
-x,y,1/2-z
-x,-y,-z
x,-y,1/2+z
1/2+x,1/2+y,z
1/2-x,1/2+y,1/2-z
1/2-x,1/2-y,-z
1/2+x,1/2-y,1/2+z
loop_
_atom_site_type_symbol
_atom_site_label
_atom_site_fract_x
_atom_site_fract_y
_atom_site_fract_z
Si Si1 0.500000 0.664942 0.250000
Si Si2 0.141437 0.954906 0.460430
Si Si3 0.811262 0.209308 0.399271
Si Si4 0.790342 0.519907 0.857014
Si Si5 0.375018 0.938957 0.158301
Si Si6 0.182283 0.879046 0.752180
Si Si7 0.590254 0.721703 0.635076
O O1 0.440878 0.632865 0.304703
O O2 0.598483 0.694218 0.478782
O O3 0.219899 0.948924 0.394308
O O4 0.148916 0.910084 0.562897
O O5 0.000000 0.967715 0.250000
O O6 0.188968 0.996827 0.615383
O O7 0.764479 0.165574 0.253121
O O8 0.683025 0.237411 0.226386
O O9 0.850641 0.197661 0.633672
O O10 0.938204 0.230825 0.475372
O O11 0.878784 0.549949 0.854580
O O12 0.868932 0.483362 0.048163
O O13 0.500000 0.915771 0.250000
O O14 0.269423 0.903630 0.989966
#
# Coordination Sequence:
#
# PCOD8136342 Si02
#       7
#     4   8   8   8   8   8   8
#     4  10  22  38  56  88 112 156 182 236 288 350
#     4  10  20  33  56  81 112 149 181 237 279 340
#     4   9  19  39  58  85 109 154 186 237 276 356
#     4   9  20  36  56  79 106 148 199 221 283 340
#     4  10  20  38  55  81 111 151 187 240 275 337
#     4  10  23  34  54  84 117 141 191 227 298 327
#     4   9  19  36  63  79 113 145 201 220 291 336
#
# _framework density 19.225162999999998
#
# number of rings (size 3 to 8) (size 9 to 14) (size 15 to 20)
#    0.000    2.462    0.000    0.923    6.462    2.462 
#    6.923    0.000    6.769    0.000    0.000    0.000 
#    0.000    0.000    0.000    0.000    0.000    0.000 
#
# Total GULP energy -322099.739454 kJ/mol
# GULP energy per Si atom -12388.451517 kJ/mol
# Density = 1.918141 g / cm^3
# Si number density = 19.225163 Si / 1000 Ang^3
#
#
#
# Elastic Constant Matrix: (Units=GPa)
#
#
# Indices 1 2 3 4 5 6 
#
# 1 113.8312 49.5982 38.4518 0.0000 -24.3582 0.0000
# 2 49.5982 83.8648 24.6067 0.0000 -10.0035 0.0000
# 3 38.4518 24.6067 56.9088 0.0000 -5.5501 0.0000
# 4 0.0000 0.0000 0.0000 4.9661 0.0000 -6.5193
# 5 -24.3582 -10.0035 -5.5501 0.0000 28.1757 0.0000
# 6 0.0000 0.0000 0.0000 -6.5193 0.0000 48.0781
#
#
#
# Elastic Compliance Matrix: (Units=1/GPa)
#
#
# Indices 1 2 3 4 5 6 
#
# 1 0.016128 -0.006190 -0.007214 0.000000 0.010324 0.000000
# 2 -0.006190 0.016434 -0.002933 0.000000 -0.000094 0.000000
# 3 -0.007214 -0.002933 0.023455 0.000000 -0.002658 0.000000
# 4 0.000000 0.000000 0.000000 0.244973 0.000000 0.033218
# 5 0.010324 -0.000094 -0.002658 0.000000 0.043860 0.000000
# 6 0.000000 0.000000 0.000000 0.033218 0.000000 0.025304
#
#
# Mechanical properties :
#
#
# Convention : Reuss Voigt Hill
#
# Bulk Modulus (GPa) = 42.83770 53.32425 48.08097
# Shear Modulus (GPa) = 12.17705 25.70719 18.94212
#
# Velocity S-wave (km/s) = 2.51946 3.66069 3.14232
# Velocity P-wave (km/s) = 5.54924 6.75755 6.18298
#
# Compressibility (1/GPa) = 0.02334393
#
# Stress axis : x y z
#
# Youngs Moduli (GPa) = 62.00319 60.84929 42.63467
#
# Poissons Ratio (x) = 0.37667 0.30756
# Poissons Ratio (y) = 0.38381 0.12503
# Poissons Ratio (z) = 0.44729 0.17844
#
# Static dielectric constant tensor:
#      x y z
#    x 4.099040 0.000000 -0.029890 
#    y 0.000000 3.315040 0.000000 
#    z -0.029890 0.000000 3.941930 
# 
# 
# High freq. dielectric constant tensor:
#      x y z
#    x 1.762780 0.000000 -0.013210 
#    y 0.000000 1.724530 0.000000 
#    z -0.013210 0.000000 1.747380 
# 
# From -- ./inp_files/44922.got.cif
#   From: 2010.06.25/outbox.cif.g09.slc.cpg/sg15_23_cif.got.tgz:44922.got - 2010.06.28 07:06:18.
