data_PCOD8136202
_publ_section_title
;
Structure prediction by ZEFSAII (Michael W. Deem and Ramdas Pophale) SiO2 
 PCOD8136202
Probable space group: C 2/C
;
_chemical_formula_sum "Si O2"
_cell_formula_units_Z 64
_cell_length_a 12.644973
_cell_length_b 25.186473
_cell_length_c 11.697564
_cell_angle_alpha 90.000000
_cell_angle_beta 107.134656
_cell_angle_gamma 90.000000
_cell_volume 3560.111856
_symmetry_space_group_name_H-M "C 2/C"
_symmetry_group_IT_number 15
_symmetry_cell_setting 'monoclinic'
loop_
_space_group_symop_operation_xyz
x,y,z
-x,y,1/2-z
-x,-y,-z
x,-y,1/2+z
1/2+x,1/2+y,z
1/2-x,1/2+y,1/2-z
1/2-x,1/2-y,-z
1/2+x,1/2-y,1/2+z
loop_
_atom_site_type_symbol
_atom_site_label
_atom_site_fract_x
_atom_site_fract_y
_atom_site_fract_z
Si Si1 0.021544 0.247650 0.497959
Si Si2 0.904723 0.836371 0.646176
Si Si3 0.391399 0.572963 0.966582
Si Si4 0.914700 0.671300 0.814838
Si Si5 0.419943 0.470879 0.116412
Si Si6 0.747493 0.760478 0.709194
Si Si7 0.610681 0.715877 0.841838
Si Si8 0.286412 0.606824 0.704898
O O1 0.035783 0.215203 0.386322
O O2 0.140133 0.248679 0.597487
O O3 0.979164 0.305327 0.445371
O O4 0.918726 0.219758 0.533477
O O5 0.869725 0.875061 0.534485
O O6 0.799817 0.817256 0.690033
O O7 0.000000 0.865772 0.750000
O O8 0.514534 0.565640 0.954262
O O9 0.307792 0.581187 0.835744
O O10 0.368240 0.522358 0.039303
O O11 0.837598 0.713801 0.722588
O O12 0.841561 0.623128 0.841421
O O13 0.000000 0.647807 0.750000
O O14 0.500000 0.485028 0.250000
O O15 0.312267 0.438354 0.120725
O O16 0.707712 0.756687 0.830241
O O17 0.500000 0.738110 0.750000
O O18 0.635514 0.657028 0.801622
#
# Coordination Sequence:
#
# PCOD8136202 Si02
#       8
#     8   8   8   8   8   8   8   8
#     4  11  20  33  53  70 111 146 180 220 264 305
#     4  12  20  31  46  79 109 140 172 218 259 332
#     4  10  20  32  58  79 107 141 167 220 292 319
#     4  11  21  35  50  82 108 148 191 226 253 322
#     4   9  18  37  55  82 107 130 174 232 276 339
#     4  10  20  33  48  72 110 140 178 223 257 312
#     4   9  18  32  50  75 102 147 178 212 261 321
#     4  10  20  34  55  77 108 136 184 220 270 331
#
# _framework density 17.976963999999999
#
# number of rings (size 3 to 8) (size 9 to 14) (size 15 to 20)
#    0.000    1.750    2.500    4.875    1.750    2.000 
#    2.250    0.000    0.000    0.750    0.000    0.000 
#    0.000    0.000    0.000    0.000    0.000    0.000 
#
# Total GULP energy -396467.465287 kJ/mol
# GULP energy per Si atom -12389.608290 kJ/mol
# Density = 1.793605 g / cm^3
# Si number density = 17.976964 Si / 1000 Ang^3
#
#
#
# Elastic Constant Matrix: (Units=GPa)
#
#
# Indices 1 2 3 4 5 6 
#
# 1 108.6858 42.1259 28.5348 0.0000 -13.9004 0.0000
# 2 42.1259 71.3457 20.2461 0.0000 -9.8832 0.0000
# 3 28.5348 20.2461 47.7510 0.0000 -3.8609 0.0000
# 4 0.0000 0.0000 0.0000 26.7358 0.0000 -9.9628
# 5 -13.9004 -9.8832 -3.8609 0.0000 27.6936 0.0000
# 6 0.0000 0.0000 0.0000 -9.9628 0.0000 30.1171
#
#
#
# Elastic Compliance Matrix: (Units=1/GPa)
#
#
# Indices 1 2 3 4 5 6 
#
# 1 0.013326 -0.005866 -0.005162 0.000000 0.003875 0.000000
# 2 -0.005866 0.019172 -0.004357 0.000000 0.003290 0.000000
# 3 -0.005162 -0.004357 0.025830 0.000000 -0.000545 0.000000
# 4 0.000000 0.000000 0.000000 0.042662 0.000000 0.014113
# 5 0.003875 0.003290 -0.000545 0.000000 0.039153 0.000000
# 6 0.000000 0.000000 0.000000 0.014113 0.000000 0.037872
#
#
# Mechanical properties :
#
#
# Convention : Reuss Voigt Hill
#
# Bulk Modulus (GPa) = 36.28968 45.51069 40.90019
# Shear Modulus (GPa) = 22.93868 26.03435 24.48652
#
# Velocity S-wave (km/s) = 3.57600 3.80966 3.69467
# Velocity P-wave (km/s) = 6.10581 6.68748 6.40325
#
# Compressibility (1/GPa) = 0.02755605
#
# Stress axis : x y z
#
# Youngs Moduli (GPa) = 75.04374 52.15875 38.71422
#
# Poissons Ratio (x) = 0.30598 0.19986
# Poissons Ratio (y) = 0.44022 0.16869
# Poissons Ratio (z) = 0.38741 0.22727
#
# Static dielectric constant tensor:
#      x y z
#    x 3.571120 0.000000 -0.304210 
#    y 0.000000 3.124370 0.000000 
#    z -0.304210 0.000000 3.390070 
# 
# 
# High freq. dielectric constant tensor:
#      x y z
#    x 1.697850 0.000000 -0.020410 
#    y 0.000000 1.658600 0.000000 
#    z -0.020410 0.000000 1.696910 
# 
# From -- ./inp_files/91289.got.cif
#   From: 2010.06.25/outbox.cif.g09.slc.cpg/sg15_46_cif.got.tgz:91289.got - 2010.06.28 07:06:18.
