data_PCOD8136297
_publ_section_title
;
Structure prediction by ZEFSAII (Michael W. Deem and Ramdas Pophale) SiO2 
 PCOD8136297
Probable space group: C 2/C
;
_chemical_formula_sum "Si O2"
_cell_formula_units_Z 52
_cell_length_a 20.321175
_cell_length_b 25.410436
_cell_length_c 8.247856
_cell_angle_alpha 90.000000
_cell_angle_beta 42.582753
_cell_angle_gamma 90.000000
_cell_volume 2881.833517
_symmetry_space_group_name_H-M "C 2/C"
_symmetry_group_IT_number 15
_symmetry_cell_setting 'monoclinic'
loop_
_space_group_symop_operation_xyz
x,y,z
-x,y,1/2-z
-x,-y,-z
x,-y,1/2+z
1/2+x,1/2+y,z
1/2-x,1/2+y,1/2-z
1/2-x,1/2-y,-z
1/2+x,1/2-y,1/2+z
loop_
_atom_site_type_symbol
_atom_site_label
_atom_site_fract_x
_atom_site_fract_y
_atom_site_fract_z
Si Si1 0.000000 0.201653 0.250000
Si Si2 0.173965 0.574735 0.678027
Si Si3 0.107435 0.478730 0.613351
Si Si4 0.702778 0.744806 0.328415
Si Si5 0.605291 0.774077 0.821467
Si Si6 0.691287 0.669603 0.060309
Si Si7 0.521931 0.117570 0.398791
O O1 0.976294 0.237860 0.448416
O O2 0.907680 0.166107 0.366458
O O3 0.173322 0.527037 0.551670
O O4 0.270103 0.610408 0.481565
O O5 0.170890 0.549825 0.861820
O O6 0.078467 0.610151 0.821695
O O7 0.088047 0.435569 0.791708
O O8 0.000000 0.497410 0.750000
O O9 0.617711 0.756098 0.612068
O O10 0.797134 0.727387 0.253789
O O11 0.669280 0.697806 0.271325
O O12 0.725437 0.797715 0.185964
O O13 0.575465 0.834489 0.884946
O O14 0.500000 0.128607 0.250000
#
# Coordination Sequence:
#
# PCOD8136297 Si02
#       7
#     4   8   8   8   8   8   8
#     4  10  24  36  52  78 112 142 188 226 270 322
#     4  10  20  33  53  74 107 142 177 224 271 323
#     4   9  18  34  48  79 109 137 174 222 273 327
#     4   9  20  35  53  75 111 139 190 221 260 332
#     4  10  20  34  51  82 111 148 174 221 266 321
#     4  10  21  37  53  77 104 148 183 229 275 321
#     4   9  18  29  52  78 110 144 170 211 273 329
#
# _framework density 18.044067999999999
#
# number of rings (size 3 to 8) (size 9 to 14) (size 15 to 20)
#    0.000    2.769    0.000    3.692    8.615    2.462 
#    0.000    0.000    0.000    0.923    0.000    0.000 
#    0.000    0.000    0.000    0.000    0.000    0.000 
#
# Total GULP energy -322323.241642 kJ/mol
# GULP energy per Si atom -12397.047755 kJ/mol
# Density = 1.800300 g / cm^3
# Si number density = 18.044068 Si / 1000 Ang^3
#
#
#
# Elastic Constant Matrix: (Units=GPa)
#
#
# Indices 1 2 3 4 5 6 
#
# 1 52.4561 57.1053 26.0848 0.0000 2.1116 0.0000
# 2 57.1053 131.6174 40.7544 0.0000 -11.5112 0.0000
# 3 26.0848 40.7544 81.2741 0.0000 7.1612 0.0000
# 4 0.0000 0.0000 0.0000 20.0615 0.0000 -7.4534
# 5 2.1116 -11.5112 7.1612 0.0000 20.7820 0.0000
# 6 0.0000 0.0000 0.0000 -7.4534 0.0000 36.0126
#
#
#
# Elastic Compliance Matrix: (Units=1/GPa)
#
#
# Indices 1 2 3 4 5 6 
#
# 1 0.040327 -0.017722 -0.002919 0.000000 -0.012908 0.000000
# 2 -0.017722 0.017802 -0.004400 0.000000 0.013177 0.000000
# 3 -0.002919 -0.004400 0.016125 0.000000 -0.007697 0.000000
# 4 0.000000 0.000000 0.000000 0.053999 0.000000 0.011176
# 5 -0.012908 0.013177 -0.007697 0.000000 0.059381 0.000000
# 6 0.000000 0.000000 0.000000 0.011176 0.000000 0.030081
#
#
# Mechanical properties :
#
#
# Convention : Reuss Voigt Hill
#
# Bulk Modulus (GPa) = 41.36894 57.02629 49.19762
# Shear Modulus (GPa) = 18.12546 24.79810 21.46178
#
# Velocity S-wave (km/s) = 3.17284 3.71119 3.45252
# Velocity P-wave (km/s) = 6.03315 7.07364 6.57401
#
# Compressibility (1/GPa) = 0.02417273
#
# Stress axis : x y z
#
# Youngs Moduli (GPa) = 24.79702 56.17433 62.01416
#
# Poissons Ratio (x) = 0.99552 0.18102
# Poissons Ratio (y) = 0.43945 0.27285
# Poissons Ratio (z) = 0.07238 0.24715
#
# Static dielectric constant tensor:
#      x y z
#    x 3.179960 0.000000 0.181820 
#    y 0.000000 3.280890 0.000000 
#    z 0.181820 0.000000 3.339940 
# 
# 
# High freq. dielectric constant tensor:
#      x y z
#    x 1.687020 0.000000 0.018960 
#    y 0.000000 1.687660 0.000000 
#    z 0.018960 0.000000 1.683420 
# 
# From -- ./inp_files/58585.got.cif
#   From: 2010.06.25/outbox.cif.g09.slc.cpg/sg15_30_cif.got.tgz:58585.got - 2010.06.28 07:06:18.
