data_PCOD8136183
_publ_section_title
;
Structure prediction by ZEFSAII (Michael W. Deem and Ramdas Pophale) SiO2 
 PCOD8136183
Probable space group: C 2/C
;
_chemical_formula_sum "Si O2"
_cell_formula_units_Z 44
_cell_length_a 20.202861
_cell_length_b 21.647609
_cell_length_c 5.243859
_cell_angle_alpha 90.000000
_cell_angle_beta 98.573405
_cell_angle_gamma 90.000000
_cell_volume 2267.741538
_symmetry_space_group_name_H-M "C 2/C"
_symmetry_group_IT_number 15
_symmetry_cell_setting 'monoclinic'
loop_
_space_group_symop_operation_xyz
x,y,z
-x,y,1/2-z
-x,-y,-z
x,-y,1/2+z
1/2+x,1/2+y,z
1/2-x,1/2+y,1/2-z
1/2-x,1/2-y,-z
1/2+x,1/2-y,1/2+z
loop_
_atom_site_type_symbol
_atom_site_label
_atom_site_fract_x
_atom_site_fract_y
_atom_site_fract_z
Si Si1 0.071406 0.328726 0.414893
Si Si2 0.000000 0.748182 0.250000
Si Si3 0.422222 0.970260 0.161721
Si Si4 0.078896 0.963664 0.302370
Si Si5 0.381289 0.326082 0.090780
Si Si6 0.825642 0.230702 0.080364
O O1 0.057605 0.297997 0.679544
O O2 0.090856 0.400246 0.429470
O O3 0.132114 0.292148 0.319365
O O4 0.000000 0.316140 0.250000
O O5 0.953705 0.795166 0.056376
O O6 0.500000 0.985270 0.250000
O O7 0.389841 0.987477 0.417815
O O8 0.114109 0.898883 0.371463
O O9 0.000000 0.953539 0.250000
O O10 0.101837 0.008960 0.543824
O O11 0.353623 0.300380 0.341695
O O12 0.330905 0.314711 0.826226
O O13 0.750000 0.250000 0.000000
#
# Coordination Sequence:
#
# PCOD8136183 Si02
#       6
#     8   4   8   8   8   8
#     4  10  20  34  57  81 114 141 187 235 284 345
#     4  10  20  32  54  90 110 148 186 242 288 340
#     4   9  19  30  48  75 107 139 174 222 278 327
#     4  10  20  34  56  89 123 155 194 247 301 349
#     4  11  21  38  60  83 121 153 199 237 298 352
#     4  11  24  39  59  87 118 156 193 244 299 355
#
# _framework density 19.402564000000002
#
# number of rings (size 3 to 8) (size 9 to 14) (size 15 to 20)
#    0.000    1.818    2.727    1.636    6.364    0.000 
#    0.000    0.000    0.000    6.545    0.000    0.000 
#    0.000    0.000    0.000    0.000    0.000    0.000 
#
# Total GULP energy -272538.621616 kJ/mol
# GULP energy per Si atom -12388.119164 kJ/mol
# Density = 1.935840 g / cm^3
# Si number density = 19.402564 Si / 1000 Ang^3
#
#
#
# Elastic Constant Matrix: (Units=GPa)
#
#
# Indices 1 2 3 4 5 6 
#
# 1 59.7667 47.9005 25.2244 0.0000 15.7334 0.0000
# 2 47.9005 149.8286 62.3169 0.0000 8.0456 0.0000
# 3 25.2244 62.3169 139.6631 0.0000 2.4797 0.0000
# 4 0.0000 0.0000 0.0000 27.2515 0.0000 -1.0454
# 5 15.7334 8.0456 2.4797 0.0000 22.5261 0.0000
# 6 0.0000 0.0000 0.0000 -1.0454 0.0000 11.7569
#
#
#
# Elastic Compliance Matrix: (Units=1/GPa)
#
#
# Indices 1 2 3 4 5 6 
#
# 1 0.027537 -0.007334 -0.001409 0.000000 -0.016459 0.000000
# 2 -0.007334 0.010295 -0.003301 0.000000 0.001809 0.000000
# 3 -0.001409 -0.003301 0.008866 0.000000 0.001187 0.000000
# 4 0.000000 0.000000 0.000000 0.036821 0.000000 0.003274
# 5 -0.016459 0.001809 0.001187 0.000000 0.055112 0.000000
# 6 0.000000 0.000000 0.000000 0.003274 0.000000 0.085347
#
#
# Mechanical properties :
#
#
# Convention : Reuss Voigt Hill
#
# Bulk Modulus (GPa) = 44.22726 68.90468 56.56597
# Shear Modulus (GPa) = 19.56167 26.56134 23.06151
#
# Velocity S-wave (km/s) = 3.17866 3.70396 3.45132
# Velocity P-wave (km/s) = 6.02627 7.34048 6.71560
#
# Compressibility (1/GPa) = 0.02261049
#
# Stress axis : x y z
#
# Youngs Moduli (GPa) = 36.31518 97.13686 112.78569
#
# Poissons Ratio (x) = 0.71238 0.15890
# Poissons Ratio (y) = 0.26633 0.37231
# Poissons Ratio (z) = 0.05116 0.32065
#
# Static dielectric constant tensor:
#      x y z
#    x 3.234710 0.000000 0.000420 
#    y 0.000000 3.534540 0.000000 
#    z 0.000420 0.000000 3.517050 
# 
# 
# High freq. dielectric constant tensor:
#      x y z
#    x 1.704720 0.000000 -0.001900 
#    y 0.000000 1.764920 0.000000 
#    z -0.001900 0.000000 1.765620 
# 
# From -- ./inp_files/10328.got.cif
#   From: 2010.06.25/outbox.cif.g09.slc.cpg/sg15_6_cif.got.tgz:10328.got - 2010.06.28 07:06:18.
