data_PCOD8136235
_publ_section_title
;
Structure prediction by ZEFSAII (Michael W. Deem and Ramdas Pophale) SiO2 
 PCOD8136235
Probable space group: C 2/C
;
_chemical_formula_sum "Si O2"
_cell_formula_units_Z 48
_cell_length_a 15.542816
_cell_length_b 8.761367
_cell_length_c 18.676464
_cell_angle_alpha 90.000000
_cell_angle_beta 109.757803
_cell_angle_gamma 90.000000
_cell_volume 2393.568411
_symmetry_space_group_name_H-M "C 2/C"
_symmetry_group_IT_number 15
_symmetry_cell_setting 'monoclinic'
loop_
_space_group_symop_operation_xyz
x,y,z
-x,y,1/2-z
-x,-y,-z
x,-y,1/2+z
1/2+x,1/2+y,z
1/2-x,1/2+y,1/2-z
1/2-x,1/2-y,-z
1/2+x,1/2-y,1/2+z
loop_
_atom_site_type_symbol
_atom_site_label
_atom_site_fract_x
_atom_site_fract_y
_atom_site_fract_z
Si Si1 0.924163 0.742305 0.943704
Si Si2 0.064005 0.518288 0.669775
Si Si3 0.532249 0.296579 0.110956
Si Si4 0.182109 0.973500 0.064109
Si Si5 0.375519 0.136191 0.667964
Si Si6 0.075152 0.080371 0.396930
O O1 0.901082 0.583602 0.897098
O O2 0.996392 0.830295 0.915522
O O3 0.833090 0.846246 0.924718
O O4 0.967648 0.713961 0.033845
O O5 0.125948 0.597271 0.748306
O O6 0.073922 0.334654 0.673715
O O7 0.957761 0.550212 0.652501
O O8 0.616952 0.378011 0.097552
O O9 0.469747 0.417449 0.138292
O O10 0.285450 0.925930 0.105296
O O11 0.159563 0.942831 0.974692
O O12 0.388641 0.320029 0.660477
#
# Coordination Sequence:
#
# PCOD8136235 Si02
#       6
#     8   8   8   8   8   8
#     4   8  16  32  53  73  97 131 169 209 253 299
#     4  10  20  33  47  71 107 138 160 202 265 312
#     4   9  17  33  55  74  93 129 178 214 244 298
#     4   9  17  32  55  76  94 127 177 216 241 297
#     4  10  20  33  48  72 107 137 161 203 259 310
#     4   8  16  33  54  73  96 132 172 208 253 303
#
# _framework density 20.053740000000001
#
# number of rings (size 3 to 8) (size 9 to 14) (size 15 to 20)
#    0.000    3.000    0.000    3.000    0.000    1.333 
#    0.000   15.000    0.000    0.000    0.000    0.000 
#    0.000    0.000    0.000    0.000    0.000    0.000 
#
# Total GULP energy -297427.817748 kJ/mol
# GULP energy per Si atom -12392.825740 kJ/mol
# Density = 2.000810 g / cm^3
# Si number density = 20.053740 Si / 1000 Ang^3
#
#
#
# Elastic Constant Matrix: (Units=GPa)
#
#
# Indices 1 2 3 4 5 6 
#
# 1 31.0029 16.7516 14.5828 0.0000 13.4045 0.0000
# 2 16.7516 120.1895 48.3225 0.0000 1.8519 0.0000
# 3 14.5828 48.3225 70.2968 0.0000 4.3886 0.0000
# 4 0.0000 0.0000 0.0000 24.4456 0.0000 -6.8310
# 5 13.4045 1.8519 4.3886 0.0000 24.3966 0.0000
# 6 0.0000 0.0000 0.0000 -6.8310 0.0000 21.8068
#
#
#
# Elastic Compliance Matrix: (Units=1/GPa)
#
#
# Indices 1 2 3 4 5 6 
#
# 1 0.047874 -0.004038 -0.005595 0.000000 -0.024991 0.000000
# 2 -0.004038 0.011846 -0.007472 0.000000 0.002663 0.000000
# 3 -0.005595 -0.007472 0.020525 0.000000 -0.000051 0.000000
# 4 0.000000 0.000000 0.000000 0.044831 0.000000 0.014043
# 5 -0.024991 0.002663 -0.000051 0.000000 0.054527 0.000000
# 6 0.000000 0.000000 0.000000 0.014043 0.000000 0.050256
#
#
# Mechanical properties :
#
#
# Convention : Reuss Voigt Hill
#
# Bulk Modulus (GPa) = 21.72241 42.31143 32.01692
# Shear Modulus (GPa) = 17.89455 23.58530 20.73992
#
# Velocity S-wave (km/s) = 2.99043 3.43316 3.21941
# Velocity P-wave (km/s) = 4.77275 6.07127 5.46074
#
# Compressibility (1/GPa) = 0.04603541
#
# Stress axis : x y z
#
# Youngs Moduli (GPa) = 20.88825 84.41742 48.72030
#
# Poissons Ratio (x) = 0.34086 0.27261
# Poissons Ratio (y) = 0.08434 0.36402
# Poissons Ratio (z) = 0.11688 0.63073
#
# Static dielectric constant tensor:
#      x y z
#    x 3.350900 0.000000 -0.063490 
#    y 0.000000 4.011450 0.000000 
#    z -0.063490 0.000000 3.638500 
# 
# 
# High freq. dielectric constant tensor:
#      x y z
#    x 1.749660 0.000000 0.006150 
#    y 0.000000 1.786860 0.000000 
#    z 0.006150 0.000000 1.766220 
# 
# From -- ./inp_files/242565.got.cif
#   From: 2010.06.25/outbox.cif.g09.slc.cpg/sg15_122_cif.got.tgz:242565.got - 2010.06.28 07:06:18.
