data_PCOD8136087
_publ_section_title
;
Structure prediction by ZEFSAII (Michael W. Deem and Ramdas Pophale) SiO2 
 PCOD8136087
Probable space group: C 2/C
;
_chemical_formula_sum "Si O2"
_cell_formula_units_Z 44
_cell_length_a 14.931579
_cell_length_b 34.132220
_cell_length_c 5.203678
_cell_angle_alpha 90.000000
_cell_angle_beta 112.443779
_cell_angle_gamma 90.000000
_cell_volume 2451.163634
_symmetry_space_group_name_H-M "C 2/C"
_symmetry_group_IT_number 15
_symmetry_cell_setting 'monoclinic'
loop_
_space_group_symop_operation_xyz
x,y,z
-x,y,1/2-z
-x,-y,-z
x,-y,1/2+z
1/2+x,1/2+y,z
1/2-x,1/2+y,1/2-z
1/2-x,1/2-y,-z
1/2+x,1/2-y,1/2+z
loop_
_atom_site_type_symbol
_atom_site_label
_atom_site_fract_x
_atom_site_fract_y
_atom_site_fract_z
Si Si1 0.135800 0.209912 0.041711
Si Si2 0.000000 0.851596 0.250000
Si Si3 0.891806 0.890771 0.521883
Si Si4 0.440284 0.204849 0.947246
Si Si5 0.732717 0.318300 0.121202
Si Si6 0.115146 0.978504 0.888756
O O1 0.091622 0.252825 0.985739
O O2 0.215374 0.209598 0.355459
O O3 0.050886 0.177989 0.011539
O O4 0.180356 0.200138 0.811673
O O5 0.913474 0.880527 0.247787
O O6 0.808857 0.860547 0.515745
O O7 0.850964 0.934003 0.528037
O O8 0.000000 0.883938 0.750000
O O9 0.500000 0.207684 0.750000
O O10 0.346810 0.177603 0.796074
O O11 0.500000 0.185688 0.250000
O O12 0.000000 0.980450 0.750000
O O13 0.156833 0.994913 0.666350
#
# Coordination Sequence:
#
# PCOD8136087 Si02
#       6
#     8   4   8   8   8   8
#     4  11  21  36  53  74 103 134 177 223 258 307
#     4  10  20  30  50  72 104 138 178 198 262 284
#     4  10  20  32  52  73 107 135 169 211 252 300
#     4  12  24  38  56  73 104 138 178 226 272 303
#     4  11  23  37  54  80 100 136 181 218 261 315
#     4   9  19  30  46  70 101 136 166 192 242 307
#
# _framework density 17.950659000000002
#
# number of rings (size 3 to 8) (size 9 to 14) (size 15 to 20)
#    0.000    1.455    2.727    3.273    8.909    0.000 
#    0.000    0.000    0.000    0.000    0.000    0.000 
#    0.000    4.364    0.000    0.000    0.000    0.000 
#
# Total GULP energy -272575.642547 kJ/mol
# GULP energy per Si atom -12389.801934 kJ/mol
# Density = 1.790980 g / cm^3
# Si number density = 17.950659 Si / 1000 Ang^3
#
#
#
# Elastic Constant Matrix: (Units=GPa)
#
#
# Indices 1 2 3 4 5 6 
#
# 1 61.9311 34.6588 33.2226 0.0000 5.7817 0.0000
# 2 34.6588 100.0148 37.5729 0.0000 6.5500 0.0000
# 3 33.2226 37.5729 117.2052 0.0000 2.9123 0.0000
# 4 0.0000 0.0000 0.0000 23.2084 0.0000 1.5085
# 5 5.7817 6.5500 2.9123 0.0000 32.7313 0.0000
# 6 0.0000 0.0000 0.0000 1.5085 0.0000 6.0575
#
#
#
# Elastic Compliance Matrix: (Units=1/GPa)
#
#
# Indices 1 2 3 4 5 6 
#
# 1 0.021930 -0.005837 -0.004287 0.000000 -0.002324 0.000000
# 2 -0.005837 0.013047 -0.002494 0.000000 -0.001358 0.000000
# 3 -0.004287 -0.002494 0.010539 0.000000 0.000319 0.000000
# 4 0.000000 0.000000 0.000000 0.043797 0.000000 -0.010907
# 5 -0.002324 -0.001358 0.000319 0.000000 0.031206 0.000000
# 6 0.000000 0.000000 0.000000 -0.010907 0.000000 0.167802
#
#
# Mechanical properties :
#
#
# Convention : Reuss Voigt Hill
#
# Bulk Modulus (GPa) = 49.31100 54.45107 51.88103
# Shear Modulus (GPa) = 15.60950 23.97921 19.79436
#
# Velocity S-wave (km/s) = 2.95206 3.65888 3.32431
# Velocity P-wave (km/s) = 6.25695 6.94618 6.61056
#
# Compressibility (1/GPa) = 0.02027945
#
# Stress axis : x y z
#
# Youngs Moduli (GPa) = 45.59878 76.64487 94.88515
#
# Poissons Ratio (x) = 0.44736 0.40681
# Poissons Ratio (y) = 0.26615 0.23668
# Poissons Ratio (z) = 0.19550 0.19118
#
# Static dielectric constant tensor:
#      x y z
#    x 3.215060 0.000000 -0.103970 
#    y 0.000000 3.229330 0.000000 
#    z -0.103970 0.000000 3.667650 
# 
# 
# High freq. dielectric constant tensor:
#      x y z
#    x 1.656420 0.000000 -0.021510 
#    y 0.000000 1.673380 0.000000 
#    z -0.021510 0.000000 1.710300 
# 
# From -- ./inp_files/8887.got.cif
#   From: 2010.06.25/outbox.cif.g09.slc.cpg/sg15_5_cif.got.tgz:8887.got - 2010.06.28 07:06:18.
