data_PCOD8136948
_publ_section_title
;
Structure prediction by ZEFSAII (Michael W. Deem and Ramdas Pophale) SiO2 
 PCOD8136948
Probable space group: C 2/C
;
_chemical_formula_sum "Si O2"
_cell_formula_units_Z 64
_cell_length_a 25.695875
_cell_length_b 13.514561
_cell_length_c 13.680282
_cell_angle_alpha 90.000000
_cell_angle_beta 141.753225
_cell_angle_gamma 90.000000
_cell_volume 2940.938569
_symmetry_space_group_name_H-M "C 2/C"
_symmetry_group_IT_number 15
_symmetry_cell_setting 'monoclinic'
loop_
_space_group_symop_operation_xyz
x,y,z
-x,y,1/2-z
-x,-y,-z
x,-y,1/2+z
1/2+x,1/2+y,z
1/2-x,1/2+y,1/2-z
1/2-x,1/2-y,-z
1/2+x,1/2-y,1/2+z
loop_
_atom_site_type_symbol
_atom_site_label
_atom_site_fract_x
_atom_site_fract_y
_atom_site_fract_z
Si Si1 0.108678 0.458016 0.002931
Si Si2 0.842677 0.243475 0.733869
Si Si3 0.602865 0.750362 0.193165
Si Si4 0.268747 0.082700 0.640560
Si Si5 0.987710 0.266754 0.621887
Si Si6 0.411009 0.355994 0.640858
Si Si7 0.776850 0.409426 0.503838
Si Si8 0.435910 0.178727 0.543511
O O1 0.178010 0.462404 0.191528
O O2 0.145552 0.417541 0.955697
O O3 0.072539 0.566481 0.934665
O O4 0.030718 0.385099 0.910884
O O5 0.786744 0.327053 0.601258
O O6 0.801546 0.133427 0.674695
O O7 0.857334 0.281702 0.864761
O O8 0.928411 0.232624 0.803982
O O9 0.688471 0.813839 0.328526
O O10 0.608228 0.653735 0.270890
O O11 0.588049 0.718839 0.056530
O O12 0.521432 0.813847 0.106776
O O13 0.171171 0.096337 0.530561
O O14 0.264040 0.013443 0.538119
O O15 0.000000 0.226726 0.750000
O O16 0.500000 0.415003 0.750000
O O17 0.429298 0.244443 0.630873
#
# Coordination Sequence:
#
# PCOD8136948 Si02
#       8
#     8   8   8   8   8   8   8   8
#     4  11  22  34  61  94 115 150 196 250 306 356
#     4  10  21  38  56  80 120 158 187 238 296 355
#     4   9  21  34  59  90 117 156 191 247 308 351
#     4  11  22  38  59  88 122 152 201 246 291 357
#     4  10  20  35  57  85 119 154 191 244 295 361
#     4  10  21  40  61  84 118 162 199 243 291 354
#     4  11  22  37  57  83 118 157 197 239 294 342
#     4  10  20  37  61  88 121 150 196 243 312 353
#
# _framework density 21.761761
#
# number of rings (size 3 to 8) (size 9 to 14) (size 15 to 20)
#    0.000    1.750    2.500    1.875    1.750    3.000 
#    0.000    1.875    0.000   12.000    0.000    0.000 
#    0.000    0.000    0.000    0.000    0.000    0.000 
#
# Total GULP energy -396432.468965 kJ/mol
# GULP energy per Si atom -12388.514655 kJ/mol
# Density = 2.171223 g / cm^3
# Si number density = 21.761761 Si / 1000 Ang^3
#
#
#
# Elastic Constant Matrix: (Units=GPa)
#
#
# Indices 1 2 3 4 5 6 
#
# 1 53.8640 7.2458 23.3885 0.0000 -3.7212 0.0000
# 2 7.2458 18.5593 12.1406 0.0000 -0.9450 0.0000
# 3 23.3885 12.1406 97.2119 0.0000 -0.9734 0.0000
# 4 0.0000 0.0000 0.0000 28.8918 0.0000 1.1700
# 5 -3.7212 -0.9450 -0.9734 0.0000 49.6766 0.0000
# 6 0.0000 0.0000 0.0000 1.1700 0.0000 18.4645
#
#
#
# Elastic Compliance Matrix: (Units=1/GPa)
#
#
# Indices 1 2 3 4 5 6 
#
# 1 0.021312 -0.005340 -0.004446 0.000000 0.001408 0.000000
# 2 -0.005340 0.060060 -0.006210 0.000000 0.000621 0.000000
# 3 -0.004446 -0.006210 0.012130 0.000000 -0.000214 0.000000
# 4 0.000000 0.000000 0.000000 0.034701 0.000000 -0.002199
# 5 0.001408 0.000621 -0.000214 0.000000 0.020243 0.000000
# 6 0.000000 0.000000 0.000000 -0.002199 0.000000 0.054297
#
#
# Mechanical properties :
#
#
# Convention : Reuss Voigt Hill
#
# Bulk Modulus (GPa) = 16.25775 28.35389 22.30582
# Shear Modulus (GPa) = 19.58950 27.86393 23.72671
#
# Velocity S-wave (km/s) = 3.00355 3.58216 3.30554
# Velocity P-wave (km/s) = 4.41763 5.49242 4.98408
#
# Compressibility (1/GPa) = 0.06150912
#
# Stress axis : x y z
#
# Youngs Moduli (GPa) = 46.92288 16.64999 82.44042
#
# Poissons Ratio (x) = 0.08891 0.36656
# Poissons Ratio (y) = 0.25057 0.51194
# Poissons Ratio (z) = 0.20864 0.10339
#
# Static dielectric constant tensor:
#      x y z
#    x 3.938870 0.000000 -0.229570 
#    y 0.000000 3.477920 0.000000 
#    z -0.229570 0.000000 4.659940 
# 
# 
# High freq. dielectric constant tensor:
#      x y z
#    x 1.850700 0.000000 -0.009540 
#    y 0.000000 1.806120 0.000000 
#    z -0.009540 0.000000 1.883500 
# 
# From -- ./inp_files/177851.got.cif
#   From: 2010.06.25/outbox.cif.g09.slc.cpg/sg15_89_cif.got.tgz:177851.got - 2010.06.28 07:06:18.
