data_PCOD8136178
_publ_section_title
;
Structure prediction by ZEFSAII (Michael W. Deem and Ramdas Pophale) SiO2 
 PCOD8136178
Probable space group: C 2/C
;
_chemical_formula_sum "Si O2"
_cell_formula_units_Z 64
_cell_length_a 29.516745
_cell_length_b 13.712414
_cell_length_c 9.586856
_cell_angle_alpha 90.000000
_cell_angle_beta 115.803909
_cell_angle_gamma 90.000000
_cell_volume 3493.337650
_symmetry_space_group_name_H-M "C 2/C"
_symmetry_group_IT_number 15
_symmetry_cell_setting 'monoclinic'
loop_
_space_group_symop_operation_xyz
x,y,z
-x,y,1/2-z
-x,-y,-z
x,-y,1/2+z
1/2+x,1/2+y,z
1/2-x,1/2+y,1/2-z
1/2-x,1/2-y,-z
1/2+x,1/2-y,1/2+z
loop_
_atom_site_type_symbol
_atom_site_label
_atom_site_fract_x
_atom_site_fract_y
_atom_site_fract_z
Si Si1 0.534265 0.399353 0.176329
Si Si2 0.218493 0.442477 0.635809
Si Si3 0.671328 0.562791 0.126257
Si Si4 0.465040 0.379841 0.820197
Si Si5 0.697628 0.898940 0.303138
Si Si6 0.360250 0.719043 0.212467
Si Si7 0.203781 0.216995 0.643040
Si Si8 0.357417 0.397176 0.224667
O O1 0.500000 0.350709 0.250000
O O2 0.550893 0.509901 0.242848
O O3 0.588014 0.345814 0.226043
O O4 0.499514 0.390348 0.998807
O O5 0.272918 0.475320 0.765771
O O6 0.215252 0.456187 0.465737
O O7 0.182570 0.521018 0.666099
O O8 0.205636 0.332914 0.661826
O O9 0.662913 0.668264 0.181795
O O10 0.634151 0.486984 0.155330
O O11 0.663984 0.564518 0.950900
O O12 0.500000 0.331292 0.750000
O O13 0.418690 0.306955 0.778879
O O14 0.648135 0.834613 0.273530
O O15 0.740802 0.824152 0.310576
O O16 0.331526 0.684708 0.033670
O O17 0.181014 0.179414 0.758360
#
# Coordination Sequence:
#
# PCOD8136178 Si02
#       8
#     8   8   8   8   8   8   8   8
#     4  10  21  34  48  78 109 140 179 224 271 321
#     4  11  22  38  53  81 117 147 190 229 265 324
#     4  12  21  33  53  80 114 150 189 219 272 326
#     4  10  20  32  54  76 105 141 179 224 268 328
#     4  11  22  37  57  80 111 150 184 229 274 321
#     4  11  20  38  57  78 109 150 186 222 275 330
#     4  11  22  37  55  82 110 148 189 227 268 330
#     4  12  24  32  54  80 110 154 182 226 274 328
#
# _framework density 18.320588999999998
#
# number of rings (size 3 to 8) (size 9 to 14) (size 15 to 20)
#    0.000    1.000    5.000    3.750    3.500    1.500 
#    0.000    0.000    0.000    0.000    0.000    8.750 
#    0.000    0.000    0.000    0.375    0.000    0.000 
#
# Total GULP energy -396731.559705 kJ/mol
# GULP energy per Si atom -12397.861241 kJ/mol
# Density = 1.827889 g / cm^3
# Si number density = 18.320589 Si / 1000 Ang^3
#
#
#
# Elastic Constant Matrix: (Units=GPa)
#
#
# Indices 1 2 3 4 5 6 
#
# 1 107.1928 32.7120 41.1446 0.0000 -8.8901 0.0000
# 2 32.7120 76.5928 31.2236 0.0000 -8.8311 0.0000
# 3 41.1446 31.2236 75.7032 0.0000 -20.9432 0.0000
# 4 0.0000 0.0000 0.0000 23.8084 0.0000 -3.6066
# 5 -8.8901 -8.8311 -20.9432 0.0000 34.9736 0.0000
# 6 0.0000 0.0000 0.0000 -3.6066 0.0000 24.2625
#
#
#
# Elastic Compliance Matrix: (Units=1/GPa)
#
#
# Indices 1 2 3 4 5 6 
#
# 1 0.012388 -0.003064 -0.005768 0.000000 -0.001078 0.000000
# 2 -0.003064 0.016453 -0.005018 0.000000 0.000371 0.000000
# 3 -0.005768 -0.005018 0.021164 0.000000 0.009940 0.000000
# 4 0.000000 0.000000 0.000000 0.042970 0.000000 0.006387
# 5 -0.001078 0.000371 0.009940 0.000000 0.034365 0.000000
# 6 0.000000 0.000000 0.000000 0.006387 0.000000 0.042165
#
#
# Mechanical properties :
#
#
# Convention : Reuss Voigt Hill
#
# Bulk Modulus (GPa) = 44.83189 52.18326 48.50757
# Shear Modulus (GPa) = 24.43309 26.90281 25.66795
#
# Velocity S-wave (km/s) = 3.65587 3.83619 3.74711
# Velocity P-wave (km/s) = 6.50726 6.94025 6.72724
#
# Compressibility (1/GPa) = 0.02230555
#
# Stress axis : x y z
#
# Youngs Moduli (GPa) = 80.72025 60.77871 47.25021
#
# Poissons Ratio (x) = 0.18623 0.27252
# Poissons Ratio (y) = 0.24733 0.23711
# Poissons Ratio (z) = 0.46557 0.30500
#
# Static dielectric constant tensor:
#      x y z
#    x 3.490660 0.000000 -0.209570 
#    y 0.000000 3.161480 0.000000 
#    z -0.209570 0.000000 3.391520 
# 
# 
# High freq. dielectric constant tensor:
#      x y z
#    x 1.708630 0.000000 -0.019550 
#    y 0.000000 1.674240 0.000000 
#    z -0.019550 0.000000 1.715700 
# 
# From -- ./inp_files/66264.got.cif
#   From: 2010.06.25/outbox.cif.g09.slc.cpg/sg15_34_cif.got.tgz:66264.got - 2010.06.28 07:06:18.
