data_PCOD8136491
_publ_section_title
;
Structure prediction by ZEFSAII (Michael W. Deem and Ramdas Pophale) SiO2 
 PCOD8136491
Probable space group: C 2/C
;
_chemical_formula_sum "Si O2"
_cell_formula_units_Z 60
_cell_length_a 14.417055
_cell_length_b 23.822016
_cell_length_c 8.738966
_cell_angle_alpha 90.000000
_cell_angle_beta 102.830231
_cell_angle_gamma 90.000000
_cell_volume 2926.402977
_symmetry_space_group_name_H-M "C 2/C"
_symmetry_group_IT_number 15
_symmetry_cell_setting 'monoclinic'
loop_
_space_group_symop_operation_xyz
x,y,z
-x,y,1/2-z
-x,-y,-z
x,-y,1/2+z
1/2+x,1/2+y,z
1/2-x,1/2+y,1/2-z
1/2-x,1/2-y,-z
1/2+x,1/2-y,1/2+z
loop_
_atom_site_type_symbol
_atom_site_label
_atom_site_fract_x
_atom_site_fract_y
_atom_site_fract_z
Si Si1 0.809521 0.050118 0.233606
Si Si2 0.911028 0.684125 0.329558
Si Si3 0.897042 0.438709 0.947238
Si Si4 0.697926 0.676483 0.201096
Si Si5 0.912526 0.972488 0.050070
Si Si6 0.576683 0.725518 0.401012
Si Si7 0.538010 0.344385 0.424087
Si Si8 0.500000 0.016585 0.750000
O O1 0.709427 0.040586 0.118046
O O2 0.832407 0.115978 0.242366
O O3 0.816262 0.029920 0.412218
O O4 0.889949 0.011996 0.184407
O O5 0.921355 0.624115 0.410583
O O6 0.809593 0.684436 0.201565
O O7 0.907243 0.728535 0.463734
O O8 0.000000 0.695822 0.250000
O O9 0.959136 0.478374 0.866198
O O10 0.921369 0.444838 0.136505
O O11 0.672008 0.716570 0.335370
O O12 0.635841 0.685807 0.022275
O O13 0.943430 0.909477 0.105467
O O14 0.000000 0.000000 0.000000
O O15 0.500000 0.747033 0.250000
O O16 0.540841 0.668124 0.473036
O O17 0.500000 0.317041 0.250000
#
# Coordination Sequence:
#
# PCOD8136491 Si02
#       8
#     8   8   8   8   8   8   8   4
#     4  10  20  34  54  84 117 151 193 233 284 348
#     4  11  22  40  62  88 119 156 201 247 295 351
#     4  10  21  37  60  84 117 152 194 237 290 340
#     4   9  21  39  60  85 118 159 196 245 299 354
#     4  11  20  32  54  83 119 154 190 235 290 350
#     4  10  21  39  62  85 117 155 198 248 301 355
#     4  10  20  37  58  87 120 155 197 243 300 352
#     4  10  20  38  58  82 114 150 188 236 290 334
#
# _framework density 20.502986
#
# number of rings (size 3 to 8) (size 9 to 14) (size 15 to 20)
#    0.000    1.867    0.667    3.600    0.933    2.133 
#    0.000    7.333    0.000    0.000    0.000    0.000 
#    0.000    0.000    0.000    0.000    0.000    0.000 
#
# Total GULP energy -371655.840326 kJ/mol
# GULP energy per Si atom -12388.528011 kJ/mol
# Density = 2.045632 g / cm^3
# Si number density = 20.502986 Si / 1000 Ang^3
#
#
#
# Elastic Constant Matrix: (Units=GPa)
#
#
# Indices 1 2 3 4 5 6 
#
# 1 109.2725 39.5596 51.9733 0.0000 7.8836 0.0000
# 2 39.5596 100.6512 11.2535 0.0000 -2.3372 0.0000
# 3 51.9733 11.2535 180.9373 0.0000 31.5676 0.0000
# 4 0.0000 0.0000 0.0000 26.6920 0.0000 -5.0859
# 5 7.8836 -2.3372 31.5676 0.0000 35.6777 0.0000
# 6 0.0000 0.0000 0.0000 -5.0859 0.0000 20.6620
#
#
#
# Elastic Compliance Matrix: (Units=1/GPa)
#
#
# Indices 1 2 3 4 5 6 
#
# 1 0.012325 -0.004486 -0.003234 0.000000 -0.000156 0.000000
# 2 -0.004486 0.011700 0.000301 0.000000 0.001492 0.000000
# 3 -0.003234 0.000301 0.007461 0.000000 -0.005867 0.000000
# 4 0.000000 0.000000 0.000000 0.039308 0.000000 0.009676
# 5 -0.000156 0.001492 -0.005867 0.000000 0.033352 0.000000
# 6 0.000000 0.000000 0.000000 0.009676 0.000000 0.050780
#
#
# Mechanical properties :
#
#
# Convention : Reuss Voigt Hill
#
# Bulk Modulus (GPa) = 60.07427 66.27043 63.17235
# Shear Modulus (GPa) = 28.52050 35.81132 32.16591
#
# Velocity S-wave (km/s) = 3.73371 4.18382 3.96516
# Velocity P-wave (km/s) = 6.92469 7.46536 7.20010
#
# Compressibility (1/GPa) = 0.01664606
#
# Stress axis : x y z
#
# Youngs Moduli (GPa) = 81.13556 85.47328 134.03722
#
# Poissons Ratio (x) = 0.38345 0.43349
# Poissons Ratio (y) = 0.36399 -0.04031
# Poissons Ratio (z) = 0.26240 -0.02571
#
# Static dielectric constant tensor:
#      x y z
#    x 3.642830 0.000000 0.324710 
#    y 0.000000 3.437550 0.000000 
#    z 0.324710 0.000000 4.443020 
# 
# 
# High freq. dielectric constant tensor:
#      x y z
#    x 1.793040 0.000000 0.018330 
#    y 0.000000 1.796230 0.000000 
#    z 0.018330 0.000000 1.815180 
# 
# From -- ./inp_files/42248.got.cif
#   From: 2010.06.25/outbox.cif.g09.slc.cpg/sg15_22_cif.got.tgz:42248.got - 2010.06.28 07:06:18.
