data_PCOD8136222
_publ_section_title
;
Structure prediction by ZEFSAII (Michael W. Deem and Ramdas Pophale) SiO2 
 PCOD8136222
Probable space group: C 2/C
;
_chemical_formula_sum "Si O2"
_cell_formula_units_Z 52
_cell_length_a 13.160543
_cell_length_b 21.696222
_cell_length_c 11.838034
_cell_angle_alpha 90.000000
_cell_angle_beta 46.848791
_cell_angle_gamma 90.000000
_cell_volume 2466.001533
_symmetry_space_group_name_H-M "C 2/C"
_symmetry_group_IT_number 15
_symmetry_cell_setting 'monoclinic'
loop_
_space_group_symop_operation_xyz
x,y,z
-x,y,1/2-z
-x,-y,-z
x,-y,1/2+z
1/2+x,1/2+y,z
1/2-x,1/2+y,1/2-z
1/2-x,1/2-y,-z
1/2+x,1/2-y,1/2+z
loop_
_atom_site_type_symbol
_atom_site_label
_atom_site_fract_x
_atom_site_fract_y
_atom_site_fract_z
Si Si1 0.257806 0.070447 0.464192
Si Si2 0.567587 0.435281 0.819207
Si Si3 0.699018 0.461365 0.359777
Si Si4 0.397205 0.118935 0.574079
Si Si5 0.777118 0.770350 0.349880
Si Si6 0.194366 0.643721 0.289646
Si Si7 0.500000 0.359925 0.250000
O O1 0.356315 0.077217 0.497102
O O2 0.326738 0.108873 0.311803
O O3 0.101984 0.096637 0.600861
O O4 0.246425 0.999438 0.434692
O O5 0.500000 0.446198 0.750000
O O6 0.664174 0.493853 0.780013
O O7 0.665708 0.374964 0.749237
O O8 0.443384 0.425141 0.003711
O O9 0.821418 0.413248 0.237930
O O10 0.353777 0.189795 0.590784
O O11 0.562852 0.123197 0.466426
O O12 0.750000 0.750000 0.500000
O O13 0.799918 0.715765 0.244022
O O14 0.910571 0.815271 0.237214
#
# Coordination Sequence:
#
# PCOD8136222 Si02
#       7
#     8   8   8   8   8   8   4
#     4  10  22  35  60  90 130 158 208 248 318 371
#     4  10  23  41  63  86 125 166 220 261 303 370
#     4  10  23  39  64  92 119 169 216 258 309 374
#     4  11  23  38  63  96 134 161 200 262 321 375
#     4  11  21  35  62  93 133 161 200 253 323 380
#     4  11  23  39  60  95 127 168 203 254 319 374
#     4  10  20  32  60  94 124 160 194 256 304 376
#
# _framework density 21.086766000000001
#
# number of rings (size 3 to 8) (size 9 to 14) (size 15 to 20)
#    0.000    1.538    3.077    2.308   14.000    2.462 
#    0.000    5.385    0.000    3.692    0.000    0.000 
#    0.000    0.000    0.000    0.000    0.000    0.000 
#
# Total GULP energy -322337.085440 kJ/mol
# GULP energy per Si atom -12397.580209 kJ/mol
# Density = 2.103877 g / cm^3
# Si number density = 21.086766 Si / 1000 Ang^3
#
#
#
# Elastic Constant Matrix: (Units=GPa)
#
#
# Indices 1 2 3 4 5 6 
#
# 1 75.8603 35.5463 30.7021 0.0000 -8.0410 0.0000
# 2 35.5463 115.0799 65.6449 0.0000 -14.6827 0.0000
# 3 30.7021 65.6449 114.4353 0.0000 -28.4374 0.0000
# 4 0.0000 0.0000 0.0000 32.2948 0.0000 3.0757
# 5 -8.0410 -14.6827 -28.4374 0.0000 26.9857 0.0000
# 6 0.0000 0.0000 0.0000 3.0757 0.0000 26.5983
#
#
#
# Elastic Compliance Matrix: (Units=1/GPa)
#
#
# Indices 1 2 3 4 5 6 
#
# 1 0.015764 -0.003665 -0.001972 0.000000 0.000626 0.000000
# 2 -0.003665 0.013790 -0.007227 0.000000 -0.001204 0.000000
# 3 -0.001972 -0.007227 0.016650 0.000000 0.013026 0.000000
# 4 0.000000 0.000000 0.000000 0.031310 0.000000 -0.003620
# 5 0.000626 -0.001204 0.013026 0.000000 0.050315 0.000000
# 6 0.000000 0.000000 0.000000 -0.003620 0.000000 0.038015
#
#
# Mechanical properties :
#
#
# Convention : Reuss Voigt Hill
#
# Bulk Modulus (GPa) = 48.83286 63.24024 56.03655
# Shear Modulus (GPa) = 25.20217 28.74123 26.97170
#
# Velocity S-wave (km/s) = 3.46087 3.69589 3.58031
# Velocity P-wave (km/s) = 6.25927 6.94754 6.61237
#
# Compressibility (1/GPa) = 0.02047802
#
# Stress axis : x y z
#
# Youngs Moduli (GPa) = 63.43753 72.51502 60.05935
#
# Poissons Ratio (x) = 0.26574 0.11841
# Poissons Ratio (y) = 0.23248 0.43403
# Poissons Ratio (z) = 0.12507 0.52405
#
# Static dielectric constant tensor:
#      x y z
#    x 3.521070 0.000000 -0.248870 
#    y 0.000000 3.880610 0.000000 
#    z -0.248870 0.000000 3.944670 
# 
# 
# High freq. dielectric constant tensor:
#      x y z
#    x 1.797120 0.000000 -0.023410 
#    y 0.000000 1.819680 0.000000 
#    z -0.023410 0.000000 1.828520 
# 
# From -- ./inp_files/100630.got.cif
#   From: 2010.06.25/outbox.cif.g09.slc.cpg/sg15_51_cif.got.tgz:100630.got - 2010.06.28 07:06:18.
