data_PCOD8136917
_publ_section_title
;
Structure prediction by ZEFSAII (Michael W. Deem and Ramdas Pophale) SiO2 
 PCOD8136917
Probable space group: C 2/C
;
_chemical_formula_sum "Si O2"
_cell_formula_units_Z 60
_cell_length_a 11.632984
_cell_length_b 23.819855
_cell_length_c 11.061651
_cell_angle_alpha 90.000000
_cell_angle_beta 101.563968
_cell_angle_gamma 90.000000
_cell_volume 3002.921459
_symmetry_space_group_name_H-M "C 2/C"
_symmetry_group_IT_number 15
_symmetry_cell_setting 'monoclinic'
loop_
_space_group_symop_operation_xyz
x,y,z
-x,y,1/2-z
-x,-y,-z
x,-y,1/2+z
1/2+x,1/2+y,z
1/2-x,1/2+y,1/2-z
1/2-x,1/2-y,-z
1/2+x,1/2-y,1/2+z
loop_
_atom_site_type_symbol
_atom_site_label
_atom_site_fract_x
_atom_site_fract_y
_atom_site_fract_z
Si Si1 0.221515 0.147125 0.172055
Si Si2 0.000000 0.817049 0.750000
Si Si3 0.375511 0.052427 0.292175
Si Si4 0.616208 0.239663 0.218775
Si Si5 0.588689 0.105565 0.938734
Si Si6 0.838572 0.427694 0.290187
Si Si7 0.482307 0.228798 0.548592
Si Si8 0.757167 0.676703 0.907229
O O1 0.094320 0.141738 0.207194
O O2 0.290073 0.088247 0.187298
O O3 0.287700 0.191457 0.270875
O O4 0.212879 0.172157 0.035390
O O5 0.949505 0.774215 0.641151
O O6 0.500000 0.045083 0.250000
O O7 0.386233 0.082578 0.423130
O O8 0.310224 0.993359 0.301458
O O9 0.500000 0.210840 0.250000
O O10 0.659753 0.291605 0.308286
O O11 0.573261 0.259354 0.078902
O O12 0.682359 0.087263 0.856108
O O13 0.469186 0.079876 0.865579
O O14 0.589198 0.172593 0.938095
O O15 0.760544 0.386297 0.355097
O O16 0.620500 0.211706 0.569149
#
# Coordination Sequence:
#
# PCOD8136917 Si02
#       8
#     8   4   8   8   8   8   8   8
#     4  12  25  41  63  92 129 170 217 261 324 389
#     4  12  26  42  60  90 134 180 208 264 324 382
#     4  12  22  38  64  97 127 165 215 267 329 384
#     4  12  22  39  65  97 123 170 219 260 319 387
#     4  10  20  35  56  95 129 160 204 265 326 385
#     4  10  22  36  61  90 129 167 205 267 330 375
#     4  11  21  39  64  91 134 165 213 264 319 388
#     4  11  23  43  65  95 131 172 211 269 330 385
#
# _framework density 19.980542
#
# number of rings (size 3 to 8) (size 9 to 14) (size 15 to 20)
#    0.000    0.800    5.333    5.200    1.867    1.600 
#    0.000    0.000    1.467    0.800    0.000    0.000 
#    0.000    0.000    0.000    0.000    0.000    0.000 
#
# Total GULP energy -371829.413345 kJ/mol
# GULP energy per Si atom -12394.313778 kJ/mol
# Density = 1.993507 g / cm^3
# Si number density = 19.980542 Si / 1000 Ang^3
#
#
#
# Elastic Constant Matrix: (Units=GPa)
#
#
# Indices 1 2 3 4 5 6 
#
# 1 69.8371 33.6288 19.6717 0.0000 -12.1563 0.0000
# 2 33.6288 107.0374 27.3301 0.0000 9.6012 0.0000
# 3 19.6717 27.3301 121.6052 0.0000 0.2106 0.0000
# 4 0.0000 0.0000 0.0000 10.3291 0.0000 -0.3495
# 5 -12.1563 9.6012 0.2106 0.0000 26.5887 0.0000
# 6 0.0000 0.0000 0.0000 -0.3495 0.0000 21.0142
#
#
#
# Elastic Compliance Matrix: (Units=1/GPa)
#
#
# Indices 1 2 3 4 5 6 
#
# 1 0.020206 -0.006963 -0.001724 0.000000 0.011766 0.000000
# 2 -0.006963 0.012660 -0.001705 0.000000 -0.007742 0.000000
# 3 -0.001724 -0.001705 0.008886 0.000000 -0.000243 0.000000
# 4 0.000000 0.000000 0.000000 0.096868 0.000000 0.001611
# 5 0.011766 -0.007742 -0.000243 0.000000 0.045787 0.000000
# 6 0.000000 0.000000 0.000000 0.001611 0.000000 0.047614
#
#
# Mechanical properties :
#
#
# Convention : Reuss Voigt Hill
#
# Bulk Modulus (GPa) = 47.69595 51.08234 49.38915
# Shear Modulus (GPa) = 19.24589 26.10967 22.67778
#
# Velocity S-wave (km/s) = 3.10696 3.61883 3.37262
# Velocity P-wave (km/s) = 6.06581 6.56375 6.31968
#
# Compressibility (1/GPa) = 0.02096614
#
# Stress axis : x y z
#
# Youngs Moduli (GPa) = 49.49041 78.98770 112.53748
#
# Poissons Ratio (x) = 0.55003 0.19402
# Poissons Ratio (y) = 0.34463 0.19193
# Poissons Ratio (z) = 0.08532 0.13471
#
# Static dielectric constant tensor:
#      x y z
#    x 3.544160 0.000000 -0.226480 
#    y 0.000000 3.679410 0.000000 
#    z -0.226480 0.000000 4.000250 
# 
# 
# High freq. dielectric constant tensor:
#      x y z
#    x 1.742540 0.000000 -0.016830 
#    y 0.000000 1.772380 0.000000 
#    z -0.016830 0.000000 1.800170 
# 
# From -- ./inp_files/90894.got.cif
#   From: 2010.06.25/outbox.cif.g09.slc.cpg/sg15_46_cif.got.tgz:90894.got - 2010.06.28 07:06:18.
