data_PCOD8136810
_publ_section_title
;
Structure prediction by ZEFSAII (Michael W. Deem and Ramdas Pophale) SiO2 
 PCOD8136810
Probable space group: C 2/C
;
_chemical_formula_sum "Si O2"
_cell_formula_units_Z 56
_cell_length_a 23.376028
_cell_length_b 14.731315
_cell_length_c 13.952973
_cell_angle_alpha 90.000000
_cell_angle_beta 38.263284
_cell_angle_gamma 90.000000
_cell_volume 2975.522535
_symmetry_space_group_name_H-M "C 2/C"
_symmetry_group_IT_number 15
_symmetry_cell_setting 'monoclinic'
loop_
_space_group_symop_operation_xyz
x,y,z
-x,y,1/2-z
-x,-y,-z
x,-y,1/2+z
1/2+x,1/2+y,z
1/2-x,1/2+y,1/2-z
1/2-x,1/2-y,-z
1/2+x,1/2-y,1/2+z
loop_
_atom_site_type_symbol
_atom_site_label
_atom_site_fract_x
_atom_site_fract_y
_atom_site_fract_z
Si Si1 0.331976 0.885075 0.197473
Si Si2 0.674200 0.683620 0.355397
Si Si3 0.662255 0.988699 0.132986
Si Si4 0.450706 0.115061 0.093571
Si Si5 0.821614 0.440586 0.595153
Si Si6 0.473748 0.714033 0.679001
Si Si7 0.210451 0.153760 0.522427
O O1 0.297403 0.786440 0.210053
O O2 0.291950 0.914311 0.354706
O O3 0.300473 0.957510 0.159189
O O4 0.441607 0.886360 0.065922
O O5 0.724267 0.614854 0.216010
O O6 0.562541 0.673243 0.506272
O O7 0.716505 0.652816 0.400173
O O8 0.573786 0.030886 0.304312
O O9 0.733195 0.068680 0.012787
O O10 0.634609 0.942573 0.068999
O O11 0.394524 0.110352 0.068115
O O12 0.424736 0.207328 0.182279
O O13 0.500000 0.753884 0.750000
O O14 0.394290 0.639108 0.800528
O O15 0.250000 0.250000 0.500000
#
# Coordination Sequence:
#
# PCOD8136810 Si02
#       7
#     8   8   8   8   8   8   8
#     4  10  22  36  54  83 111 144 182 231 273 336
#     4  10  20  36  54  77 113 144 183 225 278 326
#     4  11  21  32  55  81 112 144 184 221 279 336
#     4  10  20  35  52  83 115 134 180 237 286 327
#     4  11  21  35  54  80 112 150 179 225 276 330
#     4   9  19  31  56  84 106 142 182 233 280 317
#     4  11  17  33  56  82 106 139 185 234 276 319
#
# _framework density 18.820224
#
# number of rings (size 3 to 8) (size 9 to 14) (size 15 to 20)
#    0.000    1.714    4.286    2.571    4.000    2.286 
#    0.000    0.714    0.000    0.000    0.000    0.000 
#    0.000    0.000    0.000    0.000    0.000    0.000 
#
# Total GULP energy -347018.572836 kJ/mol
# GULP energy per Si atom -12393.520458 kJ/mol
# Density = 1.877739 g / cm^3
# Si number density = 18.820224 Si / 1000 Ang^3
#
#
#
# Elastic Constant Matrix: (Units=GPa)
#
#
# Indices 1 2 3 4 5 6 
#
# 1 65.1727 14.8454 18.6754 0.0000 17.7964 0.0000
# 2 14.8454 67.1498 21.2389 0.0000 -4.7852 0.0000
# 3 18.6754 21.2389 33.5979 0.0000 12.8509 0.0000
# 4 0.0000 0.0000 0.0000 30.6269 0.0000 -1.1887
# 5 17.7964 -4.7852 12.8509 0.0000 30.2197 0.0000
# 6 0.0000 0.0000 0.0000 -1.1887 0.0000 21.9633
#
#
#
# Elastic Compliance Matrix: (Units=1/GPa)
#
#
# Indices 1 2 3 4 5 6 
#
# 1 0.020499 -0.003685 -0.005045 0.000000 -0.010510 0.000000
# 2 -0.003685 0.021877 -0.016643 0.000000 0.012712 0.000000
# 3 -0.005045 -0.016643 0.051306 0.000000 -0.021482 0.000000
# 4 0.000000 0.000000 0.000000 0.032720 0.000000 0.001771
# 5 -0.010510 0.012712 -0.021482 0.000000 0.050429 0.000000
# 6 0.000000 0.000000 0.000000 0.001771 0.000000 0.045626
#
#
# Mechanical properties :
#
#
# Convention : Reuss Voigt Hill
#
# Bulk Modulus (GPa) = 23.29096 30.60444 26.94770
# Shear Modulus (GPa) = 17.39049 23.97270 20.68160
#
# Velocity S-wave (km/s) = 3.04309 3.57287 3.31857
# Velocity P-wave (km/s) = 4.97489 5.77211 5.38827
#
# Compressibility (1/GPa) = 0.04293511
#
# Stress axis : x y z
#
# Youngs Moduli (GPa) = 48.78342 45.71057 19.49108
#
# Poissons Ratio (x) = 0.16846 0.09832
# Poissons Ratio (y) = 0.17978 0.32439
# Poissons Ratio (z) = 0.24609 0.76077
#
# Static dielectric constant tensor:
#      x y z
#    x 3.503190 0.000000 0.199440 
#    y 0.000000 3.494570 0.000000 
#    z 0.199440 0.000000 3.739370 
# 
# 
# High freq. dielectric constant tensor:
#      x y z
#    x 1.721500 0.000000 0.003650 
#    y 0.000000 1.710530 0.000000 
#    z 0.003650 0.000000 1.731870 
# 
# From -- ./inp_files/161882.got.cif
#   From: 2010.06.25/outbox.cif.g09.slc.cpg/sg15_81_cif.got.tgz:161882.got - 2010.06.28 07:06:18.
