data_PCOD8136639
_publ_section_title
;
Structure prediction by ZEFSAII (Michael W. Deem and Ramdas Pophale) SiO2 
 PCOD8136639
Probable space group: C 2/C
;
_chemical_formula_sum "Si O2"
_cell_formula_units_Z 60
_cell_length_a 22.547146
_cell_length_b 21.199529
_cell_length_c 9.655227
_cell_angle_alpha 90.000000
_cell_angle_beta 37.931346
_cell_angle_gamma 90.000000
_cell_volume 2836.974071
_symmetry_space_group_name_H-M "C 2/C"
_symmetry_group_IT_number 15
_symmetry_cell_setting 'monoclinic'
loop_
_space_group_symop_operation_xyz
x,y,z
-x,y,1/2-z
-x,-y,-z
x,-y,1/2+z
1/2+x,1/2+y,z
1/2-x,1/2+y,1/2-z
1/2-x,1/2-y,-z
1/2+x,1/2-y,1/2+z
loop_
_atom_site_type_symbol
_atom_site_label
_atom_site_fract_x
_atom_site_fract_y
_atom_site_fract_z
Si Si1 0.292770 0.573443 0.907740
Si Si2 0.704676 0.348064 0.663008
Si Si3 0.998828 0.737786 0.908268
Si Si4 0.181265 0.285822 0.267589
Si Si5 0.000000 0.018733 0.250000
Si Si6 0.823807 0.303598 0.906991
Si Si7 0.999962 0.877795 0.962345
Si Si8 0.801762 0.971756 0.679031
O O1 0.404767 0.595405 0.713751
O O2 0.266526 0.535635 0.816972
O O3 0.222482 0.631120 0.049607
O O4 0.270694 0.526989 0.076505
O O5 0.743562 0.338198 0.432869
O O6 0.732880 0.283018 0.690346
O O7 0.746790 0.410516 0.658510
O O8 0.589445 0.358137 0.893528
O O9 0.097848 0.723753 0.806921
O O10 0.000000 0.709646 0.750000
O O11 0.920299 0.701721 0.142785
O O12 0.970300 0.811786 0.944140
O O13 0.148632 0.305410 0.480561
O O14 0.043455 0.067456 0.283344
O O15 0.919343 0.973979 0.467588
O O16 0.750000 0.250000 0.000000
#
# Coordination Sequence:
#
# PCOD8136639 Si02
#       8
#     8   8   8   8   4   8   8   8
#     4  11  25  39  64  95 134 177 221 263 330 392
#     4  10  22  37  64  92 136 170 224 258 327 383
#     4  11  24  42  69  97 131 171 219 280 339 391
#     4  10  25  41  66  96 130 175 220 281 328 386
#     4  10  20  34  58  88 140 180 216 240 320 388
#     4  12  25  42  68  98 134 171 223 278 334 393
#     4  10  20  35  59  95 138 176 210 257 313 399
#     4  11  23  39  58  92 132 179 217 265 314 399
#
# _framework density 21.149296
#
# number of rings (size 3 to 8) (size 9 to 14) (size 15 to 20)
#    0.000    1.333    2.000    2.800   13.067    2.133 
#    0.000    0.000    0.000    0.800    0.000    0.000 
#    0.000    0.000    0.000    0.000    0.000    0.000 
#
# Total GULP energy -371723.498769 kJ/mol
# GULP energy per Si atom -12390.783292 kJ/mol
# Density = 2.110116 g / cm^3
# Si number density = 21.149296 Si / 1000 Ang^3
#
#
#
# Elastic Constant Matrix: (Units=GPa)
#
#
# Indices 1 2 3 4 5 6 
#
# 1 74.0742 24.5944 32.6764 0.0000 18.9569 0.0000
# 2 24.5944 107.3032 55.8631 0.0000 1.7867 0.0000
# 3 32.6764 55.8631 126.1203 0.0000 20.4632 0.0000
# 4 0.0000 0.0000 0.0000 38.8343 0.0000 1.8278
# 5 18.9569 1.7867 20.4632 0.0000 31.4936 0.0000
# 6 0.0000 0.0000 0.0000 1.8278 0.0000 26.4023
#
#
#
# Elastic Compliance Matrix: (Units=1/GPa)
#
#
# Indices 1 2 3 4 5 6 
#
# 1 0.017643 -0.002984 -0.001737 0.000000 -0.009322 0.000000
# 2 -0.002984 0.012900 -0.005716 0.000000 0.004778 0.000000
# 3 -0.001737 -0.005716 0.011948 0.000000 -0.006394 0.000000
# 4 0.000000 0.000000 0.000000 0.025835 0.000000 -0.001788
# 5 -0.009322 0.004778 -0.006394 0.000000 0.041247 0.000000
# 6 0.000000 0.000000 0.000000 -0.001788 0.000000 0.037999
#
#
# Mechanical properties :
#
#
# Convention : Reuss Voigt Hill
#
# Bulk Modulus (GPa) = 46.26088 59.30727 52.78408
# Shear Modulus (GPa) = 28.46572 32.30363 30.38468
#
# Velocity S-wave (km/s) = 3.67269 3.91245 3.79446
# Velocity P-wave (km/s) = 6.31711 6.96511 6.64901
#
# Compressibility (1/GPa) = 0.02161654
#
# Stress axis : x y z
#
# Youngs Moduli (GPa) = 56.68102 77.52214 83.69632
#
# Poissons Ratio (x) = 0.23136 0.14535
# Poissons Ratio (y) = 0.16916 0.47839
# Poissons Ratio (z) = 0.09843 0.44310
#
# Static dielectric constant tensor:
#      x y z
#    x 3.640140 0.000000 0.490860 
#    y 0.000000 3.995650 0.000000 
#    z 0.490860 0.000000 4.947450 
# 
# 
# High freq. dielectric constant tensor:
#      x y z
#    x 1.802960 0.000000 0.024270 
#    y 0.000000 1.831170 0.000000 
#    z 0.024270 0.000000 1.823870 
# 
# From -- ./inp_files/63510.got.cif
#   From: 2010.06.25/outbox.cif.g09.slc.cpg/sg15_32_cif.got.tgz:63510.got - 2010.06.28 07:06:18.
