data_PCOD8136931
_publ_section_title
;
Structure prediction by ZEFSAII (Michael W. Deem and Ramdas Pophale) SiO2 
 PCOD8136931
Probable space group: C 2/C
;
_chemical_formula_sum "Si O2"
_cell_formula_units_Z 56
_cell_length_a 11.957502
_cell_length_b 26.904252
_cell_length_c 8.535269
_cell_angle_alpha 90.000000
_cell_angle_beta 84.305567
_cell_angle_gamma 90.000000
_cell_volume 2732.311073
_symmetry_space_group_name_H-M "C 2/C"
_symmetry_group_IT_number 15
_symmetry_cell_setting 'monoclinic'
loop_
_space_group_symop_operation_xyz
x,y,z
-x,y,1/2-z
-x,-y,-z
x,-y,1/2+z
1/2+x,1/2+y,z
1/2-x,1/2+y,1/2-z
1/2-x,1/2-y,-z
1/2+x,1/2-y,1/2+z
loop_
_atom_site_type_symbol
_atom_site_label
_atom_site_fract_x
_atom_site_fract_y
_atom_site_fract_z
Si Si1 0.485275 0.585876 0.431971
Si Si2 0.112119 0.628909 0.635323
Si Si3 0.001903 0.703867 0.068748
Si Si4 0.250668 0.952695 0.553603
Si Si5 0.469124 0.316134 0.425181
Si Si6 0.721246 0.843328 0.423150
Si Si7 0.227544 0.942749 0.927894
O O1 0.500000 0.574357 0.250000
O O2 0.369974 0.561043 0.508227
O O3 0.478899 0.645217 0.458567
O O4 0.596120 0.562767 0.498999
O O5 0.090927 0.673245 0.514678
O O6 0.151115 0.580788 0.533380
O O7 0.211523 0.646103 0.738272
O O8 0.000000 0.615889 0.750000
O O9 0.000000 0.688329 0.250000
O O10 0.976973 0.762369 0.049727
O O11 0.124303 0.694161 0.984546
O O12 0.246659 0.945557 0.739941
O O13 0.278658 0.009370 0.506681
O O14 0.500000 0.336293 0.250000
O O15 0.334478 0.315146 0.454338
O O16 0.705720 0.895047 0.518313
#
# Coordination Sequence:
#
# PCOD8136931 Si02
#       7
#     8   8   8   8   8   8   8
#     4   9  20  35  55  84 115 143 179 223 272 328
#     4  10  22  38  57  80 110 147 188 228 268 322
#     4  10  21  38  56  80 111 145 183 227 272 320
#     4  11  20  37  56  81 113 147 180 226 275 323
#     4  10  20  35  57  83 110 143 181 224 274 328
#     4  10  20  38  57  80 109 144 183 227 272 321
#     4  10  21  35  58  84 110 143 182 223 275 330
#
# _framework density 20.495469
#
# number of rings (size 3 to 8) (size 9 to 14) (size 15 to 20)
#    0.000    2.000    0.000    3.429    0.000    2.857 
#    0.000   15.714    0.000    0.000    0.000    0.000 
#    0.000    0.000    0.000    0.000    0.000    0.000 
#
# Total GULP energy -347235.858278 kJ/mol
# GULP energy per Si atom -12401.280653 kJ/mol
# Density = 2.044882 g / cm^3
# Si number density = 20.495469 Si / 1000 Ang^3
#
#
#
# Elastic Constant Matrix: (Units=GPa)
#
#
# Indices 1 2 3 4 5 6 
#
# 1 31.9790 18.5063 10.2065 0.0000 4.8950 0.0000
# 2 18.5063 103.9992 33.0673 0.0000 6.4733 0.0000
# 3 10.2065 33.0673 83.3313 0.0000 6.0626 0.0000
# 4 0.0000 0.0000 0.0000 32.2844 0.0000 2.2096
# 5 4.8950 6.4733 6.0626 0.0000 29.5469 0.0000
# 6 0.0000 0.0000 0.0000 2.2096 0.0000 31.7441
#
#
#
# Elastic Compliance Matrix: (Units=1/GPa)
#
#
# Indices 1 2 3 4 5 6 
#
# 1 0.035709 -0.005487 -0.001882 0.000000 -0.004328 0.000000
# 2 -0.005487 0.011916 -0.003992 0.000000 -0.000883 0.000000
# 3 -0.001882 -0.003992 0.013937 0.000000 -0.001673 0.000000
# 4 0.000000 0.000000 0.000000 0.031123 0.000000 -0.002166
# 5 -0.004328 -0.000883 -0.001673 0.000000 0.035098 0.000000
# 6 0.000000 0.000000 0.000000 -0.002166 0.000000 0.031653
#
#
# Mechanical properties :
#
#
# Convention : Reuss Voigt Hill
#
# Bulk Modulus (GPa) = 25.74639 38.09663 31.92151
# Shear Modulus (GPa) = 25.62749 29.21703 27.42226
#
# Velocity S-wave (km/s) = 3.53993 3.77972 3.66179
# Velocity P-wave (km/s) = 5.41271 6.13813 5.78680
#
# Compressibility (1/GPa) = 0.03884039
#
# Stress axis : x y z
#
# Youngs Moduli (GPa) = 28.00449 83.92011 71.75299
#
# Poissons Ratio (x) = 0.46044 0.13501
# Poissons Ratio (y) = 0.15365 0.28646
# Poissons Ratio (z) = 0.05269 0.33503
#
# Static dielectric constant tensor:
#      x y z
#    x 3.750620 0.000000 0.051160 
#    y 0.000000 3.639420 0.000000 
#    z 0.051160 0.000000 3.748390 
# 
# 
# High freq. dielectric constant tensor:
#      x y z
#    x 1.792010 0.000000 -0.000410 
#    y 0.000000 1.804380 0.000000 
#    z -0.000410 0.000000 1.804340 
# 
# From -- ./inp_files/34196.got.cif
#   From: 2010.06.25/outbox.cif.g09.slc.cpg/sg15_18_cif.got.tgz:34196.got - 2010.06.28 07:06:18.
