data_PCOD8136791
_publ_section_title
;
Structure prediction by ZEFSAII (Michael W. Deem and Ramdas Pophale) SiO2 
 PCOD8136791
Probable space group: C 2/C
;
_chemical_formula_sum "Si O2"
_cell_formula_units_Z 44
_cell_length_a 18.025002
_cell_length_b 11.982310
_cell_length_c 9.428697
_cell_angle_alpha 90.000000
_cell_angle_beta 86.573720
_cell_angle_gamma 90.000000
_cell_volume 2032.780871
_symmetry_space_group_name_H-M "C 2/C"
_symmetry_group_IT_number 15
_symmetry_cell_setting 'monoclinic'
loop_
_space_group_symop_operation_xyz
x,y,z
-x,y,1/2-z
-x,-y,-z
x,-y,1/2+z
1/2+x,1/2+y,z
1/2-x,1/2+y,1/2-z
1/2-x,1/2-y,-z
1/2+x,1/2-y,1/2+z
loop_
_atom_site_type_symbol
_atom_site_label
_atom_site_fract_x
_atom_site_fract_y
_atom_site_fract_z
Si Si1 0.000000 0.595940 0.250000
Si Si2 0.787214 0.664842 0.306035
Si Si3 0.139559 0.260964 0.412238
Si Si4 0.496963 0.614328 0.416635
Si Si5 0.366985 0.946579 0.311920
Si Si6 0.608337 0.214791 0.444111
O O1 0.060791 0.520579 0.165969
O O2 0.175061 0.736713 0.325435
O O3 0.826359 0.705184 0.443438
O O4 0.699657 0.689249 0.315962
O O5 0.798334 0.530908 0.288874
O O6 0.036648 0.669801 0.368626
O O7 0.066780 0.189448 0.451162
O O8 0.118825 0.371559 0.327811
O O9 0.500000 0.589133 0.250000
O O10 0.500000 0.500000 0.500000
O O11 0.419651 0.676415 0.466869
O O12 0.355119 0.873153 0.452211
#
# Coordination Sequence:
#
# PCOD8136791 Si02
#       6
#     4   8   8   8   8   8
#     4  10  20  34  68  98 128 164 202 276 336 382
#     4  10  24  41  68  97 134 180 210 282 334 392
#     4  11  24  46  64  97 140 170 225 271 333 404
#     4  12  27  46  67  96 132 181 222 276 330 399
#     4  11  20  40  65  98 129 165 220 268 333 386
#     4  11  22  41  67  97 129 167 227 273 326 395
#
# _framework density 21.645226000000001
#
# number of rings (size 3 to 8) (size 9 to 14) (size 15 to 20)
#    0.000    1.091    1.818    6.000    3.818    2.182 
#    6.545    0.000    0.000    0.000    0.000    0.000 
#    0.000    0.000    0.000    0.000    0.000    0.000 
#
# Total GULP energy -272831.955741 kJ/mol
# GULP energy per Si atom -12401.452534 kJ/mol
# Density = 2.159596 g / cm^3
# Si number density = 21.645226 Si / 1000 Ang^3
#
#
#
# Elastic Constant Matrix: (Units=GPa)
#
#
# Indices 1 2 3 4 5 6 
#
# 1 60.8231 25.8865 10.7052 0.0000 -23.0069 0.0000
# 2 25.8865 117.3375 32.6754 0.0000 -18.3436 0.0000
# 3 10.7052 32.6754 119.1413 0.0000 -19.5251 0.0000
# 4 0.0000 0.0000 0.0000 36.7510 0.0000 -15.3091
# 5 -23.0069 -18.3436 -19.5251 0.0000 34.4590 0.0000
# 6 0.0000 0.0000 0.0000 -15.3091 0.0000 14.1643
#
#
#
# Elastic Compliance Matrix: (Units=1/GPa)
#
#
# Indices 1 2 3 4 5 6 
#
# 1 0.023001 -0.003154 0.001146 0.000000 0.014328 0.000000
# 2 -0.003154 0.010143 -0.002159 0.000000 0.002070 0.000000
# 3 0.001146 -0.002159 0.009722 0.000000 0.005125 0.000000
# 4 0.000000 0.000000 0.000000 0.049494 0.000000 0.053494
# 5 0.014328 0.002070 0.005125 0.000000 0.042592 0.000000
# 6 0.000000 0.000000 0.000000 0.053494 0.000000 0.128417
#
#
# Mechanical properties :
#
#
# Convention : Reuss Voigt Hill
#
# Bulk Modulus (GPa) = 28.95737 48.42622 38.69180
# Shear Modulus (GPa) = 17.65449 32.27719 24.96584
#
# Velocity S-wave (km/s) = 2.85902 3.86578 3.39987
# Velocity P-wave (km/s) = 4.93010 6.50746 5.77291
#
# Compressibility (1/GPa) = 0.03453352
#
# Stress axis : x y z
#
# Youngs Moduli (GPa) = 43.47595 98.58885 102.85494
#
# Poissons Ratio (x) = 0.31093 -0.11790
# Poissons Ratio (y) = 0.13711 0.22208
# Poissons Ratio (z) = -0.04983 0.21287
#
# Static dielectric constant tensor:
#      x y z
#    x 4.154980 0.000000 -0.233850 
#    y 0.000000 4.016880 0.000000 
#    z -0.233850 0.000000 4.274620 
# 
# 
# High freq. dielectric constant tensor:
#      x y z
#    x 1.843720 0.000000 -0.008000 
#    y 0.000000 1.842070 0.000000 
#    z -0.008000 0.000000 1.871530 
# 
# From -- ./inp_files/103305.got.cif
#   From: 2010.06.25/outbox.cif.g09.slc.cpg/sg15_52_cif.got.tgz:103305.got - 2010.06.28 07:06:18.
