data_PCOD8136588
_publ_section_title
;
Structure prediction by ZEFSAII (Michael W. Deem and Ramdas Pophale) SiO2 
 PCOD8136588
Probable space group: C 2/C
;
_chemical_formula_sum "Si O2"
_cell_formula_units_Z 40
_cell_length_a 20.231637
_cell_length_b 12.229051
_cell_length_c 9.336480
_cell_angle_alpha 90.000000
_cell_angle_beta 77.422859
_cell_angle_gamma 90.000000
_cell_volume 2254.542480
_symmetry_space_group_name_H-M "C 2/C"
_symmetry_group_IT_number 15
_symmetry_cell_setting 'monoclinic'
loop_
_space_group_symop_operation_xyz
x,y,z
-x,y,1/2-z
-x,-y,-z
x,-y,1/2+z
1/2+x,1/2+y,z
1/2-x,1/2+y,1/2-z
1/2-x,1/2-y,-z
1/2+x,1/2-y,1/2+z
loop_
_atom_site_type_symbol
_atom_site_label
_atom_site_fract_x
_atom_site_fract_y
_atom_site_fract_z
Si Si1 0.833891 0.836934 0.043518
Si Si2 0.449625 0.511260 0.396614
Si Si3 0.162663 0.157619 0.626995
Si Si4 0.701860 0.901639 0.935467
Si Si5 0.297357 0.897518 0.896506
O O1 0.820608 0.869702 0.215257
O O2 0.843277 0.706448 0.024677
O O3 0.901663 0.887108 0.949697
O O4 0.774264 0.881620 0.973372
O O5 0.500000 0.545648 0.250000
O O6 0.500000 0.500000 0.500000
O O7 0.407441 0.399826 0.385712
O O8 0.222709 0.114682 0.498855
O O9 0.157108 0.288731 0.607434
O O10 0.711989 0.930132 0.764269
O O11 0.666239 0.003516 0.034207
#
# Coordination Sequence:
#
# PCOD8136588 Si02
#       5
#     8   8   8   8   8
#     4  10  21  37  54  82 113 145 189 228 280 326
#     4  12  24  38  58  80 112 153 187 226 269 335
#     4  10  21  37  54  82 113 146 188 226 284 326
#     4  10  20  34  57  83 114 143 180 238 279 330
#     4  10  20  34  57  83 114 144 179 237 281 329
#
# _framework density 17.741959000000001
#
# number of rings (size 3 to 8) (size 9 to 14) (size 15 to 20)
#    0.000    1.600    4.000    1.200    2.800    1.600 
#    0.000    0.000    0.000    2.400    0.000    0.000 
#    0.000    0.000    0.000    0.000    0.000    0.000 
#
# Total GULP energy -247917.518868 kJ/mol
# GULP energy per Si atom -12395.875943 kJ/mol
# Density = 1.770158 g / cm^3
# Si number density = 17.741959 Si / 1000 Ang^3
#
#
#
# Elastic Constant Matrix: (Units=GPa)
#
#
# Indices 1 2 3 4 5 6 
#
# 1 85.1802 50.4806 50.4935 0.0000 1.1040 0.0000
# 2 50.4806 140.8040 76.3866 0.0000 1.6854 0.0000
# 3 50.4935 76.3866 157.3568 0.0000 6.5377 0.0000
# 4 0.0000 0.0000 0.0000 34.6535 0.0000 -1.5887
# 5 1.1040 1.6854 6.5377 0.0000 31.8876 0.0000
# 6 0.0000 0.0000 0.0000 -1.5887 0.0000 30.8940
#
#
#
# Elastic Compliance Matrix: (Units=1/GPa)
#
#
# Indices 1 2 3 4 5 6 
#
# 1 0.016009 -0.004004 -0.003207 0.000000 0.000315 0.000000
# 2 -0.004004 0.010649 -0.003900 0.000000 0.000375 0.000000
# 3 -0.003207 -0.003900 0.009344 0.000000 -0.001598 0.000000
# 4 0.000000 0.000000 0.000000 0.028925 0.000000 0.001487
# 5 0.000315 0.000375 -0.001598 0.000000 0.031657 0.000000
# 6 0.000000 0.000000 0.000000 0.001487 0.000000 0.032445
#
#
# Mechanical properties :
#
#
# Convention : Reuss Voigt Hill
#
# Bulk Modulus (GPa) = 72.56559 82.00694 77.28627
# Shear Modulus (GPa) = 32.08330 33.21905 32.65117
#
# Velocity S-wave (km/s) = 4.25706 4.33175 4.29457
# Velocity P-wave (km/s) = 8.07172 8.44637 8.26117
#
# Compressibility (1/GPa) = 0.01378064
#
# Stress axis : x y z
#
# Youngs Moduli (GPa) = 62.46341 93.90686 107.02437
#
# Poissons Ratio (x) = 0.37598 0.34319
# Poissons Ratio (y) = 0.25009 0.41741
# Poissons Ratio (z) = 0.20030 0.36625
#
# Static dielectric constant tensor:
#      x y z
#    x 2.924960 0.000000 0.123800 
#    y 0.000000 3.874810 0.000000 
#    z 0.123800 0.000000 3.521600 
# 
# 
# High freq. dielectric constant tensor:
#      x y z
#    x 1.643860 0.000000 0.011700 
#    y 0.000000 1.702800 0.000000 
#    z 0.011700 0.000000 1.709210 
# 
# From -- ./inp_files/46662.got.cif
#   From: 2010.06.25/outbox.cif.g09.slc.cpg/sg15_24_cif.got.tgz:46662.got - 2010.06.28 07:06:18.
