data_PCOD8136387
_publ_section_title
;
Structure prediction by ZEFSAII (Michael W. Deem and Ramdas Pophale) SiO2 
 PCOD8136387
Probable space group: C 2/C
;
_chemical_formula_sum "Si O2"
_cell_formula_units_Z 48
_cell_length_a 11.675016
_cell_length_b 18.506318
_cell_length_c 11.295951
_cell_angle_alpha 90.000000
_cell_angle_beta 90.998050
_cell_angle_gamma 90.000000
_cell_volume 2440.250511
_symmetry_space_group_name_H-M "C 2/C"
_symmetry_group_IT_number 15
_symmetry_cell_setting 'monoclinic'
loop_
_space_group_symop_operation_xyz
x,y,z
-x,y,1/2-z
-x,-y,-z
x,-y,1/2+z
1/2+x,1/2+y,z
1/2-x,1/2+y,1/2-z
1/2-x,1/2-y,-z
1/2+x,1/2-y,1/2+z
loop_
_atom_site_type_symbol
_atom_site_label
_atom_site_fract_x
_atom_site_fract_y
_atom_site_fract_z
Si Si1 0.044241 0.081561 0.016537
Si Si2 0.848262 0.672467 0.393703
Si Si3 0.264805 0.419426 0.797380
Si Si4 0.971234 0.451701 0.615378
Si Si5 0.129429 0.942252 0.281179
Si Si6 0.841777 0.833941 0.423655
O O1 0.116059 0.096163 0.135219
O O2 0.129123 0.097201 0.907874
O O3 0.937246 0.135920 0.015993
O O4 0.000000 0.000000 0.000000
O O5 0.766801 0.648502 0.284216
O O6 0.882371 0.755899 0.376637
O O7 0.781029 0.667202 0.516014
O O8 0.961272 0.623537 0.398468
O O9 0.164329 0.436189 0.890142
O O10 0.285644 0.489182 0.714052
O O11 0.000000 0.483546 0.750000
O O12 0.000000 0.500000 0.500000
O O13 0.175110 0.885967 0.187107
O O14 0.000000 0.968039 0.250000
#
# Coordination Sequence:
#
# PCOD8136387 Si02
#       6
#     8   8   8   8   8   8
#     4  11  21  35  62  94 119 149 199 262 305 355
#     4  10  23  41  61  84 121 170 200 243 306 368
#     4  11  22  36  62  91 121 157 201 250 306 365
#     4  10  23  39  61  88 124 169 209 250 296 373
#     4  10  20  33  59  92 117 149 192 254 303 349
#     4  10  21  40  63  85 121 157 202 251 310 355
#
# _framework density 19.670110000000001
#
# number of rings (size 3 to 8) (size 9 to 14) (size 15 to 20)
#    0.000    1.667    3.333    2.000    4.667    6.000 
#    0.000    3.333    3.667    0.000    0.000    0.000 
#    0.000    0.000    0.000    0.000    0.000    0.000 
#
# Total GULP energy -297487.383734 kJ/mol
# GULP energy per Si atom -12395.307656 kJ/mol
# Density = 1.962534 g / cm^3
# Si number density = 19.670110 Si / 1000 Ang^3
#
#
#
# Elastic Constant Matrix: (Units=GPa)
#
#
# Indices 1 2 3 4 5 6 
#
# 1 60.1516 33.1725 7.5247 0.0000 -4.7881 0.0000
# 2 33.1725 113.3995 21.6900 0.0000 8.1532 0.0000
# 3 7.5247 21.6900 69.9809 0.0000 -5.0270 0.0000
# 4 0.0000 0.0000 0.0000 30.5023 0.0000 -1.2923
# 5 -4.7881 8.1532 -5.0270 0.0000 35.2874 0.0000
# 6 0.0000 0.0000 0.0000 -1.2923 0.0000 31.6036
#
#
#
# Elastic Compliance Matrix: (Units=1/GPa)
#
#
# Indices 1 2 3 4 5 6 
#
# 1 0.020423 -0.006290 0.000057 0.000000 0.004233 0.000000
# 2 -0.006290 0.011555 -0.003191 0.000000 -0.003978 0.000000
# 3 0.000057 -0.003191 0.015484 0.000000 0.002951 0.000000
# 4 0.000000 0.000000 0.000000 0.032841 0.000000 0.001343
# 5 0.004233 -0.003978 0.002951 0.000000 0.030252 0.000000
# 6 0.000000 0.000000 0.000000 0.001343 0.000000 0.031697
#
#
# Mechanical properties :
#
#
# Convention : Reuss Voigt Hill
#
# Bulk Modulus (GPa) = 34.94518 40.92294 37.93406
# Shear Modulus (GPa) = 29.30199 31.55498 30.42849
#
# Velocity S-wave (km/s) = 3.86381 4.00960 3.93738
# Velocity P-wave (km/s) = 6.14081 6.50274 6.32437
#
# Compressibility (1/GPa) = 0.02861625
#
# Stress axis : x y z
#
# Youngs Moduli (GPa) = 48.96439 86.54615 64.58142
#
# Poissons Ratio (x) = 0.54434 -0.00371
# Poissons Ratio (y) = 0.30797 0.20606
# Poissons Ratio (z) = -0.00281 0.27614
#
# Static dielectric constant tensor:
#      x y z
#    x 3.631070 0.000000 -0.240370 
#    y 0.000000 3.476780 0.000000 
#    z -0.240370 0.000000 4.293740 
# 
# 
# High freq. dielectric constant tensor:
#      x y z
#    x 1.768610 0.000000 -0.020800 
#    y 0.000000 1.746990 0.000000 
#    z -0.020800 0.000000 1.775810 
# 
# From -- ./inp_files/87379.got.cif
#   From: 2010.06.25/outbox.cif.g09.slc.cpg/sg15_44_cif.got.tgz:87379.got - 2010.06.28 07:06:18.
