data_PCOD8136331
_publ_section_title
;
Structure prediction by ZEFSAII (Michael W. Deem and Ramdas Pophale) SiO2 
 PCOD8136331
Probable space group: C 2/C
;
_chemical_formula_sum "Si O2"
_cell_formula_units_Z 60
_cell_length_a 12.271704
_cell_length_b 12.918446
_cell_length_c 24.495023
_cell_angle_alpha 90.000000
_cell_angle_beta 116.701155
_cell_angle_gamma 90.000000
_cell_volume 3469.130467
_symmetry_space_group_name_H-M "C 2/C"
_symmetry_group_IT_number 15
_symmetry_cell_setting 'monoclinic'
loop_
_space_group_symop_operation_xyz
x,y,z
-x,y,1/2-z
-x,-y,-z
x,-y,1/2+z
1/2+x,1/2+y,z
1/2-x,1/2+y,1/2-z
1/2-x,1/2-y,-z
1/2+x,1/2-y,1/2+z
loop_
_atom_site_type_symbol
_atom_site_label
_atom_site_fract_x
_atom_site_fract_y
_atom_site_fract_z
Si Si1 0.515727 0.315390 0.480633
Si Si2 0.448147 0.138693 0.084496
Si Si3 0.277698 0.425280 0.031012
Si Si4 0.766282 0.138052 0.976890
Si Si5 0.500000 0.006028 0.750000
Si Si6 0.896209 0.307346 0.690984
Si Si7 0.330351 0.796947 0.398285
Si Si8 0.017246 0.581576 0.870741
O O1 0.477323 0.207133 0.442598
O O2 0.585057 0.388759 0.452604
O O3 0.393215 0.370933 0.472913
O O4 0.607058 0.291154 0.550939
O O5 0.443115 0.199370 0.139805
O O6 0.510745 0.027759 0.106147
O O7 0.309285 0.128559 0.033021
O O8 0.235567 0.387642 0.081527
O O9 0.266902 0.550127 0.024373
O O10 0.658079 0.115279 0.909539
O O11 0.750000 0.250000 0.000000
O O12 0.479446 0.077827 0.798327
O O13 0.386715 0.927716 0.710028
O O14 0.765569 0.253855 0.665290
O O15 0.000000 0.247953 0.750000
O O16 0.434643 0.837147 0.382491
#
# Coordination Sequence:
#
# PCOD8136331 Si02
#       8
#     8   8   8   8   4   8   8   8
#     4  11  19  34  56  85 115 146 175 227 283 326
#     4   9  17  33  57  81 103 140 191 222 267 322
#     4  10  20  33  55  82 112 144 179 226 280 323
#     4  11  23  35  51  85 122 150 179 214 282 351
#     4   8  20  40  56  74 104 148 194 222 270 328
#     4   9  17  34  58  78 103 133 191 239 261 315
#     4  11  19  34  61  82 109 136 184 235 280 318
#     4  10  21  37  56  81 113 148 183 226 270 339
#
# _framework density 17.295400000000001
#
# number of rings (size 3 to 8) (size 9 to 14) (size 15 to 20)
#    0.400    1.600    4.000    1.200    1.867    1.600 
#    2.400    0.000    0.000    0.000    0.000    0.000 
#    0.000    0.000    0.000    0.000    0.000    0.000 
#
# Total GULP energy -371797.993653 kJ/mol
# GULP energy per Si atom -12393.266455 kJ/mol
# Density = 1.725604 g / cm^3
# Si number density = 17.295400 Si / 1000 Ang^3
#
#
#
# Elastic Constant Matrix: (Units=GPa)
#
#
# Indices 1 2 3 4 5 6 
#
# 1 88.7873 25.1883 23.1823 0.0000 7.0100 0.0000
# 2 25.1883 69.3942 26.1797 0.0000 0.4641 0.0000
# 3 23.1823 26.1797 82.2785 0.0000 1.5632 0.0000
# 4 0.0000 0.0000 0.0000 24.3112 0.0000 -1.3003
# 5 7.0100 0.4641 1.5632 0.0000 19.2667 0.0000
# 6 0.0000 0.0000 0.0000 -1.3003 0.0000 25.0566
#
#
#
# Elastic Compliance Matrix: (Units=1/GPa)
#
#
# Indices 1 2 3 4 5 6 
#
# 1 0.013367 -0.003902 -0.002438 0.000000 -0.004572 0.000000
# 2 -0.003902 0.017515 -0.004500 0.000000 0.001363 0.000000
# 3 -0.002438 -0.004500 0.014276 0.000000 -0.000163 0.000000
# 4 0.000000 0.000000 0.000000 0.041248 0.000000 0.002140
# 5 -0.004572 0.001363 -0.000163 0.000000 0.053547 0.000000
# 6 0.000000 0.000000 0.000000 0.002140 0.000000 0.040021
#
#
# Mechanical properties :
#
#
# Convention : Reuss Voigt Hill
#
# Bulk Modulus (GPa) = 42.59049 43.28449 42.93749
# Shear Modulus (GPa) = 23.86887 24.78757 24.32822
#
# Velocity S-wave (km/s) = 3.71896 3.78985 3.75457
# Velocity P-wave (km/s) = 6.56656 6.65068 6.60875
#
# Compressibility (1/GPa) = 0.02347942
#
# Stress axis : x y z
#
# Youngs Moduli (GPa) = 74.80973 57.09386 70.04986
#
# Poissons Ratio (x) = 0.22276 0.17078
# Poissons Ratio (y) = 0.29188 0.31520
# Poissons Ratio (z) = 0.18238 0.25690
#
# Static dielectric constant tensor:
#      x y z
#    x 3.086540 0.000000 0.067970 
#    y 0.000000 3.279600 0.000000 
#    z 0.067970 0.000000 3.257780 
# 
# 
# High freq. dielectric constant tensor:
#      x y z
#    x 1.652360 0.000000 -0.000810 
#    y 0.000000 1.661920 0.000000 
#    z -0.000810 0.000000 1.654890 
# 
# From -- ./inp_files/292283.got.cif
#   From: 2010.06.25/outbox.cif.g09.slc.cpg/sg15_147_cif.got.tgz:292283.got - 2010.06.28 07:06:18.
