data_PCOD8136952
_publ_section_title
;
Structure prediction by ZEFSAII (Michael W. Deem and Ramdas Pophale) SiO2 
 PCOD8136952
Probable space group: C 2/C
;
_chemical_formula_sum "Si O2"
_cell_formula_units_Z 60
_cell_length_a 21.325180
_cell_length_b 8.470958
_cell_length_c 23.828864
_cell_angle_alpha 90.000000
_cell_angle_beta 41.780809
_cell_angle_gamma 90.000000
_cell_volume 2868.052750
_symmetry_space_group_name_H-M "C 2/C"
_symmetry_group_IT_number 15
_symmetry_cell_setting 'monoclinic'
loop_
_space_group_symop_operation_xyz
x,y,z
-x,y,1/2-z
-x,-y,-z
x,-y,1/2+z
1/2+x,1/2+y,z
1/2-x,1/2+y,1/2-z
1/2-x,1/2-y,-z
1/2+x,1/2-y,1/2+z
loop_
_atom_site_type_symbol
_atom_site_label
_atom_site_fract_x
_atom_site_fract_y
_atom_site_fract_z
Si Si1 0.367162 0.587434 0.153549
Si Si2 0.568060 0.223460 0.989734
Si Si3 0.000000 0.990979 0.750000
Si Si4 0.775663 0.667775 0.791361
Si Si5 0.037805 0.058074 0.604958
Si Si6 0.114975 0.395992 0.938514
Si Si7 0.862969 0.732354 0.964507
Si Si8 0.155487 0.260798 0.142442
O O1 0.273778 0.484712 0.202165
O O2 0.342402 0.751627 0.200814
O O3 0.438845 0.484916 0.141903
O O4 0.416565 0.628807 0.061752
O O5 0.579873 0.288797 0.045204
O O6 0.465198 0.144491 0.052917
O O7 0.640611 0.082266 0.926392
O O8 0.910183 0.883152 0.794240
O O9 0.980299 0.099821 0.817567
O O10 0.706405 0.804413 0.858296
O O11 0.832772 0.623458 0.811112
O O12 0.114073 0.918560 0.550990
O O13 0.075791 0.345226 0.026636
O O14 0.888581 0.659990 0.885353
O O15 0.755165 0.695840 0.052942
#
# Coordination Sequence:
#
# PCOD8136952 Si02
#       8
#     8   8   4   8   8   8   8   8
#     4  12  22  37  59  89 120 159 194 248 302 358
#     4  11  21  35  58  88 118 152 195 235 300 353
#     4  10  20  36  62  86 118 158 206 240 300 350
#     4  11  22  37  57  85 123 153 196 250 300 354
#     4  11  20  37  61  88 115 156 200 248 291 357
#     4  10  20  35  57  86 119 154 190 243 290 356
#     4   9  18  34  59  81 113 147 200 243 286 343
#     4   9  18  33  56  86 108 151 197 246 282 350
#
# _framework density 20.920117999999999
#
# number of rings (size 3 to 8) (size 9 to 14) (size 15 to 20)
#    0.000    1.600    4.000    2.800    0.000    0.000 
#    0.000    0.000    2.933   21.600    0.000    0.000 
#    0.000    0.000    0.000    0.000    0.000    0.000 
#
# Total GULP energy -371726.458626 kJ/mol
# GULP energy per Si atom -12390.881954 kJ/mol
# Density = 2.087250 g / cm^3
# Si number density = 20.920118 Si / 1000 Ang^3
#
#
#
# Elastic Constant Matrix: (Units=GPa)
#
#
# Indices 1 2 3 4 5 6 
#
# 1 85.5998 21.4136 25.1422 -0.0002 24.9623 -0.0008
# 2 21.4136 62.7080 21.0764 -0.0003 8.3600 -0.0018
# 3 25.1422 21.0764 71.0729 -0.0001 20.4236 -0.0002
# 4 -0.0002 -0.0003 -0.0001 27.3049 0.0000 1.9615
# 5 24.9623 8.3600 20.4236 0.0000 38.2443 -0.0001
# 6 -0.0008 -0.0018 -0.0002 1.9615 -0.0001 24.0259
#
#
#
# Elastic Compliance Matrix: (Units=1/GPa)
#
#
# Indices 1 2 3 4 5 6 
#
# 1 0.015595 -0.003517 -0.002090 0.000000 -0.008294 0.000000
# 2 -0.003517 0.018557 -0.004433 0.000000 0.000607 0.000001
# 3 -0.002090 -0.004433 0.018255 0.000000 -0.007415 0.000000
# 4 0.000000 0.000000 0.000000 0.036840 0.000000 -0.003008
# 5 -0.008294 0.000607 -0.007415 0.000000 0.035388 0.000000
# 6 0.000000 0.000001 0.000000 -0.003008 0.000000 0.041867
#
#
# Mechanical properties :
#
#
# Convention : Reuss Voigt Hill
#
# Bulk Modulus (GPa) = 30.93532 39.40501 35.17017
# Shear Modulus (GPa) = 25.33464 28.03158 26.68311
#
# Velocity S-wave (km/s) = 3.48374 3.66448 3.57526
# Velocity P-wave (km/s) = 5.56789 6.06477 5.82163
#
# Compressibility (1/GPa) = 0.03232551
#
# Stress axis : x y z
#
# Youngs Moduli (GPa) = 64.12473 53.88788 54.77938
#
# Poissons Ratio (x) = 0.18952 0.11451
# Poissons Ratio (y) = 0.22553 0.24285
# Poissons Ratio (z) = 0.13405 0.23889
#
# Static dielectric constant tensor:
#      x y z
#    x 4.440280 0.000000 0.389250 
#    y 0.000000 3.469080 0.000000 
#    z 0.389250 0.000000 3.862060 
# 
# 
# High freq. dielectric constant tensor:
#      x y z
#    x 1.831510 0.000000 0.019250 
#    y 0.000000 1.770680 0.000000 
#    z 0.019250 0.000000 1.824050 
# 
# From -- ./inp_files/279688.got.cif
#   From: 2010.06.25/outbox.cif.g09.slc.cpg/sg15_140_cif.got.tgz:279688.got - 2010.06.28 07:06:18.
