data_PCOD8136198
_publ_section_title
;
Structure prediction by ZEFSAII (Michael W. Deem and Ramdas Pophale) SiO2 
 PCOD8136198
Probable space group: C 2/C
;
_chemical_formula_sum "Si O2"
_cell_formula_units_Z 48
_cell_length_a 11.217994
_cell_length_b 17.328686
_cell_length_c 11.925114
_cell_angle_alpha 90.000000
_cell_angle_beta 91.983601
_cell_angle_gamma 90.000000
_cell_volume 2316.770726
_symmetry_space_group_name_H-M "C 2/C"
_symmetry_group_IT_number 15
_symmetry_cell_setting 'monoclinic'
loop_
_space_group_symop_operation_xyz
x,y,z
-x,y,1/2-z
-x,-y,-z
x,-y,1/2+z
1/2+x,1/2+y,z
1/2-x,1/2+y,1/2-z
1/2-x,1/2-y,-z
1/2+x,1/2-y,1/2+z
loop_
_atom_site_type_symbol
_atom_site_label
_atom_site_fract_x
_atom_site_fract_y
_atom_site_fract_z
Si Si1 0.451924 0.108702 0.964231
Si Si2 0.800524 0.615548 0.620501
Si Si3 0.860247 0.996843 0.493095
Si Si4 0.219866 0.380780 0.845947
Si Si5 0.870496 0.264577 0.286132
Si Si6 0.687219 0.000542 0.676497
O O1 0.594151 0.115554 0.968865
O O2 0.390662 0.169328 0.878024
O O3 0.414951 0.022156 0.918702
O O4 0.400268 0.127484 0.085009
O O5 0.681474 0.588762 0.551107
O O6 0.795516 0.699615 0.678341
O O7 0.831381 0.554027 0.716871
O O8 0.812546 0.061073 0.406812
O O9 0.813793 0.012828 0.617639
O O10 0.000000 0.000000 0.500000
O O11 0.288314 0.300629 0.836228
O O12 0.180571 0.412834 0.722222
O O13 0.000000 0.232670 0.250000
#
# Coordination Sequence:
#
# PCOD8136198 Si02
#       6
#     8   8   8   8   8   8
#     4   9  18  35  55  85 111 142 187 237 287 326
#     4   9  19  36  57  82 113 148 181 237 280 332
#     4  10  22  36  54  86 113 148 188 230 281 337
#     4  10  20  32  57  84 111 151 187 234 273 346
#     4   9  18  33  57  82 111 153 193 227 281 338
#     4   9  19  32  53  84 107 144 182 233 282 331
#
# _framework density 20.718495000000001
#
# number of rings (size 3 to 8) (size 9 to 14) (size 15 to 20)
#    0.000    2.667    0.000    2.000    2.333    9.333 
#    0.000    0.833    0.000    0.000   47.667    0.000 
#    0.000    0.000    0.000    0.000    0.000    0.000 
#
# Total GULP energy -297449.329723 kJ/mol
# GULP energy per Si atom -12393.722072 kJ/mol
# Density = 2.067134 g / cm^3
# Si number density = 20.718495 Si / 1000 Ang^3
#
#
#
# Elastic Constant Matrix: (Units=GPa)
#
#
# Indices 1 2 3 4 5 6 
#
# 1 134.2332 38.5763 57.4836 0.0000 -16.8828 0.0000
# 2 38.5763 78.5550 34.7519 0.0000 -3.6608 0.0000
# 3 57.4836 34.7519 76.1378 0.0000 -16.3101 0.0000
# 4 0.0000 0.0000 0.0000 27.8244 0.0000 -6.2573
# 5 -16.8828 -3.6608 -16.3101 0.0000 26.4554 0.0000
# 6 0.0000 0.0000 0.0000 -6.2573 0.0000 25.6116
#
#
#
# Elastic Compliance Matrix: (Units=1/GPa)
#
#
# Indices 1 2 3 4 5 6 
#
# 1 0.011473 -0.002420 -0.006983 0.000000 0.002682 0.000000
# 2 -0.002420 0.016621 -0.006449 0.000000 -0.003220 0.000000
# 3 -0.006983 -0.006449 0.023278 0.000000 0.009003 0.000000
# 4 0.000000 0.000000 0.000000 0.038029 0.000000 0.009291
# 5 0.002682 -0.003220 0.009003 0.000000 0.044615 0.000000
# 6 0.000000 0.000000 0.000000 0.009291 0.000000 0.041315
#
#
# Mechanical properties :
#
#
# Convention : Reuss Voigt Hill
#
# Bulk Modulus (GPa) = 50.84371 61.17218 56.00795
# Shear Modulus (GPa) = 23.40909 26.51925 24.96417
#
# Velocity S-wave (km/s) = 3.36499 3.58156 3.47496
# Velocity P-wave (km/s) = 6.30009 6.83322 6.57206
#
# Compressibility (1/GPa) = 0.01966812
#
# Stress axis : x y z
#
# Youngs Moduli (GPa) = 87.16309 60.16367 42.95817
#
# Poissons Ratio (x) = 0.14559 0.29997
# Poissons Ratio (y) = 0.21092 0.27706
# Poissons Ratio (z) = 0.60865 0.38802
#
# Static dielectric constant tensor:
#      x y z
#    x 3.523000 0.000000 -0.154960 
#    y 0.000000 3.856180 0.000000 
#    z -0.154960 0.000000 4.007890 
# 
# 
# High freq. dielectric constant tensor:
#      x y z
#    x 1.792020 0.000000 -0.019910 
#    y 0.000000 1.794640 0.000000 
#    z -0.019910 0.000000 1.822450 
# 
# From -- ./inp_files/87267.got.cif
#   From: 2010.06.25/outbox.cif.g09.slc.cpg/sg15_44_cif.got.tgz:87267.got - 2010.06.28 07:06:18.
