data_PCOD8136701
_publ_section_title
;
Structure prediction by ZEFSAII (Michael W. Deem and Ramdas Pophale) SiO2 
 PCOD8136701
Probable space group: C 2/C
;
_chemical_formula_sum "Si O2"
_cell_formula_units_Z 52
_cell_length_a 22.533190
_cell_length_b 8.930117
_cell_length_c 19.701528
_cell_angle_alpha 90.000000
_cell_angle_beta 36.762507
_cell_angle_gamma 90.000000
_cell_volume 2372.703785
_symmetry_space_group_name_H-M "C 2/C"
_symmetry_group_IT_number 15
_symmetry_cell_setting 'monoclinic'
loop_
_space_group_symop_operation_xyz
x,y,z
-x,y,1/2-z
-x,-y,-z
x,-y,1/2+z
1/2+x,1/2+y,z
1/2-x,1/2+y,1/2-z
1/2-x,1/2-y,-z
1/2+x,1/2-y,1/2+z
loop_
_atom_site_type_symbol
_atom_site_label
_atom_site_fract_x
_atom_site_fract_y
_atom_site_fract_z
Si Si1 0.350685 0.459417 0.549029
Si Si2 0.950174 0.945811 0.197880
Si Si3 0.164812 0.713792 0.379780
Si Si4 0.868279 0.360795 0.746221
Si Si5 0.615025 0.333493 0.844606
Si Si6 0.000000 0.181171 0.250000
Si Si7 0.478357 0.114923 0.892766
O O1 0.428327 0.432402 0.416147
O O2 0.370014 0.621994 0.564244
O O3 0.236120 0.430327 0.631787
O O4 0.378719 0.336814 0.580072
O O5 0.893934 0.790721 0.264220
O O6 0.914090 0.003507 0.157629
O O7 0.923509 0.069696 0.280378
O O8 0.132463 0.670158 0.333397
O O9 0.281196 0.713463 0.282331
O O10 0.122587 0.588399 0.471881
O O11 0.959403 0.468774 0.683046
O O12 0.539059 0.207504 0.893068
O O13 0.949780 0.289070 0.351910
#
# Coordination Sequence:
#
# PCOD8136701 Si02
#       7
#     8   8   8   8   8   4   8
#     4  11  20  37  63  92 126 161 191 251 319 370
#     4  11  22  42  61  85 124 168 203 249 304 351
#     4  11  20  36  63  95 127 155 197 249 318 381
#     4  11  24  36  63  98 123 152 201 263 307 371
#     4  10  20  34  60  88 121 158 195 235 311 381
#     4  10  24  42  66  80 118 176 220 240 290 368
#     4  11  22  40  59  90 122 163 207 252 299 355
#
# _framework density 21.915925999999999
#
# number of rings (size 3 to 8) (size 9 to 14) (size 15 to 20)
#    0.000    1.231    6.154    1.846    0.000    1.846 
#    0.000    7.692    0.000    0.000    0.000    0.000 
#    0.000    0.000    0.000    0.000    0.000    0.000 
#
# Total GULP energy -322188.803217 kJ/mol
# GULP energy per Si atom -12391.877047 kJ/mol
# Density = 2.186604 g / cm^3
# Si number density = 21.915926 Si / 1000 Ang^3
#
#
#
# Elastic Constant Matrix: (Units=GPa)
#
#
# Indices 1 2 3 4 5 6 
#
# 1 48.5484 15.3881 24.0060 -0.0016 7.5537 0.0010
# 2 15.3881 84.6780 -3.9716 -0.0053 -0.1440 0.0044
# 3 24.0060 -3.9716 62.6701 -0.0035 4.3179 0.0029
# 4 -0.0016 -0.0053 -0.0035 27.7191 0.0009 -2.4779
# 5 7.5537 -0.1440 4.3179 0.0009 12.3232 -0.0006
# 6 0.0010 0.0044 0.0029 -2.4779 -0.0006 25.8493
#
#
#
# Elastic Compliance Matrix: (Units=1/GPa)
#
#
# Indices 1 2 3 4 5 6 
#
# 1 0.030214 -0.006029 -0.010939 0.000000 -0.014758 0.000001
# 2 -0.006029 0.013048 0.002942 0.000002 0.002817 -0.000002
# 3 -0.010939 0.002942 0.020360 0.000002 -0.000395 -0.000002
# 4 0.000000 0.000002 0.000002 0.036388 -0.000003 0.003488
# 5 -0.014758 0.002817 -0.000395 -0.000003 0.090365 0.000002
# 6 0.000001 -0.000002 -0.000002 0.003488 0.000002 0.039020
#
#
# Mechanical properties :
#
#
# Convention : Reuss Voigt Hill
#
# Bulk Modulus (GPa) = 28.11260 29.63793 28.87526
# Shear Modulus (GPa) = 18.56643 23.87660 21.22151
#
# Velocity S-wave (km/s) = 2.91377 3.30428 3.11515
# Velocity P-wave (km/s) = 4.91685 5.30194 5.11302
#
# Compressibility (1/GPa) = 0.03557124
#
# Stress axis : x y z
#
# Youngs Moduli (GPa) = 33.09713 76.64118 49.11494
#
# Poissons Ratio (x) = 0.46205 0.53726
# Poissons Ratio (y) = 0.19954 -0.14450
# Poissons Ratio (z) = 0.36205 -0.22549
#
# Static dielectric constant tensor:
#      x y z
#    x 3.753950 0.000000 -0.129240 
#    y 0.000000 3.967810 0.000000 
#    z -0.129240 0.000000 4.065630 
# 
# 
# High freq. dielectric constant tensor:
#      x y z
#    x 1.835780 0.000000 -0.006740 
#    y 0.000000 1.858950 0.000000 
#    z -0.006740 0.000000 1.856970 
# 
# From -- ./inp_files/176130.got.cif
#   From: 2010.06.25/outbox.cif.g09.slc.cpg/sg15_89_cif.got.tgz:176130.got - 2010.06.28 07:06:18.
