data_PCOD8136326
_publ_section_title
;
Structure prediction by ZEFSAII (Michael W. Deem and Ramdas Pophale) SiO2 
 PCOD8136326
Probable space group: C 2/C
;
_chemical_formula_sum "Si O2"
_cell_formula_units_Z 56
_cell_length_a 5.841033
_cell_length_b 23.758783
_cell_length_c 23.926195
_cell_angle_alpha 90.000000
_cell_angle_beta 68.020945
_cell_angle_gamma 90.000000
_cell_volume 3079.055087
_symmetry_space_group_name_H-M "C 2/C"
_symmetry_group_IT_number 15
_symmetry_cell_setting 'monoclinic'
loop_
_space_group_symop_operation_xyz
x,y,z
-x,y,1/2-z
-x,-y,-z
x,-y,1/2+z
1/2+x,1/2+y,z
1/2-x,1/2+y,1/2-z
1/2-x,1/2-y,-z
1/2+x,1/2-y,1/2+z
loop_
_atom_site_type_symbol
_atom_site_label
_atom_site_fract_x
_atom_site_fract_y
_atom_site_fract_z
Si Si1 0.199767 0.816938 0.782401
Si Si2 0.126605 0.915203 0.008608
Si Si3 0.380886 0.287188 0.906189
Si Si4 0.044405 0.977519 0.580150
Si Si5 0.350827 0.929496 0.814206
Si Si6 0.976432 0.792789 0.483391
Si Si7 0.608600 0.897296 0.895647
O O1 0.500000 0.804455 0.750000
O O2 0.166733 0.882070 0.805209
O O3 0.000000 0.806851 0.750000
O O4 0.100614 0.776371 0.841573
O O5 0.058000 0.854331 0.040706
O O6 0.124243 0.958697 0.060625
O O7 0.393279 0.910105 0.958470
O O8 0.943192 0.939640 0.977475
O O9 0.208669 0.336009 0.898968
O O10 0.219678 0.231366 0.931395
O O11 0.495494 0.306766 0.953978
O O12 0.211917 0.949796 0.611959
O O13 0.776120 0.976347 0.634836
O O14 0.500000 0.959256 0.750000
O O15 0.537835 0.894914 0.836942
O O16 0.750000 0.750000 0.500000
#
# Coordination Sequence:
#
# PCOD8136326 Si02
#       7
#     8   8   8   8   8   8   8
#     4  11  23  37  60  87 123 157 193 249 302 358
#     4  10  20  35  51  83 110 152 192 227 297 344
#     4  11  21  35  55  87 114 154 191 243 301 350
#     4  10  20  33  55  76 116 146 186 240 283 352
#     4  10  21  32  53  85 111 148 185 239 298 346
#     4  11  22  34  57  81 120 154 191 245 291 359
#     4  11  18  34  54  81 121 146 187 239 294 356
#
# _framework density 18.187398999999999
#
# number of rings (size 3 to 8) (size 9 to 14) (size 15 to 20)
#    0.000    1.429    4.286    3.000    2.000    0.000 
#    0.000    0.000    0.000    0.857    0.000    0.000 
#    0.000    0.000    0.000    0.000    0.000    0.000 
#
# Total GULP energy -346907.477922 kJ/mol
# GULP energy per Si atom -12389.552783 kJ/mol
# Density = 1.814600 g / cm^3
# Si number density = 18.187399 Si / 1000 Ang^3
#
#
#
# Elastic Constant Matrix: (Units=GPa)
#
#
# Indices 1 2 3 4 5 6 
#
# 1 73.6709 19.4767 29.3866 0.0000 2.5639 0.0000
# 2 19.4767 102.1663 37.1644 0.0000 -3.2659 0.0000
# 3 29.3866 37.1644 113.3489 0.0000 -9.0573 0.0000
# 4 0.0000 0.0000 0.0000 20.9894 0.0000 4.0591
# 5 2.5639 -3.2659 -9.0573 0.0000 25.7385 0.0000
# 6 0.0000 0.0000 0.0000 4.0591 0.0000 8.9796
#
#
#
# Elastic Compliance Matrix: (Units=1/GPa)
#
#
# Indices 1 2 3 4 5 6 
#
# 1 0.015625 -0.001719 -0.003734 0.000000 -0.003089 0.000000
# 2 -0.001719 0.011303 -0.003223 0.000000 0.000471 0.000000
# 3 -0.003734 -0.003223 0.011158 0.000000 0.003889 0.000000
# 4 0.000000 0.000000 0.000000 0.052207 0.000000 -0.023599
# 5 -0.003089 0.000471 0.003889 0.000000 0.040589 0.000000
# 6 0.000000 0.000000 0.000000 -0.023599 0.000000 0.122031
#
#
# Mechanical properties :
#
#
# Convention : Reuss Voigt Hill
#
# Bulk Modulus (GPa) = 48.22899 51.24904 49.73902
# Shear Modulus (GPa) = 18.03911 24.68541 21.36226
#
# Velocity S-wave (km/s) = 3.15278 3.68813 3.43091
# Velocity P-wave (km/s) = 6.31100 6.80998 6.56523
#
# Compressibility (1/GPa) = 0.02073442
#
# Stress axis : x y z
#
# Youngs Moduli (GPa) = 63.99842 88.47176 89.62320
#
# Poissons Ratio (x) = 0.15210 0.33466
# Poissons Ratio (y) = 0.11002 0.28882
# Poissons Ratio (z) = 0.23898 0.28511
#
# Static dielectric constant tensor:
#      x y z
#    x 3.635240 0.000000 -0.059560 
#    y 0.000000 3.165210 0.000000 
#    z -0.059560 0.000000 3.601040 
# 
# 
# High freq. dielectric constant tensor:
#      x y z
#    x 1.718490 0.000000 -0.004730 
#    y 0.000000 1.666670 0.000000 
#    z -0.004730 0.000000 1.703360 
# 
# From -- ./inp_files/227911.got.cif
#   From: 2010.06.25/outbox.cif.g09.slc.cpg/sg15_114_cif.got.tgz:227911.got - 2010.06.28 07:06:18.
