data_PCOD8136017
_publ_section_title
;
Structure prediction by ZEFSAII (Michael W. Deem and Ramdas Pophale) SiO2 
 PCOD8136017
Probable space group: C 2/C
;
_chemical_formula_sum "Si O2"
_cell_formula_units_Z 60
_cell_length_a 23.955237
_cell_length_b 21.100977
_cell_length_c 8.487811
_cell_angle_alpha 90.000000
_cell_angle_beta 140.069595
_cell_angle_gamma 90.000000
_cell_volume 2753.827814
_symmetry_space_group_name_H-M "C 2/C"
_symmetry_group_IT_number 15
_symmetry_cell_setting 'monoclinic'
loop_
_space_group_symop_operation_xyz
x,y,z
-x,y,1/2-z
-x,-y,-z
x,-y,1/2+z
1/2+x,1/2+y,z
1/2-x,1/2+y,1/2-z
1/2-x,1/2-y,-z
1/2+x,1/2-y,1/2+z
loop_
_atom_site_type_symbol
_atom_site_label
_atom_site_fract_x
_atom_site_fract_y
_atom_site_fract_z
Si Si1 0.597015 0.945301 0.490007
Si Si2 0.476311 0.603441 0.869601
Si Si3 0.915861 0.027636 0.174638
Si Si4 0.000000 0.638948 0.250000
Si Si5 0.221164 0.879670 0.189607
Si Si6 0.356407 0.929668 0.256749
Si Si7 0.870721 0.667826 0.221644
Si Si8 0.087334 0.792399 0.024487
O O1 0.500000 0.971754 0.250000
O O2 0.647987 0.928551 0.440420
O O3 0.586345 0.882368 0.568916
O O4 0.653190 0.998368 0.702073
O O5 0.500000 0.632569 0.750000
O O6 0.405631 0.546129 0.698123
O O7 0.434585 0.657253 0.887016
O O8 0.565159 0.571905 0.131105
O O9 0.000000 0.038611 0.250000
O O10 0.829361 0.053041 0.899501
O O11 0.933888 0.681433 0.209292
O O12 0.051204 0.595405 0.483858
O O13 0.279323 0.884982 0.157767
O O14 0.279896 0.862628 0.468157
O O15 0.148353 0.824316 0.022639
O O16 0.859149 0.734067 0.286282
O O17 0.000000 0.768031 0.750000
#
# Coordination Sequence:
#
# PCOD8136017 Si02
#       8
#     8   8   8   4   8   8   8   8
#     4  12  22  44  66 100 133 178 233 278 355 423
#     4  10  21  37  69 100 123 175 238 275 335 405
#     4  10  19  42  67  94 134 178 218 285 348 412
#     4  10  20  42  64  96 128 178 224 286 340 414
#     4  11  23  45  63  99 138 175 220 286 349 398
#     4  11  23  38  69  96 135 172 220 297 353 404
#     4  11  26  41  71  97 136 184 232 278 345 416
#     4  12  24  47  69  93 139 194 231 281 339 413
#
# _framework density 21.787853999999999
#
# number of rings (size 3 to 8) (size 9 to 14) (size 15 to 20)
#    0.000    1.067    4.667    2.800    0.933    2.133 
#    2.400    0.667    0.000    0.000    0.000    0.000 
#    0.000    0.000    0.000    0.000    0.000    0.000 
#
# Total GULP energy -371923.923066 kJ/mol
# GULP energy per Si atom -12397.464102 kJ/mol
# Density = 2.173826 g / cm^3
# Si number density = 21.787854 Si / 1000 Ang^3
#
#
#
# Elastic Constant Matrix: (Units=GPa)
#
#
# Indices 1 2 3 4 5 6 
#
# 1 114.4386 30.5821 35.7854 0.0000 -6.6200 0.0000
# 2 30.5821 104.9181 37.9116 0.0000 -0.1280 0.0000
# 3 35.7854 37.9116 91.3641 0.0000 5.6335 0.0000
# 4 0.0000 0.0000 0.0000 36.5000 0.0000 -5.6799
# 5 -6.6200 -0.1280 5.6335 0.0000 33.5248 0.0000
# 6 0.0000 0.0000 0.0000 -5.6799 0.0000 21.7843
#
#
#
# Elastic Compliance Matrix: (Units=1/GPa)
#
#
# Indices 1 2 3 4 5 6 
#
# 1 0.010469 -0.001773 -0.003528 0.000000 0.002653 0.000000
# 2 -0.001773 0.011536 -0.004116 0.000000 0.000386 0.000000
# 3 -0.003528 -0.004116 0.014226 0.000000 -0.003103 0.000000
# 4 0.000000 0.000000 0.000000 0.028556 0.000000 0.007446
# 5 0.002653 0.000386 -0.003103 0.000000 0.030876 0.000000
# 6 0.000000 0.000000 0.000000 0.007446 0.000000 0.047846
#
#
# Mechanical properties :
#
#
# Convention : Reuss Voigt Hill
#
# Bulk Modulus (GPa) = 57.48420 57.69765 57.59093
# Shear Modulus (GPa) = 29.73665 32.12460 30.93062
#
# Velocity S-wave (km/s) = 3.69836 3.84399 3.77188
# Velocity P-wave (km/s) = 6.68417 6.80006 6.74236
#
# Compressibility (1/GPa) = 0.01739608
#
# Stress axis : x y z
#
# Youngs Moduli (GPa) = 95.51999 86.68567 70.29180
#
# Poissons Ratio (x) = 0.15373 0.24800
# Poissons Ratio (y) = 0.16940 0.28932
# Poissons Ratio (z) = 0.33701 0.35680
#
# Static dielectric constant tensor:
#      x y z
#    x 3.922870 0.000000 -0.092240 
#    y 0.000000 3.794700 0.000000 
#    z -0.092240 0.000000 4.002320 
# 
# 
# High freq. dielectric constant tensor:
#      x y z
#    x 1.855090 0.000000 -0.005120 
#    y 0.000000 1.840320 0.000000 
#    z -0.005120 0.000000 1.850530 
# 
# From -- ./inp_files/63527.got.cif
#   From: 2010.06.25/outbox.cif.g09.slc.cpg/sg15_32_cif.got.tgz:63527.got - 2010.06.28 07:06:18.
