data_PCOD8136972
_publ_section_title
;
Structure prediction by ZEFSAII (Michael W. Deem and Ramdas Pophale) SiO2 
 PCOD8136972
Probable space group: C 2/C
;
_chemical_formula_sum "Si O2"
_cell_formula_units_Z 52
_cell_length_a 11.027874
_cell_length_b 9.481419
_cell_length_c 25.911220
_cell_angle_alpha 90.000000
_cell_angle_beta 105.248313
_cell_angle_gamma 90.000000
_cell_volume 2613.894597
_symmetry_space_group_name_H-M "C 2/C"
_symmetry_group_IT_number 15
_symmetry_cell_setting 'monoclinic'
loop_
_space_group_symop_operation_xyz
x,y,z
-x,y,1/2-z
-x,-y,-z
x,-y,1/2+z
1/2+x,1/2+y,z
1/2-x,1/2+y,1/2-z
1/2-x,1/2-y,-z
1/2+x,1/2-y,1/2+z
loop_
_atom_site_type_symbol
_atom_site_label
_atom_site_fract_x
_atom_site_fract_y
_atom_site_fract_z
Si Si1 0.000000 0.439495 0.750000
Si Si2 0.901096 0.234635 0.565264
Si Si3 0.787384 0.326393 0.658244
Si Si4 0.165198 0.638604 0.098221
Si Si5 0.187818 0.603449 0.894014
Si Si6 0.731831 0.017320 0.504619
Si Si7 0.404897 0.094638 0.836238
O O1 0.097936 0.334106 0.788444
O O2 0.073641 0.545185 0.719885
O O3 0.828273 0.245739 0.611236
O O4 0.866865 0.080646 0.538178
O O5 0.858775 0.353710 0.520134
O O6 0.047845 0.255057 0.591229
O O7 0.754456 0.487936 0.639065
O O8 0.667823 0.244905 0.669785
O O9 0.284171 0.739104 0.121500
O O10 0.177551 0.522048 0.143819
O O11 0.165005 0.569697 0.042016
O O12 0.250187 0.582970 0.957336
O O13 0.037174 0.593936 0.881381
#
# Coordination Sequence:
#
# PCOD8136972 Si02
#       7
#     4   8   8   8   8   8   8
#     4  10  22  42  64  92 108 150 208 252 316 354
#     4  10  20  35  62  89 121 166 204 237 298 357
#     4  10  21  44  63  87 121 156 194 256 306 358
#     4  12  21  37  63  88 126 163 199 245 293 352
#     4  10  24  38  59  95 126 160 202 239 293 363
#     4  10  20  35  57  94 125 164 205 235 290 354
#     4  11  23  43  65  86 122 156 197 257 305 360
#
# _framework density 19.893687
#
# number of rings (size 3 to 8) (size 9 to 14) (size 15 to 20)
#    0.000    1.538    6.154    0.923    0.000    4.308 
#    0.000    0.000    0.000    0.000    0.000    0.000 
#    0.000    0.000    0.000    0.000    0.000    0.000 
#
# Total GULP energy -322351.320527 kJ/mol
# GULP energy per Si atom -12398.127713 kJ/mol
# Density = 1.984841 g / cm^3
# Si number density = 19.893687 Si / 1000 Ang^3
#
#
#
# Elastic Constant Matrix: (Units=GPa)
#
#
# Indices 1 2 3 4 5 6 
#
# 1 58.1864 55.5640 25.6498 0.0000 -6.1497 0.0000
# 2 55.5640 101.9940 51.5607 0.0000 -14.5549 0.0000
# 3 25.6498 51.5607 102.4958 0.0000 1.0781 0.0000
# 4 0.0000 0.0000 0.0000 9.9365 0.0000 -6.9610
# 5 -6.1497 -14.5549 1.0781 0.0000 14.0274 0.0000
# 6 0.0000 0.0000 0.0000 -6.9610 0.0000 45.5391
#
#
#
# Elastic Compliance Matrix: (Units=1/GPa)
#
#
# Indices 1 2 3 4 5 6 
#
# 1 0.036420 -0.021772 0.001910 0.000000 -0.006771 0.000000
# 2 -0.021772 0.029740 -0.009744 0.000000 0.022062 0.000000
# 3 0.001910 -0.009744 0.014290 0.000000 -0.010372 0.000000
# 4 0.000000 0.000000 0.000000 0.112708 0.000000 0.017228
# 5 -0.006771 0.022062 -0.010372 0.000000 0.092010 0.000000
# 6 0.000000 0.000000 0.000000 0.017228 0.000000 0.024593
#
#
# Mechanical properties :
#
#
# Convention : Reuss Voigt Hill
#
# Bulk Modulus (GPa) = 47.09095 58.69170 52.89132
# Shear Modulus (GPa) = 13.29603 22.56071 17.92837
#
# Velocity S-wave (km/s) = 2.58806 3.37124 3.00527
# Velocity P-wave (km/s) = 5.71432 6.68733 6.21988
#
# Compressibility (1/GPa) = 0.02123550
#
# Stress axis : x y z
#
# Youngs Moduli (GPa) = 27.45759 33.62479 69.98134
#
# Poissons Ratio (x) = 0.73209 -0.13365
# Poissons Ratio (y) = 0.59782 0.68191
# Poissons Ratio (z) = -0.05244 0.32765
#
# Static dielectric constant tensor:
#      x y z
#    x 3.441580 0.000000 -0.021560 
#    y 0.000000 3.600910 0.000000 
#    z -0.021560 0.000000 3.634680 
# 
# 
# High freq. dielectric constant tensor:
#      x y z
#    x 1.759220 0.000000 -0.003740 
#    y 0.000000 1.774260 0.000000 
#    z -0.003740 0.000000 1.775560 
# 
# From -- ./inp_files/291109.got.cif
#   From: 2010.06.25/outbox.cif.g09.slc.cpg/sg15_146_cif.got.tgz:291109.got - 2010.06.28 07:06:18.
