data_PCOD8136814
_publ_section_title
;
Structure prediction by ZEFSAII (Michael W. Deem and Ramdas Pophale) SiO2 
 PCOD8136814
Probable space group: C 2/C
;
_chemical_formula_sum "Si O2"
_cell_formula_units_Z 64
_cell_length_a 12.758151
_cell_length_b 16.054364
_cell_length_c 20.811418
_cell_angle_alpha 90.000000
_cell_angle_beta 129.939887
_cell_angle_gamma 90.000000
_cell_volume 3268.273629
_symmetry_space_group_name_H-M "C 2/C"
_symmetry_group_IT_number 15
_symmetry_cell_setting 'monoclinic'
loop_
_space_group_symop_operation_xyz
x,y,z
-x,y,1/2-z
-x,-y,-z
x,-y,1/2+z
1/2+x,1/2+y,z
1/2-x,1/2+y,1/2-z
1/2-x,1/2-y,-z
1/2+x,1/2-y,1/2+z
loop_
_atom_site_type_symbol
_atom_site_label
_atom_site_fract_x
_atom_site_fract_y
_atom_site_fract_z
Si Si1 0.696018 0.942904 0.198444
Si Si2 0.735563 0.403153 0.469720
Si Si3 0.898549 0.694998 0.932452
Si Si4 0.695775 0.831634 0.514683
Si Si5 0.680133 0.541574 0.623555
Si Si6 0.934298 0.123324 0.472242
Si Si7 0.400656 0.028539 0.611727
Si Si8 0.355579 0.460460 0.658647
O O1 0.665576 0.854276 0.153057
O O2 0.809663 0.930637 0.298266
O O3 0.562551 0.976283 0.182409
O O4 0.741962 0.013265 0.166199
O O5 0.807448 0.328711 0.458604
O O6 0.643062 0.369529 0.490484
O O7 0.860319 0.455123 0.547613
O O8 0.636967 0.462142 0.387947
O O9 0.893582 0.793951 0.917126
O O10 0.060233 0.677529 0.005839
O O11 0.750000 0.750000 0.500000
O O12 0.651420 0.885937 0.437484
O O13 0.811462 0.875518 0.604688
O O14 0.595972 0.613277 0.552176
O O15 0.600820 0.453903 0.587477
O O16 0.829653 0.524193 0.653099
O O17 0.500000 0.445395 0.750000
#
# Coordination Sequence:
#
# PCOD8136814 Si02
#       8
#     8   8   8   8   8   8   8   8
#     4  10  20  35  56  80 107 138 177 226 271 316
#     4   9  18  34  57  80 104 140 180 221 267 323
#     4  10  20  35  55  80 109 139 177 225 273 317
#     4  10  20  35  53  77 108 141 180 222 265 322
#     4  10  20  35  56  80 109 146 181 217 264 325
#     4  10  20  35  56  80 109 145 181 215 265 328
#     4   9  18  34  55  76 104 143 182 215 262 321
#     4  10  20  35  57  81 105 138 180 225 274 326
#
# _framework density 19.582203
#
# number of rings (size 3 to 8) (size 9 to 14) (size 15 to 20)
#    0.000    2.250    0.000    3.000    0.000    6.000 
#    0.000    8.750    0.000   12.000    0.000    0.000 
#    0.000    0.000    0.000    0.000    0.000    0.000 
#
# Total GULP energy -396565.346473 kJ/mol
# GULP energy per Si atom -12392.667077 kJ/mol
# Density = 1.953763 g / cm^3
# Si number density = 19.582203 Si / 1000 Ang^3
#
#
#
# Elastic Constant Matrix: (Units=GPa)
#
#
# Indices 1 2 3 4 5 6 
#
# 1 64.9605 26.7151 39.5048 0.0000 13.9294 0.0000
# 2 26.7151 111.2961 48.8964 0.0000 3.4915 0.0000
# 3 39.5048 48.8964 109.4605 0.0000 1.3426 0.0000
# 4 0.0000 0.0000 0.0000 17.8545 0.0000 -1.5997
# 5 13.9294 3.4915 1.3426 0.0000 23.9224 0.0000
# 6 0.0000 0.0000 0.0000 -1.5997 0.0000 24.6812
#
#
#
# Elastic Compliance Matrix: (Units=1/GPa)
#
#
# Indices 1 2 3 4 5 6 
#
# 1 0.023518 -0.001964 -0.007451 0.000000 -0.012989 0.000000
# 2 -0.001964 0.011387 -0.004374 0.000000 -0.000273 0.000000
# 3 -0.007451 -0.004374 0.013727 0.000000 0.004207 0.000000
# 4 0.000000 0.000000 0.000000 0.056335 0.000000 0.003651
# 5 -0.012989 -0.000273 0.004207 0.000000 0.049169 0.000000
# 6 0.000000 0.000000 0.000000 0.003651 0.000000 0.040753
#
#
# Mechanical properties :
#
#
# Convention : Reuss Voigt Hill
#
# Bulk Modulus (GPa) = 47.49878 57.32773 52.41325
# Shear Modulus (GPa) = 21.78773 24.66502 23.22637
#
# Velocity S-wave (km/s) = 3.33923 3.55288 3.44771
# Velocity P-wave (km/s) = 6.25907 6.79482 6.53244
#
# Compressibility (1/GPa) = 0.02105317
#
# Stress axis : x y z
#
# Youngs Moduli (GPa) = 42.52007 87.82041 72.84763
#
# Poissons Ratio (x) = 0.17250 0.54280
# Poissons Ratio (y) = 0.08352 0.31866
# Poissons Ratio (z) = 0.31682 0.38415
#
# Static dielectric constant tensor:
#      x y z
#    x 3.919590 0.000000 -0.043430 
#    y 0.000000 3.546010 0.000000 
#    z -0.043430 0.000000 3.495590 
# 
# 
# High freq. dielectric constant tensor:
#      x y z
#    x 1.780220 0.000000 0.002080 
#    y 0.000000 1.746560 0.000000 
#    z 0.002080 0.000000 1.749650 
# 
# From -- ./inp_files/239831.got.cif
#   From: 2010.06.25/outbox.cif.g09.slc.cpg/sg15_120_cif.got.tgz:239831.got - 2010.06.28 07:06:18.
