data_PCOD8136932
_publ_section_title
;
Structure prediction by ZEFSAII (Michael W. Deem and Ramdas Pophale) SiO2 
 PCOD8136932
Probable space group: C 2/C
;
_chemical_formula_sum "Si O2"
_cell_formula_units_Z 48
_cell_length_a 15.627821
_cell_length_b 9.785381
_cell_length_c 16.221991
_cell_angle_alpha 90.000000
_cell_angle_beta 64.873993
_cell_angle_gamma 90.000000
_cell_volume 2245.998066
_symmetry_space_group_name_H-M "C 2/C"
_symmetry_group_IT_number 15
_symmetry_cell_setting 'monoclinic'
loop_
_space_group_symop_operation_xyz
x,y,z
-x,y,1/2-z
-x,-y,-z
x,-y,1/2+z
1/2+x,1/2+y,z
1/2-x,1/2+y,1/2-z
1/2-x,1/2-y,-z
1/2+x,1/2-y,1/2+z
loop_
_atom_site_type_symbol
_atom_site_label
_atom_site_fract_x
_atom_site_fract_y
_atom_site_fract_z
Si Si1 0.837541 0.273472 0.549330
Si Si2 0.000000 0.348006 0.250000
Si Si3 0.819904 0.571318 0.907937
Si Si4 0.172081 0.803585 0.272535
Si Si5 0.994151 0.872096 0.887273
Si Si6 0.000000 0.906093 0.250000
Si Si7 0.194804 0.916047 0.851238
O O1 0.844552 0.418345 0.496422
O O2 0.729231 0.218378 0.591964
O O3 0.868007 0.283297 0.632317
O O4 0.903880 0.160073 0.479339
O O5 0.087959 0.443912 0.187752
O O6 0.025600 0.254525 0.317512
O O7 0.747893 0.449054 0.916014
O O8 0.089185 0.812091 0.238463
O O9 0.261685 0.722625 0.201414
O O10 0.208569 0.954750 0.283528
O O11 0.082995 0.899002 0.911675
O O12 0.970433 0.002633 0.840557
#
# Coordination Sequence:
#
# PCOD8136932 Si02
#       7
#     8   4   8   8   8   4   8
#     4   9  18  34  57  84 109 144 190 233 268 326
#     4   9  16  31  52  78 108 146 182 218 268 344
#     4   9  18  30  53  81 108 138 181 228 271 314
#     4  10  21  37  58  81 112 147 187 227 279 332
#     4   9  17  32  56  82 109 141 190 230 270 321
#     4   9  20  33  54  84 112 150 182 232 282 320
#     4  10  20  35  57  83 110 150 186 227 277 336
#
# _framework density 21.371345000000002
#
# number of rings (size 3 to 8) (size 9 to 14) (size 15 to 20)
#    0.000    2.667    0.000    2.000    0.000   12.000 
#    0.000    0.000    0.000   32.000    0.000    0.000 
#    0.000    0.000    0.000    0.000    0.000    0.000 
#
# Total GULP energy -297394.760490 kJ/mol
# GULP energy per Si atom -12391.448354 kJ/mol
# Density = 2.132270 g / cm^3
# Si number density = 21.371345 Si / 1000 Ang^3
#
#
#
# Elastic Constant Matrix: (Units=GPa)
#
#
# Indices 1 2 3 4 5 6 
#
# 1 135.7381 30.9417 46.0406 0.0000 3.6400 0.0000
# 2 30.9417 42.0902 0.0307 0.0000 4.0679 0.0000
# 3 46.0406 0.0307 68.6492 0.0000 -2.0410 0.0000
# 4 0.0000 0.0000 0.0000 8.5073 0.0000 -4.4603
# 5 3.6400 4.0679 -2.0410 0.0000 30.4140 0.0000
# 6 0.0000 0.0000 0.0000 -4.4603 0.0000 29.1035
#
#
#
# Elastic Compliance Matrix: (Units=1/GPa)
#
#
# Indices 1 2 3 4 5 6 
#
# 1 0.012194 -0.008879 -0.008198 0.000000 -0.000822 0.000000
# 2 -0.008879 0.030535 0.005863 0.000000 -0.002628 0.000000
# 3 -0.008198 0.005863 0.020109 0.000000 0.001546 0.000000
# 4 0.000000 0.000000 0.000000 0.127817 0.000000 0.019589
# 5 -0.000822 -0.002628 0.001546 0.000000 0.033433 0.000000
# 6 0.000000 0.000000 0.000000 0.019589 0.000000 0.037362
#
#
# Mechanical properties :
#
#
# Convention : Reuss Voigt Hill
#
# Bulk Modulus (GPa) = 24.74699 44.50042 34.62370
# Shear Modulus (GPa) = 16.81531 24.90260 20.85895
#
# Velocity S-wave (km/s) = 2.80807 3.41725 3.12753
# Velocity P-wave (km/s) = 4.70301 6.03638 5.41092
#
# Compressibility (1/GPa) = 0.04040895
#
# Stress axis : x y z
#
# Youngs Moduli (GPa) = 82.00830 32.74915 49.73000
#
# Poissons Ratio (x) = 0.29077 0.40771
# Poissons Ratio (y) = 0.72812 -0.29156
# Poissons Ratio (z) = 0.67234 -0.19200
#
# Static dielectric constant tensor:
#      x y z
#    x 4.078830 0.000000 0.196260 
#    y 0.000000 3.488910 0.000000 
#    z 0.196260 0.000000 3.900050 
# 
# 
# High freq. dielectric constant tensor:
#      x y z
#    x 1.847980 0.000000 0.000530 
#    y 0.000000 1.793780 0.000000 
#    z 0.000530 0.000000 1.824710 
# 
# From -- ./inp_files/151887.got.cif
#   From: 2010.06.25/outbox.cif.g09.slc.cpg/sg15_76_cif.got.tgz:151887.got - 2010.06.28 07:06:18.
