data_PCOD8136425
_publ_section_title
;
Structure prediction by ZEFSAII (Michael W. Deem and Ramdas Pophale) SiO2 
 PCOD8136425
Probable space group: C 2/C
;
_chemical_formula_sum "Si O2"
_cell_formula_units_Z 60
_cell_length_a 22.851148
_cell_length_b 23.944858
_cell_length_c 9.030583
_cell_angle_alpha 90.000000
_cell_angle_beta 38.557300
_cell_angle_gamma 90.000000
_cell_volume 3079.860940
_symmetry_space_group_name_H-M "C 2/C"
_symmetry_group_IT_number 15
_symmetry_cell_setting 'monoclinic'
loop_
_space_group_symop_operation_xyz
x,y,z
-x,y,1/2-z
-x,-y,-z
x,-y,1/2+z
1/2+x,1/2+y,z
1/2-x,1/2+y,1/2-z
1/2-x,1/2-y,-z
1/2+x,1/2-y,1/2+z
loop_
_atom_site_type_symbol
_atom_site_label
_atom_site_fract_x
_atom_site_fract_y
_atom_site_fract_z
Si Si1 0.807740 0.299847 0.309364
Si Si2 0.000000 0.928774 0.750000
Si Si3 0.810204 0.114198 0.298772
Si Si4 0.505089 0.341673 0.489929
Si Si5 0.694573 0.801304 0.538192
Si Si6 0.608482 0.506010 0.233386
Si Si7 0.003161 0.717017 0.574024
Si Si8 0.685552 0.614762 0.534882
O O1 0.750000 0.250000 0.500000
O O2 0.760449 0.359251 0.442242
O O3 0.912445 0.302467 0.163973
O O4 0.809123 0.292119 0.130341
O O5 0.028701 0.891042 0.556379
O O6 0.092739 0.966676 0.600638
O O7 0.831597 0.049532 0.288553
O O8 0.765626 0.118251 0.222979
O O9 0.905276 0.150716 0.111157
O O10 0.509881 0.283634 0.565438
O O11 0.590017 0.348391 0.205669
O O12 0.750000 0.750000 0.500000
O O13 0.748025 0.858837 0.471108
O O14 0.591584 0.807517 0.811167
O O15 0.500000 0.500000 0.500000
O O16 0.665524 0.449290 0.114558
O O17 0.000000 0.695343 0.750000
#
# Coordination Sequence:
#
# PCOD8136425 Si02
#       8
#     8   4   8   8   8   8   8   8
#     4  12  26  42  64  91 128 168 216 266 320 384
#     4  10  20  34  50  94 124 172 204 246 320 366
#     4  11  24  39  59  92 128 172 213 259 317 379
#     4  11  22  32  62  86 131 167 208 253 308 374
#     4  12  27  41  63  92 127 169 216 265 322 383
#     4  11  22  35  61  88 133 167 212 257 322 381
#     4  12  24  43  67  92 125 168 213 267 322 379
#     4  12  24  39  59  91 130 171 215 260 314 384
#
# _framework density 19.481400000000001
#
# number of rings (size 3 to 8) (size 9 to 14) (size 15 to 20)
#    0.000    0.533    6.000    4.000    3.733    1.067 
#    0.000    0.000    0.000    0.800    0.000    0.000 
#    0.000    0.000    0.000    0.000    0.000    0.000 
#
# Total GULP energy -371920.804620 kJ/mol
# GULP energy per Si atom -12397.360154 kJ/mol
# Density = 1.943706 g / cm^3
# Si number density = 19.481400 Si / 1000 Ang^3
#
#
#
# Elastic Constant Matrix: (Units=GPa)
#
#
# Indices 1 2 3 4 5 6 
#
# 1 133.3004 49.7466 58.0599 0.0000 12.7598 0.0000
# 2 49.7466 106.5949 46.2904 0.0000 -3.9147 0.0000
# 3 58.0599 46.2904 124.3047 0.0000 3.1197 0.0000
# 4 0.0000 0.0000 0.0000 22.2539 0.0000 -6.0047
# 5 12.7598 -3.9147 3.1197 0.0000 42.1652 0.0000
# 6 0.0000 0.0000 0.0000 -6.0047 0.0000 30.5331
#
#
#
# Elastic Compliance Matrix: (Units=1/GPa)
#
#
# Indices 1 2 3 4 5 6 
#
# 1 0.010713 -0.003560 -0.003595 0.000000 -0.003306 0.000000
# 2 -0.003560 0.012451 -0.003036 0.000000 0.002458 0.000000
# 3 -0.003595 -0.003036 0.010854 0.000000 0.000003 0.000000
# 4 0.000000 0.000000 0.000000 0.047454 0.000000 0.009332
# 5 -0.003306 0.002458 0.000003 0.000000 0.024945 0.000000
# 6 0.000000 0.000000 0.000000 0.009332 0.000000 0.034587
#
#
# Mechanical properties :
#
#
# Convention : Reuss Voigt Hill
#
# Bulk Modulus (GPa) = 73.32924 74.71043 74.01984
# Shear Modulus (GPa) = 30.13314 32.99734 31.56524
#
# Velocity S-wave (km/s) = 3.93716 4.12003 4.02963
# Velocity P-wave (km/s) = 7.64138 7.81446 7.72840
#
# Compressibility (1/GPa) = 0.01363713
#
# Stress axis : x y z
#
# Youngs Moduli (GPa) = 93.34782 80.31377 92.12902
#
# Poissons Ratio (x) = 0.28589 0.33121
# Poissons Ratio (y) = 0.33229 0.27968
# Poissons Ratio (z) = 0.33559 0.24382
#
# Static dielectric constant tensor:
#      x y z
#    x 4.214290 0.000000 0.355920 
#    y 0.000000 3.673190 0.000000 
#    z 0.355920 0.000000 3.742580 
# 
# 
# High freq. dielectric constant tensor:
#      x y z
#    x 1.763660 0.000000 0.021850 
#    y 0.000000 1.753450 0.000000 
#    z 0.021850 0.000000 1.748520 
# 
# From -- ./inp_files/58749.got.cif
#   From: 2010.06.25/outbox.cif.g09.slc.cpg/sg15_30_cif.got.tgz:58749.got - 2010.06.28 07:06:18.
