data_PCOD8136323
_publ_section_title
;
Structure prediction by ZEFSAII (Michael W. Deem and Ramdas Pophale) SiO2 
 PCOD8136323
Probable space group: C 2/C
;
_chemical_formula_sum "Si O2"
_cell_formula_units_Z 48
_cell_length_a 5.950925
_cell_length_b 18.133496
_cell_length_c 24.384182
_cell_angle_alpha 90.000000
_cell_angle_beta 66.407104
_cell_angle_gamma 90.000000
_cell_volume 2411.377184
_symmetry_space_group_name_H-M "C 2/C"
_symmetry_group_IT_number 15
_symmetry_cell_setting 'monoclinic'
loop_
_space_group_symop_operation_xyz
x,y,z
-x,y,1/2-z
-x,-y,-z
x,-y,1/2+z
1/2+x,1/2+y,z
1/2-x,1/2+y,1/2-z
1/2-x,1/2-y,-z
1/2+x,1/2-y,1/2+z
loop_
_atom_site_type_symbol
_atom_site_label
_atom_site_fract_x
_atom_site_fract_y
_atom_site_fract_z
Si Si1 0.982512 0.100352 0.653083
Si Si2 0.345864 0.022067 0.149730
Si Si3 0.051109 0.119673 0.348941
Si Si4 0.276344 0.731508 0.811700
Si Si5 0.139785 0.001972 0.929756
Si Si6 0.000000 0.441532 0.750000
Si Si7 0.000000 0.643512 0.750000
O O1 0.727139 0.093217 0.710227
O O2 0.112290 0.179524 0.650526
O O3 0.940233 0.078072 0.593529
O O4 0.135988 0.037484 0.667191
O O5 0.568069 0.002372 0.086341
O O6 0.464568 0.012421 0.197935
O O7 0.222216 0.102837 0.149268
O O8 0.117486 0.204306 0.357202
O O9 0.072238 0.070331 0.401198
O O10 0.251834 0.104710 0.282109
O O11 0.500000 0.757644 0.750000
O O12 0.071640 0.691761 0.795485
O O13 0.000000 0.000000 0.000000
#
# Coordination Sequence:
#
# PCOD8136323 Si02
#       7
#     8   8   8   8   8   4   4
#     4  10  22  38  57  87 118 157 195 236 293 357
#     4  10  22  35  59  84 116 150 195 245 295 353
#     4  10  21  35  57  87 119 150 191 237 294 350
#     4  10  21  36  56  86 126 159 188 227 295 362
#     4  10  23  42  61  81 110 152 206 257 296 338
#     4  10  20  33  54  86 117 146 182 228 291 350
#     4  10  22  33  58  86 125 154 180 224 285 364
#
# _framework density 19.905638
#
# number of rings (size 3 to 8) (size 9 to 14) (size 15 to 20)
#    0.000    2.000    0.833    1.500    2.333   24.000 
#    0.000    0.833    0.000    5.000    0.000    0.000 
#    0.000    0.000    0.000    0.000    0.000    0.000 
#
# Total GULP energy -297358.424296 kJ/mol
# GULP energy per Si atom -12389.934346 kJ/mol
# Density = 1.986033 g / cm^3
# Si number density = 19.905638 Si / 1000 Ang^3
#
#
#
# Elastic Constant Matrix: (Units=GPa)
#
#
# Indices 1 2 3 4 5 6 
#
# 1 143.2128 55.6672 53.4463 0.0000 -14.0675 0.0000
# 2 55.6672 117.6237 52.9160 0.0000 -2.3946 0.0000
# 3 53.4463 52.9160 122.1808 0.0000 -10.5124 0.0000
# 4 0.0000 0.0000 0.0000 22.3332 0.0000 0.5177
# 5 -14.0675 -2.3946 -10.5124 0.0000 22.7954 0.0000
# 6 0.0000 0.0000 0.0000 0.5177 0.0000 34.2906
#
#
#
# Elastic Compliance Matrix: (Units=1/GPa)
#
#
# Indices 1 2 3 4 5 6 
#
# 1 0.009625 -0.003408 -0.002347 0.000000 0.004499 0.000000
# 2 -0.003408 0.011789 -0.003842 0.000000 -0.002636 0.000000
# 3 -0.002347 -0.003842 0.011159 0.000000 0.003294 0.000000
# 4 0.000000 0.000000 0.000000 0.044792 0.000000 -0.000676
# 5 0.004499 -0.002636 0.003294 0.000000 0.047887 0.000000
# 6 0.000000 0.000000 0.000000 -0.000676 0.000000 0.029173
#
#
# Mechanical properties :
#
#
# Convention : Reuss Voigt Hill
#
# Bulk Modulus (GPa) = 74.74435 78.56404 76.65419
# Shear Modulus (GPa) = 28.07742 30.61636 29.34689
#
# Velocity S-wave (km/s) = 3.75977 3.92608 3.84383
# Velocity P-wave (km/s) = 7.51523 7.75281 7.63495
#
# Compressibility (1/GPa) = 0.01337894
#
# Stress axis : x y z
#
# Youngs Moduli (GPa) = 103.89416 84.82367 89.61513
#
# Poissons Ratio (x) = 0.28904 0.21037
# Poissons Ratio (y) = 0.35403 0.34431
# Poissons Ratio (z) = 0.24389 0.32590
#
# Static dielectric constant tensor:
#      x y z
#    x 4.290400 0.000000 -0.051280 
#    y 0.000000 3.679110 0.000000 
#    z -0.051280 0.000000 3.225510 
# 
# 
# High freq. dielectric constant tensor:
#      x y z
#    x 1.804600 0.000000 -0.003630 
#    y 0.000000 1.766700 0.000000 
#    z -0.003630 0.000000 1.728570 
# 
# From -- ./inp_files/227349.got.cif
#   From: 2010.06.25/outbox.cif.g09.slc.cpg/sg15_114_cif.got.tgz:227349.got - 2010.06.28 07:06:18.
