data_PCOD8136069
_publ_section_title
;
Structure prediction by ZEFSAII (Michael W. Deem and Ramdas Pophale) SiO2 
 PCOD8136069
Probable space group: C 2/C
;
_chemical_formula_sum "Si O2"
_cell_formula_units_Z 60
_cell_length_a 20.014110
_cell_length_b 31.726070
_cell_length_c 8.449958
_cell_angle_alpha 90.000000
_cell_angle_beta 39.412278
_cell_angle_gamma 90.000000
_cell_volume 3406.510740
_symmetry_space_group_name_H-M "C 2/C"
_symmetry_group_IT_number 15
_symmetry_cell_setting 'monoclinic'
loop_
_space_group_symop_operation_xyz
x,y,z
-x,y,1/2-z
-x,-y,-z
x,-y,1/2+z
1/2+x,1/2+y,z
1/2-x,1/2+y,1/2-z
1/2-x,1/2-y,-z
1/2+x,1/2-y,1/2+z
loop_
_atom_site_type_symbol
_atom_site_label
_atom_site_fract_x
_atom_site_fract_y
_atom_site_fract_z
Si Si1 0.645459 0.880802 0.327504
Si Si2 0.702386 0.688479 0.040623
Si Si3 0.111169 0.270864 0.804828
Si Si4 0.126742 0.535326 0.705920
Si Si5 0.500000 0.719196 0.250000
Si Si6 0.589867 0.134046 0.287992
Si Si7 0.190506 0.755906 0.847550
Si Si8 0.878727 0.452008 0.629027
O O1 0.664911 0.930695 0.267072
O O2 0.534397 0.869429 0.450328
O O3 0.630925 0.868046 0.534821
O O4 0.744806 0.857560 0.064142
O O5 0.599204 0.689790 0.116051
O O6 0.675012 0.700949 0.274382
O O7 0.795617 0.718970 0.806670
O O8 0.120785 0.321091 0.802425
O O9 0.099307 0.254893 0.643007
O O10 0.209189 0.253901 0.722780
O O11 0.012308 0.249957 0.075100
O O12 0.170949 0.489351 0.673685
O O13 0.173340 0.545392 0.448513
O O14 0.001762 0.537818 0.913523
O O15 0.648595 0.095090 0.264080
#
# Coordination Sequence:
#
# PCOD8136069 Si02
#       8
#     8   8   8   8   4   8   8   8
#     4  10  20  31  47  71  98 128 169 199 247 288
#     4  10  20  36  49  71  94 132 169 215 250 290
#     4  10  20  34  48  73  95 133 168 204 249 298
#     4   9  17  29  45  65  93 131 155 196 231 293
#     4  10  24  34  52  66  96 134 178 212 254 288
#     4  10  20  29  47  71  98 132 161 203 237 298
#     4   9  20  34  51  66  98 128 165 213 251 285
#     4   9  17  29  44  65  97 126 162 186 238 285
#
# _framework density 17.613332
#
# number of rings (size 3 to 8) (size 9 to 14) (size 15 to 20)
#    0.000    2.400    1.333    0.800    7.467    4.800 
#    0.000    0.000    0.000    0.000    0.000    0.000 
#    0.000    4.267    0.000    0.000    0.000    0.667 
#
# Total GULP energy -371643.607675 kJ/mol
# GULP energy per Si atom -12388.120256 kJ/mol
# Density = 1.757324 g / cm^3
# Si number density = 17.613332 Si / 1000 Ang^3
#
#
#
# Elastic Constant Matrix: (Units=GPa)
#
#
# Indices 1 2 3 4 5 6 
#
# 1 40.7979 20.9159 21.7114 0.0000 9.8385 0.0000
# 2 20.9159 109.9087 38.2089 0.0000 8.3119 0.0000
# 3 21.7114 38.2089 64.7864 0.0000 15.4822 0.0000
# 4 0.0000 0.0000 0.0000 24.4406 0.0000 8.3965
# 5 9.8385 8.3119 15.4822 0.0000 19.2277 0.0000
# 6 0.0000 0.0000 0.0000 8.3965 0.0000 19.1426
#
#
#
# Elastic Compliance Matrix: (Units=1/GPa)
#
#
# Indices 1 2 3 4 5 6 
#
# 1 0.031919 -0.003054 -0.006573 0.000000 -0.009720 0.000000
# 2 -0.003054 0.011743 -0.006269 0.000000 0.001534 0.000000
# 3 -0.006573 -0.006269 0.024621 0.000000 -0.013752 0.000000
# 4 0.000000 0.000000 0.000000 0.048175 0.000000 -0.021131
# 5 -0.009720 0.001534 -0.013752 0.000000 0.067392 0.000000
# 6 0.000000 0.000000 0.000000 -0.021131 0.000000 0.061508
#
#
# Mechanical properties :
#
#
# Convention : Reuss Voigt Hill
#
# Bulk Modulus (GPa) = 27.40332 41.90725 34.65529
# Shear Modulus (GPa) = 17.28234 21.53930 19.41082
#
# Velocity S-wave (km/s) = 3.13582 3.50079 3.32332
# Velocity P-wave (km/s) = 5.35754 6.33919 5.86892
#
# Compressibility (1/GPa) = 0.03649193
#
# Stress axis : x y z
#
# Youngs Moduli (GPa) = 31.32972 85.15772 40.61512
#
# Poissons Ratio (x) = 0.26009 0.26695
# Poissons Ratio (y) = 0.09569 0.25460
# Poissons Ratio (z) = 0.20592 0.53382
#
# Static dielectric constant tensor:
#      x y z
#    x 3.101800 0.000000 0.392130 
#    y 0.000000 3.296730 0.000000 
#    z 0.392130 0.000000 3.363180 
# 
# 
# High freq. dielectric constant tensor:
#      x y z
#    x 1.663540 0.000000 0.039700 
#    y 0.000000 1.673400 0.000000 
#    z 0.039700 0.000000 1.652020 
# 
# From -- ./inp_files/59269.got.cif
#   From: 2010.06.25/outbox.cif.g09.slc.cpg/sg15_30_cif.got.tgz:59269.got - 2010.06.28 07:06:18.
