data_PCOD8136170
_publ_section_title
;
Structure prediction by ZEFSAII (Michael W. Deem and Ramdas Pophale) SiO2 
 PCOD8136170
Probable space group: C 2/C
;
_chemical_formula_sum "Si O2"
_cell_formula_units_Z 56
_cell_length_a 12.203800
_cell_length_b 26.215811
_cell_length_c 11.777808
_cell_angle_alpha 90.000000
_cell_angle_beta 50.511182
_cell_angle_gamma 90.000000
_cell_volume 2908.029180
_symmetry_space_group_name_H-M "C 2/C"
_symmetry_group_IT_number 15
_symmetry_cell_setting 'monoclinic'
loop_
_space_group_symop_operation_xyz
x,y,z
-x,y,1/2-z
-x,-y,-z
x,-y,1/2+z
1/2+x,1/2+y,z
1/2-x,1/2+y,1/2-z
1/2-x,1/2-y,-z
1/2+x,1/2-y,1/2+z
loop_
_atom_site_type_symbol
_atom_site_label
_atom_site_fract_x
_atom_site_fract_y
_atom_site_fract_z
Si Si1 0.146554 0.978694 0.101179
Si Si2 0.353606 0.065895 0.294910
Si Si3 0.577817 0.795506 0.079036
Si Si4 0.398480 0.104295 0.036886
Si Si5 0.902145 0.185866 0.419639
Si Si6 0.153388 0.534297 0.828353
Si Si7 0.191546 0.917082 0.465427
O O1 0.254479 0.991037 0.132271
O O2 0.000000 0.956740 0.250000
O O3 0.109798 0.031037 0.056671
O O4 0.220538 0.936202 0.970667
O O5 0.500000 0.088578 0.250000
O O6 0.310925 0.100662 0.213373
O O7 0.387599 0.007958 0.236607
O O8 0.500000 0.803317 0.250000
O O9 0.544606 0.738113 0.052472
O O10 0.527422 0.839741 0.024606
O O11 0.745362 0.802345 0.979593
O O12 0.306960 0.095043 0.985404
O O13 0.514105 0.059401 0.973914
O O14 0.908475 0.132877 0.486285
O O15 0.000000 0.173886 0.250000
O O16 0.239442 0.577455 0.703644
#
# Coordination Sequence:
#
# PCOD8136170 Si02
#       7
#     8   8   8   8   8   8   8
#     4  11  23  37  49  74 111 152 186 218 260 324
#     4  11  21  34  54  75 106 146 187 226 263 314
#     4   9  18  31  52  77 108 137 172 218 275 324
#     4  11  18  33  54  80 105 141 186 227 266 319
#     4   9  17  32  49  76 111 136 169 221 271 328
#     4  11  20  34  53  77 110 148 184 226 261 319
#     4  10  20  32  53  80 108 144 178 221 276 320
#
# _framework density 19.257027999999998
#
# number of rings (size 3 to 8) (size 9 to 14) (size 15 to 20)
#    0.000    1.714    2.857    4.714    0.000    2.286 
#    5.143    0.000    0.000    0.000    0.000    2.000 
#    0.000    0.000    0.000    0.000    0.000    0.000 
#
# Total GULP energy -346908.804250 kJ/mol
# GULP energy per Si atom -12389.600152 kJ/mol
# Density = 1.921320 g / cm^3
# Si number density = 19.257028 Si / 1000 Ang^3
#
#
#
# Elastic Constant Matrix: (Units=GPa)
#
#
# Indices 1 2 3 4 5 6 
#
# 1 28.9481 -1.0578 14.7138 0.0000 2.1551 0.0000
# 2 -1.0578 80.3155 29.5404 0.0000 6.9540 0.0000
# 3 14.7138 29.5404 134.5470 0.0000 -5.1374 0.0000
# 4 0.0000 0.0000 0.0000 31.9764 0.0000 -0.3501
# 5 2.1551 6.9540 -5.1374 0.0000 27.7834 0.0000
# 6 0.0000 0.0000 0.0000 -0.3501 0.0000 7.3274
#
#
#
# Elastic Compliance Matrix: (Units=1/GPa)
#
#
# Indices 1 2 3 4 5 6 
#
# 1 0.037440 0.002664 -0.004850 0.000000 -0.004468 0.000000
# 2 0.002664 0.014183 -0.003574 0.000000 -0.004417 0.000000
# 3 -0.004850 -0.003574 0.008858 0.000000 0.002909 0.000000
# 4 0.000000 0.000000 0.000000 0.031289 0.000000 0.001495
# 5 -0.004468 -0.004417 0.002909 0.000000 0.037983 0.000000
# 6 0.000000 0.000000 0.000000 0.001495 0.000000 0.136545
#
#
# Mechanical properties :
#
#
# Convention : Reuss Voigt Hill
#
# Bulk Modulus (GPa) = 20.42443 36.68927 28.55685
# Shear Modulus (GPa) = 16.99878 26.79171 21.89525
#
# Velocity S-wave (km/s) = 2.97430 3.73402 3.37560
# Velocity P-wave (km/s) = 4.73546 6.13875 5.48219
#
# Compressibility (1/GPa) = 0.04896097
#
# Stress axis : x y z
#
# Youngs Moduli (GPa) = 26.70975 70.50726 112.88686
#
# Poissons Ratio (x) = -0.18781 0.54747
# Poissons Ratio (y) = -0.07115 0.40344
# Poissons Ratio (z) = 0.12953 0.25198
#
# Static dielectric constant tensor:
#      x y z
#    x 3.046960 0.000000 -0.015800 
#    y 0.000000 4.405660 0.000000 
#    z -0.015800 0.000000 3.764650 
# 
# 
# High freq. dielectric constant tensor:
#      x y z
#    x 1.692470 0.000000 -0.010120 
#    y 0.000000 1.740590 0.000000 
#    z -0.010120 0.000000 1.768690 
# 
# From -- ./inp_files/91980.got.cif
#   From: 2010.06.25/outbox.cif.g09.slc.cpg/sg15_46_cif.got.tgz:91980.got - 2010.06.28 07:06:18.
