data_PCOD8136880
_publ_section_title
;
Structure prediction by ZEFSAII (Michael W. Deem and Ramdas Pophale) SiO2 
 PCOD8136880
Probable space group: C 2/C
;
_chemical_formula_sum "Si O2"
_cell_formula_units_Z 64
_cell_length_a 11.501475
_cell_length_b 14.551913
_cell_length_c 21.001951
_cell_angle_alpha 90.000000
_cell_angle_beta 113.171964
_cell_angle_gamma 90.000000
_cell_volume 3231.496982
_symmetry_space_group_name_H-M "C 2/C"
_symmetry_group_IT_number 15
_symmetry_cell_setting 'monoclinic'
loop_
_space_group_symop_operation_xyz
x,y,z
-x,y,1/2-z
-x,-y,-z
x,-y,1/2+z
1/2+x,1/2+y,z
1/2-x,1/2+y,1/2-z
1/2-x,1/2-y,-z
1/2+x,1/2-y,1/2+z
loop_
_atom_site_type_symbol
_atom_site_label
_atom_site_fract_x
_atom_site_fract_y
_atom_site_fract_z
Si Si1 0.090683 0.425440 0.710476
Si Si2 0.223599 0.957468 0.442327
Si Si3 0.869794 0.226696 0.760142
Si Si4 0.463721 0.126982 0.052749
Si Si5 0.574367 0.172239 0.946678
Si Si6 0.669763 0.091904 0.663776
Si Si7 0.644939 0.369515 0.999815
Si Si8 0.995732 0.166786 0.909241
O O1 0.173373 0.333113 0.738717
O O2 0.172719 0.518789 0.722591
O O3 0.000000 0.440274 0.750000
O O4 0.017357 0.420098 0.627325
O O5 0.326852 0.919948 0.514544
O O6 0.290968 0.968640 0.388954
O O7 0.115047 0.884076 0.406541
O O8 0.150580 0.048174 0.450495
O O9 0.764210 0.175020 0.697559
O O10 0.888930 0.178845 0.832337
O O11 0.000000 0.227510 0.750000
O O12 0.448471 0.235512 0.057442
O O13 0.554265 0.116670 0.009587
O O14 0.466857 0.139655 0.874681
O O15 0.572836 0.282513 0.953450
O O16 0.711352 0.149896 0.947852
O O17 0.566691 0.392187 0.046910
#
# Coordination Sequence:
#
# PCOD8136880 Si02
#       8
#     8   8   8   8   8   8   8   8
#     4  10  22  39  59  86 115 154 201 241 284 345
#     4  11  20  34  60  89 118 147 193 244 292 355
#     4  10  21  42  59  78 118 161 193 242 290 342
#     4   9  19  36  61  85 110 154 199 237 288 345
#     4   9  20  38  59  83 120 155 187 241 295 353
#     4  11  22  39  63  86 113 157 204 235 290 354
#     4  10  20  35  55  89 122 149 185 243 303 342
#     4  10  20  36  56  82 118 156 190 239 296 341
#
# _framework density 19.805063000000001
#
# number of rings (size 3 to 8) (size 9 to 14) (size 15 to 20)
#    0.000    2.000    1.250    2.250    0.000    5.000 
#    2.250    0.000    0.000    0.000    0.000    0.000 
#    0.000    0.000    0.000    0.000    0.000    0.000 
#
# Total GULP energy -396644.914723 kJ/mol
# GULP energy per Si atom -12395.153585 kJ/mol
# Density = 1.975999 g / cm^3
# Si number density = 19.805063 Si / 1000 Ang^3
#
#
#
# Elastic Constant Matrix: (Units=GPa)
#
#
# Indices 1 2 3 4 5 6 
#
# 1 72.9942 40.6807 22.0219 0.0000 -4.9930 0.0000
# 2 40.6807 92.7654 40.7050 0.0000 2.6717 0.0000
# 3 22.0219 40.7050 70.8107 0.0000 -4.6304 0.0000
# 4 0.0000 0.0000 0.0000 26.7050 0.0000 -6.2493
# 5 -4.9930 2.6717 -4.6304 0.0000 24.8490 0.0000
# 6 0.0000 0.0000 0.0000 -6.2493 0.0000 28.6405
#
#
#
# Elastic Compliance Matrix: (Units=1/GPa)
#
#
# Indices 1 2 3 4 5 6 
#
# 1 0.018700 -0.007894 -0.000989 0.000000 0.004422 0.000000
# 2 -0.007894 0.017994 -0.008219 0.000000 -0.005052 0.000000
# 3 -0.000989 -0.008219 0.019436 0.000000 0.004307 0.000000
# 4 0.000000 0.000000 0.000000 0.039461 0.000000 0.008610
# 5 0.004422 -0.005052 0.004307 0.000000 0.042477 0.000000
# 6 0.000000 0.000000 0.000000 0.008610 0.000000 0.036794
#
#
# Mechanical properties :
#
#
# Convention : Reuss Voigt Hill
#
# Bulk Modulus (GPa) = 45.60742 49.26507 47.43625
# Shear Modulus (GPa) = 23.10815 24.91642 24.01228
#
# Velocity S-wave (km/s) = 3.41952 3.55080 3.48578
# Velocity P-wave (km/s) = 6.21844 6.46064 6.34070
#
# Compressibility (1/GPa) = 0.02192626
#
# Stress axis : x y z
#
# Youngs Moduli (GPa) = 53.47602 55.57528 51.45153
#
# Poissons Ratio (x) = 0.43872 0.05086
# Poissons Ratio (y) = 0.42215 0.42287
# Poissons Ratio (z) = 0.05287 0.45676
#
# Static dielectric constant tensor:
#      x y z
#    x 3.545750 0.000000 -0.191220 
#    y 0.000000 3.784570 0.000000 
#    z -0.191220 0.000000 3.471520 
# 
# 
# High freq. dielectric constant tensor:
#      x y z
#    x 1.767230 0.000000 -0.014450 
#    y 0.000000 1.784750 0.000000 
#    z -0.014450 0.000000 1.755150 
# 
# From -- ./inp_files/238779.got.cif
#   From: 2010.06.25/outbox.cif.g09.slc.cpg/sg15_120_cif.got.tgz:238779.got - 2010.06.28 07:06:18.
