data_PCOD8136644
_publ_section_title
;
Structure prediction by ZEFSAII (Michael W. Deem and Ramdas Pophale) SiO2 
 PCOD8136644
Probable space group: C 2/C
;
_chemical_formula_sum "Si O2"
_cell_formula_units_Z 36
_cell_length_a 8.910140
_cell_length_b 9.746734
_cell_length_c 21.287668
_cell_angle_alpha 90.000000
_cell_angle_beta 109.187085
_cell_angle_gamma 90.000000
_cell_volume 1746.026858
_symmetry_space_group_name_H-M "C 2/C"
_symmetry_group_IT_number 15
_symmetry_cell_setting 'monoclinic'
loop_
_space_group_symop_operation_xyz
x,y,z
-x,y,1/2-z
-x,-y,-z
x,-y,1/2+z
1/2+x,1/2+y,z
1/2-x,1/2+y,1/2-z
1/2-x,1/2-y,-z
1/2+x,1/2-y,1/2+z
loop_
_atom_site_type_symbol
_atom_site_label
_atom_site_fract_x
_atom_site_fract_y
_atom_site_fract_z
Si Si1 0.583726 0.926305 0.826852
Si Si2 0.162224 0.836189 0.147160
Si Si3 0.828105 0.813863 0.071497
Si Si4 0.000000 0.894011 0.250000
Si Si5 0.221855 0.463467 0.640980
O O1 0.500000 0.884044 0.750000
O O2 0.718819 0.038553 0.833852
O O3 0.671274 0.795762 0.870664
O O4 0.452001 0.991248 0.854361
O O5 0.248511 0.699100 0.134102
O O6 0.009278 0.862343 0.081042
O O7 0.084892 0.805871 0.205958
O O8 0.728045 0.948575 0.077588
O O9 0.750000 0.750000 0.000000
O O10 0.864532 0.991857 0.204937
#
# Coordination Sequence:
#
# PCOD8136644 Si02
#       5
#     8   8   8   4   8
#     4  11  23  39  65  96 131 159 210 271 323 375
#     4  10  23  38  62  94 124 165 209 256 318 374
#     4  10  25  46  64  89 131 176 214 257 312 380
#     4  10  20  34  58  90 130 156 196 254 318 372
#     4  10  23  36  64  89 128 162 207 256 316 373
#
# _framework density 20.618238999999999
#
# number of rings (size 3 to 8) (size 9 to 14) (size 15 to 20)
#    0.000    1.778    2.222    0.000   15.556    8.000 
#    0.000    2.222    0.000    0.000    0.000    0.000 
#    0.000    0.000    0.000    0.000    0.000    0.000 
#
# Total GULP energy -223039.632420 kJ/mol
# GULP energy per Si atom -12391.090690 kJ/mol
# Density = 2.057131 g / cm^3
# Si number density = 20.618239 Si / 1000 Ang^3
#
#
#
# Elastic Constant Matrix: (Units=GPa)
#
#
# Indices 1 2 3 4 5 6 
#
# 1 80.0921 53.2085 15.9417 0.0000 10.2164 0.0000
# 2 53.2085 132.7221 34.4563 0.0000 -8.2646 0.0000
# 3 15.9417 34.4563 89.1466 0.0000 11.3111 0.0000
# 4 0.0000 0.0000 0.0000 23.7164 0.0000 -0.1090
# 5 10.2164 -8.2646 11.3111 0.0000 20.2252 0.0000
# 6 0.0000 0.0000 0.0000 -0.1090 0.0000 45.5275
#
#
#
# Elastic Compliance Matrix: (Units=1/GPa)
#
#
# Indices 1 2 3 4 5 6 
#
# 1 0.020508 -0.009718 0.002053 0.000000 -0.015479 0.000000
# 2 -0.009718 0.013622 -0.005227 0.000000 0.013399 0.000000
# 3 0.002053 -0.005227 0.014287 0.000000 -0.011163 0.000000
# 4 0.000000 0.000000 0.000000 0.042165 0.000000 0.000101
# 5 -0.015479 0.013399 -0.011163 0.000000 0.068980 0.000000
# 6 0.000000 0.000000 0.000000 0.000101 0.000000 0.021965
#
#
# Mechanical properties :
#
#
# Convention : Reuss Voigt Hill
#
# Bulk Modulus (GPa) = 44.18621 56.57486 50.38053
# Shear Modulus (GPa) = 23.27127 31.11743 27.19435
#
# Velocity S-wave (km/s) = 3.36322 3.88908 3.63567
# Velocity P-wave (km/s) = 6.04639 6.90401 6.48938
#
# Compressibility (1/GPa) = 0.02263150
#
# Stress axis : x y z
#
# Youngs Moduli (GPa) = 48.76199 73.41017 69.99281
#
# Poissons Ratio (x) = 0.71343 -0.14369
# Poissons Ratio (y) = 0.47389 0.36587
# Poissons Ratio (z) = -0.10010 0.38374
#
# Static dielectric constant tensor:
#      x y z
#    x 3.918350 0.000000 0.161150 
#    y 0.000000 3.768470 0.000000 
#    z 0.161150 0.000000 3.672170 
# 
# 
# High freq. dielectric constant tensor:
#      x y z
#    x 1.809010 0.000000 0.015960 
#    y 0.000000 1.819840 0.000000 
#    z 0.015960 0.000000 1.789370 
# 
# From -- ./inp_files/229555.got.cif
#   From: 2010.06.25/outbox.cif.g09.slc.cpg/sg15_115_cif.got.tgz:229555.got - 2010.06.28 07:06:18.
