data_PCOD8136282
_publ_section_title
;
Structure prediction by ZEFSAII (Michael W. Deem and Ramdas Pophale) SiO2 
 PCOD8136282
Probable space group: C 2/C
;
_chemical_formula_sum "Si O2"
_cell_formula_units_Z 64
_cell_length_a 30.322108
_cell_length_b 17.658056
_cell_length_c 21.636960
_cell_angle_alpha 90.000000
_cell_angle_beta 19.067457
_cell_angle_gamma 90.000000
_cell_volume 3784.622559
_symmetry_space_group_name_H-M "C 2/C"
_symmetry_group_IT_number 15
_symmetry_cell_setting 'monoclinic'
loop_
_space_group_symop_operation_xyz
x,y,z
-x,y,1/2-z
-x,-y,-z
x,-y,1/2+z
1/2+x,1/2+y,z
1/2-x,1/2+y,1/2-z
1/2-x,1/2-y,-z
1/2+x,1/2-y,1/2+z
loop_
_atom_site_type_symbol
_atom_site_label
_atom_site_fract_x
_atom_site_fract_y
_atom_site_fract_z
Si Si1 0.990116 0.380559 0.513373
Si Si2 0.692954 0.168056 0.344962
Si Si3 0.899729 0.965431 0.937745
Si Si4 0.775504 0.160346 0.682577
Si Si5 0.941159 0.933566 0.495991
Si Si6 0.888334 0.495279 0.729908
Si Si7 0.807166 0.061479 0.756223
Si Si8 0.062016 0.542233 0.603736
O O1 0.891133 0.325707 0.607249
O O2 0.916782 0.408426 0.673065
O O3 0.129401 0.341967 0.345297
O O4 0.007850 0.452761 0.445587
O O5 0.685083 0.253161 0.379541
O O6 0.845328 0.140341 0.127380
O O7 0.626152 0.115028 0.485375
O O8 0.000000 0.945762 0.750000
O O9 0.881009 0.891233 0.004929
O O10 0.764259 0.985534 0.081548
O O11 0.949895 0.035972 0.913691
O O12 0.771326 0.133290 0.759859
O O13 0.090179 0.913524 0.324938
O O14 0.875229 0.999225 0.623256
O O15 0.929415 0.507953 0.746099
O O16 0.672423 0.025093 0.964245
O O17 0.000000 0.570229 0.750000
#
# Coordination Sequence:
#
# PCOD8136282 Si02
#       8
#     8   8   8   8   8   8   8   8
#     4   9  16  32  53  72  95 130 179 217 241 282
#     4  10  20  33  52  77 105 135 167 206 252 304
#     4  10  20  33  52  77 105 135 167 206 252 304
#     4  10  20  33  52  77 105 135 167 206 252 304
#     4   9  18  33  51  72  99 133 174 213 246 287
#     4   9  16  32  53  72  95 130 179 217 241 282
#     4   9  18  33  51  72  99 133 174 213 246 287
#     4  10  20  33  52  77 105 135 167 206 252 304
#
# _framework density 16.910537000000001
#
# number of rings (size 3 to 8) (size 9 to 14) (size 15 to 20)
#    0.000    2.500    2.500    0.000    3.500    0.500 
#    0.000    0.000    0.000    5.250    0.000    3.500 
#    0.000    0.000    0.000    0.000    0.000    0.000 
#
# Total GULP energy -396563.308953 kJ/mol
# GULP energy per Si atom -12392.603405 kJ/mol
# Density = 1.687205 g / cm^3
# Si number density = 16.910537 Si / 1000 Ang^3
#
#
#
# Elastic Constant Matrix: (Units=GPa)
#
#
# Indices 1 2 3 4 5 6 
#
# 1 109.7115 44.0600 42.0475 -0.0005 -13.3293 0.0000
# 2 44.0600 68.3503 44.3625 0.0017 11.9197 -0.0011
# 3 42.0475 44.3625 58.5600 -0.0003 1.0252 -0.0009
# 4 -0.0005 0.0017 -0.0003 9.5913 -0.0002 0.1235
# 5 -13.3293 11.9197 1.0252 -0.0002 24.5352 0.0004
# 6 0.0000 -0.0011 -0.0009 0.1235 0.0004 16.4928
#
#
#
# Elastic Compliance Matrix: (Units=1/GPa)
#
#
# Indices 1 2 3 4 5 6 
#
# 1 0.016724 -0.010481 -0.004320 0.000003 0.014358 -0.000001
# 2 -0.010481 0.040262 -0.022550 -0.000009 -0.024312 0.000002
# 3 -0.004320 -0.022550 0.037137 0.000005 0.007057 0.000000
# 4 0.000003 -0.000009 0.000005 0.104271 0.000007 -0.000781
# 5 0.014358 -0.024312 0.007057 0.000007 0.060074 -0.000003
# 6 -0.000001 0.000002 0.000000 -0.000781 -0.000003 0.060638
#
#
# Mechanical properties :
#
#
# Convention : Reuss Voigt Hill
#
# Bulk Modulus (GPa) = 51.48575 55.28463 53.38519
# Shear Modulus (GPa) = 12.49120 17.20067 14.84594
#
# Velocity S-wave (km/s) = 2.72079 3.19275 2.96617
# Velocity P-wave (km/s) = 6.35471 6.80845 6.58548
#
# Compressibility (1/GPa) = 0.01942285
#
# Stress axis : x y z
#
# Youngs Moduli (GPa) = 59.79514 24.83719 26.92702
#
# Poissons Ratio (x) = 0.26031 0.11632
# Poissons Ratio (y) = 0.62669 0.60720
# Poissons Ratio (z) = 0.25830 0.56008
#
# Static dielectric constant tensor:
#      x y z
#    x 3.459190 0.000000 -0.313600 
#    y 0.000000 2.909170 0.000000 
#    z -0.313600 0.000000 3.118130 
# 
# 
# High freq. dielectric constant tensor:
#      x y z
#    x 1.662810 0.000000 -0.022430 
#    y 0.000000 1.624050 0.000000 
#    z -0.022430 0.000000 1.635410 
# 
# From -- ./inp_files/105718.got.cif
#   From: 2010.06.25/outbox.cif.g09.slc.cpg/sg15_53_cif.got.tgz:105718.got - 2010.06.28 07:06:18.
