data_PCOD8136368
_publ_section_title
;
Structure prediction by ZEFSAII (Michael W. Deem and Ramdas Pophale) SiO2 
 PCOD8136368
Probable space group: C 2/C
;
_chemical_formula_sum "Si O2"
_cell_formula_units_Z 64
_cell_length_a 14.627337
_cell_length_b 13.655107
_cell_length_c 27.033161
_cell_angle_alpha 90.000000
_cell_angle_beta 142.275577
_cell_angle_gamma 90.000000
_cell_volume 3303.788878
_symmetry_space_group_name_H-M "C 2/C"
_symmetry_group_IT_number 15
_symmetry_cell_setting 'monoclinic'
loop_
_space_group_symop_operation_xyz
x,y,z
-x,y,1/2-z
-x,-y,-z
x,-y,1/2+z
1/2+x,1/2+y,z
1/2-x,1/2+y,1/2-z
1/2-x,1/2-y,-z
1/2+x,1/2-y,1/2+z
loop_
_atom_site_type_symbol
_atom_site_label
_atom_site_fract_x
_atom_site_fract_y
_atom_site_fract_z
Si Si1 0.211457 0.019978 0.622555
Si Si2 0.581690 0.623238 0.233496
Si Si3 0.986873 0.145389 0.034231
Si Si4 0.600274 0.957121 0.617472
Si Si5 0.819233 0.897389 0.553436
Si Si6 0.081301 0.657867 0.733493
Si Si7 0.030401 0.642840 0.987826
Si Si8 0.110164 0.505756 0.895207
O O1 0.105576 0.097527 0.549962
O O2 0.286191 0.078658 0.700191
O O3 0.330918 0.973893 0.633842
O O4 0.121260 0.928159 0.606440
O O5 0.500000 0.630723 0.250000
O O6 0.725235 0.554421 0.297881
O O7 0.464754 0.570989 0.146655
O O8 0.630401 0.733554 0.236321
O O9 0.879725 0.170627 0.034893
O O10 0.049283 0.251231 0.045048
O O11 0.540381 0.886356 0.549345
O O12 0.569806 0.068782 0.587055
O O13 0.512251 0.934412 0.631532
O O14 0.698951 0.847676 0.538315
O O15 0.744736 0.989593 0.492933
O O16 0.000000 0.673473 0.750000
O O17 0.967914 0.613119 0.644441
#
# Coordination Sequence:
#
# PCOD8136368 Si02
#       8
#     8   8   8   8   8   8   8   8
#     4   9  19  36  54  83 109 141 180 231 268 322
#     4  11  21  33  55  83 112 140 181 233 275 318
#     4  10  20  33  58  82 110 139 184 227 275 321
#     4  10  21  35  53  81 111 148 178 219 272 329
#     4  10  21  32  55  84 109 137 181 234 277 322
#     4   9  19  33  55  80 108 138 175 229 281 311
#     4  10  20  36  56  79 114 145 179 222 275 327
#     4   9  20  36  54  78 110 146 183 216 274 326
#
# _framework density 19.371697999999999
#
# number of rings (size 3 to 8) (size 9 to 14) (size 15 to 20)
#    0.000    2.250    1.250    1.125   10.500    0.000 
#    0.000    0.625    0.000    6.750    0.000    0.000 
#    0.000    0.000    0.000    0.000    0.000    0.000 
#
# Total GULP energy -396452.622640 kJ/mol
# GULP energy per Si atom -12389.144458 kJ/mol
# Density = 1.932761 g / cm^3
# Si number density = 19.371698 Si / 1000 Ang^3
#
#
#
# Elastic Constant Matrix: (Units=GPa)
#
#
# Indices 1 2 3 4 5 6 
#
# 1 82.6775 39.8450 18.4334 0.0000 7.6934 0.0000
# 2 39.8450 100.3133 41.3449 0.0000 16.2072 0.0000
# 3 18.4334 41.3449 116.1665 0.0000 17.5839 0.0000
# 4 0.0000 0.0000 0.0000 10.4366 0.0000 -0.1618
# 5 7.6934 16.2072 17.5839 0.0000 26.6341 0.0000
# 6 0.0000 0.0000 0.0000 -0.1618 0.0000 12.3300
#
#
#
# Elastic Compliance Matrix: (Units=1/GPa)
#
#
# Indices 1 2 3 4 5 6 
#
# 1 0.014978 -0.005745 -0.000229 0.000000 -0.000679 0.000000
# 2 -0.005745 0.014478 -0.003510 0.000000 -0.004834 0.000000
# 3 -0.000229 -0.003510 0.010622 0.000000 -0.004811 0.000000
# 4 0.000000 0.000000 0.000000 0.095837 0.000000 0.001257
# 5 -0.000679 -0.004834 -0.004811 0.000000 0.043859 0.000000
# 6 0.000000 0.000000 0.000000 0.001257 0.000000 0.081119
#
#
# Mechanical properties :
#
#
# Convention : Reuss Voigt Hill
#
# Bulk Modulus (GPa) = 47.36995 55.37821 51.37408
# Shear Modulus (GPa) = 17.42773 23.18240 20.30507
#
# Velocity S-wave (km/s) = 3.00267 3.46311 3.24108
# Velocity P-wave (km/s) = 6.04381 6.68132 6.37055
#
# Compressibility (1/GPa) = 0.02111043
#
# Stress axis : x y z
#
# Youngs Moduli (GPa) = 66.76318 69.06887 94.14401
#
# Poissons Ratio (x) = 0.39682 0.02157
# Poissons Ratio (y) = 0.38357 0.33041
# Poissons Ratio (z) = 0.01530 0.24241
#
# Static dielectric constant tensor:
#      x y z
#    x 3.665790 0.000000 -0.041380 
#    y 0.000000 3.336560 0.000000 
#    z -0.041380 0.000000 3.717490 
# 
# 
# High freq. dielectric constant tensor:
#      x y z
#    x 1.745440 0.000000 -0.009940 
#    y 0.000000 1.714720 0.000000 
#    z -0.009940 0.000000 1.762720 
# 
# From -- ./inp_files/296434.got.cif
#   From: 2010.06.25/outbox.cif.g09.slc.cpg/sg15_149_cif.got.tgz:296434.got - 2010.06.28 07:06:18.
