data_PCOD8136543
_publ_section_title
;
Structure prediction by ZEFSAII (Michael W. Deem and Ramdas Pophale) SiO2 
 PCOD8136543
Probable space group: C 2/C
;
_chemical_formula_sum "Si O2"
_cell_formula_units_Z 48
_cell_length_a 13.183191
_cell_length_b 13.085259
_cell_length_c 14.319511
_cell_angle_alpha 90.000000
_cell_angle_beta 103.246185
_cell_angle_gamma 90.000000
_cell_volume 2404.473254
_symmetry_space_group_name_H-M "C 2/C"
_symmetry_group_IT_number 15
_symmetry_cell_setting 'monoclinic'
loop_
_space_group_symop_operation_xyz
x,y,z
-x,y,1/2-z
-x,-y,-z
x,-y,1/2+z
1/2+x,1/2+y,z
1/2-x,1/2+y,1/2-z
1/2-x,1/2-y,-z
1/2+x,1/2-y,1/2+z
loop_
_atom_site_type_symbol
_atom_site_label
_atom_site_fract_x
_atom_site_fract_y
_atom_site_fract_z
Si Si1 0.732315 0.460285 0.135477
Si Si2 0.102474 0.291116 0.335003
Si Si3 0.279039 0.326785 0.787164
Si Si4 0.016342 0.838817 0.563354
Si Si5 0.621294 0.655325 0.765748
Si Si6 0.899052 0.966780 0.067080
O O1 0.839890 0.399281 0.140709
O O2 0.755416 0.555535 0.209289
O O3 0.649883 0.387245 0.169807
O O4 0.685888 0.495357 0.026452
O O5 0.180319 0.205564 0.307371
O O6 0.000000 0.305698 0.250000
O O7 0.068492 0.249543 0.431114
O O8 0.372721 0.301276 0.876867
O O9 0.180465 0.260466 0.797578
O O10 0.031633 0.870909 0.458640
O O11 0.979549 0.942427 0.609890
O O12 0.500000 0.676468 0.750000
O O13 0.656951 0.572014 0.851249
#
# Coordination Sequence:
#
# PCOD8136543 Si02
#       6
#     8   8   8   8   8   8
#     4  10  21  36  55  81 108 141 182 222 268 318
#     4   9  18  34  56  78 106 143 179 220 267 320
#     4   9  19  33  53  77 103 139 178 217 268 318
#     4   9  17  32  52  75 102 133 173 216 262 311
#     4  11  21  35  55  79 109 142 181 225 269 320
#     4  10  20  34  56  81 108 141 179 225 269 315
#
# _framework density 19.962792
#
# number of rings (size 3 to 8) (size 9 to 14) (size 15 to 20)
#    0.000    2.333    0.000    4.000    0.000    6.667 
#    0.000    1.667    0.000   10.000    0.000    0.000 
#    0.000    0.000    0.000    0.000    0.000    0.000 
#
# Total GULP energy -297368.825935 kJ/mol
# GULP energy per Si atom -12390.367747 kJ/mol
# Density = 1.991736 g / cm^3
# Si number density = 19.962792 Si / 1000 Ang^3
#
#
#
# Elastic Constant Matrix: (Units=GPa)
#
#
# Indices 1 2 3 4 5 6 
#
# 1 116.6720 63.2934 32.8013 0.0000 1.1287 0.0000
# 2 63.2934 97.8785 22.9970 0.0000 10.9363 0.0000
# 3 32.8013 22.9970 56.1756 0.0000 4.6802 0.0000
# 4 0.0000 0.0000 0.0000 28.8008 0.0000 -3.3216
# 5 1.1287 10.9363 4.6802 0.0000 17.8780 0.0000
# 6 0.0000 0.0000 0.0000 -3.3216 0.0000 47.0373
#
#
#
# Elastic Compliance Matrix: (Units=1/GPa)
#
#
# Indices 1 2 3 4 5 6 
#
# 1 0.014990 -0.009067 -0.005545 0.000000 0.006052 0.000000
# 2 -0.009067 0.017415 -0.001018 0.000000 -0.009815 0.000000
# 3 -0.005545 -0.001018 0.021851 0.000000 -0.004748 0.000000
# 4 0.000000 0.000000 0.000000 0.035006 0.000000 0.002472
# 5 0.006052 -0.009815 -0.004748 0.000000 0.062799 0.000000
# 6 0.000000 0.000000 0.000000 0.002472 0.000000 0.021434
#
#
# Mechanical properties :
#
#
# Convention : Reuss Voigt Hill
#
# Bulk Modulus (GPa) = 43.48277 56.54551 50.01414
# Shear Modulus (GPa) = 23.53805 28.85218 26.19512
#
# Velocity S-wave (km/s) = 3.43752 3.80583 3.62636
# Velocity P-wave (km/s) = 6.13063 6.90648 6.53009
#
# Compressibility (1/GPa) = 0.02299762
#
# Stress axis : x y z
#
# Youngs Moduli (GPa) = 66.71084 57.42033 45.76356
#
# Poissons Ratio (x) = 0.52061 0.25377
# Poissons Ratio (y) = 0.60484 0.04657
# Poissons Ratio (z) = 0.36993 0.05844
#
# Static dielectric constant tensor:
#      x y z
#    x 3.649090 0.000000 -0.179100 
#    y 0.000000 3.667170 0.000000 
#    z -0.179100 0.000000 3.495960 
# 
# 
# High freq. dielectric constant tensor:
#      x y z
#    x 1.775990 0.000000 -0.006920 
#    y 0.000000 1.766270 0.000000 
#    z -0.006920 0.000000 1.763010 
# 
# From -- ./inp_files/152105.got.cif
#   From: 2010.06.25/outbox.cif.g09.slc.cpg/sg15_77_cif.got.tgz:152105.got - 2010.06.28 07:06:18.
