data_PCOD8136674
_publ_section_title
;
Structure prediction by ZEFSAII (Michael W. Deem and Ramdas Pophale) SiO2 
 PCOD8136674
Probable space group: C 2/C
;
_chemical_formula_sum "Si O2"
_cell_formula_units_Z 48
_cell_length_a 9.447837
_cell_length_b 17.969831
_cell_length_c 19.915781
_cell_angle_alpha 90.000000
_cell_angle_beta 47.433187
_cell_angle_gamma 90.000000
_cell_volume 2490.233128
_symmetry_space_group_name_H-M "C 2/C"
_symmetry_group_IT_number 15
_symmetry_cell_setting 'monoclinic'
loop_
_space_group_symop_operation_xyz
x,y,z
-x,y,1/2-z
-x,-y,-z
x,-y,1/2+z
1/2+x,1/2+y,z
1/2-x,1/2+y,1/2-z
1/2-x,1/2-y,-z
1/2+x,1/2-y,1/2+z
loop_
_atom_site_type_symbol
_atom_site_label
_atom_site_fract_x
_atom_site_fract_y
_atom_site_fract_z
Si Si1 0.984321 0.846722 0.326955
Si Si2 0.350944 0.916351 0.986747
Si Si3 0.880830 0.588929 0.975314
Si Si4 0.412681 0.817579 0.206195
Si Si5 0.230780 0.708085 0.076217
Si Si6 0.432979 0.301914 0.930482
O O1 0.860721 0.898378 0.416087
O O2 0.891238 0.765296 0.339753
O O3 0.000000 0.887966 0.250000
O O4 0.191895 0.834836 0.291533
O O5 0.509535 0.892410 0.990585
O O6 0.375527 0.869817 0.908988
O O7 0.372192 0.002123 0.961892
O O8 0.996724 0.627137 0.877770
O O9 0.660239 0.617359 0.054285
O O10 0.500000 0.831593 0.250000
O O11 0.444813 0.732135 0.170783
O O12 0.435090 0.692388 0.045670
O O13 0.250000 0.750000 0.000000
O O14 0.250000 0.250000 0.000000
#
# Coordination Sequence:
#
# PCOD8136674 Si02
#       6
#     8   8   8   8   8   8
#     4  11  19  38  59  84 113 149 195 242 290 332
#     4  10  22  39  62  82 116 161 191 230 287 355
#     4  10  22  41  57  85 120 155 194 229 287 355
#     4  11  23  36  59  86 115 148 191 249 290 331
#     4  10  20  34  59  84 107 149 190 228 280 342
#     4  10  20  36  56  83 113 144 189 233 278 340
#
# _framework density 19.275303999999998
#
# number of rings (size 3 to 8) (size 9 to 14) (size 15 to 20)
#    0.000    1.667    3.333    3.000   11.667    0.667 
#    0.000    3.333    0.000    0.000    0.000    0.000 
#    0.000    0.000    0.000    0.000    0.000    0.000 
#
# Total GULP energy -297421.313180 kJ/mol
# GULP energy per Si atom -12392.554716 kJ/mol
# Density = 1.923143 g / cm^3
# Si number density = 19.275304 Si / 1000 Ang^3
#
#
#
# Elastic Constant Matrix: (Units=GPa)
#
#
# Indices 1 2 3 4 5 6 
#
# 1 159.4614 45.6807 19.5449 0.0009 -14.9580 -0.0008
# 2 45.6807 92.3776 18.5584 -0.0001 -0.5348 -0.0005
# 3 19.5449 18.5584 50.5833 -0.0003 -11.6759 -0.0008
# 4 0.0009 -0.0001 -0.0003 15.5136 -0.0008 1.4147
# 5 -14.9580 -0.5348 -11.6759 -0.0008 29.9617 0.0009
# 6 -0.0008 -0.0005 -0.0008 1.4147 0.0009 29.2892
#
#
#
# Elastic Compliance Matrix: (Units=1/GPa)
#
#
# Indices 1 2 3 4 5 6 
#
# 1 0.007743 -0.003637 -0.000857 0.000000 0.003467 0.000000
# 2 -0.003637 0.013465 -0.004284 0.000000 -0.003245 0.000000
# 3 -0.000857 -0.004284 0.023687 0.000001 0.008726 0.000000
# 4 0.000000 0.000000 0.000001 0.064745 0.000002 -0.003127
# 5 0.003467 -0.003245 0.008726 0.000002 0.038449 -0.000001
# 6 0.000000 0.000000 0.000000 -0.003127 -0.000001 0.034293
#
#
# Mechanical properties :
#
#
# Convention : Reuss Voigt Hill
#
# Bulk Modulus (GPa) = 36.57803 52.22115 44.39959
# Shear Modulus (GPa) = 23.91752 29.52879 26.72316
#
# Velocity S-wave (km/s) = 3.52637 3.91826 3.72747
# Velocity P-wave (km/s) = 5.96643 6.90083 6.45057
#
# Compressibility (1/GPa) = 0.02733882
#
# Stress axis : x y z
#
# Youngs Moduli (GPa) = 129.14586 74.26479 42.21787
#
# Poissons Ratio (x) = 0.27008 0.03620
# Poissons Ratio (y) = 0.46966 0.18086
# Poissons Ratio (z) = 0.11074 0.31815
#
# Static dielectric constant tensor:
#      x y z
#    x 3.798970 0.000000 -0.023730 
#    y 0.000000 3.997660 0.000000 
#    z -0.023730 0.000000 4.002120 
# 
# 
# High freq. dielectric constant tensor:
#      x y z
#    x 1.770370 0.000000 -0.003740 
#    y 0.000000 1.735580 0.000000 
#    z -0.003740 0.000000 1.732500 
# 
# From -- ./inp_files/232502.got.cif
#   From: 2010.06.25/outbox.cif.g09.slc.cpg/sg15_117_cif.got.tgz:232502.got - 2010.06.28 07:06:18.
