data_PCOD8136794
_publ_section_title
;
Structure prediction by ZEFSAII (Michael W. Deem and Ramdas Pophale) SiO2 
 PCOD8136794
Probable space group: C 2/C
;
_chemical_formula_sum "Si O2"
_cell_formula_units_Z 40
_cell_length_a 19.038135
_cell_length_b 27.541380
_cell_length_c 5.207089
_cell_angle_alpha 90.000000
_cell_angle_beta 59.284770
_cell_angle_gamma 90.000000
_cell_volume 2347.255570
_symmetry_space_group_name_H-M "C 2/C"
_symmetry_group_IT_number 15
_symmetry_cell_setting 'monoclinic'
loop_
_space_group_symop_operation_xyz
x,y,z
-x,y,1/2-z
-x,-y,-z
x,-y,1/2+z
1/2+x,1/2+y,z
1/2-x,1/2+y,1/2-z
1/2-x,1/2-y,-z
1/2+x,1/2-y,1/2+z
loop_
_atom_site_type_symbol
_atom_site_label
_atom_site_fract_x
_atom_site_fract_y
_atom_site_fract_z
Si Si1 0.000000 0.268924 0.750000
Si Si2 0.919448 0.132165 0.074682
Si Si3 0.091019 0.978806 0.818106
Si Si4 0.767832 0.186260 0.210873
Si Si5 0.000000 0.205487 0.250000
Si Si6 0.175531 0.703655 0.882534
O O1 0.975330 0.237220 0.544200
O O2 0.077635 0.302884 0.547335
O O3 0.909930 0.078869 0.208431
O O4 0.839789 0.146462 0.060340
O O5 0.925399 0.170241 0.302246
O O6 0.000000 0.135806 0.750000
O O7 0.137156 0.002756 0.488424
O O8 0.000000 0.000000 0.000000
O O9 0.807406 0.239179 0.147046
O O10 0.713623 0.177392 0.564846
O O11 0.710928 0.178456 0.070225
#
# Coordination Sequence:
#
# PCOD8136794 Si02
#       6
#     4   8   8   8   4   8
#     4  12  22  36  54  67  96 136 174 213 262 310
#     4  12  23  33  54  73 103 136 182 208 242 304
#     4  10  20  35  48  69  97 134 170 200 252 282
#     4  10  22  33  49  72  99 129 165 226 246 288
#     4  12  22  30  48  79  86 130 186 209 234 286
#     4  10  21  37  48  68 100 128 169 215 268 285
#
# _framework density 17.041177999999999
#
# number of rings (size 3 to 8) (size 9 to 14) (size 15 to 20)
#    0.000    1.200    5.000    2.400    8.400    0.000 
#    0.000    0.000    0.000    0.000    0.000    0.000 
#    0.000    0.000    0.000   18.000    0.000    0.000 
#
# Total GULP energy -247949.124916 kJ/mol
# GULP energy per Si atom -12397.456246 kJ/mol
# Density = 1.700239 g / cm^3
# Si number density = 17.041178 Si / 1000 Ang^3
#
#
#
# Elastic Constant Matrix: (Units=GPa)
#
#
# Indices 1 2 3 4 5 6 
#
# 1 107.1302 31.7533 58.8059 0.0000 3.1239 0.0000
# 2 31.7533 55.7674 22.9781 0.0000 -0.2671 0.0000
# 3 58.8059 22.9781 115.5188 0.0000 16.8119 0.0000
# 4 0.0000 0.0000 0.0000 9.7863 0.0000 5.3685
# 5 3.1239 -0.2671 16.8119 0.0000 39.0648 0.0000
# 6 0.0000 0.0000 0.0000 5.3685 0.0000 19.1372
#
#
#
# Elastic Compliance Matrix: (Units=1/GPa)
#
#
# Indices 1 2 3 4 5 6 
#
# 1 0.014515 -0.005573 -0.006514 0.000000 0.001605 0.000000
# 2 -0.005573 0.021809 -0.001694 0.000000 0.001324 0.000000
# 3 -0.006514 -0.001694 0.013053 0.000000 -0.005108 0.000000
# 4 0.000000 0.000000 0.000000 0.120769 0.000000 -0.033879
# 5 0.001605 0.001324 -0.005108 0.000000 0.027678 0.000000
# 6 0.000000 0.000000 0.000000 -0.033879 0.000000 0.061759
#
#
# Mechanical properties :
#
#
# Convention : Reuss Voigt Hill
#
# Bulk Modulus (GPa) = 45.83887 56.16567 51.00227
# Shear Modulus (GPa) = 16.98275 24.58958 20.78616
#
# Velocity S-wave (km/s) = 3.16028 3.80274 3.49630
# Velocity P-wave (km/s) = 6.34616 7.23267 6.80387
#
# Compressibility (1/GPa) = 0.02181555
#
# Stress axis : x y z
#
# Youngs Moduli (GPa) = 68.89321 45.85243 76.61106
#
# Poissons Ratio (x) = 0.25554 0.49905
# Poissons Ratio (y) = 0.38395 0.12976
# Poissons Ratio (z) = 0.44877 0.07766
#
# Static dielectric constant tensor:
#      x y z
#    x 28.946030 0.000000 37.057960 
#    y 0.000000 2.862510 0.000000 
#    z 37.057960 0.000000 55.768250 
# 
# 
# High freq. dielectric constant tensor:
#      x y z
#    x 1.646500 0.000000 0.033100 
#    y 0.000000 1.607930 0.000000 
#    z 0.033100 0.000000 1.663770 
# 
# From -- ./inp_files/11049.got.cif
#   From: 2010.06.25/outbox.cif.g09.slc.cpg/sg15_6_cif.got.tgz:11049.got - 2010.06.28 07:06:18.
