data_PCOD8136252
_publ_section_title
;
Structure prediction by ZEFSAII (Michael W. Deem and Ramdas Pophale) SiO2 
 PCOD8136252
Probable space group: C 2/C
;
_chemical_formula_sum "Si O2"
_cell_formula_units_Z 48
_cell_length_a 4.957332
_cell_length_b 29.564339
_cell_length_c 17.598540
_cell_angle_alpha 90.000000
_cell_angle_beta 113.140985
_cell_angle_gamma 90.000000
_cell_volume 2371.721738
_symmetry_space_group_name_H-M "C 2/C"
_symmetry_group_IT_number 15
_symmetry_cell_setting 'monoclinic'
loop_
_space_group_symop_operation_xyz
x,y,z
-x,y,1/2-z
-x,-y,-z
x,-y,1/2+z
1/2+x,1/2+y,z
1/2-x,1/2+y,1/2-z
1/2-x,1/2-y,-z
1/2+x,1/2-y,1/2+z
loop_
_atom_site_type_symbol
_atom_site_label
_atom_site_fract_x
_atom_site_fract_y
_atom_site_fract_z
Si Si1 0.217351 0.960634 0.050908
Si Si2 0.360879 0.439430 0.154014
Si Si3 0.129880 0.751214 0.347066
Si Si4 0.108497 0.132959 0.478363
Si Si5 0.732003 0.845735 0.076432
Si Si6 0.374475 0.305050 0.653149
O O1 0.570256 0.969632 0.098893
O O2 0.181351 0.920344 0.985835
O O3 0.120836 0.947000 0.123900
O O4 0.000000 0.000000 0.000000
O O5 0.500000 0.453408 0.250000
O O6 0.293458 0.385757 0.143867
O O7 0.106621 0.799697 0.383844
O O8 0.461491 0.734660 0.374801
O O9 0.000000 0.756919 0.250000
O O10 0.958403 0.712962 0.377022
O O11 0.383631 0.161907 0.539957
O O12 0.070455 0.148471 0.386850
O O13 0.829673 0.141131 0.501650
O O14 0.500000 0.314660 0.750000
#
# Coordination Sequence:
#
# PCOD8136252 Si02
#       6
#     8   8   8   8   8   8
#     4  10  21  38  59  83 112 144 180 228 283 336
#     4  10  20  36  59  85 114 144 178 224 279 336
#     4  10  20  33  50  74 107 144 179 218 263 310
#     4  10  21  35  53  77 103 139 180 221 276 325
#     4  10  20  33  53  80 108 139 177 221 269 326
#     4  10  21  35  50  71 104 144 183 222 262 311
#
# _framework density 20.238461000000001
#
# number of rings (size 3 to 8) (size 9 to 14) (size 15 to 20)
#    0.000    2.000    0.000    3.500    0.000    4.000 
#    0.000    5.833    0.000    8.000    0.000    0.000 
#    0.000    0.000    0.000    0.000    0.000    0.000 
#
# Total GULP energy -297433.354224 kJ/mol
# GULP energy per Si atom -12393.056426 kJ/mol
# Density = 2.019240 g / cm^3
# Si number density = 20.238461 Si / 1000 Ang^3
#
#
#
# Elastic Constant Matrix: (Units=GPa)
#
#
# Indices 1 2 3 4 5 6 
#
# 1 92.6172 17.7564 23.5436 0.0000 2.5316 0.0000
# 2 17.7564 85.6224 43.7362 0.0000 1.7837 0.0000
# 3 23.5436 43.7362 64.3642 0.0000 0.4860 0.0000
# 4 0.0000 0.0000 0.0000 15.6423 0.0000 -0.4310
# 5 2.5316 1.7837 0.4860 0.0000 25.6950 0.0000
# 6 0.0000 0.0000 0.0000 -0.4310 0.0000 25.0687
#
#
#
# Elastic Compliance Matrix: (Units=1/GPa)
#
#
# Indices 1 2 3 4 5 6 
#
# 1 0.011941 -0.000348 -0.004124 0.000000 -0.001074 0.000000
# 2 -0.000348 0.017925 -0.012045 0.000000 -0.000982 0.000000
# 3 -0.004124 -0.012045 0.025224 0.000000 0.000765 0.000000
# 4 0.000000 0.000000 0.000000 0.063959 0.000000 0.001100
# 5 -0.001074 -0.000982 0.000765 0.000000 0.039078 0.000000
# 6 0.000000 0.000000 0.000000 0.001100 0.000000 0.039909
#
#
# Mechanical properties :
#
#
# Convention : Reuss Voigt Hill
#
# Bulk Modulus (GPa) = 45.33758 45.85292 45.59525
# Shear Modulus (GPa) = 20.97121 23.78570 22.37846
#
# Velocity S-wave (km/s) = 3.22251 3.43194 3.32887
# Velocity P-wave (km/s) = 6.02465 6.19757 6.11172
#
# Compressibility (1/GPa) = 0.02205676
#
# Stress axis : x y z
#
# Youngs Moduli (GPa) = 83.74231 55.78942 39.64461
#
# Poissons Ratio (x) = 0.01940 0.16348
# Poissons Ratio (y) = 0.02911 0.47753
# Poissons Ratio (z) = 0.34532 0.67200
#
# Static dielectric constant tensor:
#      x y z
#    x 4.035170 0.000000 0.007180 
#    y 0.000000 3.504760 0.000000 
#    z 0.007180 0.000000 3.508810 
# 
# 
# High freq. dielectric constant tensor:
#      x y z
#    x 1.814450 0.000000 -0.004250 
#    y 0.000000 1.766640 0.000000 
#    z -0.004250 0.000000 1.775640 
# 
# From -- ./inp_files/185984.got.cif
#   From: 2010.06.25/outbox.cif.g09.slc.cpg/sg15_93_cif.got.tgz:185984.got - 2010.06.28 07:06:18.
