data_PCOD8136930
_publ_section_title
;
Structure prediction by ZEFSAII (Michael W. Deem and Ramdas Pophale) SiO2 
 PCOD8136930
Probable space group: C 2/C
;
_chemical_formula_sum "Si O2"
_cell_formula_units_Z 64
_cell_length_a 9.512780
_cell_length_b 15.282398
_cell_length_c 23.594561
_cell_angle_alpha 90.000000
_cell_angle_beta 89.999916
_cell_angle_gamma 90.000000
_cell_volume 3430.132214
_symmetry_space_group_name_H-M "C 2/C"
_symmetry_group_IT_number 15
_symmetry_cell_setting 'monoclinic'
loop_
_space_group_symop_operation_xyz
x,y,z
-x,y,1/2-z
-x,-y,-z
x,-y,1/2+z
1/2+x,1/2+y,z
1/2-x,1/2+y,1/2-z
1/2-x,1/2-y,-z
1/2+x,1/2-y,1/2+z
loop_
_atom_site_type_symbol
_atom_site_label
_atom_site_fract_x
_atom_site_fract_y
_atom_site_fract_z
Si Si1 0.915474 0.919416 0.622609
Si Si2 0.586148 0.585091 0.616653
Si Si3 0.912934 0.249991 0.806275
Si Si4 0.913851 0.585091 0.616652
Si Si5 0.087066 0.250009 0.306275
Si Si6 0.915474 0.419416 0.877391
Si Si7 0.583502 0.152759 0.003673
Si Si8 0.916498 0.847241 0.503673
O O1 0.954339 0.841869 0.665480
O O2 0.750000 0.938432 0.622480
O O3 0.972167 0.894770 0.560028
O O4 0.996957 0.005824 0.643219
O O5 0.550113 0.673410 0.649916
O O6 0.750000 0.561928 0.621460
O O7 0.538896 0.597917 0.551473
O O8 0.750000 0.248284 0.790061
O O9 0.954339 0.341868 0.834520
O O10 0.000000 0.234836 0.750000
O O11 0.949887 0.673410 0.649915
O O12 0.961104 0.597916 0.551472
O O13 0.003042 0.505824 0.643219
O O14 0.000000 0.265164 0.250000
O O15 0.972167 0.394770 0.939972
O O16 0.750000 0.161972 0.007479
O O17 0.517735 0.250000 1.000000
#
# Coordination Sequence:
#
# PCOD8136930 Si02
#       8
#     8   8   8   8   8   8   8   8
#     4  10  20  35  57  83 109 140 177 218 267 320
#     4  10  20  35  57  83 109 140 177 218 267 320
#     4  10  22  39  57  77 105 144 185 222 264 314
#     4  10  20  35  57  83 109 140 177 218 267 320
#     4  10  22  39  57  77 105 144 185 222 264 314
#     4  10  20  35  57  83 109 140 177 218 267 320
#     4   9  15  30  57  82 107 140 175 213 262 322
#     4   9  15  30  57  82 107 140 175 213 262 322
#
# _framework density 18.658173000000001
#
# number of rings (size 3 to 8) (size 9 to 14) (size 15 to 20)
#    0.000    2.250    2.500    0.750    0.000    3.000 
#    0.000    5.000    0.000    1.500    0.000    0.000 
#    0.000    0.000    0.000    0.000    0.000    0.000 
#
# Total GULP energy -396845.664189 kJ/mol
# GULP energy per Si atom -12401.427006 kJ/mol
# Density = 1.861571 g / cm^3
# Si number density = 18.658173 Si / 1000 Ang^3
#
#
#
# Elastic Constant Matrix: (Units=GPa)
#
#
# Indices 1 2 3 4 5 6 
#
# 1 39.5223 39.5934 26.9711 0.0000 0.0004 0.0000
# 2 39.5934 102.8345 -1.7789 0.0000 0.0006 0.0000
# 3 26.9711 -1.7789 69.3862 0.0000 0.0007 0.0000
# 4 0.0000 0.0000 0.0000 12.2189 0.0000 -0.0001
# 5 0.0004 0.0006 0.0007 0.0000 27.7838 0.0000
# 6 0.0000 0.0000 0.0000 -0.0001 0.0000 32.2799
#
#
#
# Elastic Compliance Matrix: (Units=1/GPa)
#
#
# Indices 1 2 3 4 5 6 
#
# 1 0.075472 -0.029579 -0.030095 0.000000 0.000000 0.000000
# 2 -0.029579 0.021321 0.012044 0.000000 0.000000 0.000000
# 3 -0.030095 0.012044 0.026419 0.000000 0.000000 0.000000
# 4 0.000000 0.000000 0.000000 0.081840 0.000000 0.000000
# 5 0.000000 0.000000 0.000000 0.000000 0.035992 0.000000
# 6 0.000000 0.000000 0.000000 0.000000 0.000000 0.030979
#
#
# Mechanical properties :
#
#
# Convention : Reuss Voigt Hill
#
# Bulk Modulus (GPa) = 35.77446 37.92379 36.84912
# Shear Modulus (GPa) = 13.27664 24.25368 18.76516
#
# Velocity S-wave (km/s) = 2.67043 3.60932 3.17477
# Velocity P-wave (km/s) = 5.35943 6.14323 5.76467
#
# Compressibility (1/GPa) = 0.02795291
#
# Stress axis : x y z
#
# Youngs Moduli (GPa) = 13.24994 46.90167 37.85129
#
# Poissons Ratio (x) = 1.38730 1.13914
# Poissons Ratio (y) = 0.39192 -0.45589
# Poissons Ratio (z) = 0.39876 -0.56490
#
# Static dielectric constant tensor:
#      x y z
#    x 3.035990 0.000000 0.000000 
#    y 0.000000 3.468210 0.000000 
#    z 0.000000 0.000000 3.471970 
# 
# 
# High freq. dielectric constant tensor:
#      x y z
#    x 1.689180 0.000000 0.000000 
#    y 0.000000 1.737830 0.000000 
#    z 0.000000 0.000000 1.725400 
# 
# From -- ./inp_files/42676.got.cif
#   From: 2010.06.25/outbox.cif.g09.slc.cpg/sg15_22_cif.got.tgz:42676.got - 2010.06.28 07:06:18.
