data_PCOD8136162
_publ_section_title
;
Structure prediction by ZEFSAII (Michael W. Deem and Ramdas Pophale) SiO2 
 PCOD8136162
Probable space group: C 2/C
;
_chemical_formula_sum "Si O2"
_cell_formula_units_Z 56
_cell_length_a 11.647173
_cell_length_b 10.810815
_cell_length_c 26.690945
_cell_angle_alpha 90.000000
_cell_angle_beta 122.703827
_cell_angle_gamma 90.000000
_cell_volume 2828.029743
_symmetry_space_group_name_H-M "C 2/C"
_symmetry_group_IT_number 15
_symmetry_cell_setting 'monoclinic'
loop_
_space_group_symop_operation_xyz
x,y,z
-x,y,1/2-z
-x,-y,-z
x,-y,1/2+z
1/2+x,1/2+y,z
1/2-x,1/2+y,1/2-z
1/2-x,1/2-y,-z
1/2+x,1/2-y,1/2+z
loop_
_atom_site_type_symbol
_atom_site_label
_atom_site_fract_x
_atom_site_fract_y
_atom_site_fract_z
Si Si1 0.627026 0.279266 0.008232
Si Si2 0.848611 0.424815 0.907962
Si Si3 0.748363 0.046725 0.880621
Si Si4 0.115489 0.363955 0.919731
Si Si5 0.289498 0.598545 0.559180
Si Si6 0.083947 0.782053 0.819336
Si Si7 0.480058 0.600674 0.391024
O O1 0.491910 0.316181 0.944631
O O2 0.750000 0.250000 0.000000
O O3 0.595229 0.157028 0.032356
O O4 0.662881 0.388826 0.055139
O O5 0.817535 0.563746 0.921288
O O6 0.713659 0.371380 0.850345
O O7 0.966035 0.420375 0.894111
O O8 0.639036 0.141540 0.831692
O O9 0.666679 0.931488 0.882645
O O10 0.847956 0.988434 0.861569
O O11 0.117760 0.218011 0.906962
O O12 0.213244 0.386773 0.989254
O O13 0.383634 0.479495 0.576814
O O14 0.000000 0.809339 0.750000
O O15 0.984114 0.810568 0.843172
#
# Coordination Sequence:
#
# PCOD8136162 Si02
#       7
#     8   8   8   8   8   8   8
#     4  11  17  34  59  89 119 154 196 237 295 365
#     4  10  21  36  57  83 122 157 191 244 294 355
#     4  11  22  36  61  89 121 155 195 252 296 360
#     4  11  22  32  51  90 129 155 179 229 304 371
#     4  10  20  32  51  85 126 158 186 225 292 369
#     4  10  23  45  66  81 107 156 217 258 297 349
#     4  11  21  37  63  88 116 158 207 244 300 360
#
# _framework density 19.801772
#
# number of rings (size 3 to 8) (size 9 to 14) (size 15 to 20)
#    0.000    1.429    5.714    2.571    4.000    1.143 
#    2.571    0.000    0.000    0.857    0.000    0.000 
#    0.000    0.000    0.000    0.000    0.000    0.000 
#
# Total GULP energy -347135.599586 kJ/mol
# GULP energy per Si atom -12397.699985 kJ/mol
# Density = 1.975670 g / cm^3
# Si number density = 19.801772 Si / 1000 Ang^3
#
#
#
# Elastic Constant Matrix: (Units=GPa)
#
#
# Indices 1 2 3 4 5 6 
#
# 1 105.8188 35.2151 21.8573 0.0000 2.3390 0.0000
# 2 35.2151 75.7698 26.4195 0.0000 -0.5471 0.0000
# 3 21.8573 26.4195 87.1399 0.0000 -11.1071 0.0000
# 4 0.0000 0.0000 0.0000 8.8810 0.0000 4.6624
# 5 2.3390 -0.5471 -11.1071 0.0000 11.5178 0.0000
# 6 0.0000 0.0000 0.0000 4.6624 0.0000 40.7251
#
#
#
# Elastic Compliance Matrix: (Units=1/GPa)
#
#
# Indices 1 2 3 4 5 6 
#
# 1 0.011531 -0.004676 -0.002054 0.000000 -0.004544 0.000000
# 2 -0.004676 0.016828 -0.004226 0.000000 -0.002326 0.000000
# 3 -0.002054 -0.004226 0.015164 0.000000 0.014839 0.000000
# 4 0.000000 0.000000 0.000000 0.119800 0.000000 -0.013715
# 5 -0.004544 -0.002326 0.014839 0.000000 0.101945 0.000000
# 6 0.000000 0.000000 0.000000 -0.013715 0.000000 0.026125
#
#
# Mechanical properties :
#
#
# Convention : Reuss Voigt Hill
#
# Bulk Modulus (GPa) = 46.27149 48.41246 47.34198
# Shear Modulus (GPa) = 15.60031 24.57389 20.08710
#
# Velocity S-wave (km/s) = 2.80987 3.52660 3.18843
# Velocity P-wave (km/s) = 5.82625 6.40969 6.12492
#
# Compressibility (1/GPa) = 0.02161158
#
# Stress axis : x y z
#
# Youngs Moduli (GPa) = 86.72397 59.42631 65.94762
#
# Poissons Ratio (x) = 0.27786 0.13545
# Poissons Ratio (y) = 0.40550 0.27866
# Poissons Ratio (z) = 0.17812 0.25111
#
# Static dielectric constant tensor:
#      x y z
#    x 3.787450 0.000000 -0.003220 
#    y 0.000000 3.930320 0.000000 
#    z -0.003220 0.000000 3.170730 
# 
# 
# High freq. dielectric constant tensor:
#      x y z
#    x 1.779360 0.000000 0.003060 
#    y 0.000000 1.783370 0.000000 
#    z 0.003060 0.000000 1.716600 
# 
# From -- ./inp_files/292304.got.cif
#   From: 2010.06.25/outbox.cif.g09.slc.cpg/sg15_147_cif.got.tgz:292304.got - 2010.06.28 07:06:18.
