data_PCOD8136363
_publ_section_title
;
Structure prediction by ZEFSAII (Michael W. Deem and Ramdas Pophale) SiO2 
 PCOD8136363
Probable space group: C 2/C
;
_chemical_formula_sum "Si O2"
_cell_formula_units_Z 52
_cell_length_a 11.208463
_cell_length_b 19.216582
_cell_length_c 18.604310
_cell_angle_alpha 90.000000
_cell_angle_beta 41.159051
_cell_angle_gamma 90.000000
_cell_volume 2637.313018
_symmetry_space_group_name_H-M "C 2/C"
_symmetry_group_IT_number 15
_symmetry_cell_setting 'monoclinic'
loop_
_space_group_symop_operation_xyz
x,y,z
-x,y,1/2-z
-x,-y,-z
x,-y,1/2+z
1/2+x,1/2+y,z
1/2-x,1/2+y,1/2-z
1/2-x,1/2-y,-z
1/2+x,1/2-y,1/2+z
loop_
_atom_site_type_symbol
_atom_site_label
_atom_site_fract_x
_atom_site_fract_y
_atom_site_fract_z
Si Si1 0.809437 0.225443 0.297061
Si Si2 0.169882 0.369381 0.274235
Si Si3 0.500000 0.977987 0.250000
Si Si4 0.155337 0.049365 0.461356
Si Si5 0.549568 0.469719 0.308289
Si Si6 0.569900 0.385221 0.864517
Si Si7 0.701434 0.176219 0.489429
O O1 0.740979 0.301844 0.304679
O O2 0.823410 0.177975 0.220382
O O3 0.681680 0.186228 0.412354
O O4 0.000000 0.235937 0.250000
O O5 0.311656 0.405398 0.263274
O O6 0.133462 0.428799 0.233188
O O7 0.990797 0.349471 0.397667
O O8 0.364190 0.024493 0.359865
O O9 0.123943 0.117989 0.424971
O O10 0.113907 0.058096 0.565315
O O11 0.000000 0.000000 0.500000
O O12 0.500000 0.489672 0.250000
O O13 0.635476 0.540574 0.302467
O O14 0.353823 0.378927 0.946168
O O15 0.750000 0.250000 0.500000
#
# Coordination Sequence:
#
# PCOD8136363 Si02
#       7
#     8   8   4   8   8   8   8
#     4  10  20  33  57  89 124 151 195 263 321 357
#     4  12  21  35  64  92 123 157 212 255 306 382
#     4  12  20  38  64 102 114 162 216 244 324 366
#     4  10  21  39  63  88 125 164 203 262 302 374
#     4  11  24  41  60  85 130 172 203 250 311 374
#     4  10  20  40  57  89 127 161 192 259 328 357
#     4  11  20  34  61  97 125 152 201 267 326 362
#
# _framework density 19.717037999999999
#
# number of rings (size 3 to 8) (size 9 to 14) (size 15 to 20)
#    0.000    1.231    6.923    3.231    2.154    0.000 
#    2.769    2.308    1.692    1.846    0.000    0.000 
#    0.000    0.000    0.000    0.000    0.000    0.000 
#
# Total GULP energy -322178.211235 kJ/mol
# GULP energy per Si atom -12391.469663 kJ/mol
# Density = 1.967216 g / cm^3
# Si number density = 19.717038 Si / 1000 Ang^3
#
#
#
# Elastic Constant Matrix: (Units=GPa)
#
#
# Indices 1 2 3 4 5 6 
#
# 1 43.2214 27.4321 26.4838 0.0001 20.9402 0.0004
# 2 27.4321 97.5077 34.1070 0.0044 -1.6497 -0.0010
# 3 26.4838 34.1070 122.7790 0.0008 9.2410 0.0113
# 4 0.0001 0.0044 0.0008 28.7789 0.0031 -1.2447
# 5 20.9402 -1.6497 9.2410 0.0031 31.8926 -0.0017
# 6 0.0004 -0.0010 0.0113 -1.2447 -0.0017 29.7534
#
#
#
# Elastic Compliance Matrix: (Units=1/GPa)
#
#
# Indices 1 2 3 4 5 6 
#
# 1 0.049644 -0.012848 -0.004739 0.000005 -0.031887 -0.000001
# 2 -0.012848 0.014759 -0.002066 -0.000003 0.009798 0.000002
# 3 -0.004739 -0.002066 0.009727 0.000000 0.000186 -0.000004
# 4 0.000005 -0.000003 0.000000 0.034811 -0.000007 0.001456
# 5 -0.031887 0.009798 0.000186 -0.000007 0.052744 0.000003
# 6 -0.000001 0.000002 -0.000004 0.001456 0.000003 0.033671
#
#
# Mechanical properties :
#
#
# Convention : Reuss Voigt Hill
#
# Bulk Modulus (GPa) = 28.71686 48.83932 38.77809
# Shear Modulus (GPa) = 20.30298 29.78400 25.04349
#
# Velocity S-wave (km/s) = 3.21240 3.89082 3.56778
# Velocity P-wave (km/s) = 5.32499 6.70884 6.05657
#
# Compressibility (1/GPa) = 0.03482275
#
# Stress axis : x y z
#
# Youngs Moduli (GPa) = 20.14342 67.75707 102.80836
#
# Poissons Ratio (x) = 0.87056 0.48724
# Poissons Ratio (y) = 0.25881 0.21239
# Poissons Ratio (z) = 0.09546 0.13998
#
# Static dielectric constant tensor:
#      x y z
#    x 3.686180 -0.000090 0.616760 
#    y -0.000090 3.909720 0.000170 
#    z 0.616760 0.000170 3.294630 
# 
# 
# High freq. dielectric constant tensor:
#      x y z
#    x 1.726370 0.000000 0.022800 
#    y 0.000000 1.764250 0.000000 
#    z 0.022800 0.000000 1.778760 
# 
# From -- ./inp_files/239745.got.cif
#   From: 2010.06.25/outbox.cif.g09.slc.cpg/sg15_120_cif.got.tgz:239745.got - 2010.06.28 07:06:18.
