data_PCOD8136527
_publ_section_title
;
Structure prediction by ZEFSAII (Michael W. Deem and Ramdas Pophale) SiO2 
 PCOD8136527
Probable space group: C 2/C
;
_chemical_formula_sum "Si O2"
_cell_formula_units_Z 52
_cell_length_a 6.248440
_cell_length_b 17.977937
_cell_length_c 25.300931
_cell_angle_alpha 90.000000
_cell_angle_beta 62.911641
_cell_angle_gamma 90.000000
_cell_volume 2530.386950
_symmetry_space_group_name_H-M "C 2/C"
_symmetry_group_IT_number 15
_symmetry_cell_setting 'monoclinic'
loop_
_space_group_symop_operation_xyz
x,y,z
-x,y,1/2-z
-x,-y,-z
x,-y,1/2+z
1/2+x,1/2+y,z
1/2-x,1/2+y,1/2-z
1/2-x,1/2-y,-z
1/2+x,1/2-y,1/2+z
loop_
_atom_site_type_symbol
_atom_site_label
_atom_site_fract_x
_atom_site_fract_y
_atom_site_fract_z
Si Si1 0.781621 0.425363 0.975371
Si Si2 0.990312 0.002403 0.192245
Si Si3 0.679517 0.648255 0.987249
Si Si4 0.610861 0.950418 0.420835
Si Si5 0.500000 0.926451 0.750000
Si Si6 0.614624 0.790187 0.933482
Si Si7 0.281269 0.653471 0.307683
O O1 0.949266 0.478367 0.920015
O O2 0.877470 0.340602 0.963263
O O3 0.503081 0.421889 0.988620
O O4 0.792584 0.463012 0.031303
O O5 0.000000 0.969921 0.250000
O O6 0.143810 0.943426 0.140694
O O7 0.713959 0.017909 0.206746
O O8 0.120960 0.081482 0.173010
O O9 0.567675 0.705507 0.956907
O O10 0.942905 0.622881 0.936893
O O11 0.690086 0.680146 0.045668
O O12 0.427990 0.872622 0.709242
O O13 0.700295 0.789607 0.862623
O O14 0.500000 0.690919 0.250000
#
# Coordination Sequence:
#
# PCOD8136527 Si02
#       7
#     8   8   8   8   4   8   8
#     4  10  20  34  55  84 115 151 189 231 285 335
#     4   9  18  34  55  84 114 139 190 241 283 335
#     4  10  22  36  58  84 115 160 183 227 301 337
#     4  10  20  36  54  85 119 142 191 242 271 349
#     4   8  18  32  54  86 108 146 180 230 308 318
#     4  10  20  38  56  85 117 145 195 242 273 349
#     4   9  18  34  55  85 113 138 191 244 277 334
#
# _framework density 20.550218999999998
#
# number of rings (size 3 to 8) (size 9 to 14) (size 15 to 20)
#    0.000    2.769    1.538    0.923    0.000    4.923 
#    0.000    0.000    3.385    0.000    0.000    0.000 
#    0.000    0.000    0.000    0.000    0.000    0.000 
#
# Total GULP energy -322115.274721 kJ/mol
# GULP energy per Si atom -12389.049028 kJ/mol
# Density = 2.050345 g / cm^3
# Si number density = 20.550219 Si / 1000 Ang^3
#
#
#
# Elastic Constant Matrix: (Units=GPa)
#
#
# Indices 1 2 3 4 5 6 
#
# 1 100.9554 17.1194 46.8142 0.0000 -8.8750 0.0000
# 2 17.1194 48.2521 24.0528 0.0000 -2.5649 0.0000
# 3 46.8142 24.0528 137.9833 0.0000 -14.5411 0.0000
# 4 0.0000 0.0000 0.0000 20.0012 0.0000 -4.4447
# 5 -8.8750 -2.5649 -14.5411 0.0000 22.7859 0.0000
# 6 0.0000 0.0000 0.0000 -4.4447 0.0000 23.8911
#
#
#
# Elastic Compliance Matrix: (Units=1/GPa)
#
#
# Indices 1 2 3 4 5 6 
#
# 1 0.012118 -0.002462 -0.003446 0.000000 0.002244 0.000000
# 2 -0.002462 0.023197 -0.003253 0.000000 -0.000424 0.000000
# 3 -0.003446 -0.003253 0.009438 0.000000 0.004315 0.000000
# 4 0.000000 0.000000 0.000000 0.052153 0.000000 0.009703
# 5 0.002244 -0.000424 0.004315 0.000000 0.047467 0.000000
# 6 0.000000 0.000000 0.000000 0.009703 0.000000 0.043662
#
#
# Mechanical properties :
#
#
# Convention : Reuss Voigt Hill
#
# Bulk Modulus (GPa) = 37.83407 51.46262 44.64834
# Shear Modulus (GPa) = 23.23778 26.61593 24.92686
#
# Velocity S-wave (km/s) = 3.36636 3.60274 3.48655
# Velocity P-wave (km/s) = 5.79313 6.51177 6.16293
#
# Compressibility (1/GPa) = 0.02643120
#
# Stress axis : x y z
#
# Youngs Moduli (GPa) = 82.52213 43.10880 105.95479
#
# Poissons Ratio (x) = 0.10616 0.36508
# Poissons Ratio (y) = 0.20321 0.34465
# Poissons Ratio (z) = 0.28434 0.14023
#
# Static dielectric constant tensor:
#      x y z
#    x 3.786830 0.000000 -0.119030 
#    y 0.000000 3.382380 0.000000 
#    z -0.119030 0.000000 3.680020 
# 
# 
# High freq. dielectric constant tensor:
#      x y z
#    x 1.811790 0.000000 -0.006440 
#    y 0.000000 1.763460 0.000000 
#    z -0.006440 0.000000 1.793280 
# 
# From -- ./inp_files/261118.got.cif
#   From: 2010.06.25/outbox.cif.g09.slc.cpg/sg15_131_cif.got.tgz:261118.got - 2010.06.28 07:06:18.
