data_PCOD8136848
_publ_section_title
;
Structure prediction by ZEFSAII (Michael W. Deem and Ramdas Pophale) SiO2 
 PCOD8136848
Probable space group: C 2/C
;
_chemical_formula_sum "Si O2"
_cell_formula_units_Z 64
_cell_length_a 8.904961
_cell_length_b 19.737163
_cell_length_c 17.416573
_cell_angle_alpha 90.000000
_cell_angle_beta 91.704701
_cell_angle_gamma 90.000000
_cell_volume 3059.758871
_symmetry_space_group_name_H-M "C 2/C"
_symmetry_group_IT_number 15
_symmetry_cell_setting 'monoclinic'
loop_
_space_group_symop_operation_xyz
x,y,z
-x,y,1/2-z
-x,-y,-z
x,-y,1/2+z
1/2+x,1/2+y,z
1/2-x,1/2+y,1/2-z
1/2-x,1/2-y,-z
1/2+x,1/2-y,1/2+z
loop_
_atom_site_type_symbol
_atom_site_label
_atom_site_fract_x
_atom_site_fract_y
_atom_site_fract_z
Si Si1 0.213542 0.600251 0.604859
Si Si2 0.138697 0.589527 0.299316
Si Si3 0.053335 0.507720 0.917160
Si Si4 0.508355 0.199325 0.839609
Si Si5 0.060422 0.147004 0.169463
Si Si6 0.214972 0.112612 0.608702
Si Si7 0.535922 0.579273 0.006411
Si Si8 0.838808 0.033231 0.746549
O O1 0.143985 0.674804 0.618914
O O2 0.293483 0.594347 0.522322
O O3 0.334935 0.573226 0.666445
O O4 0.070609 0.553847 0.625114
O O5 0.067928 0.565289 0.378365
O O6 0.258630 0.648592 0.317038
O O7 0.210607 0.523221 0.258601
O O8 0.000000 0.620733 0.250000
O O9 0.213340 0.543727 0.922563
O O10 0.000000 0.500000 0.000000
O O11 0.500000 0.176604 0.750000
O O12 0.509471 0.279975 0.847672
O O13 0.661702 0.173132 0.883454
O O14 0.021016 0.098991 0.096186
O O15 0.000000 0.118315 0.250000
O O16 0.160203 0.094732 0.692732
O O17 0.078045 0.126082 0.546733
O O18 0.500000 0.500000 0.000000
O O19 0.000000 0.995601 0.750000
#
# Coordination Sequence:
#
# PCOD8136848 Si02
#       8
#     8   8   8   8   8   8   8   8
#     4  11  21  36  67  91 125 166 207 279 309 386
#     4  11  22  37  60  90 122 166 215 250 326 409
#     4  10  20  35  54  89 127 154 196 260 324 372
#     4  10  22  44  65  92 130 177 232 262 321 395
#     4  11  27  46  64  88 136 182 210 277 339 397
#     4  10  21  35  64  92 124 168 214 265 310 391
#     4  12  25  42  62 104 136 162 224 278 340 396
#     4  11  19  34  61 101 126 156 209 269 338 373
#
# _framework density 20.916681000000001
#
# number of rings (size 3 to 8) (size 9 to 14) (size 15 to 20)
#    0.000    1.250    3.750    3.375    1.750    2.000 
#    0.000    3.125    0.000    0.000    0.000    0.000 
#    0.000    0.000    0.000    0.000    0.000    0.000 
#
# Total GULP energy -396497.869128 kJ/mol
# GULP energy per Si atom -12390.558410 kJ/mol
# Density = 2.086907 g / cm^3
# Si number density = 20.916681 Si / 1000 Ang^3
#
#
#
# Elastic Constant Matrix: (Units=GPa)
#
#
# Indices 1 2 3 4 5 6 
#
# 1 101.0939 19.3591 22.8245 0.0000 6.1068 0.0000
# 2 19.3591 72.4331 26.2406 0.0000 -0.1140 0.0000
# 3 22.8245 26.2406 112.8855 0.0000 -11.6172 0.0000
# 4 0.0000 0.0000 0.0000 24.0755 0.0000 -0.1104
# 5 6.1068 -0.1140 -11.6172 0.0000 41.2171 0.0000
# 6 0.0000 0.0000 0.0000 -0.1104 0.0000 27.0621
#
#
#
# Elastic Compliance Matrix: (Units=1/GPa)
#
#
# Indices 1 2 3 4 5 6 
#
# 1 0.010877 -0.002220 -0.001905 0.000000 -0.002155 0.000000
# 2 -0.002220 0.015567 -0.003225 0.000000 -0.000537 0.000000
# 3 -0.001905 -0.003225 0.010321 0.000000 0.003182 0.000000
# 4 0.000000 0.000000 0.000000 0.041537 0.000000 0.000170
# 5 -0.002155 -0.000537 0.003182 0.000000 0.025476 0.000000
# 6 0.000000 0.000000 0.000000 0.000170 0.000000 0.036953
#
#
# Mechanical properties :
#
#
# Convention : Reuss Voigt Hill
#
# Bulk Modulus (GPa) = 45.32176 47.02897 46.17537
# Shear Modulus (GPa) = 30.71522 33.00351 31.85936
#
# Velocity S-wave (km/s) = 3.83620 3.97653 3.90700
# Velocity P-wave (km/s) = 6.42936 6.60428 6.51741
#
# Compressibility (1/GPa) = 0.02206446
#
# Stress axis : x y z
#
# Youngs Moduli (GPa) = 91.93525 64.23958 96.89173
#
# Poissons Ratio (x) = 0.14264 0.18457
# Poissons Ratio (y) = 0.20414 0.31246
# Poissons Ratio (z) = 0.17512 0.20716
#
# Static dielectric constant tensor:
#      x y z
#    x 3.798430 0.000000 0.020130 
#    y 0.000000 3.167890 0.000000 
#    z 0.020130 0.000000 3.923440 
# 
# 
# High freq. dielectric constant tensor:
#      x y z
#    x 1.832690 0.000000 -0.002920 
#    y 0.000000 1.778370 0.000000 
#    z -0.002920 0.000000 1.826980 
# 
# From -- ./inp_files/192169.got.cif
#   From: 2010.06.25/outbox.cif.g09.slc.cpg/sg15_97_cif.got.tgz:192169.got - 2010.06.28 07:06:18.
