data_PCOD8136629
_publ_section_title
;
Structure prediction by ZEFSAII (Michael W. Deem and Ramdas Pophale) SiO2 
 PCOD8136629
Probable space group: C 2/C
;
_chemical_formula_sum "Si O2"
_cell_formula_units_Z 64
_cell_length_a 9.004265
_cell_length_b 24.698650
_cell_length_c 14.090621
_cell_angle_alpha 90.000000
_cell_angle_beta 92.965413
_cell_angle_gamma 90.000000
_cell_volume 3129.462011
_symmetry_space_group_name_H-M "C 2/C"
_symmetry_group_IT_number 15
_symmetry_cell_setting 'monoclinic'
loop_
_space_group_symop_operation_xyz
x,y,z
-x,y,1/2-z
-x,-y,-z
x,-y,1/2+z
1/2+x,1/2+y,z
1/2-x,1/2+y,1/2-z
1/2-x,1/2-y,-z
1/2+x,1/2-y,1/2+z
loop_
_atom_site_type_symbol
_atom_site_label
_atom_site_fract_x
_atom_site_fract_y
_atom_site_fract_z
Si Si1 0.445310 0.510270 0.604583
Si Si2 0.669505 0.665444 0.250707
Si Si3 0.813420 0.196401 0.043020
Si Si4 0.275144 0.088009 0.982595
Si Si5 0.609796 0.906657 0.488535
Si Si6 0.733366 0.003303 0.859568
Si Si7 0.160331 0.200838 0.045291
Si Si8 0.708301 0.942229 0.683831
O O1 0.500000 0.500000 0.500000
O O2 0.324932 0.559616 0.603399
O O3 0.597685 0.519256 0.667967
O O4 0.366919 0.456264 0.641076
O O5 0.500000 0.645278 0.250000
O O6 0.706216 0.700692 0.344538
O O7 0.699583 0.701838 0.158847
O O8 0.775361 0.612984 0.255824
O O9 0.720952 0.144729 0.999299
O O10 0.985193 0.199520 0.019352
O O11 0.750000 0.250000 0.000000
O O12 0.440455 0.104367 0.953152
O O13 0.205807 0.144649 0.003471
O O14 0.272567 0.048312 0.072162
O O15 0.665697 0.944925 0.407069
O O16 0.596589 0.936760 0.590966
O O17 0.652098 0.987436 0.757424
O O18 0.250000 0.250000 0.000000
#
# Coordination Sequence:
#
# PCOD8136629 Si02
#       8
#     8   8   8   8   8   8   8   8
#     4  10  20  34  58  85 123 161 197 247 303 356
#     4   9  19  35  62  92 116 151 200 250 299 362
#     4  10  22  42  66  88 121 157 204 251 308 362
#     4  11  22  38  57  87 130 158 204 249 307 364
#     4  11  23  39  58  90 126 165 200 251 307 365
#     4  11  21  36  60  87 126 159 206 247 303 363
#     4  11  22  40  65  95 118 158 202 256 309 363
#     4  11  20  35  62  90 122 161 206 252 302 362
#
# _framework density 20.450797999999999
#
# number of rings (size 3 to 8) (size 9 to 14) (size 15 to 20)
#    0.000    1.500    3.750    3.000    7.000    0.500 
#    0.000    3.125    0.000    0.000    0.000    0.000 
#    0.000    0.000    0.000    0.000    0.000    0.000 
#
# Total GULP energy -396478.219161 kJ/mol
# GULP energy per Si atom -12389.944349 kJ/mol
# Density = 2.040425 g / cm^3
# Si number density = 20.450798 Si / 1000 Ang^3
#
#
#
# Elastic Constant Matrix: (Units=GPa)
#
#
# Indices 1 2 3 4 5 6 
#
# 1 135.3389 63.9121 27.2500 0.0000 1.3033 0.0000
# 2 63.9121 128.6510 61.3174 0.0000 -4.1124 0.0000
# 3 27.2500 61.3174 70.9393 0.0000 -3.0837 0.0000
# 4 0.0000 0.0000 0.0000 33.5302 0.0000 -1.0120
# 5 1.3033 -4.1124 -3.0837 0.0000 20.4256 0.0000
# 6 0.0000 0.0000 0.0000 -1.0120 0.0000 35.7738
#
#
#
# Elastic Compliance Matrix: (Units=1/GPa)
#
#
# Indices 1 2 3 4 5 6 
#
# 1 0.009726 -0.005219 0.000707 0.000000 -0.001565 0.000000
# 2 -0.005219 0.016037 -0.011780 0.000000 0.001783 0.000000
# 3 0.000707 -0.011780 0.024060 0.000000 0.001216 0.000000
# 4 0.000000 0.000000 0.000000 0.029849 0.000000 0.000844
# 5 -0.001565 0.001783 0.001216 0.000000 0.049601 0.000000
# 6 0.000000 0.000000 0.000000 0.000844 0.000000 0.027977
#
#
# Mechanical properties :
#
#
# Convention : Reuss Voigt Hill
#
# Bulk Modulus (GPa) = 58.00545 71.09868 64.55207
# Shear Modulus (GPa) = 25.56506 30.10923 27.83715
#
# Velocity S-wave (km/s) = 3.53948 3.84119 3.69342
# Velocity P-wave (km/s) = 6.71780 7.38337 7.05844
#
# Compressibility (1/GPa) = 0.01723976
#
# Stress axis : x y z
#
# Youngs Moduli (GPa) = 102.81650 62.35636 41.56319
#
# Poissons Ratio (x) = 0.32541 -0.02937
# Poissons Ratio (y) = 0.53656 0.48959
# Poissons Ratio (z) = -0.07266 0.73453
#
# Static dielectric constant tensor:
#      x y z
#    x 3.821220 0.000000 0.284070 
#    y 0.000000 3.228260 0.000000 
#    z 0.284070 0.000000 3.935480 
# 
# 
# High freq. dielectric constant tensor:
#      x y z
#    x 1.814120 0.000000 0.001270 
#    y 0.000000 1.777820 0.000000 
#    z 0.001270 0.000000 1.794620 
# 
# From -- ./inp_files/137857.got.cif
#   From: 2010.06.25/outbox.cif.g09.slc.cpg/sg15_69_cif.got.tgz:137857.got - 2010.06.28 07:06:18.
