data_PCOD8136316
_publ_section_title
;
Structure prediction by ZEFSAII (Michael W. Deem and Ramdas Pophale) SiO2 
 PCOD8136316
Probable space group: C 2/C
;
_chemical_formula_sum "Si O2"
_cell_formula_units_Z 48
_cell_length_a 14.232584
_cell_length_b 6.287626
_cell_length_c 28.088257
_cell_angle_alpha 90.000000
_cell_angle_beta 111.554981
_cell_angle_gamma 90.000000
_cell_volume 2337.807547
_symmetry_space_group_name_H-M "C 2/C"
_symmetry_group_IT_number 15
_symmetry_cell_setting 'monoclinic'
loop_
_space_group_symop_operation_xyz
x,y,z
-x,y,1/2-z
-x,-y,-z
x,-y,1/2+z
1/2+x,1/2+y,z
1/2-x,1/2+y,1/2-z
1/2-x,1/2-y,-z
1/2+x,1/2-y,1/2+z
loop_
_atom_site_type_symbol
_atom_site_label
_atom_site_fract_x
_atom_site_fract_y
_atom_site_fract_z
Si Si1 0.856707 0.327805 0.350005
Si Si2 0.019513 0.602993 0.805456
Si Si3 0.820925 0.057265 0.904660
Si Si4 0.978651 0.387050 0.946873
Si Si5 0.677953 0.433728 0.847865
Si Si6 0.358613 0.183245 0.097919
O O1 0.913566 0.459248 0.401577
O O2 0.741037 0.414511 0.323273
O O3 0.912015 0.348973 0.310011
O O4 0.854802 0.081413 0.365251
O O5 0.077166 0.828231 0.807526
O O6 0.083137 0.440100 0.849029
O O7 0.000000 0.500006 0.750000
O O8 0.920349 0.164203 0.946434
O O9 0.749815 0.244105 0.875188
O O10 0.755862 0.909565 0.928864
O O11 0.085486 0.337075 0.941821
O O12 0.000000 0.500000 0.000000
O O13 0.647221 0.569315 0.888859
#
# Coordination Sequence:
#
# PCOD8136316 Si02
#       6
#     8   8   8   8   8   8
#     4   9  19  37  54  75 110 143 175 227 276 323
#     4  10  20  35  54  82 105 136 182 223 276 329
#     4   9  18  35  55  73 106 140 175 219 270 320
#     4  10  20  33  54  81 105 141 185 221 270 327
#     4   9  18  36  55  76 104 145 176 215 274 326
#     4   9  19  36  55  74 108 142 175 223 272 323
#
# _framework density 20.532056000000001
#
# number of rings (size 3 to 8) (size 9 to 14) (size 15 to 20)
#    0.000    2.667    0.000    1.000    0.000    2.000 
#    9.000    7.500    0.000    0.000    0.000    0.000 
#    0.000    0.000    0.000    0.000    0.000    0.000 
#
# Total GULP energy -297446.565927 kJ/mol
# GULP energy per Si atom -12393.606914 kJ/mol
# Density = 2.048532 g / cm^3
# Si number density = 20.532056 Si / 1000 Ang^3
#
#
#
# Elastic Constant Matrix: (Units=GPa)
#
#
# Indices 1 2 3 4 5 6 
#
# 1 105.3200 15.5669 33.1723 0.0000 -31.4872 0.0000
# 2 15.5669 78.5542 1.6734 0.0000 -4.5151 0.0000
# 3 33.1723 1.6734 72.6647 0.0000 -19.0072 0.0000
# 4 0.0000 0.0000 0.0000 17.6708 0.0000 0.8644
# 5 -31.4872 -4.5151 -19.0072 0.0000 22.7086 0.0000
# 6 0.0000 0.0000 0.0000 0.8644 0.0000 26.9294
#
#
#
# Elastic Compliance Matrix: (Units=1/GPa)
#
#
# Indices 1 2 3 4 5 6 
#
# 1 0.016761 -0.002065 -0.002090 0.000000 0.021080 0.000000
# 2 -0.002065 0.013145 0.000736 0.000000 0.000366 0.000000
# 3 -0.002090 0.000736 0.017898 0.000000 0.012229 0.000000
# 4 0.000000 0.000000 0.000000 0.056680 0.000000 -0.001819
# 5 0.021080 0.000366 0.012229 0.000000 0.083573 0.000000
# 6 0.000000 0.000000 0.000000 -0.001819 0.000000 0.037193
#
#
# Mechanical properties :
#
#
# Convention : Reuss Voigt Hill
#
# Bulk Modulus (GPa) = 24.41154 39.70713 32.05934
# Shear Modulus (GPa) = 20.34653 27.20350 23.77501
#
# Velocity S-wave (km/s) = 3.15137 3.64390 3.40655
# Velocity P-wave (km/s) = 5.01566 6.08976 5.57862
#
# Compressibility (1/GPa) = 0.04096424
#
# Stress axis : x y z
#
# Youngs Moduli (GPa) = 59.66377 76.07635 55.87301
#
# Poissons Ratio (x) = 0.15712 0.11677
# Poissons Ratio (y) = 0.12322 -0.04111
# Poissons Ratio (z) = 0.12469 -0.05597
#
# Static dielectric constant tensor:
#      x y z
#    x 4.430010 0.000000 -0.131770 
#    y 0.000000 4.100080 0.000000 
#    z -0.131770 0.000000 3.150610 
# 
# 
# High freq. dielectric constant tensor:
#      x y z
#    x 1.827520 0.000000 -0.015980 
#    y 0.000000 1.815380 0.000000 
#    z -0.015980 0.000000 1.747490 
# 
# From -- ./inp_files/294405.got.cif
#   From: 2010.06.25/outbox.cif.g09.slc.cpg/sg15_148_cif.got.tgz:294405.got - 2010.06.28 07:06:18.
