data_PCOD8136556
_publ_section_title
;
Structure prediction by ZEFSAII (Michael W. Deem and Ramdas Pophale) SiO2 
 PCOD8136556
Probable space group: C 2/C
;
_chemical_formula_sum "Si O2"
_cell_formula_units_Z 64
_cell_length_a 14.186234
_cell_length_b 20.088670
_cell_length_c 14.174501
_cell_angle_alpha 90.000000
_cell_angle_beta 120.464063
_cell_angle_gamma 90.000000
_cell_volume 3481.823970
_symmetry_space_group_name_H-M "C 2/C"
_symmetry_group_IT_number 15
_symmetry_cell_setting 'monoclinic'
loop_
_space_group_symop_operation_xyz
x,y,z
-x,y,1/2-z
-x,-y,-z
x,-y,1/2+z
1/2+x,1/2+y,z
1/2-x,1/2+y,1/2-z
1/2-x,1/2-y,-z
1/2+x,1/2-y,1/2+z
loop_
_atom_site_type_symbol
_atom_site_label
_atom_site_fract_x
_atom_site_fract_y
_atom_site_fract_z
Si Si1 0.499453 0.809114 0.096778
Si Si2 0.420762 0.057952 0.933317
Si Si3 0.379644 0.781937 0.690151
Si Si4 0.601546 0.721560 0.604417
Si Si5 0.872880 0.526623 0.708465
Si Si6 0.829423 0.324383 0.162435
Si Si7 0.062184 0.856501 0.370050
Si Si8 0.779862 0.592277 0.044640
O O1 0.497609 0.884175 0.058341
O O2 0.396822 0.792210 0.111364
O O3 0.614645 0.801030 0.210631
O O4 0.488175 0.761166 0.002109
O O5 0.349090 0.030918 0.808811
O O6 0.346040 0.082936 0.981274
O O7 0.500000 0.000000 0.000000
O O8 0.500000 0.814473 0.750000
O O9 0.351153 0.765381 0.784566
O O10 0.379865 0.713374 0.630482
O O11 0.300617 0.836505 0.604689
O O12 0.704763 0.699064 0.594908
O O13 0.533794 0.657204 0.603337
O O14 0.835302 0.596686 0.646831
O O15 0.802077 0.467240 0.628413
O O16 0.000000 0.513477 0.750000
O O17 0.151180 0.907893 0.454819
O O18 0.000000 0.889818 0.250000
#
# Coordination Sequence:
#
# PCOD8136556 Si02
#       8
#     8   8   8   8   8   8   8   8
#     4  10  20  34  56  85 110 153 196 234 295 353
#     4  11  21  34  59  83 118 152 176 237 304 344
#     4   9  20  35  53  90 119 142 186 241 292 356
#     4  10  21  35  59  82 117 153 195 242 290 345
#     4  11  21  38  55  88 114 144 197 232 293 360
#     4  10  20  38  57  80 118 152 194 241 290 355
#     4   9  22  38  52  85 114 152 194 228 289 356
#     4  12  22  36  62  84 121 153 189 249 287 350
#
# _framework density 18.381170999999998
#
# number of rings (size 3 to 8) (size 9 to 14) (size 15 to 20)
#    0.000    2.000    3.750    2.625   10.500    0.000 
#    0.000    0.625    0.000    0.000    0.000    0.000 
#    0.000    0.000    0.000    0.000    0.000    0.000 
#
# Total GULP energy -396620.356464 kJ/mol
# GULP energy per Si atom -12394.386139 kJ/mol
# Density = 1.833933 g / cm^3
# Si number density = 18.381171 Si / 1000 Ang^3
#
#
#
# Elastic Constant Matrix: (Units=GPa)
#
#
# Indices 1 2 3 4 5 6 
#
# 1 81.7360 24.2845 38.5623 0.0000 4.2536 0.0000
# 2 24.2845 51.1789 44.3961 0.0000 10.1433 0.0000
# 3 38.5623 44.3961 91.4813 0.0000 4.2613 0.0000
# 4 0.0000 0.0000 0.0000 32.8135 0.0000 7.0010
# 5 4.2536 10.1433 4.2613 0.0000 32.5148 0.0000
# 6 0.0000 0.0000 0.0000 7.0010 0.0000 19.8843
#
#
#
# Elastic Compliance Matrix: (Units=1/GPa)
#
#
# Indices 1 2 3 4 5 6 
#
# 1 0.015527 -0.002787 -0.005170 0.000000 -0.000484 0.000000
# 2 -0.002787 0.036712 -0.016224 0.000000 -0.008962 0.000000
# 3 -0.005170 -0.016224 0.020844 0.000000 0.003006 0.000000
# 4 0.000000 0.000000 0.000000 0.032951 0.000000 -0.011601
# 5 -0.000484 -0.008962 0.003006 0.000000 0.033220 0.000000
# 6 0.000000 0.000000 0.000000 -0.011601 0.000000 0.054376
#
#
# Mechanical properties :
#
#
# Convention : Reuss Voigt Hill
#
# Bulk Modulus (GPa) = 40.45164 48.76466 44.60815
# Shear Modulus (GPa) = 19.98149 24.85273 22.41711
#
# Velocity S-wave (km/s) = 3.30064 3.68105 3.49602
# Velocity P-wave (km/s) = 6.04818 6.68237 6.37317
#
# Compressibility (1/GPa) = 0.02472087
#
# Stress axis : x y z
#
# Youngs Moduli (GPa) = 64.40440 27.23928 47.97493
#
# Poissons Ratio (x) = 0.07590 0.24804
# Poissons Ratio (y) = 0.17947 0.77835
# Poissons Ratio (z) = 0.33298 0.44194
#
# Static dielectric constant tensor:
#      x y z
#    x 3.668720 0.000000 -0.352060 
#    y 0.000000 3.144810 0.000000 
#    z -0.352060 0.000000 3.633020 
# 
# 
# High freq. dielectric constant tensor:
#      x y z
#    x 1.701420 0.000000 -0.012200 
#    y 0.000000 1.687090 0.000000 
#    z -0.012200 0.000000 1.721280 
# 
# From -- ./inp_files/155216.got.cif
#   From: 2010.06.25/outbox.cif.g09.slc.cpg/sg15_78_cif.got.tgz:155216.got - 2010.06.28 07:06:18.
