data_PCOD8136918
_publ_section_title
;
Structure prediction by ZEFSAII (Michael W. Deem and Ramdas Pophale) SiO2 
 PCOD8136918
Probable space group: C 2/C
;
_chemical_formula_sum "Si O2"
_cell_formula_units_Z 40
_cell_length_a 13.547540
_cell_length_b 21.803129
_cell_length_c 7.495509
_cell_angle_alpha 90.000000
_cell_angle_beta 69.765967
_cell_angle_gamma 90.000000
_cell_volume 2077.382384
_symmetry_space_group_name_H-M "C 2/C"
_symmetry_group_IT_number 15
_symmetry_cell_setting 'monoclinic'
loop_
_space_group_symop_operation_xyz
x,y,z
-x,y,1/2-z
-x,-y,-z
x,-y,1/2+z
1/2+x,1/2+y,z
1/2-x,1/2+y,1/2-z
1/2-x,1/2-y,-z
1/2+x,1/2-y,1/2+z
loop_
_atom_site_type_symbol
_atom_site_label
_atom_site_fract_x
_atom_site_fract_y
_atom_site_fract_z
Si Si1 0.000000 0.375440 0.750000
Si Si2 0.000000 0.783709 0.750000
Si Si3 0.823538 0.861270 0.741195
Si Si4 0.386397 0.820407 0.515530
Si Si5 0.715330 0.061294 0.025000
Si Si6 0.275387 0.078870 0.891490
O O1 0.016683 0.333426 0.912885
O O2 0.101887 0.416723 0.658935
O O3 0.066253 0.825558 0.847988
O O4 0.087420 0.743379 0.595561
O O5 0.723211 0.814175 0.804703
O O6 0.807209 0.910132 0.591683
O O7 0.825339 0.895764 0.933813
O O8 0.374761 0.876997 0.381049
O O9 0.705779 0.988864 0.047466
O O10 0.744135 0.080906 0.806532
#
# Coordination Sequence:
#
# PCOD8136918 Si02
#       6
#     4   4   8   8   8   8
#     4  10  20  35  56  96 115 152 198 228 312 354
#     4  12  20  43  62  78 123 160 200 242 282 348
#     4   9  23  39  58  91 114 158 195 241 295 342
#     4   9  21  37  57  87 118 150 198 239 286 345
#     4  11  19  38  61  87 126 147 191 247 295 353
#     4  10  20  38  62  85 122 151 187 247 299 338
#
# _framework density 19.254999000000002
#
# number of rings (size 3 to 8) (size 9 to 14) (size 15 to 20)
#    1.200    0.800    2.000    1.800    0.000    4.000 
#    3.600    4.000    0.000    0.000    0.000    0.000 
#    0.000    0.000    0.000    0.000    0.000    0.000 
#
# Total GULP energy -247803.062018 kJ/mol
# GULP energy per Si atom -12390.153101 kJ/mol
# Density = 1.921117 g / cm^3
# Si number density = 19.254999 Si / 1000 Ang^3
#
#
#
# Elastic Constant Matrix: (Units=GPa)
#
#
# Indices 1 2 3 4 5 6 
#
# 1 87.6645 60.7217 21.9780 0.0000 14.9614 0.0000
# 2 60.7217 97.3986 31.6949 0.0000 16.9932 0.0000
# 3 21.9780 31.6949 108.3040 0.0000 27.5670 0.0000
# 4 0.0000 0.0000 0.0000 -19.1049 0.0000 0.9248
# 5 14.9614 16.9932 27.5670 0.0000 21.4242 0.0000
# 6 0.0000 0.0000 0.0000 0.9248 0.0000 27.4094
#
#
#
# Elastic Compliance Matrix: (Units=1/GPa)
#
#
# Indices 1 2 3 4 5 6 
#
# 1 0.020555 -0.012067 0.000859 0.000000 -0.005888 0.000000
# 2 -0.012067 0.019191 -0.002138 0.000000 -0.004044 0.000000
# 3 0.000859 -0.002138 0.013986 0.000000 -0.016901 0.000000
# 4 0.000000 0.000000 0.000000 -0.052257 0.000000 0.001763
# 5 -0.005888 -0.004044 -0.016901 0.000000 0.075743 0.000000
# 6 0.000000 0.000000 0.000000 0.001763 0.000000 0.036424
#
#
# Mechanical properties :
#
#
# Convention : Reuss Voigt Hill
#
# Bulk Modulus (GPa) = 36.98153 58.01739 47.49946
# Shear Modulus (GPa) = 33.47882 17.87724 25.67803
#
# Velocity S-wave (km/s) = 4.17431 3.05035 3.65578
# Velocity P-wave (km/s) = 6.51774 6.52707 6.52241
#
# Compressibility (1/GPa) = 0.02704053
#
# Stress axis : x y z
#
# Youngs Moduli (GPa) = 48.65007 52.10676 71.49755
#
# Poissons Ratio (x) = 0.62876 -0.06141
# Poissons Ratio (y) = 0.58705 0.15288
# Poissons Ratio (z) = -0.04179 0.11142
#
# Static dielectric constant tensor:
#      x y z
#    x 3.299920 0.000000 0.249200 
#    y 0.000000 3.434480 0.000000 
#    z 0.249200 0.000000 3.518080 
# 
# 
# High freq. dielectric constant tensor:
#      x y z
#    x 1.728400 0.000000 0.015100 
#    y 0.000000 1.746170 0.000000 
#    z 0.015100 0.000000 1.741540 
# 
# From -- ./inp_files/31371.got.cif
#   From: 2010.06.25/outbox.cif.g09.slc.cpg/sg15_16_cif.got.tgz:31371.got - 2010.06.28 07:06:18.
