data_PCOD8136277
_publ_section_title
;
Structure prediction by ZEFSAII (Michael W. Deem and Ramdas Pophale) SiO2 
 PCOD8136277
Probable space group: C 2/C
;
_chemical_formula_sum "Si O2"
_cell_formula_units_Z 64
_cell_length_a 27.382583
_cell_length_b 19.568545
_cell_length_c 13.274710
_cell_angle_alpha 90.000000
_cell_angle_beta 148.545616
_cell_angle_gamma 90.000000
_cell_volume 3711.746888
_symmetry_space_group_name_H-M "C 2/C"
_symmetry_group_IT_number 15
_symmetry_cell_setting 'monoclinic'
loop_
_space_group_symop_operation_xyz
x,y,z
-x,y,1/2-z
-x,-y,-z
x,-y,1/2+z
1/2+x,1/2+y,z
1/2-x,1/2+y,1/2-z
1/2-x,1/2-y,-z
1/2+x,1/2-y,1/2+z
loop_
_atom_site_type_symbol
_atom_site_label
_atom_site_fract_x
_atom_site_fract_y
_atom_site_fract_z
Si Si1 0.732080 0.416280 0.993729
Si Si2 0.582242 0.409029 0.160770
Si Si3 0.597964 0.289077 0.049655
Si Si4 0.401979 0.861967 0.196997
Si Si5 0.708293 0.453050 0.565968
Si Si6 0.106513 0.956583 0.596528
Si Si7 0.616893 0.707836 0.361043
Si Si8 0.114017 0.634007 0.066252
O O1 0.692343 0.449466 0.822952
O O2 0.680477 0.344164 0.912181
O O3 0.841833 0.406887 0.167609
O O4 0.722662 0.465642 0.073996
O O5 0.624806 0.339684 0.187559
O O6 0.655228 0.424712 0.376318
O O7 0.572379 0.465269 0.053635
O O8 0.478685 0.404009 0.029186
O O9 0.621743 0.211328 0.122709
O O10 0.491479 0.309462 0.839700
O O11 0.651522 0.299189 0.037904
O O12 0.376213 0.783258 0.174155
O O13 0.507506 0.886461 0.405289
O O14 0.373881 0.872208 0.031719
O O15 0.643183 0.442849 0.548665
O O16 0.808363 0.414764 0.747565
#
# Coordination Sequence:
#
# PCOD8136277 Si02
#       8
#     8   8   8   8   8   8   8   8
#     4  11  19  31  54  77 101 135 169 219 262 310
#     4  10  20  33  52  75 103 142 170 208 264 316
#     4   9  17  32  52  76 106 136 171 208 258 311
#     4   9  18  34  55  74 100 133 174 221 267 296
#     4  11  22  33  50  76 107 141 175 206 260 320
#     4  10  20  34  48  74 109 134 169 212 260 317
#     4   9  17  30  53  82 102 127 170 221 264 304
#     4   9  19  35  52  74 103 136 173 220 254 305
#
# _framework density 17.242553999999998
#
# number of rings (size 3 to 8) (size 9 to 14) (size 15 to 20)
#    0.000    2.250    2.500    3.000    0.000    1.000 
#    0.000    0.000    0.000    0.000    0.000    0.000 
#    0.000    0.000    0.000    0.000    0.000    0.000 
#
# Total GULP energy -396468.208072 kJ/mol
# GULP energy per Si atom -12389.631502 kJ/mol
# Density = 1.720331 g / cm^3
# Si number density = 17.242554 Si / 1000 Ang^3
#
#
#
# Elastic Constant Matrix: (Units=GPa)
#
#
# Indices 1 2 3 4 5 6 
#
# 1 75.5048 32.7108 26.8695 0.0000 7.5079 0.0000
# 2 32.7108 50.4871 38.3832 0.0000 8.7271 0.0000
# 3 26.8695 38.3832 68.5854 0.0000 2.6689 0.0000
# 4 0.0000 0.0000 0.0000 23.8702 0.0000 3.9897
# 5 7.5079 8.7271 2.6689 0.0000 24.6873 0.0000
# 6 0.0000 0.0000 0.0000 3.9897 0.0000 26.5411
#
#
#
# Elastic Compliance Matrix: (Units=1/GPa)
#
#
# Indices 1 2 3 4 5 6 
#
# 1 0.018510 -0.010862 -0.001108 0.000000 -0.001670 0.000000
# 2 -0.010862 0.043579 -0.019745 0.000000 -0.009968 0.000000
# 3 -0.001108 -0.019745 0.025889 0.000000 0.004518 0.000000
# 4 0.000000 0.000000 0.000000 0.042973 0.000000 -0.006460
# 5 -0.001670 -0.009968 0.004518 0.000000 0.044050 0.000000
# 6 0.000000 0.000000 0.000000 -0.006460 0.000000 0.038648
#
#
# Mechanical properties :
#
#
# Convention : Reuss Voigt Hill
#
# Bulk Modulus (GPa) = 40.73704 43.38937 42.06320
# Shear Modulus (GPa) = 17.52775 21.46064 19.49420
#
# Velocity S-wave (km/s) = 3.19178 3.53176 3.36607
# Velocity P-wave (km/s) = 6.10413 6.46915 6.28929
#
# Compressibility (1/GPa) = 0.02454769
#
# Stress axis : x y z
#
# Youngs Moduli (GPa) = 54.02444 22.94687 38.62651
#
# Poissons Ratio (x) = 0.24924 0.04280
# Poissons Ratio (y) = 0.58680 0.76270
# Poissons Ratio (z) = 0.05986 0.45310
#
# Static dielectric constant tensor:
#      x y z
#    x 3.253460 0.000000 0.047610 
#    y 0.000000 3.235390 0.000000 
#    z 0.047610 0.000000 3.059250 
# 
# 
# High freq. dielectric constant tensor:
#      x y z
#    x 1.664050 0.000000 0.008500 
#    y 0.000000 1.657990 0.000000 
#    z 0.008500 0.000000 1.648120 
# 
# From -- ./inp_files/100482.got.cif
#   From: 2010.06.25/outbox.cif.g09.slc.cpg/sg15_51_cif.got.tgz:100482.got - 2010.06.28 07:06:18.
