data_PCOD8136865
_publ_section_title
;
Structure prediction by ZEFSAII (Michael W. Deem and Ramdas Pophale) SiO2 
 PCOD8136865
Probable space group: C 2/C
;
_chemical_formula_sum "Si O2"
_cell_formula_units_Z 52
_cell_length_a 22.748079
_cell_length_b 11.672952
_cell_length_c 22.763527
_cell_angle_alpha 90.000000
_cell_angle_beta 149.759890
_cell_angle_gamma 90.000000
_cell_volume 3044.192701
_symmetry_space_group_name_H-M "C 2/C"
_symmetry_group_IT_number 15
_symmetry_cell_setting 'monoclinic'
loop_
_space_group_symop_operation_xyz
x,y,z
-x,y,1/2-z
-x,-y,-z
x,-y,1/2+z
1/2+x,1/2+y,z
1/2-x,1/2+y,1/2-z
1/2-x,1/2-y,-z
1/2+x,1/2-y,1/2+z
loop_
_atom_site_type_symbol
_atom_site_label
_atom_site_fract_x
_atom_site_fract_y
_atom_site_fract_z
Si Si1 0.000000 0.928914 0.750000
Si Si2 0.271276 0.606919 0.856084
Si Si3 0.653349 0.334137 0.207438
Si Si4 0.101409 0.423694 0.659513
Si Si5 0.152518 0.490154 0.076188
Si Si6 0.012091 0.985905 0.886821
Si Si7 0.176187 0.161896 0.321029
O O1 0.110376 0.848175 0.827223
O O2 0.034453 0.007412 0.836093
O O3 0.328692 0.653864 0.846475
O O4 0.173221 0.512973 0.760013
O O5 0.209940 0.708302 0.838712
O O6 0.370015 0.551569 0.981056
O O7 0.639217 0.202222 0.212223
O O8 0.763472 0.382634 0.338363
O O9 0.534789 0.399595 0.122803
O O10 0.126351 0.438773 0.612371
O O11 0.964644 0.441968 0.554238
O O12 0.210816 0.579041 0.081023
O O13 0.913017 0.885406 0.806972
#
# Coordination Sequence:
#
# PCOD8136865 Si02
#       7
#     4   8   8   8   8   8   8
#     4   8  20  40  60  80 108 160 198 222 286 330
#     4  11  21  32  58  86 117 142 193 239 286 339
#     4  10  20  35  55  81 119 149 186 234 291 341
#     4  10  21  32  53  87 115 152 178 228 293 344
#     4   9  19  35  52  79 117 151 179 224 287 340
#     4   9  21  37  56  84 106 155 192 234 277 340
#     4   9  19  37  57  81 109 151 184 239 278 330
#
# _framework density 17.081703999999998
#
# number of rings (size 3 to 8) (size 9 to 14) (size 15 to 20)
#    0.923    1.538    1.538    0.462    4.308    1.846 
#    0.000    0.000    0.000    4.615    0.000    0.000 
#    0.000    0.000    0.000    0.000    0.000    0.000 
#
# Total GULP energy -322289.353478 kJ/mol
# GULP energy per Si atom -12395.744365 kJ/mol
# Density = 1.704283 g / cm^3
# Si number density = 17.081704 Si / 1000 Ang^3
#
#
#
# Elastic Constant Matrix: (Units=GPa)
#
#
# Indices 1 2 3 4 5 6 
#
# 1 95.9863 41.9520 29.5868 0.0000 21.4723 0.0000
# 2 41.9520 123.9663 46.8811 0.0000 20.3965 0.0000
# 3 29.5868 46.8811 107.2387 0.0000 18.9604 0.0000
# 4 0.0000 0.0000 0.0000 16.3520 0.0000 6.3598
# 5 21.4723 20.3965 18.9604 0.0000 17.8017 0.0000
# 6 0.0000 0.0000 0.0000 6.3598 0.0000 24.7908
#
#
#
# Elastic Compliance Matrix: (Units=1/GPa)
#
#
# Indices 1 2 3 4 5 6 
#
# 1 0.014920 -0.002463 -0.000439 0.000000 -0.014706 0.000000
# 2 -0.002463 0.011122 -0.003024 0.000000 -0.006551 0.000000
# 3 -0.000439 -0.003024 0.012396 0.000000 -0.009208 0.000000
# 4 0.000000 0.000000 0.000000 0.067933 0.000000 -0.017427
# 5 -0.014706 -0.006551 -0.009208 0.000000 0.091225 0.000000
# 6 0.000000 0.000000 0.000000 -0.017427 0.000000 0.044808
#
#
# Mechanical properties :
#
#
# Convention : Reuss Voigt Hill
#
# Bulk Modulus (GPa) = 37.61647 62.67013 50.14330
# Shear Modulus (GPa) = 19.00276 25.70700 22.35488
#
# Velocity S-wave (km/s) = 3.33898 3.88357 3.62152
# Velocity P-wave (km/s) = 6.07736 7.54172 6.84879
#
# Compressibility (1/GPa) = 0.02658410
#
# Stress axis : x y z
#
# Youngs Moduli (GPa) = 67.02422 89.91323 80.66870
#
# Poissons Ratio (x) = 0.22149 0.03544
# Poissons Ratio (y) = 0.16511 0.24397
# Poissons Ratio (z) = 0.02945 0.27192
#
# Static dielectric constant tensor:
#      x y z
#    x 3.109370 0.000000 0.239820 
#    y 0.000000 3.054640 0.000000 
#    z 0.239820 0.000000 3.125070 
# 
# 
# High freq. dielectric constant tensor:
#      x y z
#    x 1.642070 0.000000 0.021420 
#    y 0.000000 1.652640 0.000000 
#    z 0.021420 0.000000 1.655560 
# 
# From -- ./inp_files/252771.got.cif
#   From: 2010.06.25/outbox.cif.g09.slc.cpg/sg15_127_cif.got.tgz:252771.got - 2010.06.28 07:06:18.
