data_PCOD8136273
_publ_section_title
;
Structure prediction by ZEFSAII (Michael W. Deem and Ramdas Pophale) SiO2 
 PCOD8136273
Probable space group: C 2/C
;
_chemical_formula_sum "Si O2"
_cell_formula_units_Z 60
_cell_length_a 20.400582
_cell_length_b 21.268439
_cell_length_c 14.535338
_cell_angle_alpha 90.000000
_cell_angle_beta 30.033228
_cell_angle_gamma 90.000000
_cell_volume 3156.525208
_symmetry_space_group_name_H-M "C 2/C"
_symmetry_group_IT_number 15
_symmetry_cell_setting 'monoclinic'
loop_
_space_group_symop_operation_xyz
x,y,z
-x,y,1/2-z
-x,-y,-z
x,-y,1/2+z
1/2+x,1/2+y,z
1/2-x,1/2+y,1/2-z
1/2-x,1/2-y,-z
1/2+x,1/2-y,1/2+z
loop_
_atom_site_type_symbol
_atom_site_label
_atom_site_fract_x
_atom_site_fract_y
_atom_site_fract_z
Si Si1 0.999898 0.199073 0.603271
Si Si2 0.296338 0.509071 0.226525
Si Si3 0.500000 0.575686 0.250000
Si Si4 0.480748 0.166009 0.164791
Si Si5 0.493661 0.600672 0.459382
Si Si6 0.982097 0.526542 0.421537
Si Si7 0.768191 0.982721 0.545257
Si Si8 0.186984 0.846001 0.027892
O O1 0.987692 0.167656 0.517926
O O2 0.100229 0.159632 0.542291
O O3 0.047345 0.271893 0.538591
O O4 0.862043 0.195638 0.826296
O O5 0.369016 0.565894 0.188963
O O6 0.275874 0.526567 0.145329
O O7 0.155898 0.500589 0.449217
O O8 0.377079 0.444112 0.136330
O O9 0.479454 0.616247 0.367492
O O10 0.368444 0.535536 0.389678
O O11 0.500000 0.164169 0.250000
O O12 0.535004 0.102354 0.053731
O O13 0.329632 0.174869 0.324624
O O14 0.113588 0.506269 0.204881
O O15 0.000000 0.500000 0.500000
O O16 0.814739 0.919007 0.439073
#
# Coordination Sequence:
#
# PCOD8136273 Si02
#       8
#     8   8   4   8   8   8   8   8
#     4  11  21  34  54  79 115 152 179 221 280 335
#     4   9  18  32  52  79 107 142 195 226 279 332
#     4  10  20  34  52  80 112 138 200 244 266 322
#     4  11  23  34  53  86 115 147 178 220 279 337
#     4  10  21  32  54  80 106 150 188 235 283 322
#     4   9  20  36  54  78 112 147 185 222 276 334
#     4   9  17  32  52  78 111 150 178 234 280 321
#     4  10  20  33  51  80 121 144 179 218 273 342
#
# _framework density 19.008244000000001
#
# number of rings (size 3 to 8) (size 9 to 14) (size 15 to 20)
#    0.000    2.133    2.667    1.200    5.600    1.067 
#    0.000    0.000    0.000    0.000    1.733    9.333 
#    0.000    0.000    0.000    0.000    0.000    0.400 
#
# Total GULP energy -371774.212300 kJ/mol
# GULP energy per Si atom -12392.473743 kJ/mol
# Density = 1.896498 g / cm^3
# Si number density = 19.008244 Si / 1000 Ang^3
#
#
#
# Elastic Constant Matrix: (Units=GPa)
#
#
# Indices 1 2 3 4 5 6 
#
# 1 55.2666 31.1520 24.0455 -0.0018 6.4109 0.0022
# 2 31.1520 96.0707 22.8717 -0.0014 9.1893 0.0020
# 3 24.0455 22.8717 74.9848 -0.0052 -20.7461 0.0061
# 4 -0.0018 -0.0014 -0.0052 22.3263 0.0034 7.1349
# 5 6.4109 9.1893 -20.7461 0.0034 38.4095 -0.0035
# 6 0.0022 0.0020 0.0061 7.1349 -0.0035 17.2900
#
#
#
# Elastic Compliance Matrix: (Units=1/GPa)
#
#
# Indices 1 2 3 4 5 6 
#
# 1 0.025950 -0.005593 -0.008751 0.000001 -0.007720 -0.000002
# 2 -0.005593 0.013442 -0.003454 0.000000 -0.004148 -0.000001
# 3 -0.008751 -0.003454 0.020961 0.000003 0.013609 -0.000005
# 4 0.000001 0.000000 0.000003 0.051594 -0.000005 -0.021291
# 5 -0.007720 -0.004148 0.013609 -0.000005 0.035667 0.000006
# 6 -0.000002 -0.000001 -0.000005 -0.021291 0.000006 0.066623
#
#
# Mechanical properties :
#
#
# Convention : Reuss Voigt Hill
#
# Bulk Modulus (GPa) = 40.39435 42.49563 41.44499
# Shear Modulus (GPa) = 19.37353 25.48869 22.43111
#
# Velocity S-wave (km/s) = 3.19598 3.66584 3.43895
# Velocity P-wave (km/s) = 5.90899 6.35002 6.13347
#
# Compressibility (1/GPa) = 0.02475594
#
# Stress axis : x y z
#
# Youngs Moduli (GPa) = 38.53633 74.39610 47.70739
#
# Poissons Ratio (x) = 0.41606 0.41751
# Poissons Ratio (y) = 0.21552 0.16479
# Poissons Ratio (z) = 0.33725 0.25698
#
# Static dielectric constant tensor:
#      x y z
#    x 3.575520 0.000000 -0.365230 
#    y 0.000000 3.356450 0.000000 
#    z -0.365230 0.000000 3.763040 
# 
# 
# High freq. dielectric constant tensor:
#      x y z
#    x 1.738780 0.000000 -0.023830 
#    y 0.000000 1.710880 0.000000 
#    z -0.023830 0.000000 1.730630 
# 
# From -- ./inp_files/169470.got.cif
#   From: 2010.06.25/outbox.cif.g09.slc.cpg/sg15_85_cif.got.tgz:169470.got - 2010.06.28 07:06:18.
