data_PCOD8136795
_publ_section_title
;
Structure prediction by ZEFSAII (Michael W. Deem and Ramdas Pophale) SiO2 
 PCOD8136795
Probable space group: C 2/C
;
_chemical_formula_sum "Si O2"
_cell_formula_units_Z 60
_cell_length_a 28.568153
_cell_length_b 12.862699
_cell_length_c 9.286565
_cell_angle_alpha 90.000000
_cell_angle_beta 94.634269
_cell_angle_gamma 90.000000
_cell_volume 3401.317880
_symmetry_space_group_name_H-M "C 2/C"
_symmetry_group_IT_number 15
_symmetry_cell_setting 'monoclinic'
loop_
_space_group_symop_operation_xyz
x,y,z
-x,y,1/2-z
-x,-y,-z
x,-y,1/2+z
1/2+x,1/2+y,z
1/2-x,1/2+y,1/2-z
1/2-x,1/2-y,-z
1/2+x,1/2-y,1/2+z
loop_
_atom_site_type_symbol
_atom_site_label
_atom_site_fract_x
_atom_site_fract_y
_atom_site_fract_z
Si Si1 0.694505 0.328851 0.905391
Si Si2 0.500000 0.469134 0.750000
Si Si3 0.137958 0.070568 0.609547
Si Si4 0.136075 0.207212 0.883793
Si Si5 0.794559 0.397068 0.972894
Si Si6 0.441315 0.583285 0.494053
Si Si7 0.795004 0.109111 0.391070
Si Si8 0.812821 0.586071 0.154992
O O1 0.737870 0.408479 0.953109
O O2 0.692973 0.309130 0.734312
O O3 0.647439 0.381801 0.953552
O O4 0.697373 0.221550 0.988608
O O5 0.467158 0.544417 0.645078
O O6 0.525317 0.394251 0.636756
O O7 0.129835 0.162522 0.721925
O O8 0.090944 0.006546 0.579920
O O9 0.183565 0.000335 0.662047
O O10 0.089370 0.184660 0.968302
O O11 0.148808 0.329498 0.889269
O O12 0.179828 0.143727 0.957757
O O13 0.817362 0.423412 0.825992
O O14 0.821716 0.472527 0.089955
O O15 0.739758 0.114850 0.407922
#
# Coordination Sequence:
#
# PCOD8136795 Si02
#       8
#     8   4   8   8   8   8   8   8
#     4  10  20  35  49  72 104 147 199 230 272 307
#     4  10  20  38  58  84 112 144 170 214 292 362
#     4  11  19  35  51  79 112 150 186 222 275 323
#     4  11  22  34  50  80 109 146 187 230 270 332
#     4  10  22  35  50  69 102 152 195 243 266 302
#     4  10  21  36  58  82 114 142 169 221 282 354
#     4  10  21  30  52  72 104 150 192 235 259 314
#     4  11  22  35  49  71 105 148 199 236 272 301
#
# _framework density 17.640222000000001
#
# number of rings (size 3 to 8) (size 9 to 14) (size 15 to 20)
#    0.000    1.600    4.000    2.000    5.600    0.000 
#    0.000    0.000    0.000    0.000    0.000    0.000 
#    0.000   18.133    0.000    0.000    0.000    0.000 
#
# Total GULP energy -371726.357447 kJ/mol
# GULP energy per Si atom -12390.878582 kJ/mol
# Density = 1.760007 g / cm^3
# Si number density = 17.640222 Si / 1000 Ang^3
#
#
#
# Elastic Constant Matrix: (Units=GPa)
#
#
# Indices 1 2 3 4 5 6 
#
# 1 71.7253 26.3289 27.5619 0.0000 -12.4726 0.0000
# 2 26.3289 71.6605 26.3436 0.0000 -8.9906 0.0000
# 3 27.5619 26.3436 84.3760 0.0000 -10.4144 0.0000
# 4 0.0000 0.0000 0.0000 26.5025 0.0000 -5.1933
# 5 -12.4726 -8.9906 -10.4144 0.0000 28.9871 0.0000
# 6 0.0000 0.0000 0.0000 -5.1933 0.0000 23.4433
#
#
#
# Elastic Compliance Matrix: (Units=1/GPa)
#
#
# Indices 1 2 3 4 5 6 
#
# 1 0.017947 -0.004568 -0.003828 0.000000 0.004930 0.000000
# 2 -0.004568 0.017228 -0.003631 0.000000 0.002073 0.000000
# 3 -0.003828 -0.003631 0.014538 0.000000 0.002450 0.000000
# 4 0.000000 0.000000 0.000000 0.039445 0.000000 0.008738
# 5 0.004930 0.002073 0.002450 0.000000 0.038143 0.000000
# 6 0.000000 0.000000 0.000000 0.008738 0.000000 0.044592
#
#
# Mechanical properties :
#
#
# Convention : Reuss Voigt Hill
#
# Bulk Modulus (GPa) = 38.97152 43.13672 41.05412
# Shear Modulus (GPa) = 24.44997 25.62174 25.03585
#
# Velocity S-wave (km/s) = 3.72699 3.81525 3.77138
# Velocity P-wave (km/s) = 6.37660 6.62683 6.50292
#
# Compressibility (1/GPa) = 0.02565977
#
# Stress axis : x y z
#
# Youngs Moduli (GPa) = 55.71888 58.04515 68.78515
#
# Poissons Ratio (x) = 0.26517 0.26329
# Poissons Ratio (y) = 0.25454 0.24974
# Poissons Ratio (z) = 0.21328 0.21074
#
# Static dielectric constant tensor:
#      x y z
#    x 3.224000 0.000000 -0.130100 
#    y 0.000000 3.067750 0.000000 
#    z -0.130100 0.000000 3.399210 
# 
# 
# High freq. dielectric constant tensor:
#      x y z
#    x 1.651990 0.000000 -0.014540 
#    y 0.000000 1.651250 0.000000 
#    z -0.014540 0.000000 1.702340 
# 
# From -- ./inp_files/69143.got.cif
#   From: 2010.06.25/outbox.cif.g09.slc.cpg/sg15_35_cif.got.tgz:69143.got - 2010.06.28 07:06:18.
