data_PCOD8136653
_publ_section_title
;
Structure prediction by ZEFSAII (Michael W. Deem and Ramdas Pophale) SiO2 
 PCOD8136653
Probable space group: C 2/C
;
_chemical_formula_sum "Si O2"
_cell_formula_units_Z 64
_cell_length_a 14.311283
_cell_length_b 17.376504
_cell_length_c 25.918260
_cell_angle_alpha 90.000000
_cell_angle_beta 151.238461
_cell_angle_gamma 90.000000
_cell_volume 3101.281156
_symmetry_space_group_name_H-M "C 2/C"
_symmetry_group_IT_number 15
_symmetry_cell_setting 'monoclinic'
loop_
_space_group_symop_operation_xyz
x,y,z
-x,y,1/2-z
-x,-y,-z
x,-y,1/2+z
1/2+x,1/2+y,z
1/2-x,1/2+y,1/2-z
1/2-x,1/2-y,-z
1/2+x,1/2-y,1/2+z
loop_
_atom_site_type_symbol
_atom_site_label
_atom_site_fract_x
_atom_site_fract_y
_atom_site_fract_z
Si Si1 0.752094 0.037641 0.266595
Si Si2 0.291574 0.123024 0.585633
Si Si3 0.001293 0.038113 0.809565
Si Si4 0.600611 0.311045 0.609782
Si Si5 0.732660 0.123608 0.805399
Si Si6 0.164170 0.322095 0.871268
Si Si7 0.687591 0.962315 0.956355
Si Si8 0.396068 0.300315 0.293293
O O1 0.786344 0.112922 0.316644
O O2 0.537477 0.036968 0.139635
O O3 0.891028 0.031523 0.284542
O O4 0.787235 0.963916 0.319355
O O5 0.512851 0.145151 0.680034
O O6 0.250756 0.128331 0.626233
O O7 0.127990 0.182879 0.485893
O O8 0.241293 0.038900 0.538893
O O9 0.893479 0.120239 0.760285
O O10 0.000000 0.012022 0.750000
O O11 0.209630 0.047174 0.938406
O O12 0.645789 0.299099 0.570320
O O13 0.689581 0.238770 0.682146
O O14 0.885992 0.179510 0.849786
O O15 0.233498 0.390883 0.941269
O O16 0.000000 0.346931 0.750000
O O17 0.080788 0.251931 0.866409
#
# Coordination Sequence:
#
# PCOD8136653 Si02
#       8
#     8   8   8   8   8   8   8   8
#     4  10  20  38  60  91 120 161 203 269 302 372
#     4  10  21  36  63  93 119 164 207 259 314 364
#     4  11  24  41  60  85 127 165 211 253 313 379
#     4  11  20  36  61  90 125 160 207 254 313 368
#     4   9  21  38  59  90 133 158 208 253 313 376
#     4  10  20  34  58  92 127 156 197 252 314 374
#     4  11  21  37  64  93 120 160 206 267 319 361
#     4  10  22  41  56  87 128 169 195 255 310 376
#
# _framework density 20.636633
#
# number of rings (size 3 to 8) (size 9 to 14) (size 15 to 20)
#    0.000    1.750    3.750    1.875    5.250    2.500 
#    2.250    0.000    2.750    0.000    0.000    0.000 
#    0.000    0.000    0.000    0.000    0.000    0.000 
#
# Total GULP energy -396553.101222 kJ/mol
# GULP energy per Si atom -12392.284413 kJ/mol
# Density = 2.058966 g / cm^3
# Si number density = 20.636633 Si / 1000 Ang^3
#
#
#
# Elastic Constant Matrix: (Units=GPa)
#
#
# Indices 1 2 3 4 5 6 
#
# 1 101.4515 30.8980 19.3446 0.0005 -11.3173 0.0003
# 2 30.8980 70.1819 23.4396 0.0000 -1.9659 0.0000
# 3 19.3446 23.4396 78.3614 0.0005 -7.5758 0.0002
# 4 0.0005 0.0000 0.0005 23.8027 0.0003 4.7282
# 5 -11.3173 -1.9659 -7.5758 0.0003 28.9092 0.0003
# 6 0.0003 0.0000 0.0002 4.7282 0.0003 27.3230
#
#
#
# Elastic Compliance Matrix: (Units=1/GPa)
#
#
# Indices 1 2 3 4 5 6 
#
# 1 0.011984 -0.004783 -0.001134 0.000000 0.004069 0.000000
# 2 -0.004783 0.017740 -0.004299 0.000000 -0.001793 0.000000
# 3 -0.001134 -0.004299 0.014627 0.000000 0.003097 0.000000
# 4 0.000000 0.000000 0.000000 0.043508 -0.000001 -0.007529
# 5 0.004069 -0.001793 0.003097 -0.000001 0.036874 0.000000
# 6 0.000000 0.000000 0.000000 -0.007529 0.000000 0.037902
#
#
# Mechanical properties :
#
#
# Convention : Reuss Voigt Hill
#
# Bulk Modulus (GPa) = 41.80979 44.15101 42.98040
# Shear Modulus (GPa) = 26.17266 27.76117 26.96691
#
# Velocity S-wave (km/s) = 3.56513 3.67173 3.61882
# Velocity P-wave (km/s) = 6.10335 6.27825 6.19141
#
# Compressibility (1/GPa) = 0.02391784
#
# Stress axis : x y z
#
# Youngs Moduli (GPa) = 83.44554 56.36960 68.36830
#
# Poissons Ratio (x) = 0.26962 0.07755
# Poissons Ratio (y) = 0.39913 0.29391
# Poissons Ratio (z) = 0.09465 0.24233
#
# Static dielectric constant tensor:
#      x y z
#    x 3.916750 0.000000 0.174190 
#    y 0.000000 3.617470 0.000000 
#    z 0.174190 0.000000 3.798910 
# 
# 
# High freq. dielectric constant tensor:
#      x y z
#    x 1.808160 0.000000 0.011650 
#    y 0.000000 1.787770 0.000000 
#    z 0.011650 0.000000 1.806400 
# 
# From -- ./inp_files/274848.got.cif
#   From: 2010.06.25/outbox.cif.g09.slc.cpg/sg15_138_cif.got.tgz:274848.got - 2010.06.28 07:06:18.
