data_PCOD8136707
_publ_section_title
;
Structure prediction by ZEFSAII (Michael W. Deem and Ramdas Pophale) SiO2 
 PCOD8136707
Probable space group: C 2/C
;
_chemical_formula_sum "Si O2"
_cell_formula_units_Z 44
_cell_length_a 15.790016
_cell_length_b 13.055456
_cell_length_c 12.298839
_cell_angle_alpha 90.000000
_cell_angle_beta 58.075617
_cell_angle_gamma 90.000000
_cell_volume 2151.874030
_symmetry_space_group_name_H-M "C 2/C"
_symmetry_group_IT_number 15
_symmetry_cell_setting 'monoclinic'
loop_
_space_group_symop_operation_xyz
x,y,z
-x,y,1/2-z
-x,-y,-z
x,-y,1/2+z
1/2+x,1/2+y,z
1/2-x,1/2+y,1/2-z
1/2-x,1/2-y,-z
1/2+x,1/2-y,1/2+z
loop_
_atom_site_type_symbol
_atom_site_label
_atom_site_fract_x
_atom_site_fract_y
_atom_site_fract_z
Si Si1 0.510783 0.122964 0.002947
Si Si2 0.904782 0.272576 0.386151
Si Si3 0.268933 0.810287 0.149625
Si Si4 0.276853 0.094893 0.415687
Si Si5 0.500000 0.888405 0.750000
Si Si6 0.721040 0.378777 0.406137
O O1 0.427177 0.164728 0.980034
O O2 0.617301 0.166609 0.893186
O O3 0.491733 0.168696 0.138683
O O4 0.500000 0.000000 0.000000
O O5 0.829698 0.338564 0.365467
O O6 0.859265 0.164989 0.455161
O O7 0.000000 0.246726 0.250000
O O8 0.245350 0.690545 0.147682
O O9 0.199378 0.846818 0.296193
O O10 0.243190 0.875207 0.059838
O O11 0.392935 0.054248 0.333171
O O12 0.210879 0.001052 0.420020
#
# Coordination Sequence:
#
# PCOD8136707 Si02
#       6
#     8   8   8   8   4   8
#     4  11  21  35  62  89 123 159 200 257 301 360
#     4  11  23  40  60  93 125 157 212 253 310 374
#     4  10  21  39  61  91 126 155 207 259 302 373
#     4  10  22  38  62  93 123 161 207 258 312 362
#     4  10  20  34  60  90 116 156 204 248 308 362
#     4  11  23  39  65  88 124 168 200 259 315 367
#
# _framework density 20.447292999999998
#
# number of rings (size 3 to 8) (size 9 to 14) (size 15 to 20)
#    0.000    1.455    1.818    4.364    2.545    2.909 
#    0.000    0.909   18.000    0.000    0.000    0.000 
#    0.000    0.000    0.000    0.000    0.000    0.000 
#
# Total GULP energy -272574.559627 kJ/mol
# GULP energy per Si atom -12389.752710 kJ/mol
# Density = 2.040075 g / cm^3
# Si number density = 20.447293 Si / 1000 Ang^3
#
#
#
# Elastic Constant Matrix: (Units=GPa)
#
#
# Indices 1 2 3 4 5 6 
#
# 1 68.9579 44.3845 36.1760 0.0000 4.8015 0.0000
# 2 44.3845 158.2289 55.6666 0.0000 6.5022 0.0000
# 3 36.1760 55.6666 140.2414 0.0000 14.1506 0.0000
# 4 0.0000 0.0000 0.0000 14.8259 0.0000 6.0903
# 5 4.8015 6.5022 14.1506 0.0000 38.6395 0.0000
# 6 0.0000 0.0000 0.0000 6.0903 0.0000 14.8861
#
#
#
# Elastic Compliance Matrix: (Units=1/GPa)
#
#
# Indices 1 2 3 4 5 6 
#
# 1 0.018875 -0.004160 -0.003169 0.000000 -0.000485 0.000000
# 2 -0.004160 0.008264 -0.002200 0.000000 -0.000068 0.000000
# 3 -0.003169 -0.002200 0.009080 0.000000 -0.002561 0.000000
# 4 0.000000 0.000000 0.000000 0.081075 0.000000 -0.033170
# 5 -0.000485 -0.000068 -0.002561 0.000000 0.026890 0.000000
# 6 0.000000 0.000000 0.000000 -0.033170 0.000000 0.080748
#
#
# Mechanical properties :
#
#
# Convention : Reuss Voigt Hill
#
# Bulk Modulus (GPa) = 58.27234 71.09806 64.68520
# Shear Modulus (GPa) = 20.02325 29.08370 24.55347
#
# Velocity S-wave (km/s) = 3.13271 3.77553 3.46904
# Velocity P-wave (km/s) = 6.45336 7.33846 6.91010
#
# Compressibility (1/GPa) = 0.01716080
#
# Stress axis : x y z
#
# Youngs Moduli (GPa) = 52.97935 121.01114 110.13514
#
# Poissons Ratio (x) = 0.50340 0.34900
# Poissons Ratio (y) = 0.22039 0.24232
# Poissons Ratio (z) = 0.16788 0.26625
#
# Static dielectric constant tensor:
#      x y z
#    x 3.748220 0.000000 0.157200 
#    y 0.000000 3.449390 0.000000 
#    z 0.157200 0.000000 3.987600 
# 
# 
# High freq. dielectric constant tensor:
#      x y z
#    x 1.790930 0.000000 0.017900 
#    y 0.000000 1.773730 0.000000 
#    z 0.017900 0.000000 1.820930 
# 
# From -- ./inp_files/104074.got.cif
#   From: 2010.06.25/outbox.cif.g09.slc.cpg/sg15_53_cif.got.tgz:104074.got - 2010.06.28 07:06:18.
