data_PCOD8136371
_publ_section_title
;
Structure prediction by ZEFSAII (Michael W. Deem and Ramdas Pophale) SiO2 
 PCOD8136371
Probable space group: C 2/C
;
_chemical_formula_sum "Si O2"
_cell_formula_units_Z 56
_cell_length_a 17.315967
_cell_length_b 14.405833
_cell_length_c 21.525725
_cell_angle_alpha 90.000000
_cell_angle_beta 148.485280
_cell_angle_gamma 90.000000
_cell_volume 2806.790755
_symmetry_space_group_name_H-M "C 2/C"
_symmetry_group_IT_number 15
_symmetry_cell_setting 'monoclinic'
loop_
_space_group_symop_operation_xyz
x,y,z
-x,y,1/2-z
-x,-y,-z
x,-y,1/2+z
1/2+x,1/2+y,z
1/2-x,1/2+y,1/2-z
1/2-x,1/2-y,-z
1/2+x,1/2-y,1/2+z
loop_
_atom_site_type_symbol
_atom_site_label
_atom_site_fract_x
_atom_site_fract_y
_atom_site_fract_z
Si Si1 0.335769 0.673996 0.987374
Si Si2 0.802766 0.912114 0.900032
Si Si3 0.657490 0.533476 0.827040
Si Si4 0.432465 0.472939 0.864247
Si Si5 0.821072 0.761303 0.118352
Si Si6 0.349759 0.876670 0.019217
Si Si7 0.605637 0.071813 0.768649
O O1 0.365770 0.781179 0.992228
O O2 0.254759 0.634442 0.869804
O O3 0.487208 0.620178 0.104309
O O4 0.231959 0.652266 0.974134
O O5 0.818492 0.935314 0.837701
O O6 0.769540 0.806493 0.897216
O O7 0.655541 0.967351 0.819681
O O8 0.951621 0.948788 0.034273
O O9 0.500000 0.515289 0.750000
O O10 0.654275 0.522771 0.750702
O O11 0.717746 0.634558 0.887000
O O12 0.766215 0.454921 0.925053
O O13 0.000000 0.745516 0.250000
O O14 0.750000 0.750000 0.000000
O O15 0.514727 0.917165 0.142847
O O16 0.500000 0.109226 0.750000
#
# Coordination Sequence:
#
# PCOD8136371 Si02
#       7
#     8   8   8   8   8   8   8
#     4   9  19  34  58  84 115 160 197 248 306 372
#     4  10  21  41  64  86 121 167 206 254 314 386
#     4  11  22  38  61  94 128 160 204 265 314 374
#     4  10  21  41  62  88 125 164 205 253 322 386
#     4  11  25  41  70  99 129 171 223 272 323 385
#     4  10  20  33  58  88 119 148 203 256 303 360
#     4   9  19  33  58  85 110 151 205 251 297 363
#
# _framework density 19.951612999999998
#
# number of rings (size 3 to 8) (size 9 to 14) (size 15 to 20)
#    0.000    2.000    1.429    2.143    8.000    0.571 
#    2.571    3.571    0.000    0.000    0.000    0.000 
#    0.000    0.000    0.000    0.000    0.000    0.000 
#
# Total GULP energy -346880.622481 kJ/mol
# GULP energy per Si atom -12388.593660 kJ/mol
# Density = 1.990620 g / cm^3
# Si number density = 19.951613 Si / 1000 Ang^3
#
#
#
# Elastic Constant Matrix: (Units=GPa)
#
#
# Indices 1 2 3 4 5 6 
#
# 1 59.9873 30.6851 30.5370 -0.0025 -16.0883 0.0010
# 2 30.6851 140.7237 54.4173 0.0014 -17.9124 -0.0008
# 3 30.5370 54.4173 125.6690 0.0058 -22.9048 -0.0014
# 4 -0.0025 0.0014 0.0058 24.9545 0.0009 -6.6976
# 5 -16.0883 -17.9124 -22.9048 0.0009 24.5606 -0.0001
# 6 0.0010 -0.0008 -0.0014 -6.6976 -0.0001 19.9354
#
#
#
# Elastic Compliance Matrix: (Units=1/GPa)
#
#
# Indices 1 2 3 4 5 6 
#
# 1 0.021941 -0.002566 -0.002340 0.000002 0.010319 0.000000
# 2 -0.002566 0.009070 -0.002897 0.000000 0.002232 0.000000
# 3 -0.002340 -0.002897 0.010983 -0.000003 0.006597 0.000000
# 4 0.000002 0.000000 -0.000003 0.044044 -0.000003 0.014797
# 5 0.010319 0.002232 0.006597 -0.000003 0.055255 -0.000001
# 6 0.000000 0.000000 0.000000 0.014797 -0.000001 0.055133
#
#
# Mechanical properties :
#
#
# Convention : Reuss Voigt Hill
#
# Bulk Modulus (GPa) = 37.89529 61.96210 49.92869
# Shear Modulus (GPa) = 22.64189 27.93949 25.29069
#
# Velocity S-wave (km/s) = 3.37239 3.74620 3.56420
# Velocity P-wave (km/s) = 5.84798 7.05944 6.48207
#
# Compressibility (1/GPa) = 0.02638850
#
# Stress axis : x y z
#
# Youngs Moduli (GPa) = 45.57591 110.25215 91.05121
#
# Poissons Ratio (x) = 0.28292 0.21303
# Poissons Ratio (y) = 0.11695 0.26379
# Poissons Ratio (z) = 0.10663 0.31942
#
# Static dielectric constant tensor:
#      x y z
#    x 3.387380 0.000000 -0.043050 
#    y 0.000000 3.816280 -0.000010 
#    z -0.043050 -0.000010 4.000190 
# 
# 
# High freq. dielectric constant tensor:
#      x y z
#    x 1.744040 0.000000 0.000840 
#    y 0.000000 1.785480 0.000000 
#    z 0.000840 0.000000 1.787620 
# 
# From -- ./inp_files/249290.got.cif
#   From: 2010.06.25/outbox.cif.g09.slc.cpg/sg15_125_cif.got.tgz:249290.got - 2010.06.28 07:06:18.
