data_PCOD8136554
_publ_section_title
;
Structure prediction by ZEFSAII (Michael W. Deem and Ramdas Pophale) SiO2 
 PCOD8136554
Probable space group: C 2/C
;
_chemical_formula_sum "Si O2"
_cell_formula_units_Z 44
_cell_length_a 10.336048
_cell_length_b 23.618529
_cell_length_c 10.977419
_cell_angle_alpha 90.000000
_cell_angle_beta 51.915917
_cell_angle_gamma 90.000000
_cell_volume 2109.313109
_symmetry_space_group_name_H-M "C 2/C"
_symmetry_group_IT_number 15
_symmetry_cell_setting 'monoclinic'
loop_
_space_group_symop_operation_xyz
x,y,z
-x,y,1/2-z
-x,-y,-z
x,-y,1/2+z
1/2+x,1/2+y,z
1/2-x,1/2+y,1/2-z
1/2-x,1/2-y,-z
1/2+x,1/2-y,1/2+z
loop_
_atom_site_type_symbol
_atom_site_label
_atom_site_fract_x
_atom_site_fract_y
_atom_site_fract_z
Si Si1 0.649155 0.510998 0.785793
Si Si2 0.580872 0.240123 0.447433
Si Si3 0.000000 0.887642 0.250000
Si Si4 0.338407 0.337680 0.915273
Si Si5 0.691736 0.539111 0.015114
Si Si6 0.775544 0.212962 0.868755
O O1 0.555858 0.571834 0.828602
O O2 0.507252 0.463616 0.880167
O O3 0.752138 0.495656 0.601703
O O4 0.759602 0.512971 0.845950
O O5 0.616574 0.297437 0.499341
O O6 0.716024 0.192930 0.394129
O O7 0.406371 0.211956 0.586648
O O8 0.591390 0.258732 0.299815
O O9 0.159161 0.848700 0.127555
O O10 0.500000 0.355213 0.750000
O O11 0.252947 0.395533 0.010921
O O12 0.750000 0.250000 0.000000
#
# Coordination Sequence:
#
# PCOD8136554 Si02
#       6
#     8   8   4   8   8   8
#     4   9  18  32  55  86 110 148 205 245 292 356
#     4  11  24  36  57  87 121 154 208 228 302 355
#     4  10  20  34  56  84 116 160 194 248 298 350
#     4  11  20  37  60  84 116 159 190 256 285 353
#     4   9  17  32  55  85 112 145 198 250 289 343
#     4  12  22  38  55  84 121 162 192 245 289 359
#
# _framework density 20.859869
#
# number of rings (size 3 to 8) (size 9 to 14) (size 15 to 20)
#    0.000    1.818    5.455    1.091    0.000    0.000 
#    3.273    0.000    0.000    4.364    0.000    5.091 
#    0.000    0.000    0.000    0.000    0.000    0.000 
#
# Total GULP energy -272582.591175 kJ/mol
# GULP energy per Si atom -12390.117781 kJ/mol
# Density = 2.081239 g / cm^3
# Si number density = 20.859869 Si / 1000 Ang^3
#
#
#
# Elastic Constant Matrix: (Units=GPa)
#
#
# Indices 1 2 3 4 5 6 
#
# 1 55.5066 41.0907 36.8637 0.0000 17.4794 0.0000
# 2 41.0907 137.4872 33.8039 0.0000 14.3666 0.0000
# 3 36.8637 33.8039 88.8730 0.0000 29.1611 0.0000
# 4 0.0000 0.0000 0.0000 22.3849 0.0000 2.7832
# 5 17.4794 14.3666 29.1611 0.0000 50.2308 0.0000
# 6 0.0000 0.0000 0.0000 2.7832 0.0000 17.1189
#
#
#
# Elastic Compliance Matrix: (Units=1/GPa)
#
#
# Indices 1 2 3 4 5 6 
#
# 1 0.029587 -0.006337 -0.008744 0.000000 -0.003407 0.000000
# 2 -0.006337 0.009398 -0.000973 0.000000 0.000082 0.000000
# 3 -0.008744 -0.000973 0.017491 0.000000 -0.006833 0.000000
# 4 0.000000 0.000000 0.000000 0.045595 0.000000 -0.007413
# 5 -0.003407 0.000082 -0.006833 0.000000 0.025037 0.000000
# 6 0.000000 0.000000 0.000000 -0.007413 0.000000 0.059620
#
#
# Mechanical properties :
#
#
# Convention : Reuss Voigt Hill
#
# Bulk Modulus (GPa) = 41.03735 56.15372 48.59554
# Shear Modulus (GPa) = 22.03037 29.28749 25.65893
#
# Velocity S-wave (km/s) = 3.25331 3.75108 3.51103
# Velocity P-wave (km/s) = 5.81615 6.76304 6.30739
#
# Compressibility (1/GPa) = 0.02436805
#
# Stress axis : x y z
#
# Youngs Moduli (GPa) = 33.79847 106.40620 57.17103
#
# Poissons Ratio (x) = 0.67427 0.49992
# Poissons Ratio (y) = 0.21417 0.05564
# Poissons Ratio (z) = 0.29555 0.10355
#
# Static dielectric constant tensor:
#      x y z
#    x 3.109050 0.000000 0.193690 
#    y 0.000000 3.839200 0.000000 
#    z 0.193690 0.000000 3.950180 
# 
# 
# High freq. dielectric constant tensor:
#      x y z
#    x 1.799530 0.000000 0.035210 
#    y 0.000000 1.816320 0.000000 
#    z 0.035210 0.000000 1.800220 
# 
# From -- ./inp_files/88723.got.cif
#   From: 2010.06.25/outbox.cif.g09.slc.cpg/sg15_45_cif.got.tgz:88723.got - 2010.06.28 07:06:18.
