data_PCOD8136109
_publ_section_title
;
Structure prediction by ZEFSAII (Michael W. Deem and Ramdas Pophale) SiO2 
 PCOD8136109
Probable space group: C 2/C
;
_chemical_formula_sum "Si O2"
_cell_formula_units_Z 36
_cell_length_a 10.766256
_cell_length_b 37.250235
_cell_length_c 5.314482
_cell_angle_alpha 90.000000
_cell_angle_beta 54.201180
_cell_angle_gamma 90.000000
_cell_volume 1728.686094
_symmetry_space_group_name_H-M "C 2/C"
_symmetry_group_IT_number 15
_symmetry_cell_setting 'monoclinic'
loop_
_space_group_symop_operation_xyz
x,y,z
-x,y,1/2-z
-x,-y,-z
x,-y,1/2+z
1/2+x,1/2+y,z
1/2-x,1/2+y,1/2-z
1/2-x,1/2-y,-z
1/2+x,1/2-y,1/2+z
loop_
_atom_site_type_symbol
_atom_site_label
_atom_site_fract_x
_atom_site_fract_y
_atom_site_fract_z
Si Si1 0.817291 0.898952 0.468334
Si Si2 0.500000 0.751777 0.750000
Si Si3 0.182467 0.980394 0.031759
Si Si4 0.278335 0.281310 0.157815
Si Si5 0.819444 0.860637 0.965849
O O1 0.757212 0.939681 0.545693
O O2 0.751942 0.878377 0.791803
O O3 0.000000 0.897804 0.250000
O O4 0.752126 0.880097 0.293800
O O5 0.556661 0.724753 0.903915
O O6 0.639336 0.778440 0.520543
O O7 0.000000 0.981369 0.250000
O O8 0.245853 0.999459 0.208715
O O9 0.250000 0.250000 0.000000
O O10 0.272457 0.319099 0.024556
O O11 0.000000 0.865415 0.750000
#
# Coordination Sequence:
#
# PCOD8136109 Si02
#       5
#     8   4   8   8   8
#     4   9  18  29  42  70  97 136 181 220 272 325
#     4  10  24  38  60  80 110 138 198 234 288 336
#     4   9  15  24  40  59  91 132 175 216 257 318
#     4  11  23  39  58  82 108 148 191 238 284 339
#     4  10  20  31  51  70 105 139 180 231 273 329
#
# _framework density 20.825066
#
# number of rings (size 3 to 8) (size 9 to 14) (size 15 to 20)
#    0.000    2.222    0.000    3.333   10.889    5.333 
#    0.000    0.000    0.000    0.000    0.000    0.000 
#    0.000    0.000    0.000   20.000    0.000    8.889 
#
# Total GULP energy -223186.388928 kJ/mol
# GULP energy per Si atom -12399.243829 kJ/mol
# Density = 2.077767 g / cm^3
# Si number density = 20.825066 Si / 1000 Ang^3
#
#
#
# Elastic Constant Matrix: (Units=GPa)
#
#
# Indices 1 2 3 4 5 6 
#
# 1 63.0491 45.0393 43.7918 0.0000 26.3540 0.0000
# 2 45.0393 204.7084 77.1317 0.0000 49.2555 0.0000
# 3 43.7918 77.1317 104.8854 0.0000 57.6988 0.0000
# 4 0.0000 0.0000 0.0000 41.4591 0.0000 13.9290
# 5 26.3540 49.2555 57.6988 0.0000 42.9284 0.0000
# 6 0.0000 0.0000 0.0000 13.9290 0.0000 22.1859
#
#
#
# Elastic Compliance Matrix: (Units=1/GPa)
#
#
# Indices 1 2 3 4 5 6 
#
# 1 0.023044 -0.001835 -0.006323 0.000000 -0.003543 0.000000
# 2 -0.001835 0.007099 -0.002276 0.000000 -0.003959 0.000000
# 3 -0.006323 -0.002276 0.039430 0.000000 -0.046504 0.000000
# 4 0.000000 0.000000 0.000000 0.030568 0.000000 -0.019191
# 5 -0.003543 -0.003959 -0.046504 0.000000 0.092517 0.000000
# 6 0.000000 0.000000 0.000000 -0.019191 0.000000 0.057122
#
#
# Mechanical properties :
#
#
# Convention : Reuss Voigt Hill
#
# Bulk Modulus (GPa) = 20.53176 78.28539 49.40858
# Shear Modulus (GPa) = 17.42862 35.09336 26.26099
#
# Velocity S-wave (km/s) = 2.89607 4.10951 3.55495
# Velocity P-wave (km/s) = 4.58950 7.75828 6.37395
#
# Compressibility (1/GPa) = 0.04870503
#
# Stress axis : x y z
#
# Youngs Moduli (GPa) = 43.39489 140.86243 25.36113
#
# Poissons Ratio (x) = 0.25852 0.16035
# Poissons Ratio (y) = 0.07964 0.05773
# Poissons Ratio (z) = 0.27437 0.32066
#
# Static dielectric constant tensor:
#      x y z
#    x 4.283890 0.000000 -0.036220 
#    y 0.000000 3.852590 0.000000 
#    z -0.036220 0.000000 4.327550 
# 
# 
# High freq. dielectric constant tensor:
#      x y z
#    x 1.766660 0.000000 0.040300 
#    y 0.000000 1.820470 0.000000 
#    z 0.040300 0.000000 1.815180 
# 
# From -- ./inp_files/5419.got.cif
#   From: 2010.06.25/outbox.cif.g09.slc.cpg/sg15_3_cif.got.tgz:5419.got - 2010.06.28 07:06:18.
