data_PCOD8136753
_publ_section_title
;
Structure prediction by ZEFSAII (Michael W. Deem and Ramdas Pophale) SiO2 
 PCOD8136753
Probable space group: C 2/C
;
_chemical_formula_sum "Si O2"
_cell_formula_units_Z 60
_cell_length_a 14.194064
_cell_length_b 12.624430
_cell_length_c 22.896024
_cell_angle_alpha 90.000000
_cell_angle_beta 45.073656
_cell_angle_gamma 90.000000
_cell_volume 2904.833184
_symmetry_space_group_name_H-M "C 2/C"
_symmetry_group_IT_number 15
_symmetry_cell_setting 'monoclinic'
loop_
_space_group_symop_operation_xyz
x,y,z
-x,y,1/2-z
-x,-y,-z
x,-y,1/2+z
1/2+x,1/2+y,z
1/2-x,1/2+y,1/2-z
1/2-x,1/2-y,-z
1/2+x,1/2-y,1/2+z
loop_
_atom_site_type_symbol
_atom_site_label
_atom_site_fract_x
_atom_site_fract_y
_atom_site_fract_z
Si Si1 0.409844 0.392581 0.093565
Si Si2 0.795759 0.705095 0.332775
Si Si3 0.612896 0.875155 0.404404
Si Si4 0.134132 0.670206 0.328827
Si Si5 0.677147 0.509214 0.756460
Si Si6 0.197828 0.031040 0.454527
Si Si7 0.500000 0.374955 0.250000
Si Si8 0.605938 0.020307 0.027179
O O1 0.365468 0.276221 0.132927
O O2 0.351022 0.483150 0.162210
O O3 0.347869 0.422351 0.057482
O O4 0.569393 0.397629 0.024552
O O5 0.641654 0.748740 0.397006
O O6 0.869151 0.690947 0.238756
O O7 0.798389 0.598938 0.369721
O O8 0.880003 0.800237 0.326346
O O9 0.661401 0.936262 0.441754
O O10 0.704844 0.909789 0.310164
O O11 0.460309 0.904366 0.456312
O O12 0.272404 0.608606 0.282239
O O13 0.005606 0.600974 0.400635
O O14 0.543513 0.545404 0.782391
O O15 0.274177 0.002682 0.480466
#
# Coordination Sequence:
#
# PCOD8136753 Si02
#       8
#     8   8   8   8   8   8   4   8
#     4  11  23  42  60  90 131 163 199 258 315 364
#     4  11  20  36  60  93 120 163 203 253 305 361
#     4   9  20  38  60  86 123 156 203 252 300 358
#     4  11  21  40  64  86 126 162 203 253 310 365
#     4  10  21  38  61  88 119 163 205 253 301 363
#     4  11  25  38  63  94 128 160 203 257 316 368
#     4  10  20  34  62  92 118 152 208 260 294 352
#     4  10  22  39  61  93 118 160 204 255 304 365
#
# _framework density 20.65523
#
# number of rings (size 3 to 8) (size 9 to 14) (size 15 to 20)
#    0.000    1.600    4.000    1.600    3.733    1.067 
#    0.000    1.333    0.000    8.800    0.000    0.000 
#    0.000    0.000    0.000    0.000    0.000    0.000 
#
# Total GULP energy -371811.987345 kJ/mol
# GULP energy per Si atom -12393.732911 kJ/mol
# Density = 2.060822 g / cm^3
# Si number density = 20.655230 Si / 1000 Ang^3
#
#
#
# Elastic Constant Matrix: (Units=GPa)
#
#
# Indices 1 2 3 4 5 6 
#
# 1 129.4808 35.3773 21.0018 0.0000 4.2109 0.0000
# 2 35.3773 70.7208 11.3205 0.0000 -10.2052 0.0000
# 3 21.0018 11.3205 71.0871 0.0000 1.1594 0.0000
# 4 0.0000 0.0000 0.0000 35.8803 0.0000 -5.5070
# 5 4.2109 -10.2052 1.1594 0.0000 23.6316 0.0000
# 6 0.0000 0.0000 0.0000 -5.5070 0.0000 25.3814
#
#
#
# Elastic Compliance Matrix: (Units=1/GPa)
#
#
# Indices 1 2 3 4 5 6 
#
# 1 0.009528 -0.004995 -0.001958 0.000000 -0.003759 0.000000
# 2 -0.004995 0.018160 -0.001560 0.000000 0.008809 0.000000
# 3 -0.001958 -0.001560 0.014911 0.000000 -0.001056 0.000000
# 4 0.000000 0.000000 0.000000 0.028831 0.000000 0.006255
# 5 -0.003759 0.008809 -0.001056 0.000000 0.046842 0.000000
# 6 0.000000 0.000000 0.000000 0.006255 0.000000 0.040756
#
#
# Mechanical properties :
#
#
# Convention : Reuss Voigt Hill
#
# Bulk Modulus (GPa) = 39.10412 45.18755 42.14584
# Shear Modulus (GPa) = 27.08883 30.55125 28.82004
#
# Velocity S-wave (km/s) = 3.62536 3.85009 3.73941
# Velocity P-wave (km/s) = 6.04129 6.45668 6.25244
#
# Compressibility (1/GPa) = 0.02557275
#
# Stress axis : x y z
#
# Youngs Moduli (GPa) = 104.95605 55.06696 67.06291
#
# Poissons Ratio (x) = 0.27507 0.13132
# Poissons Ratio (y) = 0.52427 0.10461
# Poissons Ratio (z) = 0.20551 0.08589
#
# Static dielectric constant tensor:
#      x y z
#    x 3.669030 0.000000 -0.002630 
#    y 0.000000 3.777150 0.000000 
#    z -0.002630 0.000000 3.854760 
# 
# 
# High freq. dielectric constant tensor:
#      x y z
#    x 1.785830 0.000000 0.003370 
#    y 0.000000 1.794810 0.000000 
#    z 0.003370 0.000000 1.824660 
# 
# From -- ./inp_files/273837.got.cif
#   From: 2010.06.25/outbox.cif.g09.slc.cpg/sg15_137_cif.got.tgz:273837.got - 2010.06.28 07:06:18.
