data_PCOD8136390
_publ_section_title
;
Structure prediction by ZEFSAII (Michael W. Deem and Ramdas Pophale) SiO2 
 PCOD8136390
Probable space group: C 2/C
;
_chemical_formula_sum "Si O2"
_cell_formula_units_Z 60
_cell_length_a 21.041696
_cell_length_b 18.830594
_cell_length_c 8.146912
_cell_angle_alpha 90.000000
_cell_angle_beta 80.762917
_cell_angle_gamma 90.000000
_cell_volume 3186.172427
_symmetry_space_group_name_H-M "C 2/C"
_symmetry_group_IT_number 15
_symmetry_cell_setting 'monoclinic'
loop_
_space_group_symop_operation_xyz
x,y,z
-x,y,1/2-z
-x,-y,-z
x,-y,1/2+z
1/2+x,1/2+y,z
1/2-x,1/2+y,1/2-z
1/2-x,1/2-y,-z
1/2+x,1/2-y,1/2+z
loop_
_atom_site_type_symbol
_atom_site_label
_atom_site_fract_x
_atom_site_fract_y
_atom_site_fract_z
Si Si1 0.616032 0.708681 0.362366
Si Si2 0.194847 0.073958 0.681470
Si Si3 0.293299 0.416209 0.704876
Si Si4 0.500000 0.774973 0.250000
Si Si5 0.724427 0.803319 0.226526
Si Si6 0.931288 0.842440 0.270750
Si Si7 0.686744 0.179463 0.373598
Si Si8 0.544032 0.196710 0.385338
O O1 0.650712 0.639340 0.271390
O O2 0.562735 0.726847 0.249415
O O3 0.667448 0.773248 0.366775
O O4 0.584013 0.695537 0.550665
O O5 0.211687 0.080911 0.486458
O O6 0.252046 0.117058 0.746136
O O7 0.125051 0.104777 0.759019
O O8 0.191313 0.992752 0.731515
O O9 0.226490 0.390336 0.809045
O O10 0.489481 0.820488 0.423442
O O11 0.785350 0.750299 0.226211
O O12 0.692347 0.803658 0.062409
O O13 0.942860 0.781096 0.131568
O O14 0.000000 0.884570 0.250000
O O15 0.614163 0.160329 0.350677
O O16 0.500000 0.169638 0.250000
#
# Coordination Sequence:
#
# PCOD8136390 Si02
#       8
#     8   8   8   4   8   8   8   8
#     4  10  21  36  54  87 114 152 192 241 290 342
#     4  11  22  39  57  81 116 158 193 242 285 348
#     4  10  24  37  56  81 118 150 199 239 292 341
#     4  12  20  34  56  86 122 152 192 234 292 346
#     4  10  20  33  60  83 114 145 194 244 291 337
#     4  10  20  36  55  81 121 155 193 235 284 345
#     4  10  20  36  56  88 111 149 189 244 291 340
#     4  11  21  34  58  88 123 150 188 241 288 351
#
# _framework density 18.831372999999999
#
# number of rings (size 3 to 8) (size 9 to 14) (size 15 to 20)
#    0.000    1.600    5.333    0.800    1.867    2.667 
#    1.200    1.333    0.000    0.000    1.733    2.800 
#    2.000    0.000    0.000    0.000    0.000    0.000 
#
# Total GULP energy -371873.756478 kJ/mol
# GULP energy per Si atom -12395.791883 kJ/mol
# Density = 1.878851 g / cm^3
# Si number density = 18.831373 Si / 1000 Ang^3
#
#
#
# Elastic Constant Matrix: (Units=GPa)
#
#
# Indices 1 2 3 4 5 6 
#
# 1 140.2134 32.0350 45.4943 0.0000 -11.9995 0.0000
# 2 32.0350 57.9544 6.6084 0.0000 -14.5982 0.0000
# 3 45.4943 6.6084 85.8052 0.0000 -12.7164 0.0000
# 4 0.0000 0.0000 0.0000 18.7248 0.0000 0.6490
# 5 -11.9995 -14.5982 -12.7164 0.0000 29.2397 0.0000
# 6 0.0000 0.0000 0.0000 0.6490 0.0000 22.6802
#
#
#
# Elastic Compliance Matrix: (Units=1/GPa)
#
#
# Indices 1 2 3 4 5 6 
#
# 1 0.009821 -0.005023 -0.004911 0.000000 -0.000613 0.000000
# 2 -0.005023 0.022306 0.002448 0.000000 0.010140 0.000000
# 3 -0.004911 0.002448 0.014913 0.000000 0.005693 0.000000
# 4 0.000000 0.000000 0.000000 0.053458 0.000000 -0.001530
# 5 -0.000613 0.010140 0.005693 0.000000 0.041487 0.000000
# 6 0.000000 0.000000 0.000000 -0.001530 0.000000 0.044135
#
#
# Mechanical properties :
#
#
# Convention : Reuss Voigt Hill
#
# Bulk Modulus (GPa) = 31.18332 50.24982 40.71657
# Shear Modulus (GPa) = 23.60929 27.45132 25.53030
#
# Velocity S-wave (km/s) = 3.54463 3.82218 3.68602
# Velocity P-wave (km/s) = 5.77475 6.79859 6.30748
#
# Compressibility (1/GPa) = 0.03206843
#
# Stress axis : x y z
#
# Youngs Moduli (GPa) = 101.82757 44.83010 67.05461
#
# Poissons Ratio (x) = 0.22518 0.32930
# Poissons Ratio (y) = 0.51147 -0.16415
# Poissons Ratio (z) = 0.50007 -0.10974
#
# Static dielectric constant tensor:
#      x y z
#    x 3.711340 0.000000 -0.155160 
#    y 0.000000 2.939000 0.000000 
#    z -0.155160 0.000000 3.560690 
# 
# 
# High freq. dielectric constant tensor:
#      x y z
#    x 1.745250 0.000000 -0.006660 
#    y 0.000000 1.681770 0.000000 
#    z -0.006660 0.000000 1.744720 
# 
# From -- ./inp_files/57491.got.cif
#   From: 2010.06.25/outbox.cif.g09.slc.cpg/sg15_29_cif.got.tgz:57491.got - 2010.06.28 07:06:18.
