data_PCOD8136290
_publ_section_title
;
Structure prediction by ZEFSAII (Michael W. Deem and Ramdas Pophale) SiO2 
 PCOD8136290
Probable space group: C 2/C
;
_chemical_formula_sum "Si O2"
_cell_formula_units_Z 64
_cell_length_a 26.311840
_cell_length_b 14.421039
_cell_length_c 9.489508
_cell_angle_alpha 90.000000
_cell_angle_beta 101.271343
_cell_angle_gamma 90.000000
_cell_volume 3531.288464
_symmetry_space_group_name_H-M "C 2/C"
_symmetry_group_IT_number 15
_symmetry_cell_setting 'monoclinic'
loop_
_space_group_symop_operation_xyz
x,y,z
-x,y,1/2-z
-x,-y,-z
x,-y,1/2+z
1/2+x,1/2+y,z
1/2-x,1/2+y,1/2-z
1/2-x,1/2-y,-z
1/2+x,1/2-y,1/2+z
loop_
_atom_site_type_symbol
_atom_site_label
_atom_site_fract_x
_atom_site_fract_y
_atom_site_fract_z
Si Si1 0.040396 0.907926 0.392423
Si Si2 0.711191 0.411185 0.889835
Si Si3 0.786590 0.907435 0.941490
Si Si4 0.862199 0.790095 0.152157
Si Si5 0.331293 0.082605 0.451757
Si Si6 0.636441 0.715651 0.518702
Si Si7 0.833422 0.587762 0.134549
Si Si8 0.967477 0.885271 0.592699
O O1 0.086823 0.843464 0.368642
O O2 0.000000 0.925860 0.250000
O O3 0.009801 0.857078 0.499601
O O4 0.057636 0.012115 0.446976
O O5 0.699196 0.418147 0.716170
O O6 0.771505 0.394842 0.953757
O O7 0.693027 0.503746 0.960497
O O8 0.679778 0.326624 0.939983
O O9 0.726141 0.889325 0.933342
O O10 0.815060 0.820503 0.027160
O O11 0.851176 0.810269 0.311458
O O12 0.868193 0.679611 0.130582
O O13 0.363802 0.174069 0.503800
O O14 0.337557 0.051574 0.294979
O O15 0.354071 0.996499 0.551433
O O16 0.579831 0.685266 0.439162
O O17 0.000000 0.874024 0.750000
#
# Coordination Sequence:
#
# PCOD8136290 Si02
#       8
#     8   8   8   8   8   8   8   8
#     4  10  20  38  56  78 107 142 170 214 272 320
#     4  10  20  33  52  80 112 145 178 217 264 317
#     4  10  20  33  52  80 113 144 179 216 261 319
#     4  11  21  34  57  80 108 142 183 219 266 323
#     4   9  20  37  55  76 109 144 181 222 268 313
#     4  11  21  35  55  81 109 142 178 224 270 317
#     4   9  20  37  54  78 108 145 180 222 266 313
#     4  10  22  36  56  80 111 137 174 217 267 323
#
# _framework density 18.123695999999999
#
# number of rings (size 3 to 8) (size 9 to 14) (size 15 to 20)
#    0.000    2.000    1.250    2.250    1.750    2.000 
#    0.000    0.000    0.000    1.500    0.000    0.000 
#    0.000    0.000    0.000    0.000    0.000    0.000 
#
# Total GULP energy -396760.022977 kJ/mol
# GULP energy per Si atom -12398.750718 kJ/mol
# Density = 1.808245 g / cm^3
# Si number density = 18.123696 Si / 1000 Ang^3
#
#
#
# Elastic Constant Matrix: (Units=GPa)
#
#
# Indices 1 2 3 4 5 6 
#
# 1 67.1591 54.6668 37.7944 0.0000 -5.5888 0.0000
# 2 54.6668 112.0425 50.2071 0.0000 -4.6992 0.0000
# 3 37.7944 50.2071 95.6328 0.0000 -9.6301 0.0000
# 4 0.0000 0.0000 0.0000 33.4473 0.0000 -0.3662
# 5 -5.5888 -4.6992 -9.6301 0.0000 25.9528 0.0000
# 6 0.0000 0.0000 0.0000 -0.3662 0.0000 32.0529
#
#
#
# Elastic Compliance Matrix: (Units=1/GPa)
#
#
# Indices 1 2 3 4 5 6 
#
# 1 0.026371 -0.010727 -0.004586 0.000000 0.002035 0.000000
# 2 -0.010727 0.016035 -0.004279 0.000000 -0.000994 0.000000
# 3 -0.004586 -0.004279 0.014894 0.000000 0.003765 0.000000
# 4 0.000000 0.000000 0.000000 0.029901 0.000000 0.000342
# 5 0.002035 -0.000994 0.003765 0.000000 0.040187 0.000000
# 6 0.000000 0.000000 0.000000 0.000342 0.000000 0.031202
#
#
# Mechanical properties :
#
#
# Convention : Reuss Voigt Hill
#
# Bulk Modulus (GPa) = 55.19446 62.24121 58.71783
# Shear Modulus (GPa) = 24.53230 27.10168 25.81699
#
# Velocity S-wave (km/s) = 3.68313 3.87120 3.77833
# Velocity P-wave (km/s) = 6.97192 7.37554 7.17657
#
# Compressibility (1/GPa) = 0.01811776
#
# Stress axis : x y z
#
# Youngs Moduli (GPa) = 37.91988 62.36498 67.13889
#
# Poissons Ratio (x) = 0.66897 0.30787
# Poissons Ratio (y) = 0.40676 0.28729
# Poissons Ratio (z) = 0.17389 0.26686
#
# Static dielectric constant tensor:
#      x y z
#    x 3.158860 0.000000 -0.066380 
#    y 0.000000 3.349680 0.000000 
#    z -0.066380 0.000000 3.506190 
# 
# 
# High freq. dielectric constant tensor:
#      x y z
#    x 1.681260 0.000000 -0.007010 
#    y 0.000000 1.696150 0.000000 
#    z -0.007010 0.000000 1.716660 
# 
# From -- ./inp_files/66235.got.cif
#   From: 2010.06.25/outbox.cif.g09.slc.cpg/sg15_34_cif.got.tgz:66235.got - 2010.06.28 07:06:18.
