data_PCOD8136184
_publ_section_title
;
Structure prediction by ZEFSAII (Michael W. Deem and Ramdas Pophale) SiO2 
 PCOD8136184
Probable space group: C 2/C
;
_chemical_formula_sum "Si O2"
_cell_formula_units_Z 60
_cell_length_a 16.636255
_cell_length_b 19.888230
_cell_length_c 17.049635
_cell_angle_alpha 90.000000
_cell_angle_beta 145.018072
_cell_angle_gamma 90.000000
_cell_volume 3234.166628
_symmetry_space_group_name_H-M "C 2/C"
_symmetry_group_IT_number 15
_symmetry_cell_setting 'monoclinic'
loop_
_space_group_symop_operation_xyz
x,y,z
-x,y,1/2-z
-x,-y,-z
x,-y,1/2+z
1/2+x,1/2+y,z
1/2-x,1/2+y,1/2-z
1/2-x,1/2-y,-z
1/2+x,1/2-y,1/2+z
loop_
_atom_site_type_symbol
_atom_site_label
_atom_site_fract_x
_atom_site_fract_y
_atom_site_fract_z
Si Si1 0.968288 0.319887 0.545057
Si Si2 0.902181 0.021560 0.034721
Si Si3 0.147161 0.077188 0.140818
Si Si4 0.000000 0.066858 0.750000
Si Si5 0.746612 0.204798 0.348086
Si Si6 0.589393 0.063093 0.045283
Si Si7 0.788534 0.616468 0.026852
Si Si8 0.360963 0.963935 0.095163
O O1 0.101134 0.279288 0.686477
O O2 0.012951 0.366343 0.506555
O O3 0.837612 0.272096 0.422162
O O4 0.915811 0.369218 0.570660
O O5 0.995786 0.072310 0.059596
O O6 0.000278 0.981024 0.174165
O O7 0.834520 0.967317 0.921929
O O8 0.780869 0.067183 0.979531
O O9 0.162001 0.154334 0.130121
O O10 0.264360 0.054562 0.294885
O O11 0.862053 0.114357 0.638293
O O12 0.716641 0.173125 0.409764
O O13 0.500000 0.000000 0.000000
O O14 0.622443 0.059874 0.979998
O O15 0.828282 0.542222 0.087245
O O16 0.500000 0.939812 0.250000
#
# Coordination Sequence:
#
# PCOD8136184 Si02
#       8
#     8   8   8   4   8   8   8   8
#     4  11  25  39  59  85 118 168 199 245 293 355
#     4  10  20  33  56  87 119 151 190 247 296 354
#     4  10  20  37  56  86 119 151 192 239 305 345
#     4  10  20  32  54  92 116 150 196 236 292 358
#     4  11  23  41  57  84 123 163 202 238 296 360
#     4  11  22  37  61  86 117 155 197 249 297 352
#     4  11  21  35  58  84 125 159 193 239 294 358
#     4  11  20  37  58  90 120 149 195 247 303 353
#
# _framework density 18.551919000000002
#
# number of rings (size 3 to 8) (size 9 to 14) (size 15 to 20)
#    0.000    1.333    4.000    4.000    1.867    0.000 
#    4.800    0.000    0.000    0.800    1.733    0.000 
#    0.000    0.000    0.000    0.000    0.000    0.000 
#
# Total GULP energy -371856.466189 kJ/mol
# GULP energy per Si atom -12395.215540 kJ/mol
# Density = 1.850969 g / cm^3
# Si number density = 18.551919 Si / 1000 Ang^3
#
#
#
# Elastic Constant Matrix: (Units=GPa)
#
#
# Indices 1 2 3 4 5 6 
#
# 1 137.3836 28.7726 41.3380 -0.0013 -3.6320 -0.0005
# 2 28.7726 40.5091 18.7987 -0.0019 0.7495 -0.0008
# 3 41.3380 18.7987 95.0919 -0.0021 -7.0436 -0.0016
# 4 -0.0013 -0.0019 -0.0021 32.7795 -0.0013 12.0824
# 5 -3.6320 0.7495 -7.0436 -0.0013 34.7416 -0.0009
# 6 -0.0005 -0.0008 -0.0016 12.0824 -0.0009 24.9046
#
#
#
# Elastic Compliance Matrix: (Units=1/GPa)
#
#
# Indices 1 2 3 4 5 6 
#
# 1 0.009278 -0.005223 -0.002965 0.000000 0.000481 0.000000
# 2 -0.005223 0.030219 -0.003850 0.000001 -0.001978 0.000000
# 3 -0.002965 -0.003850 0.012741 0.000000 0.002356 0.000001
# 4 0.000000 0.000001 0.000000 0.037150 0.000001 -0.018023
# 5 0.000481 -0.001978 0.002356 0.000001 0.029355 0.000001
# 6 0.000000 0.000000 0.000001 -0.018023 0.000001 0.048897
#
#
# Mechanical properties :
#
#
# Convention : Reuss Voigt Hill
#
# Bulk Modulus (GPa) = 35.50949 50.08924 42.79936
# Shear Modulus (GPa) = 24.86306 30.75682 27.80994
#
# Velocity S-wave (km/s) = 3.66483 4.07612 3.87594
# Velocity P-wave (km/s) = 6.09017 7.01506 6.56891
#
# Compressibility (1/GPa) = 0.02816149
#
# Stress axis : x y z
#
# Youngs Moduli (GPa) = 107.78722 33.09221 78.48849
#
# Poissons Ratio (x) = 0.17283 0.23272
# Poissons Ratio (y) = 0.56293 0.30219
# Poissons Ratio (z) = 0.31959 0.12741
#
# Static dielectric constant tensor:
#      x y z
#    x 3.723390 0.000000 0.088140 
#    y 0.000000 3.067260 0.000000 
#    z 0.088140 0.000000 3.694870 
# 
# 
# High freq. dielectric constant tensor:
#      x y z
#    x 1.735740 0.000000 0.010260 
#    y 0.000000 1.679030 0.000000 
#    z 0.010260 0.000000 1.734190 
# 
# From -- ./inp_files/156370.got.cif
#   From: 2010.06.25/outbox.cif.g09.slc.cpg/sg15_79_cif.got.tgz:156370.got - 2010.06.28 07:06:18.
