data_PCOD8136592
_publ_section_title
;
Structure prediction by ZEFSAII (Michael W. Deem and Ramdas Pophale) SiO2 
 PCOD8136592
Probable space group: C 2/C
;
_chemical_formula_sum "Si O2"
_cell_formula_units_Z 64
_cell_length_a 21.850646
_cell_length_b 16.972570
_cell_length_c 25.916605
_cell_angle_alpha 90.000000
_cell_angle_beta 160.906329
_cell_angle_gamma 90.000000
_cell_volume 3144.043083
_symmetry_space_group_name_H-M "C 2/C"
_symmetry_group_IT_number 15
_symmetry_cell_setting 'monoclinic'
loop_
_space_group_symop_operation_xyz
x,y,z
-x,y,1/2-z
-x,-y,-z
x,-y,1/2+z
1/2+x,1/2+y,z
1/2-x,1/2+y,1/2-z
1/2-x,1/2-y,-z
1/2+x,1/2-y,1/2+z
loop_
_atom_site_type_symbol
_atom_site_label
_atom_site_fract_x
_atom_site_fract_y
_atom_site_fract_z
Si Si1 0.536236 0.077365 0.220011
Si Si2 0.673121 0.495893 0.925987
Si Si3 0.562067 0.340283 0.641413
Si Si4 0.627459 0.333467 0.196534
Si Si5 0.877791 0.823767 0.602843
Si Si6 0.574519 0.486033 0.463116
Si Si7 0.535646 0.771993 0.528865
Si Si8 0.533515 0.256470 0.332482
O O1 0.500000 0.053661 0.250000
O O2 0.724659 0.034164 0.349792
O O3 0.562078 0.171138 0.234072
O O4 0.349612 0.044376 0.042848
O O5 0.500000 0.503273 0.750000
O O6 0.738034 0.405052 0.985076
O O7 0.601086 0.526230 0.923421
O O8 0.498997 0.319713 0.648141
O O9 0.502610 0.429500 0.580190
O O10 0.460714 0.283709 0.518950
O O11 0.786251 0.329528 0.822966
O O12 0.581422 0.422886 0.144013
O O13 0.529717 0.279340 0.075824
O O14 0.532284 0.314449 0.175425
O O15 0.850508 0.325215 0.377898
O O16 0.750000 0.750000 0.500000
O O17 0.000000 0.814078 0.750000
O O18 0.500000 0.294932 0.250000
O O19 0.750000 0.250000 0.500000
#
# Coordination Sequence:
#
# PCOD8136592 Si02
#       8
#     8   8   8   8   8   8   8   8
#     4   9  18  33  52  79 117 156 187 222 282 350
#     4   9  19  33  50  81 118 148 180 227 285 347
#     4  10  22  41  61  85 113 152 195 240 296 345
#     4  11  22  39  59  85 116 153 197 240 286 340
#     4  10  20  34  57  85 113 141 180 233 291 352
#     4  10  21  37  57  81 114 149 192 241 287 344
#     4  10  23  41  61  80 113 156 200 243 282 346
#     4  11  21  34  57  87 119 153 189 231 284 345
#
# _framework density 20.355955999999999
#
# number of rings (size 3 to 8) (size 9 to 14) (size 15 to 20)
#    0.000    2.000    0.000    4.500    0.000    7.500 
#    0.000    2.500    0.000    0.000    0.000    0.000 
#    0.000    0.000    0.000    0.000    0.000    0.000 
#
# Total GULP energy -396608.128085 kJ/mol
# GULP energy per Si atom -12394.004003 kJ/mol
# Density = 2.030963 g / cm^3
# Si number density = 20.355956 Si / 1000 Ang^3
#
#
#
# Elastic Constant Matrix: (Units=GPa)
#
#
# Indices 1 2 3 4 5 6 
#
# 1 70.1044 27.0288 21.4923 0.0122 -7.3071 -0.0010
# 2 27.0288 117.0116 47.1019 -0.0434 20.2037 -0.0017
# 3 21.4923 47.1019 111.0216 -0.0030 8.1701 0.0026
# 4 0.0122 -0.0434 -0.0030 41.5843 0.0040 4.5218
# 5 -7.3071 20.2037 8.1701 0.0040 29.9785 0.0003
# 6 -0.0010 -0.0017 0.0026 4.5218 0.0003 30.1964
#
#
#
# Elastic Compliance Matrix: (Units=1/GPa)
#
#
# Indices 1 2 3 4 5 6 
#
# 1 0.017476 -0.004589 -0.002018 -0.000011 0.007902 0.000002
# 2 -0.004589 0.012635 -0.003840 0.000015 -0.008587 -0.000001
# 3 -0.002018 -0.003840 0.011095 -0.000002 -0.000928 -0.000001
# 4 -0.000011 0.000015 -0.000002 0.024446 -0.000016 -0.003661
# 5 0.007902 -0.008587 -0.000928 -0.000016 0.041323 0.000002
# 6 0.000002 -0.000001 -0.000001 -0.003661 0.000002 0.033665
#
#
# Mechanical properties :
#
#
# Convention : Reuss Voigt Hill
#
# Bulk Modulus (GPa) = 49.23125 54.37594 51.80359
# Shear Modulus (GPa) = 29.70814 33.85281 31.78048
#
# Velocity S-wave (km/s) = 3.82440 4.08247 3.95554
# Velocity P-wave (km/s) = 6.61355 6.99947 6.80924
#
# Compressibility (1/GPa) = 0.02031230
#
# Stress axis : x y z
#
# Youngs Moduli (GPa) = 57.22128 79.14736 90.12822
#
# Poissons Ratio (x) = 0.36321 0.18185
# Poissons Ratio (y) = 0.26259 0.34610
# Poissons Ratio (z) = 0.11546 0.30393
#
# Static dielectric constant tensor:
#      x y z
#    x 3.533130 -0.000970 -0.168790 
#    y -0.000970 3.652370 -0.003260 
#    z -0.168790 -0.003260 3.505130 
# 
# 
# High freq. dielectric constant tensor:
#      x y z
#    x 1.779830 -0.000010 -0.004650 
#    y -0.000010 1.799540 -0.000020 
#    z -0.004650 -0.000020 1.808030 
# 
# From -- ./inp_files/255984.got.cif
#   From: 2010.06.25/outbox.cif.g09.slc.cpg/sg15_128_cif.got.tgz:255984.got - 2010.06.28 07:06:18.
