data_PCOD8136602
_publ_section_title
;
Structure prediction by ZEFSAII (Michael W. Deem and Ramdas Pophale) SiO2 
 PCOD8136602
Probable space group: C 2/C
;
_chemical_formula_sum "Si O2"
_cell_formula_units_Z 64
_cell_length_a 32.611641
_cell_length_b 9.910820
_cell_length_c 18.826741
_cell_angle_alpha 90.000000
_cell_angle_beta 145.670222
_cell_angle_gamma 90.000000
_cell_volume 3431.642867
_symmetry_space_group_name_H-M "C 2/C"
_symmetry_group_IT_number 15
_symmetry_cell_setting 'monoclinic'
loop_
_space_group_symop_operation_xyz
x,y,z
-x,y,1/2-z
-x,-y,-z
x,-y,1/2+z
1/2+x,1/2+y,z
1/2-x,1/2+y,1/2-z
1/2-x,1/2-y,-z
1/2+x,1/2-y,1/2+z
loop_
_atom_site_type_symbol
_atom_site_label
_atom_site_fract_x
_atom_site_fract_y
_atom_site_fract_z
Si Si1 0.638475 0.820349 0.476420
Si Si2 0.200010 0.269469 0.263238
Si Si3 0.931612 0.916534 0.556647
Si Si4 0.162575 0.965326 0.206618
Si Si5 0.822918 0.395296 0.419003
Si Si6 0.411356 0.512260 0.757155
Si Si7 0.666724 0.760646 0.367443
Si Si8 0.581468 0.675016 0.866233
O O1 0.713481 0.740294 0.600398
O O2 0.571015 0.726213 0.404937
O O3 0.630353 0.847108 0.379292
O O4 0.635047 0.963349 0.511321
O O5 0.180173 0.367501 0.169815
O O6 0.157569 0.321482 0.274277
O O7 0.168032 0.123746 0.198916
O O8 0.870305 0.897738 0.409776
O O9 0.913306 0.034804 0.584743
O O10 0.008204 0.948414 0.629708
O O11 0.242006 0.903355 0.335626
O O12 0.108072 0.931673 0.192967
O O13 0.863394 0.280485 0.521134
O O14 0.357423 0.393271 0.660705
O O15 0.398969 0.638781 0.686939
O O16 0.750000 0.750000 0.500000
O O17 0.500000 0.735751 0.750000
#
# Coordination Sequence:
#
# PCOD8136602 Si02
#       8
#     8   8   8   8   8   8   8   8
#     4  10  20  34  57  90 113 148 202 238 291 355
#     4   9  18  34  57  81 116 151 187 239 300 347
#     4  11  19  36  60  86 116 150 197 243 287 363
#     4  10  20  35  59  88 111 152 198 248 294 345
#     4  11  21  37  59  87 120 155 199 247 300 357
#     4  10  21  36  59  85 115 154 200 241 297 352
#     4   9  18  35  55  82 114 146 190 241 291 347
#     4  10  22  39  58  85 120 162 193 238 302 359
#
# _framework density 18.649961000000001
#
# number of rings (size 3 to 8) (size 9 to 14) (size 15 to 20)
#    0.000    2.000    3.750    1.125    0.000    0.500 
#    2.250    1.250    0.000    3.000    0.000    0.000 
#    0.000    0.000    0.000    0.000    0.000    0.000 
#
# Total GULP energy -396614.105016 kJ/mol
# GULP energy per Si atom -12394.190782 kJ/mol
# Density = 1.860751 g / cm^3
# Si number density = 18.649961 Si / 1000 Ang^3
#
#
#
# Elastic Constant Matrix: (Units=GPa)
#
#
# Indices 1 2 3 4 5 6 
#
# 1 124.7099 43.5768 29.1729 0.0000 -16.3789 0.0000
# 2 43.5768 81.0191 30.6080 0.0000 -3.3480 0.0000
# 3 29.1729 30.6080 60.0897 0.0000 -4.4981 0.0000
# 4 0.0000 0.0000 0.0000 31.2885 0.0000 -2.5800
# 5 -16.3789 -3.3480 -4.4981 0.0000 30.3762 0.0000
# 6 0.0000 0.0000 0.0000 -2.5800 0.0000 23.5987
#
#
#
# Elastic Compliance Matrix: (Units=1/GPa)
#
#
# Indices 1 2 3 4 5 6 
#
# 1 0.010910 -0.004708 -0.002525 0.000000 0.004990 0.000000
# 2 -0.004708 0.017324 -0.006660 0.000000 -0.001615 0.000000
# 3 -0.002525 -0.006660 0.021340 0.000000 0.001064 0.000000
# 4 0.000000 0.000000 0.000000 0.032251 0.000000 0.003526
# 5 0.004990 -0.001615 0.001064 0.000000 0.035591 0.000000
# 6 0.000000 0.000000 0.000000 0.003526 0.000000 0.042761
#
#
# Mechanical properties :
#
#
# Convention : Reuss Voigt Hill
#
# Bulk Modulus (GPa) = 45.89612 52.50381 49.19996
# Shear Modulus (GPa) = 25.61165 27.88341 26.74753
#
# Velocity S-wave (km/s) = 3.70980 3.87084 3.79117
# Velocity P-wave (km/s) = 6.55842 6.94199 6.75293
#
# Compressibility (1/GPa) = 0.02178834
#
# Stress axis : x y z
#
# Youngs Moduli (GPa) = 91.66248 57.72314 46.86121
#
# Poissons Ratio (x) = 0.27174 0.11832
# Poissons Ratio (y) = 0.43152 0.31208
# Poissons Ratio (z) = 0.23145 0.38442
#
# Static dielectric constant tensor:
#      x y z
#    x 3.918480 0.000000 -0.244860 
#    y 0.000000 3.120120 0.000000 
#    z -0.244860 0.000000 3.493700 
# 
# 
# High freq. dielectric constant tensor:
#      x y z
#    x 1.734200 0.000000 -0.012070 
#    y 0.000000 1.693160 0.000000 
#    z -0.012070 0.000000 1.725350 
# 
# From -- ./inp_files/224632.got.cif
#   From: 2010.06.25/outbox.cif.g09.slc.cpg/sg15_113_cif.got.tgz:224632.got - 2010.06.28 07:06:18.
