data_PCOD8136593
_publ_section_title
;
Structure prediction by ZEFSAII (Michael W. Deem and Ramdas Pophale) SiO2 
 PCOD8136593
Probable space group: C 2/C
;
_chemical_formula_sum "Si O2"
_cell_formula_units_Z 64
_cell_length_a 14.151738
_cell_length_b 12.091050
_cell_length_c 19.384189
_cell_angle_alpha 90.000000
_cell_angle_beta 89.923822
_cell_angle_gamma 90.000000
_cell_volume 3316.813470
_symmetry_space_group_name_H-M "C 2/C"
_symmetry_group_IT_number 15
_symmetry_cell_setting 'monoclinic'
loop_
_space_group_symop_operation_xyz
x,y,z
-x,y,1/2-z
-x,-y,-z
x,-y,1/2+z
1/2+x,1/2+y,z
1/2-x,1/2+y,1/2-z
1/2-x,1/2-y,-z
1/2+x,1/2-y,1/2+z
loop_
_atom_site_type_symbol
_atom_site_label
_atom_site_fract_x
_atom_site_fract_y
_atom_site_fract_z
Si Si1 0.914057 0.445222 0.088883
Si Si2 0.443960 0.702685 0.851767
Si Si3 0.279255 0.046114 0.195643
Si Si4 0.475411 0.227079 0.829850
Si Si5 0.901362 0.413118 0.930382
Si Si6 0.439074 0.527558 0.318184
Si Si7 0.194690 0.430987 0.168138
Si Si8 0.143471 0.219284 0.794745
O O1 0.822061 0.494874 0.125834
O O2 0.943414 0.330254 0.124873
O O3 0.999551 0.532615 0.092669
O O4 0.883766 0.419949 0.011249
O O5 0.400526 0.783276 0.909606
O O6 0.453428 0.572779 0.873658
O O7 0.547604 0.747558 0.834480
O O8 0.374907 0.700171 0.785893
O O9 0.169052 0.027235 0.203790
O O10 0.289386 0.176691 0.196813
O O11 0.333566 0.990399 0.260089
O O12 0.500000 0.216660 0.750000
O O13 0.470855 0.356250 0.851397
O O14 0.375542 0.170665 0.845799
O O15 0.816129 0.478437 0.892663
O O16 0.500000 0.496997 0.250000
O O17 0.301741 0.385176 0.171436
#
# Coordination Sequence:
#
# PCOD8136593 Si02
#       8
#     8   8   8   8   8   8   8   8
#     4  10  22  39  58  89 118 159 202 247 300 353
#     4  11  20  37  58  85 126 150 195 248 299 354
#     4  12  20  35  62  88 118 150 204 246 293 361
#     4  10  20  34  57  85 119 152 193 248 302 351
#     4  10  22  38  60  86 125 155 198 253 298 351
#     4  11  22  36  55  91 124 152 190 253 304 348
#     4  11  20  34  59  91 115 152 199 251 296 352
#     4  11  21  34  56  94 115 152 197 245 302 353
#
# _framework density 19.295628000000001
#
# number of rings (size 3 to 8) (size 9 to 14) (size 15 to 20)
#    0.000    1.250    7.500    0.000    0.000    0.000 
#    0.000    3.125    0.000    0.000    0.000    0.000 
#    0.000    0.000    0.000    0.000    0.000    0.000 
#
# Total GULP energy -396757.003898 kJ/mol
# GULP energy per Si atom -12398.656372 kJ/mol
# Density = 1.925171 g / cm^3
# Si number density = 19.295628 Si / 1000 Ang^3
#
#
#
# Elastic Constant Matrix: (Units=GPa)
#
#
# Indices 1 2 3 4 5 6 
#
# 1 87.1968 29.0805 38.6805 0.0000 0.1598 0.0000
# 2 29.0805 147.7549 52.7625 0.0000 1.2770 0.0000
# 3 38.6805 52.7625 109.2263 0.0000 4.0037 0.0000
# 4 0.0000 0.0000 0.0000 15.2734 0.0000 5.6263
# 5 0.1598 1.2770 4.0037 0.0000 13.5792 0.0000
# 6 0.0000 0.0000 0.0000 5.6263 0.0000 25.8941
#
#
#
# Elastic Compliance Matrix: (Units=1/GPa)
#
#
# Indices 1 2 3 4 5 6 
#
# 1 0.013792 -0.001166 -0.004366 0.000000 0.001235 0.000000
# 2 -0.001166 0.008280 -0.003597 0.000000 0.000296 0.000000
# 3 -0.004366 -0.003597 0.012561 0.000000 -0.003314 0.000000
# 4 0.000000 0.000000 0.000000 0.071170 0.000000 -0.015464
# 5 0.001235 0.000296 -0.003314 0.000000 0.074577 0.000000
# 6 0.000000 0.000000 0.000000 -0.015464 0.000000 0.041979
#
#
# Mechanical properties :
#
#
# Convention : Reuss Voigt Hill
#
# Bulk Modulus (GPa) = 61.07641 65.02500 63.05070
# Shear Modulus (GPa) = 20.31913 25.85965 23.08939
#
# Velocity S-wave (km/s) = 3.24858 3.66482 3.46296
# Velocity P-wave (km/s) = 6.76703 7.18891 6.98116
#
# Compressibility (1/GPa) = 0.01637293
#
# Stress axis : x y z
#
# Youngs Moduli (GPa) = 72.50732 120.78015 79.61347
#
# Poissons Ratio (x) = 0.14083 0.34760
# Poissons Ratio (y) = 0.08454 0.28640
# Poissons Ratio (z) = 0.31657 0.43449
#
# Static dielectric constant tensor:
#      x y z
#    x 3.380230 0.000000 0.077640 
#    y 0.000000 3.937850 0.000000 
#    z 0.077640 0.000000 3.172370 
# 
# 
# High freq. dielectric constant tensor:
#      x y z
#    x 1.747270 0.000000 0.004910 
#    y 0.000000 1.773460 0.000000 
#    z 0.004910 0.000000 1.708160 
# 
# From -- ./inp_files/204471.got.cif
#   From: 2010.06.25/outbox.cif.g09.slc.cpg/sg15_103_cif.got.tgz:204471.got - 2010.06.28 07:06:18.
