data_PCOD8136223
_publ_section_title
;
Structure prediction by ZEFSAII (Michael W. Deem and Ramdas Pophale) SiO2 
 PCOD8136223
Probable space group: C 2/C
;
_chemical_formula_sum "Si O2"
_cell_formula_units_Z 44
_cell_length_a 15.646280
_cell_length_b 13.969217
_cell_length_c 8.482539
_cell_angle_alpha 90.000000
_cell_angle_beta 109.850583
_cell_angle_gamma 90.000000
_cell_volume 1743.835002
_symmetry_space_group_name_H-M "C 2/C"
_symmetry_group_IT_number 15
_symmetry_cell_setting 'monoclinic'
loop_
_space_group_symop_operation_xyz
x,y,z
-x,y,1/2-z
-x,-y,-z
x,-y,1/2+z
1/2+x,1/2+y,z
1/2-x,1/2+y,1/2-z
1/2-x,1/2-y,-z
1/2+x,1/2-y,1/2+z
loop_
_atom_site_type_symbol
_atom_site_label
_atom_site_fract_x
_atom_site_fract_y
_atom_site_fract_z
Si Si1 0.100949 0.084286 0.306327
Si Si2 0.366561 0.047599 0.398911
Si Si3 0.297318 0.569918 0.431192
Si Si4 0.661154 0.836706 0.031760
Si Si5 0.396045 0.203277 0.663695
Si Si6 0.000000 0.633587 0.250000
O O1 0.121226 0.100070 0.132878
O O2 0.104674 0.186977 0.396723
O O3 0.000000 0.040477 0.250000
O O4 0.172478 0.013171 0.430540
O O5 0.284981 0.033817 0.225902
O O6 0.346827 0.136284 0.505781
O O7 0.459554 0.066761 0.363472
O O8 0.368674 0.949449 0.496385
O O9 0.262229 0.664061 0.510359
O O10 0.661461 0.798561 0.209187
O O11 0.578852 0.795235 0.871429
O O12 0.500000 0.167614 0.750000
#
# Coordination Sequence:
#
# PCOD8136223 Si02
#       6
#     8   8   8   8   8   4
#     4  11  26  50  75  94 132 183 244 299 342 406
#     4  11  22  38  65 103 147 181 220 276 340 435
#     4  11  24  45  69 101 131 182 240 284 357 397
#     4  11  22  38  66 104 146 180 223 275 340 433
#     4  11  24  43  71 106 142 185 229 277 348 413
#     4  10  20  32  60  98 144 184 210 254 342 414
#
# _framework density 25.231745
#
# number of rings (size 3 to 8) (size 9 to 14) (size 15 to 20)
#    0.000    1.091    3.636    3.273    2.545    1.455 
#    0.000    3.636    4.000    0.000    0.000    0.000 
#    0.000    0.000    0.000    0.000    0.000    0.000 
#
# Total GULP energy -272734.822299 kJ/mol
# GULP energy per Si atom -12397.037377 kJ/mol
# Density = 2.517432 g / cm^3
# Si number density = 25.231745 Si / 1000 Ang^3
#
#
#
# Elastic Constant Matrix: (Units=GPa)
#
#
# Indices 1 2 3 4 5 6 
#
# 1 144.5867 -18.1503 45.4254 0.0000 -14.0493 0.0000
# 2 -18.1503 66.9068 24.7516 0.0000 15.9650 0.0000
# 3 45.4254 24.7516 119.7678 0.0000 -3.7487 0.0000
# 4 0.0000 0.0000 0.0000 23.2691 0.0000 10.7751
# 5 -14.0493 15.9650 -3.7487 0.0000 51.1198 0.0000
# 6 0.0000 0.0000 0.0000 10.7751 0.0000 6.8351
#
#
#
# Elastic Compliance Matrix: (Units=1/GPa)
#
#
# Indices 1 2 3 4 5 6 
#
# 1 0.008733 0.003629 -0.004032 0.000000 0.000971 0.000000
# 2 0.003629 0.019271 -0.005529 0.000000 -0.005426 0.000000
# 3 -0.004032 -0.005529 0.011066 0.000000 0.001430 0.000000
# 4 0.000000 0.000000 0.000000 0.159167 0.000000 -0.250919
# 5 0.000971 -0.005426 0.001430 0.000000 0.021628 0.000000
# 6 0.000000 0.000000 0.000000 -0.250919 0.000000 0.541865
#
#
# Mechanical properties :
#
#
# Convention : Reuss Voigt Hill
#
# Bulk Modulus (GPa) = 36.75626 48.36827 42.56227
# Shear Modulus (GPa) = 6.38845 34.86045 20.62445
#
# Velocity S-wave (km/s) = 1.59292 3.72103 2.86212
# Velocity P-wave (km/s) = 4.24055 6.13781 5.27518
#
# Compressibility (1/GPa) = 0.02720625
#
# Stress axis : x y z
#
# Youngs Moduli (GPa) = 114.51058 51.89221 90.36716
#
# Poissons Ratio (x) = -0.18831 0.36433
# Poissons Ratio (y) = -0.41553 0.49961
# Poissons Ratio (z) = 0.46167 0.28690
#
# Static dielectric constant tensor:
#      x y z
#    x 5.078040 0.000000 -0.369460 
#    y 0.000000 4.197800 0.000000 
#    z -0.369460 0.000000 4.447490 
# 
# 
# High freq. dielectric constant tensor:
#      x y z
#    x 2.030590 0.000000 -0.014840 
#    y 0.000000 1.982310 0.000000 
#    z -0.014840 0.000000 2.004840 
# 
# From -- ./inp_files/47230.got.cif
#   From: 2010.06.25/outbox.cif.g09.slc.cpg/sg15_24_cif.got.tgz:47230.got - 2010.06.28 07:06:18.
