data_PCOD8136008
_publ_section_title
;
Structure prediction by ZEFSAII (Michael W. Deem and Ramdas Pophale) SiO2 
 PCOD8136008
Probable space group: C 2/C
;
_chemical_formula_sum "Si O2"
_cell_formula_units_Z 48
_cell_length_a 9.071969
_cell_length_b 11.261333
_cell_length_c 22.528875
_cell_angle_alpha 90.000000
_cell_angle_beta 105.335425
_cell_angle_gamma 90.000000
_cell_volume 2219.654615
_symmetry_space_group_name_H-M "C 2/C"
_symmetry_group_IT_number 15
_symmetry_cell_setting 'monoclinic'
loop_
_space_group_symop_operation_xyz
x,y,z
-x,y,1/2-z
-x,-y,-z
x,-y,1/2+z
1/2+x,1/2+y,z
1/2-x,1/2+y,1/2-z
1/2-x,1/2-y,-z
1/2+x,1/2-y,1/2+z
loop_
_atom_site_type_symbol
_atom_site_label
_atom_site_fract_x
_atom_site_fract_y
_atom_site_fract_z
Si Si1 0.513566 0.135393 0.821236
Si Si2 0.095305 0.919304 0.931461
Si Si3 0.898630 0.165829 0.514427
Si Si4 0.382120 0.095642 0.285249
Si Si5 0.309443 0.750666 0.887074
Si Si6 0.082823 0.890761 0.696571
O O1 0.500000 0.112847 0.750000
O O2 0.685473 0.144701 0.866084
O O3 0.418610 0.253768 0.827832
O O4 0.438156 0.011523 0.835188
O O5 0.243533 0.843648 0.928332
O O6 0.004884 0.965572 0.863196
O O7 0.155434 0.033180 0.973982
O O8 0.979240 0.839193 0.958687
O O9 0.750000 0.250000 0.500000
O O10 0.024979 0.208437 0.575049
O O11 0.500000 0.149077 0.250000
O O12 0.321732 0.196988 0.322255
O O13 0.248137 0.054757 0.225634
O O14 0.000000 0.895629 0.750000
#
# Coordination Sequence:
#
# PCOD8136008 Si02
#       6
#     8   8   8   8   8   8
#     4   9  19  38  62  90 134 169 204 257 328 389
#     4  10  24  45  68  91 136 174 210 272 327 385
#     4  11  27  44  68  98 124 173 233 269 310 381
#     4  11  23  35  65 103 129 171 217 266 326 399
#     4  11  23  46  65  95 135 176 213 266 331 387
#     4  10  19  42  65  95 136 167 210 264 337 391
#
# _framework density 21.624984999999999
#
# number of rings (size 3 to 8) (size 9 to 14) (size 15 to 20)
#    0.000    1.667    5.000    0.500    7.000    4.667 
#    0.000    1.667    0.000    0.000    0.000    0.000 
#    0.000    0.000    0.000    0.000    0.000    0.000 
#
# Total GULP energy -297385.987444 kJ/mol
# GULP energy per Si atom -12391.082810 kJ/mol
# Density = 2.157577 g / cm^3
# Si number density = 21.624985 Si / 1000 Ang^3
#
#
#
# Elastic Constant Matrix: (Units=GPa)
#
#
# Indices 1 2 3 4 5 6 
#
# 1 114.3089 36.9157 24.6925 0.0000 17.6591 0.0000
# 2 36.9157 52.1501 17.4612 0.0000 2.2915 0.0000
# 3 24.6925 17.4612 79.9526 0.0000 6.0326 0.0000
# 4 0.0000 0.0000 0.0000 29.0326 0.0000 12.3589
# 5 17.6591 2.2915 6.0326 0.0000 53.9196 0.0000
# 6 0.0000 0.0000 0.0000 12.3589 0.0000 29.3644
#
#
#
# Elastic Compliance Matrix: (Units=1/GPa)
#
#
# Indices 1 2 3 4 5 6 
#
# 1 0.012221 -0.007900 -0.001787 0.000000 -0.003467 0.000000
# 2 -0.007900 0.025803 -0.003336 0.000000 0.001864 0.000000
# 3 -0.001787 -0.003336 0.013850 0.000000 -0.000822 0.000000
# 4 0.000000 0.000000 0.000000 0.041962 0.000000 -0.017661
# 5 -0.003467 0.001864 -0.000822 0.000000 0.019694 0.000000
# 6 0.000000 0.000000 0.000000 -0.017661 0.000000 0.041488
#
#
# Mechanical properties :
#
#
# Convention : Reuss Voigt Hill
#
# Bulk Modulus (GPa) = 38.71940 44.95005 41.83473
# Shear Modulus (GPa) = 26.36083 33.61945 29.99014
#
# Velocity S-wave (km/s) = 3.49520 3.94719 3.72805
# Velocity P-wave (km/s) = 5.85085 6.45020 6.15782
#
# Compressibility (1/GPa) = 0.02582684
#
# Stress axis : x y z
#
# Youngs Moduli (GPa) = 81.82424 38.75529 72.20195
#
# Poissons Ratio (x) = 0.30618 0.12906
# Poissons Ratio (y) = 0.64644 0.24086
# Poissons Ratio (z) = 0.14626 0.12928
#
# Static dielectric constant tensor:
#      x y z
#    x 2.534620 0.000000 -0.446400 
#    y 0.000000 4.028540 0.000000 
#    z -0.446400 0.000000 3.753990 
# 
# 
# High freq. dielectric constant tensor:
#      x y z
#    x 1.845780 0.000000 0.005470 
#    y 0.000000 1.837200 0.000000 
#    z 0.005470 0.000000 1.851560 
# 
# From -- ./inp_files/263261.got.cif
#   From: 2010.06.25/outbox.cif.g09.slc.cpg/sg15_132_cif.got.tgz:263261.got - 2010.06.28 07:06:18.
