data_PCOD8136710
_publ_section_title
;
Structure prediction by ZEFSAII (Michael W. Deem and Ramdas Pophale) SiO2 
 PCOD8136710
Probable space group: C 2/C
;
_chemical_formula_sum "Si O2"
_cell_formula_units_Z 56
_cell_length_a 26.980882
_cell_length_b 12.395530
_cell_length_c 8.823542
_cell_angle_alpha 90.000000
_cell_angle_beta 65.402200
_cell_angle_gamma 90.000000
_cell_volume 2683.171979
_symmetry_space_group_name_H-M "C 2/C"
_symmetry_group_IT_number 15
_symmetry_cell_setting 'monoclinic'
loop_
_space_group_symop_operation_xyz
x,y,z
-x,y,1/2-z
-x,-y,-z
x,-y,1/2+z
1/2+x,1/2+y,z
1/2-x,1/2+y,1/2-z
1/2-x,1/2-y,-z
1/2+x,1/2-y,1/2+z
loop_
_atom_site_type_symbol
_atom_site_label
_atom_site_fract_x
_atom_site_fract_y
_atom_site_fract_z
Si Si1 0.470315 0.874626 0.077607
Si Si2 0.419618 0.182944 0.934263
Si Si3 0.579502 0.041741 0.152826
Si Si4 0.669850 0.357067 0.420242
Si Si5 0.739401 0.276786 0.770245
Si Si6 0.806075 0.622794 0.445951
Si Si7 0.707009 0.518133 0.137671
O O1 0.446930 0.876095 0.936555
O O2 0.534066 0.003278 0.835482
O O3 0.531196 0.826063 0.006088
O O4 0.437001 0.796598 0.235479
O O5 0.393566 0.062052 0.968439
O O6 0.382588 0.282254 0.028441
O O7 0.630731 0.097104 0.170336
O O8 0.723614 0.286923 0.400143
O O9 0.678380 0.414642 0.248172
O O10 0.666828 0.449180 0.552010
O O11 0.695712 0.193908 0.897462
O O12 0.709145 0.381514 0.749387
O O13 0.785541 0.305807 0.834293
O O14 0.768089 0.515667 0.507894
#
# Coordination Sequence:
#
# PCOD8136710 Si02
#       7
#     8   8   8   8   8   8   8
#     4   9  21  36  58  87 124 142 201 239 307 349
#     4   9  21  36  58  84 118 149 191 252 296 352
#     4  10  20  34  60  91 118 161 182 248 302 367
#     4  11  23  38  63  80 121 161 201 242 303 337
#     4  10  22  38  53  88 124 162 192 244 279 364
#     4  10  22  35  57  86 131 150 200 238 295 351
#     4  11  22  39  57  89 120 164 200 242 279 372
#
# _framework density 20.870819999999998
#
# number of rings (size 3 to 8) (size 9 to 14) (size 15 to 20)
#    0.857    1.143    1.429    1.714    6.000    0.000 
#    0.000    0.000    0.000    3.429    0.000    0.000 
#    0.000    0.000    0.000    0.000    0.000    0.000 
#
# Total GULP energy -346879.493405 kJ/mol
# GULP energy per Si atom -12388.553336 kJ/mol
# Density = 2.082332 g / cm^3
# Si number density = 20.870820 Si / 1000 Ang^3
#
#
#
# Elastic Constant Matrix: (Units=GPa)
#
#
# Indices 1 2 3 4 5 6 
#
# 1 98.1653 28.8238 27.1568 0.0000 -4.1379 0.0000
# 2 28.8238 77.9075 8.3663 0.0000 -8.4431 0.0000
# 3 27.1568 8.3663 26.1734 0.0000 1.6826 0.0000
# 4 0.0000 0.0000 0.0000 29.5948 0.0000 -1.9103
# 5 -4.1379 -8.4431 1.6826 0.0000 26.8227 0.0000
# 6 0.0000 0.0000 0.0000 -1.9103 0.0000 38.8128
#
#
#
# Elastic Compliance Matrix: (Units=1/GPa)
#
#
# Indices 1 2 3 4 5 6 
#
# 1 0.015595 -0.003923 -0.015063 0.000000 0.002116 0.000000
# 2 -0.003923 0.014835 -0.000937 0.000000 0.004123 0.000000
# 3 -0.015063 -0.000937 0.054523 0.000000 -0.006039 0.000000
# 4 0.000000 0.000000 0.000000 0.033897 0.000000 0.001668
# 5 0.002116 0.004123 -0.006039 0.000000 0.039285 0.000000
# 6 0.000000 0.000000 0.000000 0.001668 0.000000 0.025847
#
#
# Mechanical properties :
#
#
# Convention : Reuss Voigt Hill
#
# Bulk Modulus (GPa) = 22.16914 36.77113 29.47013
# Shear Modulus (GPa) = 20.93248 28.23933 24.58591
#
# Velocity S-wave (km/s) = 3.17038 3.68238 3.43593
# Velocity P-wave (km/s) = 4.90376 5.97801 5.46733
#
# Compressibility (1/GPa) = 0.04510775
#
# Stress axis : x y z
#
# Youngs Moduli (GPa) = 64.12288 67.41036 18.34075
#
# Poissons Ratio (x) = 0.26444 0.27627
# Poissons Ratio (y) = 0.25155 0.01718
# Poissons Ratio (z) = 0.96589 0.06314
#
# Static dielectric constant tensor:
#      x y z
#    x 3.366580 0.000000 0.041170 
#    y 0.000000 3.631140 0.000000 
#    z 0.041170 0.000000 3.870550 
# 
# 
# High freq. dielectric constant tensor:
#      x y z
#    x 1.791090 0.000000 0.008210 
#    y 0.000000 1.794820 0.000000 
#    z 0.008210 0.000000 1.826900 
# 
# From -- ./inp_files/65419.got.cif
#   From: 2010.06.25/outbox.cif.g09.slc.cpg/sg15_33_cif.got.tgz:65419.got - 2010.06.28 07:06:18.
