data_PCOD8136509
_publ_section_title
;
Structure prediction by ZEFSAII (Michael W. Deem and Ramdas Pophale) SiO2 
 PCOD8136509
Probable space group: C 2/C
;
_chemical_formula_sum "Si O2"
_cell_formula_units_Z 60
_cell_length_a 11.604290
_cell_length_b 22.324152
_cell_length_c 19.715674
_cell_angle_alpha 90.000000
_cell_angle_beta 143.219392
_cell_angle_gamma 90.000000
_cell_volume 3058.106116
_symmetry_space_group_name_H-M "C 2/C"
_symmetry_group_IT_number 15
_symmetry_cell_setting 'monoclinic'
loop_
_space_group_symop_operation_xyz
x,y,z
-x,y,1/2-z
-x,-y,-z
x,-y,1/2+z
1/2+x,1/2+y,z
1/2-x,1/2+y,1/2-z
1/2-x,1/2-y,-z
1/2+x,1/2-y,1/2+z
loop_
_atom_site_type_symbol
_atom_site_label
_atom_site_fract_x
_atom_site_fract_y
_atom_site_fract_z
Si Si1 0.000000 0.896981 0.250000
Si Si2 0.292244 0.213368 0.684157
Si Si3 0.880369 0.386492 0.629754
Si Si4 0.882867 0.585443 0.458929
Si Si5 0.269446 0.967190 0.461028
Si Si6 0.077085 0.187943 0.066986
Si Si7 0.152916 0.677253 0.642803
Si Si8 0.773419 0.658849 0.289674
O O1 0.063465 0.940195 0.341754
O O2 0.173574 0.854392 0.312828
O O3 0.500000 0.218134 0.750000
O O4 0.305326 0.173791 0.757686
O O5 0.217719 0.278915 0.667078
O O6 0.144149 0.183653 0.560807
O O7 0.806870 0.445459 0.555502
O O8 0.706462 0.343583 0.570540
O O9 0.000000 0.411127 0.750000
O O10 0.016934 0.346970 0.646012
O O11 0.769860 0.539655 0.455414
O O12 0.742837 0.606658 0.331243
O O13 0.071501 0.555190 0.516726
O O14 0.951496 0.643178 0.534272
O O15 0.143688 0.255950 0.109079
O O16 0.105081 0.155006 0.153341
#
# Coordination Sequence:
#
# PCOD8136509 Si02
#       8
#     4   8   8   8   8   8   8   8
#     4  10  20  34  54  94 114 140 194 246 308 348
#     4  11  23  37  51  78 119 160 198 231 289 359
#     4   9  18  33  57  89 115 144 189 240 314 355
#     4   9  17  37  54  77 107 152 200 228 289 339
#     4   9  18  33  56  77 114 148 185 244 281 351
#     4  10  20  34  56  86 123 153 185 247 304 364
#     4  10  21  34  58  84 120 154 188 246 301 355
#     4   9  19  34  54  83 112 150 194 238 288 360
#
# _framework density 19.619986000000001
#
# number of rings (size 3 to 8) (size 9 to 14) (size 15 to 20)
#    0.000    2.400    1.333    0.800    4.667    2.667 
#    1.200    0.667    0.000    0.000    0.000   11.200 
#    0.000    0.000    0.000    0.000    0.000    0.000 
#
# Total GULP energy -371890.585128 kJ/mol
# GULP energy per Si atom -12396.352838 kJ/mol
# Density = 1.957533 g / cm^3
# Si number density = 19.619986 Si / 1000 Ang^3
#
#
#
# Elastic Constant Matrix: (Units=GPa)
#
#
# Indices 1 2 3 4 5 6 
#
# 1 54.8003 44.4436 56.6707 -0.0013 -3.8051 -0.0001
# 2 44.4436 109.5958 64.9532 -0.0004 -9.9336 0.0002
# 3 56.6707 64.9532 165.0731 -0.0026 -11.5076 -0.0022
# 4 -0.0013 -0.0004 -0.0026 25.5139 -0.0008 -7.9882
# 5 -3.8051 -9.9336 -11.5076 -0.0008 14.1395 -0.0012
# 6 -0.0001 0.0002 -0.0022 -7.9882 -0.0012 -0.5504
#
#
#
# Elastic Compliance Matrix: (Units=1/GPa)
#
#
# Indices 1 2 3 4 5 6 
#
# 1 0.034107 -0.009253 -0.008356 0.000002 -0.004122 0.000005
# 2 -0.009253 0.014728 -0.002196 0.000000 0.006070 0.000001
# 3 -0.008356 -0.002196 0.010099 -0.000003 0.004428 -0.000011
# 4 0.000002 0.000000 -0.000003 0.007069 -0.000010 -0.102606
# 5 -0.004122 0.006070 0.004428 -0.000010 0.077483 -0.000040
# 6 0.000005 0.000001 -0.000011 -0.102606 -0.000040 -0.327716
#
#
# Mechanical properties :
#
#
# Convention : Reuss Voigt Hill
#
# Bulk Modulus (GPa) = 51.74352 73.51158 62.62755
# Shear Modulus (GPa) = -36.18449 18.71407 -8.73521
#
# Velocity S-wave (km/s) = -4.29915 3.09176 -2.11231
# Velocity P-wave (km/s) = 1.33660 7.09185 5.10298
#
# Compressibility (1/GPa) = 0.01932609
#
# Stress axis : x y z
#
# Youngs Moduli (GPa) = 29.31982 67.89797 99.01884
#
# Poissons Ratio (x) = 0.62823 0.82737
# Poissons Ratio (y) = 0.27128 0.21740
# Poissons Ratio (z) = 0.24499 0.14907
#
# Static dielectric constant tensor:
#      x y z
#    x 3.354770 0.000000 -0.192520 
#    y 0.000000 3.618960 0.000000 
#    z -0.192520 0.000000 3.941230 
# 
# 
# High freq. dielectric constant tensor:
#      x y z
#    x 1.738240 0.000000 -0.008330 
#    y 0.000000 1.750590 0.000000 
#    z -0.008330 0.000000 1.781130 
# 
# From -- ./inp_files/200949.got.cif
#   From: 2010.06.25/outbox.cif.g09.slc.cpg/sg15_101_cif.got.tgz:200949.got - 2010.06.28 07:06:18.
