data_PCOD8136114
_publ_section_title
;
Structure prediction by ZEFSAII (Michael W. Deem and Ramdas Pophale) SiO2 
 PCOD8136114
Probable space group: C 2/C
;
_chemical_formula_sum "Si O2"
_cell_formula_units_Z 52
_cell_length_a 19.427820
_cell_length_b 6.543628
_cell_length_c 23.399953
_cell_angle_alpha 90.000000
_cell_angle_beta 100.707531
_cell_angle_gamma 90.000000
_cell_volume 2923.003153
_symmetry_space_group_name_H-M "C 2/C"
_symmetry_group_IT_number 15
_symmetry_cell_setting 'monoclinic'
loop_
_space_group_symop_operation_xyz
x,y,z
-x,y,1/2-z
-x,-y,-z
x,-y,1/2+z
1/2+x,1/2+y,z
1/2-x,1/2+y,1/2-z
1/2-x,1/2-y,-z
1/2+x,1/2-y,1/2+z
loop_
_atom_site_type_symbol
_atom_site_label
_atom_site_fract_x
_atom_site_fract_y
_atom_site_fract_z
Si Si1 0.462784 0.804285 0.517705
Si Si2 0.500000 0.897475 0.250000
Si Si3 0.713795 0.445042 0.019927
Si Si4 0.443520 0.480450 0.804511
Si Si5 0.663451 0.230220 0.426362
Si Si6 0.419932 0.724183 0.694518
Si Si7 0.086311 0.979405 0.074276
O O1 0.404245 0.873913 0.554454
O O2 0.425992 0.695347 0.458440
O O3 0.518776 0.661421 0.557229
O O4 0.500000 0.000000 0.500000
O O5 0.541619 0.753626 0.211656
O O6 0.556301 0.042051 0.290563
O O7 0.769791 0.584403 0.061243
O O8 0.655061 0.376646 0.056785
O O9 0.750000 0.250000 0.000000
O O10 0.678501 0.558489 0.960995
O O11 0.399138 0.605884 0.749931
O O12 0.517105 0.597108 0.824686
O O13 0.400303 0.479979 0.856676
O O14 0.646735 0.275966 0.357553
#
# Coordination Sequence:
#
# PCOD8136114 Si02
#       7
#     8   4   8   8   8   8   8
#     4  10  20  31  53  82 107 136 169 220 277 317
#     4   8  18  30  52  84 102 144 168 206 282 314
#     4  10  22  37  54  75 108 146 179 219 273 325
#     4   9  18  32  52  79 109 132 172 225 260 311
#     4  10  20  36  53  77 107 141 180 219 267 330
#     4   9  18  33  52  78 109 135 174 218 262 319
#     4  10  20  34  52  81 109 134 179 226 263 322
#
# _framework density 17.789923000000002
#
# number of rings (size 3 to 8) (size 9 to 14) (size 15 to 20)
#    0.000    2.769    1.538    0.923    2.154    2.462 
#    0.000    0.000    6.769    0.000    0.000    0.000 
#    0.000    0.000    0.000    0.000    0.000    0.000 
#
# Total GULP energy -322362.051916 kJ/mol
# GULP energy per Si atom -12398.540458 kJ/mol
# Density = 1.774943 g / cm^3
# Si number density = 17.789923 Si / 1000 Ang^3
#
#
#
# Elastic Constant Matrix: (Units=GPa)
#
#
# Indices 1 2 3 4 5 6 
#
# 1 80.3951 16.4771 46.1861 0.0000 -8.8431 0.0000
# 2 16.4771 86.4061 37.2974 0.0000 -4.6491 0.0000
# 3 46.1861 37.2974 151.0932 0.0000 -1.1879 0.0000
# 4 0.0000 0.0000 0.0000 9.1689 0.0000 -4.6516
# 5 -8.8431 -4.6491 -1.1879 0.0000 32.8671 0.0000
# 6 0.0000 0.0000 0.0000 -4.6516 0.0000 22.7183
#
#
#
# Elastic Compliance Matrix: (Units=1/GPa)
#
#
# Indices 1 2 3 4 5 6 
#
# 1 0.015653 -0.000807 -0.004555 0.000000 0.003933 0.000000
# 2 -0.000807 0.013093 -0.002973 0.000000 0.001527 0.000000
# 3 -0.004555 -0.002973 0.008734 0.000000 -0.001330 0.000000
# 4 0.000000 0.000000 0.000000 0.121707 0.000000 0.024920
# 5 0.003933 0.001527 -0.001330 0.000000 0.031652 0.000000
# 6 0.000000 0.000000 0.000000 0.024920 0.000000 0.049120
#
#
# Mechanical properties :
#
#
# Convention : Reuss Voigt Hill
#
# Bulk Modulus (GPa) = 48.05420 57.53508 52.79464
# Shear Modulus (GPa) = 18.97063 27.47978 23.22520
#
# Velocity S-wave (km/s) = 3.26907 3.93451 3.61713
# Velocity P-wave (km/s) = 6.42805 7.28369 6.86920
#
# Compressibility (1/GPa) = 0.02080983
#
# Stress axis : x y z
#
# Youngs Moduli (GPa) = 63.88461 76.37809 114.49294
#
# Poissons Ratio (x) = 0.06166 0.52148
# Poissons Ratio (y) = 0.05158 0.34041
# Poissons Ratio (z) = 0.29097 0.22708
#
# Static dielectric constant tensor:
#      x y z
#    x 3.272380 0.000000 -0.012470 
#    y 0.000000 3.321130 0.000000 
#    z -0.012470 0.000000 3.333840 
# 
# 
# High freq. dielectric constant tensor:
#      x y z
#    x 1.666150 0.000000 -0.003570 
#    y 0.000000 1.688270 0.000000 
#    z -0.003570 0.000000 1.689450 
# 
# From -- ./inp_files/278709.got.cif
#   From: 2010.06.25/outbox.cif.g09.slc.cpg/sg15_140_cif.got.tgz:278709.got - 2010.06.28 07:06:18.
