data_PCOD8136938
_publ_section_title
;
Structure prediction by ZEFSAII (Michael W. Deem and Ramdas Pophale) SiO2 
 PCOD8136938
Probable space group: C 2/C
;
_chemical_formula_sum "Si O2"
_cell_formula_units_Z 56
_cell_length_a 26.190428
_cell_length_b 20.970234
_cell_length_c 18.114105
_cell_angle_alpha 90.000000
_cell_angle_beta 16.902552
_cell_angle_gamma 90.000000
_cell_volume 2892.509040
_symmetry_space_group_name_H-M "C 2/C"
_symmetry_group_IT_number 15
_symmetry_cell_setting 'monoclinic'
loop_
_space_group_symop_operation_xyz
x,y,z
-x,y,1/2-z
-x,-y,-z
x,-y,1/2+z
1/2+x,1/2+y,z
1/2-x,1/2+y,1/2-z
1/2-x,1/2-y,-z
1/2+x,1/2-y,1/2+z
loop_
_atom_site_type_symbol
_atom_site_label
_atom_site_fract_x
_atom_site_fract_y
_atom_site_fract_z
Si Si1 0.952074 0.691133 0.179230
Si Si2 0.941755 0.242603 0.103536
Si Si3 0.569123 0.796679 0.071704
Si Si4 0.118273 0.427465 0.514695
Si Si5 0.627001 0.934746 0.004676
Si Si6 0.445594 0.673669 0.745151
Si Si7 0.503320 0.392527 0.472155
O O1 0.764215 0.672607 0.471837
O O2 0.020244 0.754647 0.127756
O O3 0.081474 0.630866 0.010353
O O4 0.942122 0.707861 0.105583
O O5 0.752960 0.240427 0.324187
O O6 0.939549 0.263016 0.192577
O O7 0.027090 0.172957 0.984688
O O8 0.500000 0.796840 0.250000
O O9 0.588196 0.869310 0.014055
O O10 0.084492 0.497382 0.523273
O O11 0.320927 0.432087 0.258117
O O12 0.000000 0.416833 0.750000
O O13 0.835746 0.931537 0.735099
O O14 0.500000 0.934104 0.250000
O O15 0.500000 0.648819 0.750000
O O16 0.522403 0.624287 0.579128
#
# Coordination Sequence:
#
# PCOD8136938 Si02
#       7
#     8   8   8   8   8   8   8
#     4  10  21  32  53  85 118 146 181 226 284 352
#     4  10  21  33  57  83 111 141 180 234 293 337
#     4  10  20  38  56  81 106 143 189 239 282 331
#     4  11  19  35  54  82 112 153 193 226 275 342
#     4   9  21  36  56  78 109 150 196 237 273 329
#     4  10  21  32  53  84 119 149 176 230 287 346
#     4  10  20  35  57  84 111 148 188 236 283 336
#
# _framework density 19.360354999999998
#
# number of rings (size 3 to 8) (size 9 to 14) (size 15 to 20)
#    0.000    2.000    1.429    2.143   10.000    0.000 
#    0.000    0.714    0.000    0.000    0.000    0.000 
#    0.000    0.000    0.000    0.000    0.000    0.000 
#
# Total GULP energy -346895.055867 kJ/mol
# GULP energy per Si atom -12389.109138 kJ/mol
# Density = 1.931629 g / cm^3
# Si number density = 19.360355 Si / 1000 Ang^3
#
#
#
# Elastic Constant Matrix: (Units=GPa)
#
#
# Indices 1 2 3 4 5 6 
#
# 1 83.8846 43.4054 15.4270 -0.0430 4.5702 0.0140
# 2 43.4054 111.9235 24.2158 0.2657 -0.1378 0.0648
# 3 15.4270 24.2158 104.7351 0.1552 1.4274 0.0317
# 4 -0.0430 0.2657 0.1552 1093.8053 -0.1476 165.9627
# 5 4.5702 -0.1378 1.4274 -0.1476 20.5499 -0.0437
# 6 0.0140 0.0648 0.0317 165.9627 -0.0437 38.9898
#
#
#
# Elastic Compliance Matrix: (Units=1/GPa)
#
#
# Indices 1 2 3 4 5 6 
#
# 1 0.015225 -0.005719 -0.000874 0.000004 -0.003363 -0.000017
# 2 -0.005719 0.011555 -0.001849 -0.000001 0.001478 -0.000009
# 3 -0.000874 -0.001849 0.010111 -0.000001 -0.000520 -0.000002
# 4 0.000004 -0.000001 -0.000001 0.002581 -0.000006 -0.010988
# 5 -0.003363 0.001478 -0.000520 -0.000006 0.049456 0.000079
# 6 -0.000017 -0.000009 -0.000002 -0.010988 0.000079 0.072420
#
#
# Mechanical properties :
#
#
# Convention : Reuss Voigt Hill
#
# Bulk Modulus (GPa) = 49.98787 51.84883 50.91835
# Shear Modulus (GPa) = 27.04130 245.16867 136.10499
#
# Velocity S-wave (km/s) = 3.74135 11.26540 8.39366
# Velocity P-wave (km/s) = 6.67378 14.00184 10.96793
#
# Compressibility (1/GPa) = 0.02000485
#
# Stress axis : x y z
#
# Youngs Moduli (GPa) = 65.68332 86.54553 98.89883
#
# Poissons Ratio (x) = 0.49498 0.08647
# Poissons Ratio (y) = 0.37566 0.18289
# Poissons Ratio (z) = 0.05743 0.16005
#
# Static dielectric constant tensor:
#      x y z
#    x 3.073840 -0.000050 0.065230 
#    y -0.000050 3.734100 0.000080 
#    z 0.065230 0.000080 3.741480 
# 
# 
# High freq. dielectric constant tensor:
#      x y z
#    x 1.708770 0.000000 0.002930 
#    y 0.000000 1.751570 0.000010 
#    z 0.002930 0.000010 1.771340 
# 
# From -- ./inp_files/223086.got.cif
#   From: 2010.06.25/outbox.cif.g09.slc.cpg/sg15_112_cif.got.tgz:223086.got - 2010.06.28 07:06:18.
