data_PCOD8136729
_publ_section_title
;
Structure prediction by ZEFSAII (Michael W. Deem and Ramdas Pophale) SiO2 
 PCOD8136729
Probable space group: C 2/C
;
_chemical_formula_sum "Si O2"
_cell_formula_units_Z 60
_cell_length_a 12.875249
_cell_length_b 19.568372
_cell_length_c 13.824242
_cell_angle_alpha 90.000000
_cell_angle_beta 60.664292
_cell_angle_gamma 90.000000
_cell_volume 3036.341709
_symmetry_space_group_name_H-M "C 2/C"
_symmetry_group_IT_number 15
_symmetry_cell_setting 'monoclinic'
loop_
_space_group_symop_operation_xyz
x,y,z
-x,y,1/2-z
-x,-y,-z
x,-y,1/2+z
1/2+x,1/2+y,z
1/2-x,1/2+y,1/2-z
1/2-x,1/2-y,-z
1/2+x,1/2-y,1/2+z
loop_
_atom_site_type_symbol
_atom_site_label
_atom_site_fract_x
_atom_site_fract_y
_atom_site_fract_z
Si Si1 0.030125 0.615388 0.526718
Si Si2 0.553956 0.369459 0.334082
Si Si3 0.685758 0.196593 0.101895
Si Si4 0.571536 0.782604 0.848925
Si Si5 0.238816 0.461306 0.203098
Si Si6 0.667313 0.982877 0.434317
Si Si7 0.164329 0.062230 0.488606
Si Si8 0.000000 0.396125 0.250000
O O1 0.101641 0.671713 0.430497
O O2 0.103272 0.546217 0.514465
O O3 0.004817 0.646823 0.646507
O O4 0.908729 0.588329 0.531061
O O5 0.500000 0.362722 0.250000
O O6 0.549881 0.295836 0.387762
O O7 0.688130 0.398098 0.281473
O O8 0.472643 0.418633 0.436001
O O9 0.551022 0.183988 0.131160
O O10 0.675682 0.219884 0.219604
O O11 0.756534 0.126985 0.073874
O O12 0.750000 0.250000 0.000000
O O13 0.193555 0.507022 0.313106
O O14 0.326786 0.506322 0.098985
O O15 0.122027 0.439915 0.196640
O O16 0.790807 0.969324 0.431467
#
# Coordination Sequence:
#
# PCOD8136729 Si02
#       8
#     8   8   8   8   8   8   8   4
#     4  10  20  37  57  96 121 160 207 265 323 364
#     4  12  23  41  61  92 127 171 204 250 320 389
#     4  11  21  35  59  95 128 160 202 262 325 376
#     4  11  22  37  63  93 131 162 209 269 321 374
#     4  11  24  39  62  93 122 168 212 258 318 370
#     4  10  20  34  61  88 124 158 202 266 314 369
#     4  12  21  38  62  89 132 159 205 260 313 386
#     4  10  22  40  66  86 122 162 222 266 308 378
#
# _framework density 19.760621
#
# number of rings (size 3 to 8) (size 9 to 14) (size 15 to 20)
#    0.000    1.067    6.667    1.200    0.000    1.067 
#    0.000    0.667    0.000    0.000    0.000    0.000 
#    0.000    0.000    0.000    0.000    0.000    0.000 
#
# Total GULP energy -371718.007648 kJ/mol
# GULP energy per Si atom -12390.600255 kJ/mol
# Density = 1.971565 g / cm^3
# Si number density = 19.760621 Si / 1000 Ang^3
#
#
#
# Elastic Constant Matrix: (Units=GPa)
#
#
# Indices 1 2 3 4 5 6 
#
# 1 69.8200 30.3332 22.3911 0.0000 -3.0337 0.0000
# 2 30.3332 77.2633 40.8210 0.0000 11.4460 0.0000
# 3 22.3911 40.8210 138.4044 0.0000 14.7760 0.0000
# 4 0.0000 0.0000 0.0000 37.3585 0.0000 -1.6915
# 5 -3.0337 11.4460 14.7760 0.0000 32.0589 0.0000
# 6 0.0000 0.0000 0.0000 -1.6915 0.0000 18.7558
#
#
#
# Elastic Compliance Matrix: (Units=1/GPa)
#
#
# Indices 1 2 3 4 5 6 
#
# 1 0.018048 -0.007094 -0.001346 0.000000 0.004861 0.000000
# 2 -0.007094 0.018518 -0.003720 0.000000 -0.005569 0.000000
# 3 -0.001346 -0.003720 0.008847 0.000000 -0.002877 0.000000
# 4 0.000000 0.000000 0.000000 0.026877 0.000000 0.002424
# 5 0.004861 -0.005569 -0.002877 0.000000 0.034967 0.000000
# 6 0.000000 0.000000 0.000000 0.002424 0.000000 0.053536
#
#
# Mechanical properties :
#
#
# Convention : Reuss Voigt Hill
#
# Bulk Modulus (GPa) = 47.40991 52.50870 49.95930
# Shear Modulus (GPa) = 26.02221 30.43081 28.22651
#
# Velocity S-wave (km/s) = 3.63281 3.92851 3.78355
# Velocity P-wave (km/s) = 6.45295 6.87078 6.66514
#
# Compressibility (1/GPa) = 0.02109264
#
# Stress axis : x y z
#
# Youngs Moduli (GPa) = 55.40902 54.00156 113.03003
#
# Poissons Ratio (x) = 0.38310 0.15218
# Poissons Ratio (y) = 0.39308 0.42042
# Poissons Ratio (z) = 0.07460 0.20086
#
# Static dielectric constant tensor:
#      x y z
#    x 3.410400 0.000000 -0.063460 
#    y 0.000000 3.358000 0.000000 
#    z -0.063460 0.000000 3.885270 
# 
# 
# High freq. dielectric constant tensor:
#      x y z
#    x 1.749670 0.000000 -0.001110 
#    y 0.000000 1.746260 0.000000 
#    z -0.001110 0.000000 1.789660 
# 
# From -- ./inp_files/147092.got.cif
#   From: 2010.06.25/outbox.cif.g09.slc.cpg/sg15_74_cif.got.tgz:147092.got - 2010.06.28 07:06:18.
