data_PCOD8136649
_publ_section_title
;
Structure prediction by ZEFSAII (Michael W. Deem and Ramdas Pophale) SiO2 
 PCOD8136649
Probable space group: C 2/C
;
_chemical_formula_sum "Si O2"
_cell_formula_units_Z 44
_cell_length_a 5.299051
_cell_length_b 24.200318
_cell_length_c 18.284688
_cell_angle_alpha 90.000000
_cell_angle_beta 50.746604
_cell_angle_gamma 90.000000
_cell_volume 1815.711786
_symmetry_space_group_name_H-M "C 2/C"
_symmetry_group_IT_number 15
_symmetry_cell_setting 'monoclinic'
loop_
_space_group_symop_operation_xyz
x,y,z
-x,y,1/2-z
-x,-y,-z
x,-y,1/2+z
1/2+x,1/2+y,z
1/2-x,1/2+y,1/2-z
1/2-x,1/2-y,-z
1/2+x,1/2-y,1/2+z
loop_
_atom_site_type_symbol
_atom_site_label
_atom_site_fract_x
_atom_site_fract_y
_atom_site_fract_z
Si Si1 0.959911 0.182752 0.545766
Si Si2 0.115122 0.889125 0.309497
Si Si3 0.885855 0.984762 0.689901
Si Si4 0.500000 0.825285 0.750000
Si Si5 0.917767 0.880609 0.918002
Si Si6 0.642127 0.789617 0.869832
O O1 0.249050 0.212470 0.448409
O O2 0.073599 0.148596 0.596726
O O3 0.785880 0.138498 0.522263
O O4 0.724076 0.233643 0.615018
O O5 0.500000 0.880088 0.250000
O O6 0.000000 0.870987 0.250000
O O7 0.012441 0.952234 0.344116
O O8 0.500000 0.977096 0.750000
O O9 0.000000 0.967197 0.750000
O O10 0.092266 0.946530 0.594789
O O11 0.724943 0.789043 0.765962
O O12 0.702764 0.864296 0.659128
O O13 0.736771 0.847358 0.888129
#
# Coordination Sequence:
#
# PCOD8136649 Si02
#       6
#     8   8   8   4   8   8
#     4  10  24  40  59  90 127 167 214 268 318 384
#     4  10  24  44  67  93 127 174 220 264 325 387
#     4  10  21  40  66  96 128 165 215 270 317 382
#     4  10  20  34  58  92 112 164 206 250 320 378
#     4  11  21  37  63  90 127 160 212 262 325 377
#     4  10  22  39  59  89 129 164 213 266 318 381
#
# _framework density 24.232921000000001
#
# number of rings (size 3 to 8) (size 9 to 14) (size 15 to 20)
#    0.000    1.818    0.909    2.182    6.364    2.182 
#    0.000    0.909    0.000    0.000    0.000    0.000 
#    0.000    0.000    0.000    0.000    0.000    0.000 
#
# Total GULP energy -272590.525963 kJ/mol
# GULP energy per Si atom -12390.478453 kJ/mol
# Density = 2.417777 g / cm^3
# Si number density = 24.232921 Si / 1000 Ang^3
#
#
#
# Elastic Constant Matrix: (Units=GPa)
#
#
# Indices 1 2 3 4 5 6 
#
# 1 95.4679 4.0567 14.6103 0.0000 39.9136 0.0000
# 2 4.0567 107.7907 43.4468 0.0000 21.5928 0.0000
# 3 14.6103 43.4468 95.1368 0.0000 42.8390 0.0000
# 4 0.0000 0.0000 0.0000 42.8910 0.0000 7.8729
# 5 39.9136 21.5928 42.8390 0.0000 39.0397 0.0000
# 6 0.0000 0.0000 0.0000 7.8729 0.0000 24.3250
#
#
#
# Elastic Compliance Matrix: (Units=1/GPa)
#
#
# Indices 1 2 3 4 5 6 
#
# 1 0.027364 0.001884 0.015822 0.000000 -0.046380 0.000000
# 2 0.001884 0.011527 -0.003588 0.000000 -0.004364 0.000000
# 3 0.015822 -0.003588 0.031845 0.000000 -0.049135 0.000000
# 4 0.000000 0.000000 0.000000 0.024788 0.000000 -0.008023
# 5 -0.046380 -0.004364 -0.049135 0.000000 0.129364 0.000000
# 6 0.000000 0.000000 0.000000 -0.008023 0.000000 0.043707
#
#
# Mechanical properties :
#
#
# Convention : Reuss Voigt Hill
#
# Bulk Modulus (GPa) = 10.10400 46.95812 28.53106
# Shear Modulus (GPa) = 18.29158 37.00323 27.64740
#
# Velocity S-wave (km/s) = 2.75039 3.91190 3.38139
# Velocity P-wave (km/s) = 3.77687 6.31061 5.20041
#
# Compressibility (1/GPa) = 0.09897070
#
# Stress axis : x y z
#
# Youngs Moduli (GPa) = 36.54425 86.75377 31.40194
#
# Poissons Ratio (x) = -0.16344 -0.49683
# Poissons Ratio (y) = -0.06885 0.11268
# Poissons Ratio (z) = -0.57819 0.31130
#
# Static dielectric constant tensor:
#      x y z
#    x 4.261820 0.000000 0.235460 
#    y 0.000000 4.546890 0.000000 
#    z 0.235460 0.000000 4.652810 
# 
# 
# High freq. dielectric constant tensor:
#      x y z
#    x 1.958750 0.000000 0.016650 
#    y 0.000000 1.962780 0.000000 
#    z 0.016650 0.000000 1.953400 
# 
# From -- ./inp_files/129333.got.cif
#   From: 2010.06.25/outbox.cif.g09.slc.cpg/sg15_65_cif.got.tgz:129333.got - 2010.06.28 07:06:18.
