data_PCOD8136532
_publ_section_title
;
Structure prediction by ZEFSAII (Michael W. Deem and Ramdas Pophale) SiO2 
 PCOD8136532
Probable space group: C 2/C
;
_chemical_formula_sum "Si O2"
_cell_formula_units_Z 56
_cell_length_a 15.332549
_cell_length_b 30.082654
_cell_length_c 12.787197
_cell_angle_alpha 90.000000
_cell_angle_beta 28.085865
_cell_angle_gamma 90.000000
_cell_volume 2776.751470
_symmetry_space_group_name_H-M "C 2/C"
_symmetry_group_IT_number 15
_symmetry_cell_setting 'monoclinic'
loop_
_space_group_symop_operation_xyz
x,y,z
-x,y,1/2-z
-x,-y,-z
x,-y,1/2+z
1/2+x,1/2+y,z
1/2-x,1/2+y,1/2-z
1/2-x,1/2-y,-z
1/2+x,1/2-y,1/2+z
loop_
_atom_site_type_symbol
_atom_site_label
_atom_site_fract_x
_atom_site_fract_y
_atom_site_fract_z
Si Si1 0.910650 0.933102 0.122437
Si Si2 0.500000 0.135845 0.250000
Si Si3 0.735313 0.380854 0.870030
Si Si4 0.500000 0.067824 0.750000
Si Si5 0.174619 0.694576 0.886774
Si Si6 0.923053 0.383135 0.126844
Si Si7 0.944224 0.790080 0.427957
Si Si8 0.126687 0.977171 0.716502
O O1 0.722259 0.907284 0.296579
O O2 0.851605 0.978721 0.238252
O O3 0.039786 0.905403 0.066035
O O4 0.024683 0.940105 0.894532
O O5 0.664995 0.105330 0.124933
O O6 0.435781 0.167094 0.410860
O O7 0.868569 0.393365 0.632636
O O8 0.714105 0.327229 0.901351
O O9 0.591012 0.099616 0.740821
O O10 0.665163 0.037279 0.532620
O O11 0.125056 0.669934 0.829023
O O12 0.390512 0.689513 0.680200
O O13 0.124266 0.746228 0.940483
O O14 0.000000 0.778023 0.250000
O O15 0.000000 0.986338 0.750000
#
# Coordination Sequence:
#
# PCOD8136532 Si02
#       8
#     8   4   8   4   8   8   8   8
#     4  11  24  45  66  97 128 167 219 263 325 384
#     4  10  20  34  55  88 130 168 212 240 323 368
#     4  11  23  39  61  95 132 172 209 266 313 387
#     4  12  24  46  71  94 122 172 220 270 329 378
#     4  11  21  35  57  92 127 173 210 261 304 389
#     4  11  24  41  68  93 127 167 220 264 319 381
#     4  12  21  36  60  90 138 176 211 250 323 393
#     4  11  25  43  71  94 125 168 215 269 325 386
#
# _framework density 20.167452000000001
#
# number of rings (size 3 to 8) (size 9 to 14) (size 15 to 20)
#    0.000    0.857    6.429    2.143    0.000    4.571 
#    0.000    0.714    0.000    3.429    0.000    0.000 
#    0.000    0.000    0.000    0.000    0.000    0.000 
#
# Total GULP energy -347152.296851 kJ/mol
# GULP energy per Si atom -12398.296316 kJ/mol
# Density = 2.012155 g / cm^3
# Si number density = 20.167452 Si / 1000 Ang^3
#
#
#
# Elastic Constant Matrix: (Units=GPa)
#
#
# Indices 1 2 3 4 5 6 
#
# 1 119.8302 38.0577 32.3703 -0.0022 -14.1214 -0.0015
# 2 38.0577 92.8780 40.3581 0.0009 -0.3718 0.0003
# 3 32.3703 40.3581 98.1012 -0.0092 -13.5312 -0.0040
# 4 -0.0022 0.0009 -0.0092 25.2184 0.0027 -2.5186
# 5 -14.1214 -0.3718 -13.5312 0.0027 29.4576 0.0018
# 6 -0.0015 0.0003 -0.0040 -2.5186 0.0018 20.9166
#
#
#
# Elastic Compliance Matrix: (Units=1/GPa)
#
#
# Indices 1 2 3 4 5 6 
#
# 1 0.010373 -0.003659 -0.001322 0.000000 0.004319 0.000000
# 2 -0.003659 0.014571 -0.005342 -0.000003 -0.004024 -0.000001
# 3 -0.001322 -0.005342 0.013592 0.000005 0.005542 0.000003
# 4 0.000000 -0.000003 0.000005 0.040136 -0.000002 0.004833
# 5 0.004319 -0.004024 0.005542 -0.000002 0.038513 -0.000002
# 6 0.000000 -0.000001 0.000003 0.004833 -0.000002 0.048391
#
#
# Mechanical properties :
#
#
# Convention : Reuss Voigt Hill
#
# Bulk Modulus (GPa) = 55.89532 59.15351 57.52441
# Shear Modulus (GPa) = 26.01650 28.45342 27.23496
#
# Velocity S-wave (km/s) = 3.59559 3.76021 3.67882
# Velocity P-wave (km/s) = 6.70921 6.94602 6.82864
#
# Compressibility (1/GPa) = 0.01789059
#
# Stress axis : x y z
#
# Youngs Moduli (GPa) = 96.40140 68.62795 73.57303
#
# Poissons Ratio (x) = 0.25110 0.09725
# Poissons Ratio (y) = 0.35272 0.39305
# Poissons Ratio (z) = 0.12743 0.36663
#
# Static dielectric constant tensor:
#      x y z
#    x 4.109850 -0.000020 -0.185480 
#    y -0.000020 3.755670 0.000010 
#    z -0.185480 0.000010 3.711810 
# 
# 
# High freq. dielectric constant tensor:
#      x y z
#    x 1.787080 0.000000 -0.029110 
#    y 0.000000 1.783380 0.000000 
#    z -0.029110 0.000000 1.789680 
# 
# From -- ./inp_files/101784.got.cif
#   From: 2010.06.25/outbox.cif.g09.slc.cpg/sg15_51_cif.got.tgz:101784.got - 2010.06.28 07:06:18.
