data_PCOD8136315
_publ_section_title
;
Structure prediction by ZEFSAII (Michael W. Deem and Ramdas Pophale) SiO2 
 PCOD8136315
Probable space group: C 2/C
;
_chemical_formula_sum "Si O2"
_cell_formula_units_Z 52
_cell_length_a 8.630236
_cell_length_b 12.025585
_cell_length_c 25.047943
_cell_angle_alpha 90.000000
_cell_angle_beta 98.838697
_cell_angle_gamma 90.000000
_cell_volume 2568.696321
_symmetry_space_group_name_H-M "C 2/C"
_symmetry_group_IT_number 15
_symmetry_cell_setting 'monoclinic'
loop_
_space_group_symop_operation_xyz
x,y,z
-x,y,1/2-z
-x,-y,-z
x,-y,1/2+z
1/2+x,1/2+y,z
1/2-x,1/2+y,1/2-z
1/2-x,1/2-y,-z
1/2+x,1/2-y,1/2+z
loop_
_atom_site_type_symbol
_atom_site_label
_atom_site_fract_x
_atom_site_fract_y
_atom_site_fract_z
Si Si1 0.943522 0.099747 0.824155
Si Si2 0.855889 0.052812 0.930388
Si Si3 0.888711 0.171937 0.486544
Si Si4 0.000000 0.704416 0.750000
Si Si5 0.250568 0.549940 0.714060
Si Si6 0.658798 0.242577 0.939473
Si Si7 0.745685 0.183605 0.165830
O O1 0.917088 0.024003 0.874896
O O2 0.890054 0.226721 0.830400
O O3 0.843127 0.034964 0.774480
O O4 0.127634 0.105959 0.820809
O O5 0.689831 0.118478 0.918422
O O6 0.817286 0.942723 0.961069
O O7 0.986598 0.136340 0.961943
O O8 0.750000 0.250000 0.500000
O O9 0.976333 0.235881 0.442682
O O10 0.102437 0.628674 0.715611
O O11 0.098368 0.782274 0.794310
O O12 0.188636 0.433895 0.686481
O O13 0.718645 0.327097 0.896067
O O14 0.750000 0.250000 0.000000
#
# Coordination Sequence:
#
# PCOD8136315 Si02
#       7
#     8   8   8   4   8   8   8
#     4   9  19  36  55  76 104 142 176 209 268 323
#     4   9  19  37  53  73 110 139 171 224 262 311
#     4  10  20  33  54  81 104 138 182 219 265 315
#     4  10  22  34  52  84 106 132 178 216 262 316
#     4  10  20  35  54  76 104 135 172 215 260 315
#     4   9  19  37  56  76 107 143 176 215 267 317
#     4  10  20  37  57  77 107 141 174 221 266 309
#
# _framework density 20.243729999999999
#
# number of rings (size 3 to 8) (size 9 to 14) (size 15 to 20)
#    0.000    2.462    0.000    1.846    0.000    4.308 
#    0.000   16.923    0.000    0.000    0.000    0.000 
#    0.000    0.000    0.000    0.000    0.000    0.000 
#
# Total GULP energy -322220.364719 kJ/mol
# GULP energy per Si atom -12393.090951 kJ/mol
# Density = 2.019765 g / cm^3
# Si number density = 20.243730 Si / 1000 Ang^3
#
#
#
# Elastic Constant Matrix: (Units=GPa)
#
#
# Indices 1 2 3 4 5 6 
#
# 1 63.7311 36.2856 11.3767 0.0000 -20.8537 0.0000
# 2 36.2856 70.1301 25.1035 0.0000 -11.5427 0.0000
# 3 11.3767 25.1035 105.9678 0.0000 -23.8861 0.0000
# 4 0.0000 0.0000 0.0000 24.2280 0.0000 -5.2038
# 5 -20.8537 -11.5427 -23.8861 0.0000 29.3481 0.0000
# 6 0.0000 0.0000 0.0000 -5.2038 0.0000 30.3867
#
#
#
# Elastic Compliance Matrix: (Units=1/GPa)
#
#
# Indices 1 2 3 4 5 6 
#
# 1 0.028527 -0.013232 0.004247 0.000000 0.018523 0.000000
# 2 -0.013232 0.022076 -0.004864 0.000000 -0.004678 0.000000
# 3 0.004247 -0.004864 0.012715 0.000000 0.011453 0.000000
# 4 0.000000 0.000000 0.000000 0.042851 0.000000 0.007338
# 5 0.018523 -0.004678 0.011453 0.000000 0.054718 0.000000
# 6 0.000000 0.000000 0.000000 0.007338 0.000000 0.034166
#
#
# Mechanical properties :
#
#
# Convention : Reuss Voigt Hill
#
# Bulk Modulus (GPa) = 28.07259 42.81783 35.44521
# Shear Modulus (GPa) = 21.31075 27.93008 24.62041
#
# Velocity S-wave (km/s) = 3.24807 3.71845 3.49119
# Velocity P-wave (km/s) = 5.28810 6.29547 5.81364
#
# Compressibility (1/GPa) = 0.03562194
#
# Stress axis : x y z
#
# Youngs Moduli (GPa) = 35.05406 45.29708 78.64889
#
# Poissons Ratio (x) = 0.59936 -0.33403
# Poissons Ratio (y) = 0.46383 0.38252
# Poissons Ratio (z) = -0.14888 0.22031
#
# Static dielectric constant tensor:
#      x y z
#    x 3.731000 0.000000 -0.243620 
#    y 0.000000 3.587800 0.000000 
#    z -0.243620 0.000000 3.929570 
# 
# 
# High freq. dielectric constant tensor:
#      x y z
#    x 1.777650 0.000000 -0.015470 
#    y 0.000000 1.779100 0.000000 
#    z -0.015470 0.000000 1.804430 
# 
# From -- ./inp_files/287583.got.cif
#   From: 2010.06.25/outbox.cif.g09.slc.cpg/sg15_144_cif.got.tgz:287583.got - 2010.06.28 07:06:18.
