data_PCOD8136524
_publ_section_title
;
Structure prediction by ZEFSAII (Michael W. Deem and Ramdas Pophale) SiO2 
 PCOD8136524
Probable space group: C 2/C
;
_chemical_formula_sum "Si O2"
_cell_formula_units_Z 36
_cell_length_a 7.771344
_cell_length_b 20.398004
_cell_length_c 18.327652
_cell_angle_alpha 90.000000
_cell_angle_beta 146.163785
_cell_angle_gamma 90.000000
_cell_volume 1617.730016
_symmetry_space_group_name_H-M "C 2/C"
_symmetry_group_IT_number 15
_symmetry_cell_setting 'monoclinic'
loop_
_space_group_symop_operation_xyz
x,y,z
-x,y,1/2-z
-x,-y,-z
x,-y,1/2+z
1/2+x,1/2+y,z
1/2-x,1/2+y,1/2-z
1/2-x,1/2-y,-z
1/2+x,1/2-y,1/2+z
loop_
_atom_site_type_symbol
_atom_site_label
_atom_site_fract_x
_atom_site_fract_y
_atom_site_fract_z
Si Si1 0.657864 0.187392 0.512040
Si Si2 0.479721 0.052889 0.884977
Si Si3 0.500000 0.725568 0.250000
Si Si4 0.489045 0.800244 0.386172
Si Si5 0.617178 0.449829 0.408410
O O1 0.750000 0.250000 0.500000
O O2 0.281738 0.179252 0.375750
O O3 0.752889 0.197173 0.631013
O O4 0.831246 0.123549 0.541303
O O5 0.614730 0.125664 0.918818
O O6 0.307390 0.047307 0.900954
O O7 0.243172 0.035986 0.735578
O O8 0.763912 0.001572 0.988932
O O9 0.354479 0.772586 0.262556
O O10 0.750000 0.750000 0.500000
#
# Coordination Sequence:
#
# PCOD8136524 Si02
#       5
#     8   8   4   8   8
#     4  10  20  34  55  83 111 141 182 228 278 330
#     4   9  17  31  50  75 106 140 181 223 270 325
#     4  10  20  34  56  78 108 146 184 230 274 326
#     4   9  19  34  54  80 107 143 185 226 273 328
#     4   9  18  30  50  77 106 141 178 223 272 325
#
# _framework density 22.253405000000001
#
# number of rings (size 3 to 8) (size 9 to 14) (size 15 to 20)
#    0.000    2.667    0.000    1.333    0.000    9.778 
#    0.000    0.000    0.000   14.667    0.000    0.000 
#    0.000    0.000    0.000    0.000    0.000    0.000 
#
# Total GULP energy -223005.303548 kJ/mol
# GULP energy per Si atom -12389.183530 kJ/mol
# Density = 2.220276 g / cm^3
# Si number density = 22.253405 Si / 1000 Ang^3
#
#
#
# Elastic Constant Matrix: (Units=GPa)
#
#
# Indices 1 2 3 4 5 6 
#
# 1 45.3412 10.1294 10.4158 0.0000 -16.9113 0.0001
# 2 10.1294 168.3571 92.6384 -0.0004 -9.6087 -0.0001
# 3 10.4158 92.6384 164.8892 -0.0007 -8.0584 0.0002
# 4 0.0000 -0.0004 -0.0007 39.4326 0.0001 -0.8492
# 5 -16.9113 -9.6087 -8.0584 0.0001 18.0048 0.0002
# 6 0.0001 -0.0001 0.0002 -0.8492 0.0002 22.0161
#
#
#
# Elastic Compliance Matrix: (Units=1/GPa)
#
#
# Indices 1 2 3 4 5 6 
#
# 1 0.034008 0.000135 -0.000674 0.000000 0.031712 0.000000
# 2 0.000135 0.008708 -0.004772 0.000000 0.002638 0.000000
# 3 -0.000674 -0.004772 0.008826 0.000000 0.000770 0.000000
# 4 0.000000 0.000000 0.000000 0.025381 0.000000 0.000979
# 5 0.031712 0.002638 0.000770 0.000000 0.087080 -0.000001
# 6 0.000000 0.000000 0.000000 0.000979 -0.000001 0.045459
#
#
# Mechanical properties :
#
#
# Convention : Reuss Voigt Hill
#
# Bulk Modulus (GPa) = 24.43847 67.21720 45.82783
# Shear Modulus (GPa) = 21.39282 33.58429 27.48856
#
# Velocity S-wave (km/s) = 3.10389 3.88903 3.51843
# Velocity P-wave (km/s) = 4.88378 7.10190 6.09460
#
# Compressibility (1/GPa) = 0.04091909
#
# Stress axis : x y z
#
# Youngs Moduli (GPa) = 29.40503 114.83764 113.30324
#
# Poissons Ratio (x) = -0.01547 0.07638
# Poissons Ratio (y) = -0.00396 0.54067
# Poissons Ratio (z) = 0.01982 0.54799
#
# Static dielectric constant tensor:
#      x y z
#    x 4.022860 -0.000020 -0.385580 
#    y -0.000020 4.250610 0.000010 
#    z -0.385580 0.000010 4.492570 
# 
# 
# High freq. dielectric constant tensor:
#      x y z
#    x 1.837080 0.000000 -0.013700 
#    y 0.000000 1.873470 0.000000 
#    z -0.013700 0.000000 1.887950 
# 
# From -- ./inp_files/22520.got.cif
#   From: 2010.06.25/outbox.cif.g09.slc.cpg/sg15_12_cif.got.tgz:22520.got - 2010.06.28 07:06:18.
