data_PCOD8136357
_publ_section_title
;
Structure prediction by ZEFSAII (Michael W. Deem and Ramdas Pophale) SiO2 
 PCOD8136357
Probable space group: C 2/C
;
_chemical_formula_sum "Si O2"
_cell_formula_units_Z 56
_cell_length_a 29.272836
_cell_length_b 11.067044
_cell_length_c 9.419547
_cell_angle_alpha 90.000000
_cell_angle_beta 72.747002
_cell_angle_gamma 90.000000
_cell_volume 2914.283774
_symmetry_space_group_name_H-M "C 2/C"
_symmetry_group_IT_number 15
_symmetry_cell_setting 'monoclinic'
loop_
_space_group_symop_operation_xyz
x,y,z
-x,y,1/2-z
-x,-y,-z
x,-y,1/2+z
1/2+x,1/2+y,z
1/2-x,1/2+y,1/2-z
1/2-x,1/2-y,-z
1/2+x,1/2-y,1/2+z
loop_
_atom_site_type_symbol
_atom_site_label
_atom_site_fract_x
_atom_site_fract_y
_atom_site_fract_z
Si Si1 0.217500 0.362958 0.018581
Si Si2 0.384343 0.885283 0.326128
Si Si3 0.736196 0.501937 0.275522
Si Si4 0.550120 0.861519 0.983267
Si Si5 0.553404 0.859654 0.471435
Si Si6 0.204006 0.835409 0.052784
Si Si7 0.386433 0.834851 0.820403
O O1 0.162472 0.319128 0.069720
O O2 0.227151 0.439182 0.151077
O O3 0.250000 0.250000 0.000000
O O4 0.228448 0.423881 0.858293
O O5 0.431648 0.859247 0.373798
O O6 0.400111 0.822541 0.164526
O O7 0.368568 0.026452 0.335519
O O8 0.706020 0.413626 0.197930
O O9 0.701806 0.582774 0.410356
O O10 0.590151 0.794994 0.850253
O O11 0.546778 0.999878 0.935568
O O12 0.497859 0.797935 0.017378
O O13 0.568129 0.826132 0.616095
O O14 0.156736 0.753565 0.099738
O O15 0.250000 0.750000 0.000000
#
# Coordination Sequence:
#
# PCOD8136357 Si02
#       7
#     8   8   8   8   8   8   8
#     4  11  24  36  57  79 114 148 188 225 278 332
#     4  10  21  30  52  80 115 149 181 217 275 341
#     4  10  24  40  54  80 120 146 188 244 272 316
#     4   9  18  32  50  79 114 142 179 228 278 336
#     4   9  18  32  50  79 114 142 179 228 278 336
#     4  11  23  39  60  81 117 151 197 230 283 336
#     4  10  20  33  57  80 107 152 182 220 277 341
#
# _framework density 19.215699999999998
#
# number of rings (size 3 to 8) (size 9 to 14) (size 15 to 20)
#    0.000    2.000    0.000    3.429   14.000    3.429 
#    0.000    0.000    0.000    0.000    0.000    4.000 
#    0.000    0.000    0.000    0.000    0.000    0.000 
#
# Total GULP energy -346903.623708 kJ/mol
# GULP energy per Si atom -12389.415132 kJ/mol
# Density = 1.917196 g / cm^3
# Si number density = 19.215700 Si / 1000 Ang^3
#
#
#
# Elastic Constant Matrix: (Units=GPa)
#
#
# Indices 1 2 3 4 5 6 
#
# 1 103.8546 31.0241 27.8932 0.0000 -15.5489 0.0000
# 2 31.0241 48.3978 27.7651 0.0000 -2.9782 0.0000
# 3 27.8932 27.7651 109.3884 0.0000 1.4725 0.0000
# 4 0.0000 0.0000 0.0000 21.5981 0.0000 -2.5602
# 5 -15.5489 -2.9782 1.4725 0.0000 35.8020 0.0000
# 6 0.0000 0.0000 0.0000 -2.5602 0.0000 17.8912
#
#
#
# Elastic Compliance Matrix: (Units=1/GPa)
#
#
# Indices 1 2 3 4 5 6 
#
# 1 0.012925 -0.007072 -0.001569 0.000000 0.005090 0.000000
# 2 -0.007072 0.028238 -0.005357 0.000000 -0.000502 0.000000
# 3 -0.001569 -0.005357 0.010923 0.000000 -0.001576 0.000000
# 4 0.000000 0.000000 0.000000 0.047099 0.000000 0.006740
# 5 0.005090 -0.000502 -0.001576 0.000000 0.030165 0.000000
# 6 0.000000 0.000000 0.000000 0.006740 0.000000 0.056858
#
#
# Mechanical properties :
#
#
# Convention : Reuss Voigt Hill
#
# Bulk Modulus (GPa) = 41.51298 48.33397 44.92347
# Shear Modulus (GPa) = 22.49885 26.72217 24.61051
#
# Velocity S-wave (km/s) = 3.42549 3.73318 3.58264
# Velocity P-wave (km/s) = 6.10704 6.61741 6.36734
#
# Compressibility (1/GPa) = 0.02408885
#
# Stress axis : x y z
#
# Youngs Moduli (GPa) = 77.37046 35.41365 91.55056
#
# Poissons Ratio (x) = 0.25043 0.14367
# Poissons Ratio (y) = 0.54714 0.49047
# Poissons Ratio (z) = 0.12142 0.18972
#
# Static dielectric constant tensor:
#      x y z
#    x 2.542790 0.000000 0.192450 
#    y 0.000000 3.131840 0.000000 
#    z 0.192450 0.000000 3.742330 
# 
# 
# High freq. dielectric constant tensor:
#      x y z
#    x 1.753790 0.000000 0.002260 
#    y 0.000000 1.679760 0.000000 
#    z 0.002260 0.000000 1.774360 
# 
# From -- ./inp_files/65536.got.cif
#   From: 2010.06.25/outbox.cif.g09.slc.cpg/sg15_33_cif.got.tgz:65536.got - 2010.06.28 07:06:18.
