data_PCOD8136907
_publ_section_title
;
Structure prediction by ZEFSAII (Michael W. Deem and Ramdas Pophale) SiO2 
 PCOD8136907
Probable space group: C 2/C
;
_chemical_formula_sum "Si O2"
_cell_formula_units_Z 44
_cell_length_a 13.843924
_cell_length_b 33.361797
_cell_length_c 5.302352
_cell_angle_alpha 90.000000
_cell_angle_beta 66.007319
_cell_angle_gamma 90.000000
_cell_volume 2237.340352
_symmetry_space_group_name_H-M "C 2/C"
_symmetry_group_IT_number 15
_symmetry_cell_setting 'monoclinic'
loop_
_space_group_symop_operation_xyz
x,y,z
-x,y,1/2-z
-x,-y,-z
x,-y,1/2+z
1/2+x,1/2+y,z
1/2-x,1/2+y,1/2-z
1/2-x,1/2-y,-z
1/2+x,1/2-y,1/2+z
loop_
_atom_site_type_symbol
_atom_site_label
_atom_site_fract_x
_atom_site_fract_y
_atom_site_fract_z
Si Si1 0.263004 0.327930 0.434351
Si Si2 0.380089 0.983106 0.639488
Si Si3 0.500000 0.837849 0.250000
Si Si4 0.390304 0.109065 0.222800
Si Si5 0.117355 0.191390 0.200665
Si Si6 0.906445 0.271070 0.015950
O O1 0.200935 0.370274 0.512525
O O2 0.349586 0.328153 0.566164
O O3 0.190322 0.287794 0.552928
O O4 0.309471 0.323394 0.104551
O O5 0.364337 0.935848 0.671791
O O6 0.500000 0.000000 0.500000
O O7 0.322874 0.997474 0.443816
O O8 0.403975 0.864968 0.454749
O O9 0.451838 0.811732 0.080453
O O10 0.500000 0.108834 0.250000
O O11 0.125548 0.239696 0.231806
O O12 0.000000 0.177944 0.250000
O O13 0.000000 0.250540 0.750000
#
# Coordination Sequence:
#
# PCOD8136907 Si02
#       6
#     8   8   4   8   8   8
#     4  12  25  41  61  91 114 158 212 254 312 365
#     4  10  20  35  56  87 123 173 179 207 277 373
#     4  12  20  36  56  86 126 162 202 238 308 354
#     4  12  23  36  61  89 133 161 192 239 293 375
#     4  12  27  44  60  78 116 163 217 276 311 341
#     4  12  23  39  60  88 118 158 205 263 319 374
#
# _framework density 19.666207
#
# number of rings (size 3 to 8) (size 9 to 14) (size 15 to 20)
#    0.000    0.364    6.364    4.909    0.000    0.000 
#    0.000    0.000    0.000    0.000    0.000    0.000 
#    0.000   14.545    0.000    0.000    0.000    0.000 
#
# Total GULP energy -272687.679566 kJ/mol
# GULP energy per Si atom -12394.894526 kJ/mol
# Density = 1.962145 g / cm^3
# Si number density = 19.666207 Si / 1000 Ang^3
#
#
#
# Elastic Constant Matrix: (Units=GPa)
#
#
# Indices 1 2 3 4 5 6 
#
# 1 77.7896 19.5606 28.3144 0.0000 15.3772 0.0000
# 2 19.5606 144.3633 62.3178 0.0000 2.5346 0.0000
# 3 28.3144 62.3178 137.2873 0.0000 17.3275 0.0000
# 4 0.0000 0.0000 0.0000 35.1057 0.0000 -2.4578
# 5 15.3772 2.5346 17.3275 0.0000 32.4162 0.0000
# 6 0.0000 0.0000 0.0000 -2.4578 0.0000 5.2201
#
#
#
# Elastic Compliance Matrix: (Units=1/GPa)
#
#
# Indices 1 2 3 4 5 6 
#
# 1 0.014999 -0.001145 -0.001809 0.000000 -0.006059 0.000000
# 2 -0.001145 0.008773 -0.003998 0.000000 0.001994 0.000000
# 3 -0.001809 -0.003998 0.009999 0.000000 -0.004174 0.000000
# 4 0.000000 0.000000 0.000000 0.029456 0.000000 0.013869
# 5 -0.006059 0.001994 -0.004174 0.000000 0.035798 0.000000
# 6 0.000000 0.000000 0.000000 0.013869 0.000000 0.198096
#
#
# Mechanical properties :
#
#
# Convention : Reuss Voigt Hill
#
# Bulk Modulus (GPa) = 50.33468 64.42507 57.37988
# Shear Modulus (GPa) = 15.74078 31.16490 23.45284
#
# Velocity S-wave (km/s) = 2.83220 3.98514 3.45707
# Velocity P-wave (km/s) = 6.02870 7.34884 6.72126
#
# Compressibility (1/GPa) = 0.01986702
#
# Stress axis : x y z
#
# Youngs Moduli (GPa) = 66.67012 113.98854 100.01467
#
# Poissons Ratio (x) = 0.13052 0.18093
# Poissons Ratio (y) = 0.07634 0.39983
# Poissons Ratio (z) = 0.12061 0.45569
#
# Static dielectric constant tensor:
#      x y z
#    x 4.006040 0.000000 0.629370 
#    y 0.000000 3.619630 0.000000 
#    z 0.629370 0.000000 4.597070 
# 
# 
# High freq. dielectric constant tensor:
#      x y z
#    x 1.740500 0.000000 0.029340 
#    y 0.000000 1.746040 0.000000 
#    z 0.029340 0.000000 1.779440 
# 
# From -- ./inp_files/8612.got.cif
#   From: 2010.06.25/outbox.cif.g09.slc.cpg/sg15_5_cif.got.tgz:8612.got - 2010.06.28 07:06:18.
