data_PCOD8136667
_publ_section_title
;
Structure prediction by ZEFSAII (Michael W. Deem and Ramdas Pophale) SiO2 
 PCOD8136667
Probable space group: C 2/C
;
_chemical_formula_sum "Si O2"
_cell_formula_units_Z 64
_cell_length_a 17.175370
_cell_length_b 32.123662
_cell_length_c 11.717417
_cell_angle_alpha 90.000000
_cell_angle_beta 148.968855
_cell_angle_gamma 90.000000
_cell_volume 3332.690813
_symmetry_space_group_name_H-M "C 2/C"
_symmetry_group_IT_number 15
_symmetry_cell_setting 'monoclinic'
loop_
_space_group_symop_operation_xyz
x,y,z
-x,y,1/2-z
-x,-y,-z
x,-y,1/2+z
1/2+x,1/2+y,z
1/2-x,1/2+y,1/2-z
1/2-x,1/2-y,-z
1/2+x,1/2-y,1/2+z
loop_
_atom_site_type_symbol
_atom_site_label
_atom_site_fract_x
_atom_site_fract_y
_atom_site_fract_z
Si Si1 0.340369 0.525048 0.985676
Si Si2 0.176213 0.932928 0.482125
Si Si3 0.158945 0.769009 0.991702
Si Si4 0.397870 0.182443 0.507274
Si Si5 0.331842 0.150542 0.767135
Si Si6 0.823095 0.089534 0.765700
Si Si7 0.839688 0.884208 0.827247
Si Si8 0.330061 0.083743 0.580583
O O1 0.349048 0.547878 0.873774
O O2 0.200830 0.543958 0.880883
O O3 0.500000 0.530927 0.250000
O O4 0.289217 0.477122 0.913944
O O5 0.244022 0.925955 0.440452
O O6 0.226892 0.896503 0.631971
O O7 0.000000 0.929988 0.250000
O O8 0.240393 0.806462 0.157969
O O9 0.250000 0.750000 0.000000
O O10 0.133431 0.731363 0.049672
O O11 0.000000 0.787040 0.750000
O O12 0.500000 0.176003 0.750000
O O13 0.491424 0.163273 0.518286
O O14 0.235570 0.159398 0.307040
O O15 0.299203 0.121532 0.835592
O O16 0.286571 0.124969 0.597461
O O17 0.978422 0.115897 0.947500
O O18 0.782657 0.919139 0.667564
O O19 0.500000 0.085044 0.750000
#
# Coordination Sequence:
#
# PCOD8136667 Si02
#       8
#     8   8   8   8   8   8   8   8
#     4  10  20  34  59  81 107 141 184 236 281 322
#     4   9  22  38  55  82 111 142 187 239 273 322
#     4  11  21  32  52  85 122 146 174 224 279 333
#     4  11  20  36  52  83 118 147 179 221 274 333
#     4  11  21  34  53  80 122 141 175 229 272 324
#     4  10  23  35  55  86 109 142 192 228 272 334
#     4  11  19  35  59  75 108 154 183 219 283 327
#     4  11  20  34  53  81 113 148 180 222 274 335
#
# _framework density 19.203700999999999
#
# number of rings (size 3 to 8) (size 9 to 14) (size 15 to 20)
#    0.000    1.500    6.250    0.000    5.250    1.500 
#    0.000    2.500    0.000    0.750    0.000    0.000 
#    0.000    0.000    0.000    0.000    0.000    0.000 
#
# Total GULP energy -396501.419078 kJ/mol
# GULP energy per Si atom -12390.669346 kJ/mol
# Density = 1.915999 g / cm^3
# Si number density = 19.203701 Si / 1000 Ang^3
#
#
#
# Elastic Constant Matrix: (Units=GPa)
#
#
# Indices 1 2 3 4 5 6 
#
# 1 108.2268 36.2575 19.4682 0.0000 -4.0199 0.0000
# 2 36.2575 102.8679 20.1534 0.0000 -0.6609 0.0000
# 3 19.4682 20.1534 21.9569 0.0000 4.3299 0.0000
# 4 0.0000 0.0000 0.0000 13.1309 0.0000 6.6320
# 5 -4.0199 -0.6609 4.3299 0.0000 29.9757 0.0000
# 6 0.0000 0.0000 0.0000 6.6320 0.0000 18.4617
#
#
#
# Elastic Compliance Matrix: (Units=1/GPa)
#
#
# Indices 1 2 3 4 5 6 
#
# 1 0.011719 -0.002401 -0.008735 0.000000 0.002780 0.000000
# 2 -0.002401 0.012449 -0.009560 0.000000 0.001333 0.000000
# 3 -0.008735 -0.009560 0.064164 0.000000 -0.010650 0.000000
# 4 0.000000 0.000000 0.000000 0.093037 0.000000 -0.033422
# 5 0.002780 0.001333 -0.010650 0.000000 0.035301 0.000000
# 6 0.000000 0.000000 0.000000 -0.033422 0.000000 0.066172
#
#
# Mechanical properties :
#
#
# Convention : Reuss Voigt Hill
#
# Bulk Modulus (GPa) = 21.30428 42.75664 32.03046
# Shear Modulus (GPa) = 14.71102 22.79182 18.75142
#
# Velocity S-wave (km/s) = 2.77077 3.44880 3.12821
# Velocity P-wave (km/s) = 4.62105 6.17836 5.45556
#
# Compressibility (1/GPa) = 0.04693892
#
# Stress axis : x y z
#
# Youngs Moduli (GPa) = 85.33261 80.32633 15.58508
#
# Poissons Ratio (x) = 0.19289 0.13613
# Poissons Ratio (y) = 0.20492 0.14900
# Poissons Ratio (z) = 0.74536 0.76796
#
# Static dielectric constant tensor:
#      x y z
#    x 4.002230 0.000000 -0.045940 
#    y 0.000000 3.772670 0.000000 
#    z -0.045940 0.000000 3.460000 
# 
# 
# High freq. dielectric constant tensor:
#      x y z
#    x 1.748510 0.000000 0.016920 
#    y 0.000000 1.748520 0.000000 
#    z 0.016920 0.000000 1.710090 
# 
# From -- ./inp_files/108653.got.cif
#   From: 2010.06.25/outbox.cif.g09.slc.cpg/sg15_55_cif.got.tgz:108653.got - 2010.06.28 07:06:18.
