data_PCOD8136193
_publ_section_title
;
Structure prediction by ZEFSAII (Michael W. Deem and Ramdas Pophale) SiO2 
 PCOD8136193
Probable space group: C 2/C
;
_chemical_formula_sum "Si O2"
_cell_formula_units_Z 40
_cell_length_a 19.236549
_cell_length_b 4.980623
_cell_length_c 22.106070
_cell_angle_alpha 90.000000
_cell_angle_beta 70.966336
_cell_angle_gamma 90.000000
_cell_volume 2002.186338
_symmetry_space_group_name_H-M "C 2/C"
_symmetry_group_IT_number 15
_symmetry_cell_setting 'monoclinic'
loop_
_space_group_symop_operation_xyz
x,y,z
-x,y,1/2-z
-x,-y,-z
x,-y,1/2+z
1/2+x,1/2+y,z
1/2-x,1/2+y,1/2-z
1/2-x,1/2-y,-z
1/2+x,1/2-y,1/2+z
loop_
_atom_site_type_symbol
_atom_site_label
_atom_site_fract_x
_atom_site_fract_y
_atom_site_fract_z
Si Si1 0.298634 0.463015 0.726904
Si Si2 0.865628 0.530923 0.375358
Si Si3 0.417850 0.526876 0.293968
Si Si4 0.695872 0.380145 0.908257
Si Si5 0.676201 0.850683 0.989649
O O1 0.252028 0.732832 0.730062
O O2 0.365500 0.530339 0.752061
O O3 0.331598 0.366908 0.653054
O O4 0.909526 0.328727 0.319840
O O5 0.779852 0.520069 0.383639
O O6 0.878995 0.451734 0.442131
O O7 0.897214 0.827186 0.354692
O O8 0.500000 0.473272 0.250000
O O9 0.646132 0.595884 0.959778
O O10 0.691907 0.089625 0.938919
O O11 0.750000 0.750000 0.000000
#
# Coordination Sequence:
#
# PCOD8136193 Si02
#       5
#     8   8   8   8   8
#     4  12  22  38  60  86 120 154 191 247 292 338
#     4  11  20  37  58  83 121 149 196 240 287 346
#     4  12  24  39  59  86 119 160 194 234 293 353
#     4  11  19  34  58  87 118 144 193 242 297 337
#     4  10  20  32  56  89 116 148 186 247 295 335
#
# _framework density 19.978159999999999
#
# number of rings (size 3 to 8) (size 9 to 14) (size 15 to 20)
#    0.000    0.800    4.000    7.800    0.000    0.000 
#    0.000    0.000    0.000    7.200    0.000    0.000 
#    0.000    0.000    0.000    0.000    0.000    0.000 
#
# Total GULP energy -248023.049809 kJ/mol
# GULP energy per Si atom -12401.152490 kJ/mol
# Density = 1.993269 g / cm^3
# Si number density = 19.978160 Si / 1000 Ang^3
#
#
#
# Elastic Constant Matrix: (Units=GPa)
#
#
# Indices 1 2 3 4 5 6 
#
# 1 57.6394 20.3034 25.0580 -0.0407 -6.3616 -0.0912
# 2 20.3034 111.7059 22.6497 -0.0430 6.6483 -0.0547
# 3 25.0580 22.6497 102.5516 -0.0197 13.2397 -0.0404
# 4 -0.0407 -0.0430 -0.0197 55.1111 -0.0174 -0.1500
# 5 -6.3616 6.6483 13.2397 -0.0174 19.6805 -0.0560
# 6 -0.0912 -0.0547 -0.0404 -0.1500 -0.0560 7.3596
#
#
#
# Elastic Compliance Matrix: (Units=1/GPa)
#
#
# Indices 1 2 3 4 5 6 
#
# 1 0.022863 -0.003617 -0.006460 0.000017 0.012959 0.000320
# 2 -0.003617 0.010012 -0.000810 0.000004 -0.004006 -0.000005
# 3 -0.006460 -0.000810 0.012860 -0.000004 -0.010466 -0.000095
# 4 0.000017 0.000004 -0.000004 0.018146 0.000024 0.000370
# 5 0.012959 -0.004006 -0.010466 0.000024 0.063396 0.000556
# 6 0.000320 -0.000005 -0.000095 0.000370 0.000556 0.135892
#
#
# Mechanical properties :
#
#
# Convention : Reuss Voigt Hill
#
# Bulk Modulus (GPa) = 41.73684 45.32436 43.53060
# Shear Modulus (GPa) = 17.06886 30.02262 23.54574
#
# Velocity S-wave (km/s) = 2.92614 3.88077 3.43676
# Velocity P-wave (km/s) = 5.68797 6.54344 6.13065
#
# Compressibility (1/GPa) = 0.02395965
#
# Stress axis : x y z
#
# Youngs Moduli (GPa) = 43.73956 99.87843 77.76098
#
# Poissons Ratio (x) = 0.36122 0.50237
# Poissons Ratio (y) = 0.15819 0.06302
# Poissons Ratio (z) = 0.28258 0.08094
#
# Static dielectric constant tensor:
#      x y z
#    x 3.080190 0.000040 0.172560 
#    y 0.000040 4.103810 0.000020 
#    z 0.172560 0.000020 4.257020 
# 
# 
# High freq. dielectric constant tensor:
#      x y z
#    x 1.708880 0.000000 0.016290 
#    y 0.000000 1.805500 0.000000 
#    z 0.016290 0.000000 1.800920 
# 
# From -- ./inp_files/246196.got.cif
#   From: 2010.06.25/outbox.cif.g09.slc.cpg/sg15_124_cif.got.tgz:246196.got - 2010.06.28 07:06:18.
