data_PCOD8136261
_publ_section_title
;
Structure prediction by ZEFSAII (Michael W. Deem and Ramdas Pophale) SiO2 
 PCOD8136261
Probable space group: C 2/C
;
_chemical_formula_sum "Si O2"
_cell_formula_units_Z 48
_cell_length_a 4.969302
_cell_length_b 23.300213
_cell_length_c 23.627684
_cell_angle_alpha 90.000000
_cell_angle_beta 70.419826
_cell_angle_gamma 90.000000
_cell_volume 2577.551244
_symmetry_space_group_name_H-M "C 2/C"
_symmetry_group_IT_number 15
_symmetry_cell_setting 'monoclinic'
loop_
_space_group_symop_operation_xyz
x,y,z
-x,y,1/2-z
-x,-y,-z
x,-y,1/2+z
1/2+x,1/2+y,z
1/2-x,1/2+y,1/2-z
1/2-x,1/2-y,-z
1/2+x,1/2-y,1/2+z
loop_
_atom_site_type_symbol
_atom_site_label
_atom_site_fract_x
_atom_site_fract_y
_atom_site_fract_z
Si Si1 0.867792 0.414908 0.818536
Si Si2 0.815467 0.062475 0.956444
Si Si3 0.362033 0.752296 0.579666
Si Si4 0.077528 0.312053 0.455550
Si Si5 0.631177 0.001803 0.079612
Si Si6 0.363365 0.338990 0.818563
O O1 0.881981 0.469333 0.858352
O O2 0.548785 0.390105 0.833696
O O3 0.000000 0.436190 0.750000
O O4 0.047776 0.362698 0.831172
O O5 0.709568 0.125084 0.947485
O O6 0.675552 0.019641 0.920357
O O7 0.156226 0.052967 0.929681
O O8 0.734078 0.048793 0.026874
O O9 0.665855 0.730225 0.580643
O O10 0.432474 0.797990 0.525726
O O11 0.170945 0.783319 0.640235
O O12 0.175575 0.697534 0.571887
O O13 0.500000 0.318284 0.750000
#
# Coordination Sequence:
#
# PCOD8136261 Si02
#       6
#     8   8   8   8   8   8
#     4  10  20  34  54  78 103 132 167 211 259 305
#     4  10  20  33  51  75 102 133 167 206 252 301
#     4  10  20  33  52  75 101 133 166 207 254 300
#     4  10  20  33  51  75 102 133 167 206 252 301
#     4  10  20  33  52  75 101 133 166 207 254 300
#     4  10  20  34  54  78 103 132 167 211 259 305
#
# _framework density 18.622326000000001
#
# number of rings (size 3 to 8) (size 9 to 14) (size 15 to 20)
#    0.000    2.000    0.000    4.000    0.000    5.333 
#    0.000    0.000    0.000    6.000    0.000    0.000 
#    0.000    0.000    0.000    0.000    0.000    0.000 
#
# Total GULP energy -297556.115192 kJ/mol
# GULP energy per Si atom -12398.171466 kJ/mol
# Density = 1.857994 g / cm^3
# Si number density = 18.622326 Si / 1000 Ang^3
#
#
#
# Elastic Constant Matrix: (Units=GPa)
#
#
# Indices 1 2 3 4 5 6 
#
# 1 78.7617 3.0800 29.0231 0.0000 4.8539 0.0000
# 2 3.0800 72.3607 46.7061 0.0000 5.2557 0.0000
# 3 29.0231 46.7061 85.4676 0.0000 7.2785 0.0000
# 4 0.0000 0.0000 0.0000 19.4032 0.0000 6.0558
# 5 4.8539 5.2557 7.2785 0.0000 21.0898 0.0000
# 6 0.0000 0.0000 0.0000 6.0558 0.0000 20.7333
#
#
#
# Elastic Compliance Matrix: (Units=1/GPa)
#
#
# Indices 1 2 3 4 5 6 
#
# 1 0.015372 0.004251 -0.007368 0.000000 -0.002054 0.000000
# 2 0.004251 0.022563 -0.013611 0.000000 -0.001904 0.000000
# 3 -0.007368 -0.013611 0.021849 0.000000 -0.002453 0.000000
# 4 0.000000 0.000000 0.000000 0.056707 0.000000 -0.016563
# 5 -0.002054 -0.001904 -0.002453 0.000000 0.049210 0.000000
# 6 0.000000 0.000000 0.000000 -0.016563 0.000000 0.053069
#
#
# Mechanical properties :
#
#
# Convention : Reuss Voigt Hill
#
# Bulk Modulus (GPa) = 37.98399 43.80093 40.89246
# Shear Modulus (GPa) = 19.15688 22.76400 20.96044
#
# Velocity S-wave (km/s) = 3.21082 3.50008 3.35857
# Velocity P-wave (km/s) = 5.84698 6.31711 6.08658
#
# Compressibility (1/GPa) = 0.02632688
#
# Stress axis : x y z
#
# Youngs Moduli (GPa) = 65.05357 44.32127 45.76772
#
# Poissons Ratio (x) = -0.18839 0.33721
# Poissons Ratio (y) = -0.27652 0.62296
# Poissons Ratio (z) = 0.47931 0.60327
#
# Static dielectric constant tensor:
#      x y z
#    x 3.764730 0.000000 0.029410 
#    y 0.000000 3.073570 0.000000 
#    z 0.029410 0.000000 3.301600 
# 
# 
# High freq. dielectric constant tensor:
#      x y z
#    x 1.750140 0.000000 0.000820 
#    y 0.000000 1.702930 0.000000 
#    z 0.000820 0.000000 1.700980 
# 
# From -- ./inp_files/260725.got.cif
#   From: 2010.06.25/outbox.cif.g09.slc.cpg/sg15_131_cif.got.tgz:260725.got - 2010.06.28 07:06:18.
