data_PCOD8136412
_publ_section_title
;
Structure prediction by ZEFSAII (Michael W. Deem and Ramdas Pophale) SiO2 
 PCOD8136412
Probable space group: C 2/C
;
_chemical_formula_sum "Si O2"
_cell_formula_units_Z 60
_cell_length_a 22.206238
_cell_length_b 26.540753
_cell_length_c 9.323155
_cell_angle_alpha 90.000000
_cell_angle_beta 36.548383
_cell_angle_gamma 90.000000
_cell_volume 3272.155328
_symmetry_space_group_name_H-M "C 2/C"
_symmetry_group_IT_number 15
_symmetry_cell_setting 'monoclinic'
loop_
_space_group_symop_operation_xyz
x,y,z
-x,y,1/2-z
-x,-y,-z
x,-y,1/2+z
1/2+x,1/2+y,z
1/2-x,1/2+y,1/2-z
1/2-x,1/2-y,-z
1/2+x,1/2-y,1/2+z
loop_
_atom_site_type_symbol
_atom_site_label
_atom_site_fract_x
_atom_site_fract_y
_atom_site_fract_z
Si Si1 0.073328 0.933685 0.861476
Si Si2 0.047242 0.841810 0.319143
Si Si3 0.109177 0.321839 0.049733
Si Si4 0.885164 0.322611 0.011557
Si Si5 0.252154 0.141214 0.000152
Si Si6 0.268073 0.192141 0.454290
Si Si7 0.105289 0.764904 0.789532
Si Si8 0.000000 0.001379 0.750000
O O1 0.179026 0.905911 0.637445
O O2 0.074988 0.964980 0.007671
O O3 0.063924 0.968021 0.738728
O O4 0.981583 0.893668 0.045113
O O5 0.000000 0.842929 0.250000
O O6 0.000323 0.795011 0.496518
O O7 0.168233 0.837322 0.090296
O O8 0.101597 0.270572 0.158020
O O9 0.000000 0.347765 0.250000
O O10 0.189470 0.360813 0.961056
O O11 0.139777 0.311974 0.830044
O O12 0.808514 0.328402 0.026763
O O13 0.000000 0.337092 0.750000
O O14 0.838563 0.362568 0.213145
O O15 0.881769 0.266624 0.087566
O O16 0.196457 0.195527 0.096212
O O17 0.250000 0.250000 0.500000
#
# Coordination Sequence:
#
# PCOD8136412 Si02
#       8
#     8   8   8   8   8   8   8   4
#     4  10  22  40  64  88 117 134 176 222 299 361
#     4  11  21  35  55  81 116 151 188 229 278 339
#     4  11  21  33  48  74 112 157 201 231 265 308
#     4  11  21  34  50  75 114 157 200 236 265 303
#     4  10  21  37  55  78 113 153 190 235 280 337
#     4  12  21  30  50  76 107 152 200 233 265 312
#     4  10  20  34  50  70 114 163 196 238 275 314
#     4  10  22  42  66  90 114 134 162 232 304 364
#
# _framework density 18.336538999999998
#
# number of rings (size 3 to 8) (size 9 to 14) (size 15 to 20)
#    0.000    1.333    0.667    9.200    1.867    0.000 
#    2.400    0.000    0.000    0.000    0.000    2.800 
#    0.000    0.000    0.000    0.000    0.000    0.000 
#
# Total GULP energy -371896.475702 kJ/mol
# GULP energy per Si atom -12396.549190 kJ/mol
# Density = 1.829480 g / cm^3
# Si number density = 18.336539 Si / 1000 Ang^3
#
#
#
# Elastic Constant Matrix: (Units=GPa)
#
#
# Indices 1 2 3 4 5 6 
#
# 1 79.9529 31.3044 26.9822 0.0000 -2.2636 0.0000
# 2 31.3044 83.2751 43.7882 0.0000 -1.1489 0.0000
# 3 26.9822 43.7882 125.4737 0.0000 -5.0709 0.0000
# 4 0.0000 0.0000 0.0000 21.6539 0.0000 0.1307
# 5 -2.2636 -1.1489 -5.0709 0.0000 40.0072 0.0000
# 6 0.0000 0.0000 0.0000 0.1307 0.0000 15.2920
#
#
#
# Elastic Compliance Matrix: (Units=1/GPa)
#
#
# Indices 1 2 3 4 5 6 
#
# 1 0.014913 -0.004805 -0.001509 0.000000 0.000514 0.000000
# 2 -0.004805 0.016258 -0.004656 0.000000 -0.000395 0.000000
# 3 -0.001509 -0.004656 0.009961 0.000000 0.001044 0.000000
# 4 0.000000 0.000000 0.000000 0.046183 0.000000 -0.000395
# 5 0.000514 -0.000395 0.001044 0.000000 0.025146 0.000000
# 6 0.000000 0.000000 0.000000 -0.000395 0.000000 0.065397
#
#
# Mechanical properties :
#
#
# Convention : Reuss Voigt Hill
#
# Bulk Modulus (GPa) = 52.10918 54.76126 53.43522
# Shear Modulus (GPa) = 24.24876 27.83241 26.04058
#
# Velocity S-wave (km/s) = 3.64047 3.90021 3.77257
# Velocity P-wave (km/s) = 6.79342 7.08601 6.94126
#
# Compressibility (1/GPa) = 0.01919048
#
# Stress axis : x y z
#
# Youngs Moduli (GPa) = 67.05720 61.50930 100.38687
#
# Poissons Ratio (x) = 0.29557 0.15150
# Poissons Ratio (y) = 0.32223 0.46743
# Poissons Ratio (z) = 0.10120 0.28641
#
# Static dielectric constant tensor:
#      x y z
#    x 3.610770 0.000000 -0.068170 
#    y 0.000000 3.149920 0.000000 
#    z -0.068170 0.000000 3.758550 
# 
# 
# High freq. dielectric constant tensor:
#      x y z
#    x 1.717380 0.000000 0.008180 
#    y 0.000000 1.662320 0.000000 
#    z 0.008180 0.000000 1.733030 
# 
# From -- ./inp_files/59111.got.cif
#   From: 2010.06.25/outbox.cif.g09.slc.cpg/sg15_30_cif.got.tgz:59111.got - 2010.06.28 07:06:18.
