data_PCOD8136206
_publ_section_title
;
Structure prediction by ZEFSAII (Michael W. Deem and Ramdas Pophale) SiO2 
 PCOD8136206
Probable space group: C 2/C
;
_chemical_formula_sum "Si O2"
_cell_formula_units_Z 44
_cell_length_a 10.152294
_cell_length_b 16.212901
_cell_length_c 21.838023
_cell_angle_alpha 90.000000
_cell_angle_beta 139.959931
_cell_angle_gamma 90.000000
_cell_volume 2312.423810
_symmetry_space_group_name_H-M "C 2/C"
_symmetry_group_IT_number 15
_symmetry_cell_setting 'monoclinic'
loop_
_space_group_symop_operation_xyz
x,y,z
-x,y,1/2-z
-x,-y,-z
x,-y,1/2+z
1/2+x,1/2+y,z
1/2-x,1/2+y,1/2-z
1/2-x,1/2-y,-z
1/2+x,1/2-y,1/2+z
loop_
_atom_site_type_symbol
_atom_site_label
_atom_site_fract_x
_atom_site_fract_y
_atom_site_fract_z
Si Si1 0.794218 0.540357 0.905069
Si Si2 0.000000 0.085611 0.250000
Si Si3 0.333397 0.947261 0.139896
Si Si4 0.577123 0.476729 0.450534
Si Si5 0.542811 0.652670 0.391345
Si Si6 0.014456 0.331648 0.409583
O O1 0.695133 0.472805 0.826216
O O2 0.652955 0.561333 0.913528
O O3 0.828474 0.621330 0.876361
O O4 0.000000 0.500000 0.000000
O O5 0.960316 0.143603 0.293550
O O6 0.500000 0.977513 0.250000
O O7 0.429855 0.869450 0.137635
O O8 0.116803 0.922681 0.095567
O O9 0.267245 0.018850 0.066998
O O10 0.490749 0.570925 0.411946
O O11 0.788527 0.662259 0.476514
O O12 0.441924 0.736590 0.380565
#
# Coordination Sequence:
#
# PCOD8136206 Si02
#       6
#     8   4   8   8   8   8
#     4  11  19  36  58  88 109 149 193 238 270 337
#     4  10  20  32  58  84 112 146 198 224 282 338
#     4  10  20  33  55  82 107 146 184 227 269 338
#     4   9  20  36  55  79 112 142 186 228 280 317
#     4   9  19  35  55  83 113 145 182 234 278 337
#     4  10  20  36  58  81 113 146 187 231 286 323
#
# _framework density 19.027654999999999
#
# number of rings (size 3 to 8) (size 9 to 14) (size 15 to 20)
#    0.000    2.182    5.455    0.000    6.364    0.000 
#    0.000    0.000    2.000   21.818    0.000    0.000 
#    0.000    0.000    0.000    0.000    0.000    0.000 
#
# Total GULP energy -272581.262251 kJ/mol
# GULP energy per Si atom -12390.057375 kJ/mol
# Density = 1.898435 g / cm^3
# Si number density = 19.027655 Si / 1000 Ang^3
#
#
#
# Elastic Constant Matrix: (Units=GPa)
#
#
# Indices 1 2 3 4 5 6 
#
# 1 127.3667 52.6123 24.7388 0.0001 -15.2393 0.0000
# 2 52.6123 94.4112 24.8944 0.0001 -5.3345 0.0000
# 3 24.7388 24.8944 127.5004 0.0002 -15.4044 0.0001
# 4 0.0001 0.0001 0.0002 13.8146 0.0001 2.6350
# 5 -15.2393 -5.3345 -15.4044 0.0001 27.3699 0.0000
# 6 0.0000 0.0000 0.0001 2.6350 0.0000 22.8788
#
#
#
# Elastic Compliance Matrix: (Units=1/GPa)
#
#
# Indices 1 2 3 4 5 6 
#
# 1 0.010833 -0.005659 -0.000431 0.000000 0.004686 0.000000
# 2 -0.005659 0.014149 -0.001837 0.000000 -0.001427 0.000000
# 3 -0.000431 -0.001837 0.008812 0.000000 0.004362 0.000000
# 4 0.000000 0.000000 0.000000 0.074013 0.000000 -0.008524
# 5 0.004686 -0.001427 0.004362 0.000000 0.041323 0.000000
# 6 0.000000 0.000000 0.000000 -0.008524 0.000000 0.044690
#
#
# Mechanical properties :
#
#
# Convention : Reuss Voigt Hill
#
# Bulk Modulus (GPa) = 55.73649 61.52992 58.63321
# Shear Modulus (GPa) = 23.18526 29.28153 26.23340
#
# Velocity S-wave (km/s) = 3.49449 3.92713 3.71711
# Velocity P-wave (km/s) = 6.75559 7.27808 7.02169
#
# Compressibility (1/GPa) = 0.01794157
#
# Stress axis : x y z
#
# Youngs Moduli (GPa) = 92.30884 70.67594 113.47643
#
# Poissons Ratio (x) = 0.39992 0.04890
# Poissons Ratio (y) = 0.52234 0.20847
# Poissons Ratio (z) = 0.03978 0.12984
#
# Static dielectric constant tensor:
#      x y z
#    x 3.647040 0.000000 -0.188040 
#    y 0.000000 3.450180 0.000000 
#    z -0.188040 0.000000 3.563500 
# 
# 
# High freq. dielectric constant tensor:
#      x y z
#    x 1.728930 0.000000 -0.018130 
#    y 0.000000 1.702660 0.000000 
#    z -0.018130 0.000000 1.748850 
# 
# From -- ./inp_files/269817.got.cif
#   From: 2010.06.25/outbox.cif.g09.slc.cpg/sg15_135_cif.got.tgz:269817.got - 2010.06.28 07:06:18.
