data_PCOD8136677
_publ_section_title
;
Structure prediction by ZEFSAII (Michael W. Deem and Ramdas Pophale) SiO2 
 PCOD8136677
Probable space group: C 2/C
;
_chemical_formula_sum "Si O2"
_cell_formula_units_Z 48
_cell_length_a 14.246507
_cell_length_b 16.731493
_cell_length_c 29.623240
_cell_angle_alpha 90.000000
_cell_angle_beta 159.859054
_cell_angle_gamma 90.000000
_cell_volume 2431.372073
_symmetry_space_group_name_H-M "C 2/C"
_symmetry_group_IT_number 15
_symmetry_cell_setting 'monoclinic'
loop_
_space_group_symop_operation_xyz
x,y,z
-x,y,1/2-z
-x,-y,-z
x,-y,1/2+z
1/2+x,1/2+y,z
1/2-x,1/2+y,1/2-z
1/2-x,1/2-y,-z
1/2+x,1/2-y,1/2+z
loop_
_atom_site_type_symbol
_atom_site_label
_atom_site_fract_x
_atom_site_fract_y
_atom_site_fract_z
Si Si1 0.656884 0.769064 0.669742
Si Si2 0.378507 0.333776 0.111808
Si Si3 0.334183 0.347196 0.571127
Si Si4 0.500000 0.806569 0.250000
Si Si5 0.406843 0.316103 0.506485
Si Si6 0.304313 0.496416 0.620144
Si Si7 0.000000 0.721303 0.250000
O O1 0.600367 0.689086 0.673814
O O2 0.402070 0.822737 0.541356
O O3 0.807727 0.749750 0.692012
O O4 0.848918 0.824001 0.786507
O O5 0.412972 0.423064 0.145591
O O6 0.401325 0.273990 0.163780
O O7 0.282284 0.359561 0.494356
O O8 0.142221 0.279813 0.508044
O O9 0.296165 0.429971 0.578501
O O10 0.714236 0.853101 0.379369
O O11 0.730021 0.330783 0.641904
O O12 0.500000 0.473326 0.750000
O O13 0.000000 0.500000 0.500000
#
# Coordination Sequence:
#
# PCOD8136677 Si02
#       7
#     8   8   8   4   8   8   4
#     4  10  21  37  60  86 120 163 211 251 292 352
#     4  11  22  37  59  92 124 159 204 250 303 363
#     4  10  22  39  55  86 121 166 195 247 309 361
#     4  10  20  34  59  85 108 152 202 264 288 340
#     4  10  21  35  60  81 119 153 209 244 293 353
#     4  12  26  38  61  91 132 161 190 249 325 379
#     4  12  18  36  57  91 116 152 200 256 288 354
#
# _framework density 19.741938999999999
#
# number of rings (size 3 to 8) (size 9 to 14) (size 15 to 20)
#    0.000    1.333    4.167    2.000    7.000    0.000 
#    0.000    0.000    0.000    2.000    0.000    0.000 
#    0.000    0.000    0.000    0.000    0.000    0.000 
#
# Total GULP energy -297368.745563 kJ/mol
# GULP energy per Si atom -12390.364398 kJ/mol
# Density = 1.969701 g / cm^3
# Si number density = 19.741939 Si / 1000 Ang^3
#
#
#
# Elastic Constant Matrix: (Units=GPa)
#
#
# Indices 1 2 3 4 5 6 
#
# 1 126.6775 38.6078 40.5253 -0.0153 -0.0407 0.0044
# 2 38.6078 64.2722 11.5634 -0.0225 0.4657 -0.0042
# 3 40.5253 11.5634 119.2906 0.0074 1.6100 -0.0202
# 4 -0.0153 -0.0225 0.0074 -1.1110 -0.0011 -4.9991
# 5 -0.0407 0.4657 1.6100 -0.0011 40.6095 -0.0061
# 6 0.0044 -0.0042 -0.0202 -4.9991 -0.0061 32.2787
#
#
#
# Elastic Compliance Matrix: (Units=1/GPa)
#
#
# Indices 1 2 3 4 5 6 
#
# 1 0.010655 -0.005852 -0.003055 -0.000018 0.000199 -0.000007
# 2 -0.005852 0.019050 0.000145 -0.000188 -0.000230 -0.000026
# 3 -0.003055 0.000145 0.009412 0.000044 -0.000378 0.000013
# 4 -0.000018 -0.000188 0.000044 -0.530431 -0.000027 -0.082150
# 5 0.000199 -0.000230 -0.000378 -0.000027 0.024643 0.000000
# 6 -0.000007 -0.000026 0.000013 -0.082150 0.000000 0.018257
#
#
# Mechanical properties :
#
#
# Convention : Reuss Voigt Hill
#
# Bulk Modulus (GPa) = 46.31498 54.62594 50.47046
# Shear Modulus (GPa) = -11.80104 28.99168 8.59532
#
# Velocity S-wave (km/s) = -2.44758 3.83630 2.08885
# Velocity P-wave (km/s) = 3.94000 6.88135 5.60699
#
# Compressibility (1/GPa) = 0.02159129
#
# Stress axis : x y z
#
# Youngs Moduli (GPa) = 93.85194 52.49405 106.24895
#
# Poissons Ratio (x) = 0.30721 0.32461
# Poissons Ratio (y) = 0.54924 -0.01537
# Poissons Ratio (z) = 0.28673 -0.00759
#
# Static dielectric constant tensor:
#      x y z
#    x 4.008150 0.000580 -0.082610 
#    y 0.000580 3.242510 0.000040 
#    z -0.082610 0.000040 4.167930 
# 
# 
# High freq. dielectric constant tensor:
#      x y z
#    x 1.792910 0.000000 -0.006550 
#    y 0.000000 1.700020 -0.000010 
#    z -0.006550 -0.000010 1.800250 
# 
# From -- ./inp_files/205308.got.cif
#   From: 2010.06.25/outbox.cif.g09.slc.cpg/sg15_103_cif.got.tgz:205308.got - 2010.06.28 07:06:18.
