data_PCOD8136989
_publ_section_title
;
Structure prediction by ZEFSAII (Michael W. Deem and Ramdas Pophale) SiO2 
 PCOD8136989
Probable space group: C 2/C
;
_chemical_formula_sum "Si O2"
_cell_formula_units_Z 64
_cell_length_a 19.622741
_cell_length_b 19.595782
_cell_length_c 11.843877
_cell_angle_alpha 90.000000
_cell_angle_beta 135.431784
_cell_angle_gamma 90.000000
_cell_volume 3195.975978
_symmetry_space_group_name_H-M "C 2/C"
_symmetry_group_IT_number 15
_symmetry_cell_setting 'monoclinic'
loop_
_space_group_symop_operation_xyz
x,y,z
-x,y,1/2-z
-x,-y,-z
x,-y,1/2+z
1/2+x,1/2+y,z
1/2-x,1/2+y,1/2-z
1/2-x,1/2-y,-z
1/2+x,1/2-y,1/2+z
loop_
_atom_site_type_symbol
_atom_site_label
_atom_site_fract_x
_atom_site_fract_y
_atom_site_fract_z
Si Si1 0.112872 0.003965 0.615063
Si Si2 0.392087 0.305330 0.653721
Si Si3 0.262339 0.562346 0.547730
Si Si4 0.274590 0.428911 0.441855
Si Si5 0.676481 0.857899 0.132432
Si Si6 0.184120 0.134996 0.114654
Si Si7 0.332458 0.245265 0.356863
Si Si8 0.452149 0.256819 0.963014
O O1 0.163120 0.929494 0.670730
O O2 0.149910 0.048438 0.763165
O O3 0.134711 0.043159 0.524456
O O4 0.000000 0.000000 0.500000
O O5 0.500000 0.331118 0.750000
O O6 0.318958 0.369638 0.573326
O O7 0.352650 0.251452 0.514648
O O8 0.394404 0.267455 0.776415
O O9 0.226387 0.489597 0.457191
O O10 0.175330 0.597278 0.516460
O O11 0.299433 0.612686 0.494463
O O12 0.188798 0.404428 0.257995
O O13 0.765695 0.805285 0.231318
O O14 0.575698 0.817511 0.021834
O O15 0.281970 0.172594 0.273967
O O16 0.089174 0.184068 0.003822
O O17 0.432630 0.256267 0.407961
#
# Coordination Sequence:
#
# PCOD8136989 Si02
#       8
#     8   8   8   8   8   8   8   8
#     4  10  22  34  54  83 112 146 184 226 277 345
#     4   9  18  31  55  83 111 141 185 235 285 333
#     4  10  21  37  53  78 116 148 182 231 286 337
#     4   9  19  32  52  78 109 145 176 233 284 330
#     4   9  20  37  54  79 113 143 188 236 274 337
#     4  10  22  36  57  84 115 147 186 232 285 338
#     4   9  20  37  54  82 114 145 186 237 279 335
#     4  10  20  35  58  82 110 152 190 231 282 332
#
# _framework density 20.025181
#
# number of rings (size 3 to 8) (size 9 to 14) (size 15 to 20)
#    0.000    2.500    0.000    0.750    8.750    9.000 
#    0.000    1.875    0.000    8.250    0.000    0.000 
#    0.000    0.000    0.000    0.000    0.000    0.000 
#
# Total GULP energy -396740.482699 kJ/mol
# GULP energy per Si atom -12398.140084 kJ/mol
# Density = 1.997960 g / cm^3
# Si number density = 20.025181 Si / 1000 Ang^3
#
#
#
# Elastic Constant Matrix: (Units=GPa)
#
#
# Indices 1 2 3 4 5 6 
#
# 1 67.0366 46.7804 28.5151 0.0000 -9.0674 0.0000
# 2 46.7804 110.4804 36.2104 0.0000 -8.6609 0.0000
# 3 28.5151 36.2104 52.1799 0.0000 -7.2059 0.0000
# 4 0.0000 0.0000 0.0000 26.4619 0.0000 -7.8802
# 5 -9.0674 -8.6609 -7.2059 0.0000 29.9351 0.0000
# 6 0.0000 0.0000 0.0000 -7.8802 0.0000 38.5570
#
#
#
# Elastic Compliance Matrix: (Units=1/GPa)
#
#
# Indices 1 2 3 4 5 6 
#
# 1 0.023602 -0.007324 -0.007365 0.000000 0.003257 0.000000
# 2 -0.007324 0.014053 -0.005683 0.000000 0.000479 0.000000
# 3 -0.007365 -0.005683 0.027513 0.000000 0.002748 0.000000
# 4 0.000000 0.000000 0.000000 0.040239 0.000000 0.008224
# 5 0.003257 0.000479 0.002748 0.000000 0.035192 0.000000
# 6 0.000000 0.000000 0.000000 0.008224 0.000000 0.027616
#
#
# Mechanical properties :
#
#
# Convention : Reuss Voigt Hill
#
# Bulk Modulus (GPa) = 40.94726 50.30097 45.62411
# Shear Modulus (GPa) = 23.03062 26.87021 24.95041
#
# Velocity S-wave (km/s) = 3.39497 3.66706 3.53363
# Velocity P-wave (km/s) = 5.98832 6.56530 6.28344
#
# Compressibility (1/GPa) = 0.02442166
#
# Stress axis : x y z
#
# Youngs Moduli (GPa) = 42.36944 71.15909 36.34664
#
# Poissons Ratio (x) = 0.52119 0.26771
# Poissons Ratio (y) = 0.31033 0.20657
# Poissons Ratio (z) = 0.31207 0.40442
#
# Static dielectric constant tensor:
#      x y z
#    x 3.690160 0.000000 -0.194100 
#    y 0.000000 3.908120 0.000000 
#    z -0.194100 0.000000 3.397600 
# 
# 
# High freq. dielectric constant tensor:
#      x y z
#    x 1.776410 0.000000 -0.018780 
#    y 0.000000 1.788450 0.000000 
#    z -0.018780 0.000000 1.755510 
# 
# From -- ./inp_files/114293.got.cif
#   From: 2010.06.25/outbox.cif.g09.slc.cpg/sg15_58_cif.got.tgz:114293.got - 2010.06.28 07:06:18.
