data_PCOD8136349
_publ_section_title
;
Structure prediction by ZEFSAII (Michael W. Deem and Ramdas Pophale) SiO2 
 PCOD8136349
Probable space group: C 2/C
;
_chemical_formula_sum "Si O2"
_cell_formula_units_Z 64
_cell_length_a 27.462222
_cell_length_b 13.355088
_cell_length_c 17.078884
_cell_angle_alpha 90.000000
_cell_angle_beta 32.454535
_cell_angle_gamma 90.000000
_cell_volume 3361.375446
_symmetry_space_group_name_H-M "C 2/C"
_symmetry_group_IT_number 15
_symmetry_cell_setting 'monoclinic'
loop_
_space_group_symop_operation_xyz
x,y,z
-x,y,1/2-z
-x,-y,-z
x,-y,1/2+z
1/2+x,1/2+y,z
1/2-x,1/2+y,1/2-z
1/2-x,1/2-y,-z
1/2+x,1/2-y,1/2+z
loop_
_atom_site_type_symbol
_atom_site_label
_atom_site_fract_x
_atom_site_fract_y
_atom_site_fract_z
Si Si1 0.712029 0.402955 0.443215
Si Si2 0.335976 0.193734 0.057566
Si Si3 0.794178 0.249862 0.131559
Si Si4 0.605459 0.594125 0.615271
Si Si5 0.497776 0.092890 0.901375
Si Si6 0.327314 0.049457 0.929712
Si Si7 0.728012 0.348253 0.077806
Si Si8 0.885141 0.592200 0.608924
O O1 0.668411 0.296300 0.484274
O O2 0.631427 0.483384 0.551458
O O3 0.758679 0.394917 0.464387
O O4 0.787255 0.436333 0.277527
O O5 0.263255 0.191020 0.225964
O O6 0.438245 0.186210 0.952227
O O7 0.313705 0.099414 0.032550
O O8 0.724711 0.319288 0.174329
O O9 0.872384 0.317146 0.065498
O O10 0.842851 0.172474 0.009132
O O11 0.500000 0.611681 0.750000
O O12 0.634425 0.608582 0.667688
O O13 0.569362 0.061094 0.738434
O O14 0.546222 0.126392 0.915689
O O15 0.426781 0.002699 0.008961
O O16 0.306745 0.931171 0.960010
O O17 0.750000 0.250000 0.000000
#
# Coordination Sequence:
#
# PCOD8136349 Si02
#       8
#     8   8   8   8   8   8   8   8
#     4   9  20  38  54  75 113 155 186 215 272 337
#     4  11  21  34  56  81 112 148 182 226 275 327
#     4  10  21  36  56  79 109 147 183 222 279 336
#     4  10  21  36  56  80 107 141 183 229 270 323
#     4  10  20  33  56  87 113 139 182 237 282 323
#     4  10  20  36  58  84 111 143 186 230 275 328
#     4   9  20  38  59  81 108 144 180 221 277 332
#     4   9  19  35  56  82 112 144 177 228 283 328
#
# _framework density 19.039826000000001
#
# number of rings (size 3 to 8) (size 9 to 14) (size 15 to 20)
#    0.000    2.250    0.000    2.250    0.000    8.000 
#    0.000    2.500    0.000    6.750    0.000    0.000 
#    0.000    0.000    0.000    0.000    0.000    0.000 
#
# Total GULP energy -396749.106284 kJ/mol
# GULP energy per Si atom -12398.409571 kJ/mol
# Density = 1.899649 g / cm^3
# Si number density = 19.039826 Si / 1000 Ang^3
#
#
#
# Elastic Constant Matrix: (Units=GPa)
#
#
# Indices 1 2 3 4 5 6 
#
# 1 123.0194 64.1251 57.3716 0.0000 0.0362 0.0000
# 2 64.1251 111.6685 44.4880 0.0000 -4.3437 0.0000
# 3 57.3716 44.4880 77.8798 0.0000 -2.3877 0.0000
# 4 0.0000 0.0000 0.0000 25.8844 0.0000 -1.4520
# 5 0.0362 -4.3437 -2.3877 0.0000 30.2310 0.0000
# 6 0.0000 0.0000 0.0000 -1.4520 0.0000 38.0091
#
#
#
# Elastic Compliance Matrix: (Units=1/GPa)
#
#
# Indices 1 2 3 4 5 6 
#
# 1 0.014475 -0.005309 -0.007673 0.000000 -0.001386 0.000000
# 2 -0.005309 0.013581 -0.003796 0.000000 0.001658 0.000000
# 3 -0.007673 -0.003796 0.020695 0.000000 0.001098 0.000000
# 4 0.000000 0.000000 0.000000 0.038716 0.000000 0.001479
# 5 -0.001386 0.001658 0.001098 0.000000 0.033405 0.000000
# 6 0.000000 0.000000 0.000000 0.001479 0.000000 0.026366
#
#
# Mechanical properties :
#
#
# Convention : Reuss Voigt Hill
#
# Bulk Modulus (GPa) = 65.81395 71.61525 68.71460
# Shear Modulus (GPa) = 26.90213 28.59710 27.74962
#
# Velocity S-wave (km/s) = 3.76299 3.87972 3.82180
# Velocity P-wave (km/s) = 7.31585 7.60031 7.45943
#
# Compressibility (1/GPa) = 0.01519435
#
# Stress axis : x y z
#
# Youngs Moduli (GPa) = 69.08392 73.63432 48.32153
#
# Poissons Ratio (x) = 0.39095 0.37077
# Poissons Ratio (y) = 0.36679 0.18342
# Poissons Ratio (z) = 0.53008 0.27950
#
# Static dielectric constant tensor:
#      x y z
#    x 3.930800 0.000000 0.066960 
#    y 0.000000 3.491860 0.000000 
#    z 0.066960 0.000000 3.289330 
# 
# 
# High freq. dielectric constant tensor:
#      x y z
#    x 1.761480 0.000000 0.004860 
#    y 0.000000 1.739660 0.000000 
#    z 0.004860 0.000000 1.718880 
# 
# From -- ./inp_files/177791.got.cif
#   From: 2010.06.25/outbox.cif.g09.slc.cpg/sg15_89_cif.got.tgz:177791.got - 2010.06.28 07:06:18.
