data_PCOD8136902
_publ_section_title
;
Structure prediction by ZEFSAII (Michael W. Deem and Ramdas Pophale) SiO2 
 PCOD8136902
Probable space group: C 2/C
;
_chemical_formula_sum "Si O2"
_cell_formula_units_Z 40
_cell_length_a 10.739798
_cell_length_b 15.078177
_cell_length_c 12.314755
_cell_angle_alpha 90.000000
_cell_angle_beta 101.720128
_cell_angle_gamma 90.000000
_cell_volume 1952.632999
_symmetry_space_group_name_H-M "C 2/C"
_symmetry_group_IT_number 15
_symmetry_cell_setting 'monoclinic'
loop_
_space_group_symop_operation_xyz
x,y,z
-x,y,1/2-z
-x,-y,-z
x,-y,1/2+z
1/2+x,1/2+y,z
1/2-x,1/2+y,1/2-z
1/2-x,1/2-y,-z
1/2+x,1/2-y,1/2+z
loop_
_atom_site_type_symbol
_atom_site_label
_atom_site_fract_x
_atom_site_fract_y
_atom_site_fract_z
Si Si1 0.170033 0.591074 0.181636
Si Si2 0.710457 0.098340 0.940261
Si Si3 0.629205 0.455558 0.625458
Si Si4 0.500000 0.765681 0.750000
Si Si5 0.977515 0.133795 0.929273
Si Si6 0.500000 0.944567 0.250000
O O1 0.168091 0.614470 0.055207
O O2 0.314303 0.574757 0.248712
O O3 0.120077 0.674382 0.241758
O O4 0.082946 0.504792 0.183293
O O5 0.668492 0.338151 0.066597
O O6 0.754116 0.995593 0.927391
O O7 0.591311 0.118184 0.839327
O O8 0.525323 0.534389 0.624616
O O9 0.564857 0.372108 0.552706
O O10 0.539577 0.703793 0.858408
#
# Coordination Sequence:
#
# PCOD8136902 Si02
#       6
#     8   8   8   4   8   4
#     4  10  20  35  56  85 119 151 186 237 288 342
#     4   9  18  34  58  81 107 150 197 231 269 339
#     4   8  19  36  59  87 106 155 199 232 270 340
#     4  11  24  36  54  86 129 144 178 245 304 328
#     4   9  20  36  56  85 113 152 192 239 278 338
#     4   9  18  34  54  86 111 148 194 237 274 328
#
# _framework density 20.48516
#
# number of rings (size 3 to 8) (size 9 to 14) (size 15 to 20)
#    1.200    1.600    0.000    0.600    2.800    2.400 
#    0.000    2.000    0.000    0.000    0.000    0.000 
#    0.000    0.000    0.000    0.000    0.000    0.000 
#
# Total GULP energy -247836.055032 kJ/mol
# GULP energy per Si atom -12391.802752 kJ/mol
# Density = 2.043854 g / cm^3
# Si number density = 20.485160 Si / 1000 Ang^3
#
#
#
# Elastic Constant Matrix: (Units=GPa)
#
#
# Indices 1 2 3 4 5 6 
#
# 1 70.0702 9.9167 57.7418 0.0000 12.4986 0.0000
# 2 9.9167 39.3423 22.4967 0.0000 -4.3027 0.0000
# 3 57.7418 22.4967 134.6539 0.0000 12.6451 0.0000
# 4 0.0000 0.0000 0.0000 26.8881 0.0000 -9.8349
# 5 12.4986 -4.3027 12.6451 0.0000 43.9261 0.0000
# 6 0.0000 0.0000 0.0000 -9.8349 0.0000 14.2891
#
#
#
# Elastic Compliance Matrix: (Units=1/GPa)
#
#
# Indices 1 2 3 4 5 6 
#
# 1 0.022683 -0.000873 -0.009216 0.000000 -0.003887 0.000000
# 2 -0.000873 0.028918 -0.004878 0.000000 0.004485 0.000000
# 3 -0.009216 -0.004878 0.012325 0.000000 -0.001404 0.000000
# 4 0.000000 0.000000 0.000000 0.049704 0.000000 0.034210
# 5 -0.003887 0.004485 -0.001404 0.000000 0.024715 0.000000
# 6 0.000000 0.000000 0.000000 0.034210 0.000000 0.093529
#
#
# Mechanical properties :
#
#
# Convention : Reuss Voigt Hill
#
# Bulk Modulus (GPa) = 29.41869 47.15300 38.28584
# Shear Modulus (GPa) = 18.30573 27.28142 22.79357
#
# Velocity S-wave (km/s) = 2.99257 3.65329 3.33932
# Velocity P-wave (km/s) = 5.13155 6.39246 5.79639
#
# Compressibility (1/GPa) = 0.03399200
#
# Stress axis : x y z
#
# Youngs Moduli (GPa) = 44.08676 34.58060 81.13446
#
# Poissons Ratio (x) = 0.03018 0.74773
# Poissons Ratio (y) = 0.03847 0.39580
# Poissons Ratio (z) = 0.40630 0.16870
#
# Static dielectric constant tensor:
#      x y z
#    x 3.596340 0.000000 0.169600 
#    y 0.000000 3.296060 0.000000 
#    z 0.169600 0.000000 3.526470 
# 
# 
# High freq. dielectric constant tensor:
#      x y z
#    x 1.790180 0.000000 0.010530 
#    y 0.000000 1.757950 0.000000 
#    z 0.010530 0.000000 1.799090 
# 
# From -- ./inp_files/85755.got.cif
#   From: 2010.06.25/outbox.cif.g09.slc.cpg/sg15_43_cif.got.tgz:85755.got - 2010.06.28 07:06:18.
