data_PCOD8136933
_publ_section_title
;
Structure prediction by ZEFSAII (Michael W. Deem and Ramdas Pophale) SiO2 
 PCOD8136933
Probable space group: C 2/C
;
_chemical_formula_sum "Si O2"
_cell_formula_units_Z 64
_cell_length_a 22.745975
_cell_length_b 11.202969
_cell_length_c 15.748088
_cell_angle_alpha 90.000000
_cell_angle_beta 60.335091
_cell_angle_gamma 90.000000
_cell_volume 3487.006153
_symmetry_space_group_name_H-M "C 2/C"
_symmetry_group_IT_number 15
_symmetry_cell_setting 'monoclinic'
loop_
_space_group_symop_operation_xyz
x,y,z
-x,y,1/2-z
-x,-y,-z
x,-y,1/2+z
1/2+x,1/2+y,z
1/2-x,1/2+y,1/2-z
1/2-x,1/2-y,-z
1/2+x,1/2-y,1/2+z
loop_
_atom_site_type_symbol
_atom_site_label
_atom_site_fract_x
_atom_site_fract_y
_atom_site_fract_z
Si Si1 0.473942 0.325882 0.172580
Si Si2 0.867560 0.369251 0.759248
Si Si3 0.856009 0.603428 0.681418
Si Si4 0.404514 0.292613 0.542140
Si Si5 0.718220 0.264613 0.313807
Si Si6 0.139136 0.020249 0.821561
Si Si7 0.190496 0.335493 0.521127
Si Si8 0.230102 0.465610 0.882807
O O1 0.500000 0.341649 0.250000
O O2 0.435281 0.201360 0.186094
O O3 0.425901 0.438679 0.186224
O O4 0.532636 0.325254 0.060899
O O5 0.879248 0.511738 0.738444
O O6 0.802693 0.315412 0.754374
O O7 0.859579 0.350027 0.864908
O O8 0.917237 0.692511 0.607550
O O9 0.793813 0.687452 0.752119
O O10 0.833681 0.515194 0.623073
O O11 0.377940 0.412899 0.604106
O O12 0.346265 0.228863 0.530141
O O13 0.664930 0.371698 0.363723
O O14 0.718280 0.177502 0.396508
O O15 0.198018 0.990287 0.712910
O O16 0.250000 0.250000 0.500000
O O17 0.224429 0.465134 0.475996
#
# Coordination Sequence:
#
# PCOD8136933 Si02
#       8
#     8   8   8   8   8   8   8   8
#     4  11  22  38  56  81 111 146 191 241 269 322
#     4  10  20  36  55  81 113 140 187 232 278 324
#     4   9  18  32  56  82 107 142 176 230 275 335
#     4  11  21  36  59  82 110 150 195 224 281 335
#     4   9  17  34  57  81 114 143 175 231 279 340
#     4  10  20  35  57  83 112 148 188 229 274 341
#     4  11  21  32  56  86 111 145 181 235 285 333
#     4   9  18  32  55  83 113 138 180 223 283 341
#
# _framework density 18.353853999999998
#
# number of rings (size 3 to 8) (size 9 to 14) (size 15 to 20)
#    0.000    2.000    2.500    3.375    3.500    0.500 
#    0.000    0.625    2.750    0.750    0.000    0.000 
#    0.000    0.000    0.000    0.000    0.000    0.000 
#
# Total GULP energy -396459.939439 kJ/mol
# GULP energy per Si atom -12389.373107 kJ/mol
# Density = 1.831208 g / cm^3
# Si number density = 18.353854 Si / 1000 Ang^3
#
#
#
# Elastic Constant Matrix: (Units=GPa)
#
#
# Indices 1 2 3 4 5 6 
#
# 1 55.9741 33.9022 21.0938 0.0000 -1.8822 0.0000
# 2 33.9022 140.6354 50.9682 0.0000 7.9078 0.0000
# 3 21.0938 50.9682 92.7351 0.0000 -7.1321 0.0000
# 4 0.0000 0.0000 0.0000 26.5653 0.0000 6.6393
# 5 -1.8822 7.9078 -7.1321 0.0000 20.4867 0.0000
# 6 0.0000 0.0000 0.0000 6.6393 0.0000 24.3056
#
#
#
# Elastic Compliance Matrix: (Units=1/GPa)
#
#
# Indices 1 2 3 4 5 6 
#
# 1 0.021554 -0.004585 -0.002152 0.000000 0.003001 0.000000
# 2 -0.004585 0.010444 -0.005179 0.000000 -0.006256 0.000000
# 3 -0.002152 -0.005179 0.014650 0.000000 0.006901 0.000000
# 4 0.000000 0.000000 0.000000 0.040401 0.000000 -0.011036
# 5 0.003001 -0.006256 0.006901 0.000000 0.053905 0.000000
# 6 0.000000 0.000000 0.000000 -0.011036 0.000000 0.044157
#
#
# Mechanical properties :
#
#
# Convention : Reuss Voigt Hill
#
# Bulk Modulus (GPa) = 43.82598 55.69698 49.76148
# Shear Modulus (GPa) = 23.08950 26.49689 24.79319
#
# Velocity S-wave (km/s) = 3.55070 3.80369 3.67937
# Velocity P-wave (km/s) = 6.38280 7.05002 6.72469
#
# Compressibility (1/GPa) = 0.02281752
#
# Stress axis : x y z
#
# Youngs Moduli (GPa) = 46.39467 95.74584 68.25978
#
# Poissons Ratio (x) = 0.43896 0.14691
# Poissons Ratio (y) = 0.21270 0.35349
# Poissons Ratio (z) = 0.09985 0.49583
#
# Static dielectric constant tensor:
#      x y z
#    x 3.200110 0.000000 -0.076240 
#    y 0.000000 3.815210 0.000000 
#    z -0.076240 0.000000 3.100400 
# 
# 
# High freq. dielectric constant tensor:
#      x y z
#    x 1.682600 0.000000 -0.007390 
#    y 0.000000 1.728350 0.000000 
#    z -0.007390 0.000000 1.699320 
# 
# From -- ./inp_files/219103.got.cif
#   From: 2010.06.25/outbox.cif.g09.slc.cpg/sg15_110_cif.got.tgz:219103.got - 2010.06.28 07:06:18.
