data_PCOD8136759
_publ_section_title
;
Structure prediction by ZEFSAII (Michael W. Deem and Ramdas Pophale) SiO2 
 PCOD8136759
Probable space group: C 2/C
;
_chemical_formula_sum "Si O2"
_cell_formula_units_Z 44
_cell_length_a 17.858996
_cell_length_b 16.452762
_cell_length_c 9.428628
_cell_angle_alpha 90.000000
_cell_angle_beta 42.997973
_cell_angle_gamma 90.000000
_cell_volume 1889.344746
_symmetry_space_group_name_H-M "C 2/C"
_symmetry_group_IT_number 15
_symmetry_cell_setting 'monoclinic'
loop_
_space_group_symop_operation_xyz
x,y,z
-x,y,1/2-z
-x,-y,-z
x,-y,1/2+z
1/2+x,1/2+y,z
1/2-x,1/2+y,1/2-z
1/2-x,1/2-y,-z
1/2+x,1/2-y,1/2+z
loop_
_atom_site_type_symbol
_atom_site_label
_atom_site_fract_x
_atom_site_fract_y
_atom_site_fract_z
Si Si1 0.299377 0.461947 0.584225
Si Si2 0.500000 0.433779 0.750000
Si Si3 0.192711 0.176783 0.658802
Si Si4 0.826879 0.851560 0.794616
Si Si5 0.179587 0.379789 0.242745
Si Si6 0.978905 0.733679 0.445314
O O1 0.411185 0.511773 0.455004
O O2 0.322009 0.398485 0.427217
O O3 0.272921 0.420174 0.769889
O O4 0.198839 0.523968 0.686903
O O5 0.436774 0.380000 0.722298
O O6 0.250000 0.250000 0.500000
O O7 0.259495 0.143500 0.697137
O O8 0.078009 0.215116 0.875523
O O9 0.862910 0.779117 0.639044
O O10 0.731968 0.828758 0.039029
O O11 0.049551 0.354929 0.443661
O O12 0.000000 0.723988 0.250000
#
# Coordination Sequence:
#
# PCOD8136759 Si02
#       6
#     8   4   8   8   8   8
#     4  11  21  39  64  93 133 168 217 278 334 386
#     4  10  20  34  62  98 130 162 220 278 340 382
#     4  12  24  43  68  95 128 181 225 266 328 404
#     4  11  21  38  62  95 127 168 215 275 327 391
#     4  11  24  40  64  99 132 166 217 279 333 384
#     4  12  22  41  66  93 130 174 221 265 329 396
#
# _framework density 23.288499000000002
#
# number of rings (size 3 to 8) (size 9 to 14) (size 15 to 20)
#    0.000    0.727    3.636    6.545    0.000    0.000 
#    0.000    0.909    0.000    0.000    0.000    0.000 
#    0.000    0.000    0.000    0.000    0.000    0.000 
#
# Total GULP energy -272597.717208 kJ/mol
# GULP energy per Si atom -12390.805328 kJ/mol
# Density = 2.323549 g / cm^3
# Si number density = 23.288499 Si / 1000 Ang^3
#
#
#
# Elastic Constant Matrix: (Units=GPa)
#
#
# Indices 1 2 3 4 5 6 
#
# 1 44.6483 19.3796 22.0410 0.0000 2.1939 0.0000
# 2 19.3796 88.7930 48.5871 0.0000 -13.5643 0.0000
# 3 22.0410 48.5871 160.3220 0.0000 9.0360 0.0000
# 4 0.0000 0.0000 0.0000 43.7262 0.0000 -3.1172
# 5 2.1939 -13.5643 9.0360 0.0000 29.0529 0.0000
# 6 0.0000 0.0000 0.0000 -3.1172 0.0000 19.6848
#
#
#
# Elastic Compliance Matrix: (Units=1/GPa)
#
#
# Indices 1 2 3 4 5 6 
#
# 1 0.025722 -0.005260 -0.001724 0.000000 -0.003862 0.000000
# 2 -0.005260 0.016518 -0.004824 0.000000 0.009610 0.000000
# 3 -0.001724 -0.004824 0.008200 0.000000 -0.004673 0.000000
# 4 0.000000 0.000000 0.000000 0.023131 0.000000 0.003663
# 5 -0.003862 0.009610 -0.004673 0.000000 0.040652 0.000000
# 6 0.000000 0.000000 0.000000 0.003663 0.000000 0.051381
#
#
# Mechanical properties :
#
#
# Convention : Reuss Voigt Hill
#
# Bulk Modulus (GPa) = 37.28351 52.64209 44.96280
# Shear Modulus (GPa) = 25.23198 32.07647 28.65423
#
# Velocity S-wave (km/s) = 3.29515 3.71530 3.51151
# Velocity P-wave (km/s) = 5.52463 6.40765 5.98245
#
# Compressibility (1/GPa) = 0.02682151
#
# Stress axis : x y z
#
# Youngs Moduli (GPa) = 38.87796 60.53944 121.95193
#
# Poissons Ratio (x) = 0.31846 0.21029
# Poissons Ratio (y) = 0.20451 0.58835
# Poissons Ratio (z) = 0.06704 0.29207
#
# Static dielectric constant tensor:
#      x y z
#    x 4.069850 0.000000 -0.784330 
#    y 0.000000 5.367870 0.000000 
#    z -0.784330 0.000000 2.236510 
# 
# 
# High freq. dielectric constant tensor:
#      x y z
#    x 1.887290 0.000000 0.017840 
#    y 0.000000 1.930470 0.000000 
#    z 0.017840 0.000000 1.939690 
# 
# From -- ./inp_files/48906.got.cif
#   From: 2010.06.25/outbox.cif.g09.slc.cpg/sg15_25_cif.got.tgz:48906.got - 2010.06.28 07:06:18.
