data_PCOD8136466
_publ_section_title
;
Structure prediction by ZEFSAII (Michael W. Deem and Ramdas Pophale) SiO2 
 PCOD8136466
Probable space group: C 2/C
;
_chemical_formula_sum "Si O2"
_cell_formula_units_Z 40
_cell_length_a 16.939794
_cell_length_b 15.078819
_cell_length_c 10.056506
_cell_angle_alpha 90.000000
_cell_angle_beta 56.748931
_cell_angle_gamma 90.000000
_cell_volume 2148.187399
_symmetry_space_group_name_H-M "C 2/C"
_symmetry_group_IT_number 15
_symmetry_cell_setting 'monoclinic'
loop_
_space_group_symop_operation_xyz
x,y,z
-x,y,1/2-z
-x,-y,-z
x,-y,1/2+z
1/2+x,1/2+y,z
1/2-x,1/2+y,1/2-z
1/2-x,1/2-y,-z
1/2+x,1/2-y,1/2+z
loop_
_atom_site_type_symbol
_atom_site_label
_atom_site_fract_x
_atom_site_fract_y
_atom_site_fract_z
Si Si1 0.755510 0.253522 0.207110
Si Si2 0.893685 0.808784 0.360570
Si Si3 0.229593 0.435768 0.853775
Si Si4 0.105093 0.984657 0.640188
Si Si5 0.275312 0.921717 0.348371
O O1 0.663430 0.294495 0.222552
O O2 0.723281 0.161874 0.300834
O O3 0.792973 0.321595 0.284203
O O4 0.841718 0.243402 0.026005
O O5 0.000000 0.771222 0.250000
O O6 0.896083 0.911920 0.393540
O O7 0.339238 0.464624 0.773577
O O8 0.182429 0.506676 0.795977
O O9 0.178047 0.437233 0.047477
O O10 0.161740 0.936489 0.468240
O O11 0.000000 0.945507 0.750000
#
# Coordination Sequence:
#
# PCOD8136466 Si02
#       5
#     8   8   8   8   8
#     4  11  19  36  58  82 120 154 188 236 286 340
#     4  10  21  35  59  89 115 150 193 236 291 346
#     4  10  20  34  53  85 110 155 186 228 287 344
#     4   9  19  34  54  86 117 141 182 242 298 343
#     4  10  20  34  53  85 110 155 186 228 287 344
#
# _framework density 18.620349000000001
#
# number of rings (size 3 to 8) (size 9 to 14) (size 15 to 20)
#    1.200    0.800    4.000    0.600    2.800    2.400 
#    0.000    0.000    0.000    1.200    0.000    0.000 
#    0.000    0.000    0.000    0.000    0.000    0.000 
#
# Total GULP energy -247816.834835 kJ/mol
# GULP energy per Si atom -12390.841742 kJ/mol
# Density = 1.857797 g / cm^3
# Si number density = 18.620349 Si / 1000 Ang^3
#
#
#
# Elastic Constant Matrix: (Units=GPa)
#
#
# Indices 1 2 3 4 5 6 
#
# 1 32.3867 -2.5424 28.2463 0.0000 1.2297 0.0000
# 2 -2.5424 90.5581 27.0327 0.0000 9.2616 0.0000
# 3 28.2463 27.0327 76.7252 0.0000 17.4945 0.0000
# 4 0.0000 0.0000 0.0000 25.5275 0.0000 4.2082
# 5 1.2297 9.2616 17.4945 0.0000 34.3876 0.0000
# 6 0.0000 0.0000 0.0000 4.2082 0.0000 24.2245
#
#
#
# Elastic Compliance Matrix: (Units=1/GPa)
#
#
# Indices 1 2 3 4 5 6 
#
# 1 0.051756 0.007671 -0.023601 0.000000 0.008090 0.000000
# 2 0.007671 0.013526 -0.007575 0.000000 -0.000063 0.000000
# 3 -0.023601 -0.007575 0.026848 0.000000 -0.010775 0.000000
# 4 0.000000 0.000000 0.000000 0.040328 0.000000 -0.007006
# 5 0.008090 -0.000063 -0.010775 0.000000 0.034290 0.000000
# 6 0.000000 0.000000 0.000000 -0.007006 0.000000 0.042498
#
#
# Mechanical properties :
#
#
# Convention : Reuss Voigt Hill
#
# Bulk Modulus (GPa) = 22.16376 33.90481 28.03429
# Shear Modulus (GPa) = 18.43006 26.62348 22.52677
#
# Velocity S-wave (km/s) = 3.14949 3.78538 3.48198
# Velocity P-wave (km/s) = 5.01543 6.11175 5.59053
#
# Compressibility (1/GPa) = 0.04511869
#
# Stress axis : x y z
#
# Youngs Moduli (GPa) = 19.32143 73.93312 37.24664
#
# Poissons Ratio (x) = -0.56713 0.87907
# Poissons Ratio (y) = -0.14821 0.28215
# Poissons Ratio (z) = 0.45601 0.56005
#
# Static dielectric constant tensor:
#      x y z
#    x 3.192460 0.000000 0.172960 
#    y 0.000000 3.287640 0.000000 
#    z 0.172960 0.000000 3.397990 
# 
# 
# High freq. dielectric constant tensor:
#      x y z
#    x 1.687340 0.000000 0.030810 
#    y 0.000000 1.725050 0.000000 
#    z 0.030810 0.000000 1.716800 
# 
# From -- ./inp_files/95528.got.cif
#   From: 2010.06.25/outbox.cif.g09.slc.cpg/sg15_48_cif.got.tgz:95528.got - 2010.06.28 07:06:18.
