data_PCOD8136508
_publ_section_title
;
Structure prediction by ZEFSAII (Michael W. Deem and Ramdas Pophale) SiO2 
 PCOD8136508
Probable space group: C 2/C
;
_chemical_formula_sum "Si O2"
_cell_formula_units_Z 52
_cell_length_a 15.291719
_cell_length_b 18.556024
_cell_length_c 8.782520
_cell_angle_alpha 90.000000
_cell_angle_beta 99.010118
_cell_angle_gamma 90.000000
_cell_volume 2461.320421
_symmetry_space_group_name_H-M "C 2/C"
_symmetry_group_IT_number 15
_symmetry_cell_setting 'monoclinic'
loop_
_space_group_symop_operation_xyz
x,y,z
-x,y,1/2-z
-x,-y,-z
x,-y,1/2+z
1/2+x,1/2+y,z
1/2-x,1/2+y,1/2-z
1/2-x,1/2-y,-z
1/2+x,1/2-y,1/2+z
loop_
_atom_site_type_symbol
_atom_site_label
_atom_site_fract_x
_atom_site_fract_y
_atom_site_fract_z
Si Si1 0.576528 0.405223 0.571924
Si Si2 0.339228 0.487559 0.168535
Si Si3 0.754396 0.911688 0.420641
Si Si4 0.905394 0.324314 0.198376
Si Si5 0.500000 0.737168 0.750000
Si Si6 0.648321 0.750676 0.019680
Si Si7 0.587322 0.320280 0.989788
O O1 0.586134 0.448349 0.414803
O O2 0.616083 0.450351 0.720382
O O3 0.626264 0.329197 0.571292
O O4 0.525858 0.386867 0.914759
O O5 0.287233 0.431253 0.260126
O O6 0.264636 0.520993 0.036613
O O7 0.653879 0.884137 0.401487
O O8 0.811718 0.844069 0.496207
O O9 0.857223 0.305123 0.341704
O O10 0.000000 0.361876 0.250000
O O11 0.926098 0.253683 0.103360
O O12 0.424036 0.778560 0.628062
O O13 0.441079 0.688085 0.843178
O O14 0.750000 0.750000 0.000000
#
# Coordination Sequence:
#
# PCOD8136508 Si02
#       7
#     8   8   8   8   4   8   8
#     4  10  21  38  58  92 133 164 205 259 309 396
#     4  10  23  40  59  93 129 174 213 248 315 387
#     4  11  24  39  64  88 124 172 213 259 315 381
#     4  12  23  43  64  94 128 164 216 268 324 377
#     4  10  20  34  54  90 128 152 196 248 316 390
#     4  11  22  39  63  89 128 164 209 271 324 372
#     4  11  22  38  62  96 132 163 206 263 329 386
#
# _framework density 21.126871999999999
#
# number of rings (size 3 to 8) (size 9 to 14) (size 15 to 20)
#    0.000    1.231    3.077    5.077    0.000    4.923 
#    0.000    0.769    0.000    0.000    0.000    0.000 
#    0.000    0.000    0.000    0.000    0.000    0.000 
#
# Total GULP energy -322273.351150 kJ/mol
# GULP energy per Si atom -12395.128890 kJ/mol
# Density = 2.107879 g / cm^3
# Si number density = 21.126872 Si / 1000 Ang^3
#
#
#
# Elastic Constant Matrix: (Units=GPa)
#
#
# Indices 1 2 3 4 5 6 
#
# 1 136.6283 28.3241 28.2583 0.0000 22.4710 0.0000
# 2 28.3241 52.5960 23.3580 0.0000 14.5341 0.0000
# 3 28.2583 23.3580 92.1702 0.0000 5.7007 0.0000
# 4 0.0000 0.0000 0.0000 26.1519 0.0000 4.9276
# 5 22.4710 14.5341 5.7007 0.0000 32.5129 0.0000
# 6 0.0000 0.0000 0.0000 4.9276 0.0000 38.0061
#
#
#
# Elastic Compliance Matrix: (Units=1/GPa)
#
#
# Indices 1 2 3 4 5 6 
#
# 1 0.009034 -0.002781 -0.001775 0.000000 -0.004689 0.000000
# 2 -0.002781 0.025040 -0.004974 0.000000 -0.008400 0.000000
# 3 -0.001775 -0.004974 0.012577 0.000000 0.001245 0.000000
# 4 0.000000 0.000000 0.000000 0.039196 0.000000 -0.005082
# 5 -0.004689 -0.008400 0.001245 0.000000 0.037535 0.000000
# 6 0.000000 0.000000 0.000000 -0.005082 0.000000 0.026970
#
#
# Mechanical properties :
#
#
# Convention : Reuss Voigt Hill
#
# Bulk Modulus (GPa) = 36.24186 49.03060 42.63623
# Shear Modulus (GPa) = 27.99416 32.76445 30.37931
#
# Velocity S-wave (km/s) = 3.64407 3.94235 3.79614
# Velocity P-wave (km/s) = 5.90740 6.63181 6.28006
#
# Compressibility (1/GPa) = 0.02759240
#
# Stress axis : x y z
#
# Youngs Moduli (GPa) = 110.69303 39.93558 79.50951
#
# Poissons Ratio (x) = 0.11106 0.14112
# Poissons Ratio (y) = 0.30783 0.39545
# Poissons Ratio (z) = 0.19647 0.19863
#
# Static dielectric constant tensor:
#      x y z
#    x 3.957060 0.000000 0.103450 
#    y 0.000000 3.576720 0.000000 
#    z 0.103450 0.000000 4.247440 
# 
# 
# High freq. dielectric constant tensor:
#      x y z
#    x 1.822740 0.000000 -0.003020 
#    y 0.000000 1.799550 0.000000 
#    z -0.003020 0.000000 1.851670 
# 
# From -- ./inp_files/40887.got.cif
#   From: 2010.06.25/outbox.cif.g09.slc.cpg/sg15_21_cif.got.tgz:40887.got - 2010.06.28 07:06:18.
