data_PCOD8136774
_publ_section_title
;
Structure prediction by ZEFSAII (Michael W. Deem and Ramdas Pophale) SiO2 
 PCOD8136774
Probable space group: C 2/C
;
_chemical_formula_sum "Si O2"
_cell_formula_units_Z 28
_cell_length_a 14.331080
_cell_length_b 9.902666
_cell_length_c 8.947936
_cell_angle_alpha 90.000000
_cell_angle_beta 86.966694
_cell_angle_gamma 90.000000
_cell_volume 1268.075240
_symmetry_space_group_name_H-M "C 2/C"
_symmetry_group_IT_number 15
_symmetry_cell_setting 'monoclinic'
loop_
_space_group_symop_operation_xyz
x,y,z
-x,y,1/2-z
-x,-y,-z
x,-y,1/2+z
1/2+x,1/2+y,z
1/2-x,1/2+y,1/2-z
1/2-x,1/2-y,-z
1/2+x,1/2-y,1/2+z
loop_
_atom_site_type_symbol
_atom_site_label
_atom_site_fract_x
_atom_site_fract_y
_atom_site_fract_z
Si Si1 0.500000 0.472271 0.750000
Si Si2 0.155630 0.677691 0.466985
Si Si3 0.897575 0.433498 0.825622
Si Si4 0.960032 0.816447 0.483344
O O1 0.435834 0.375058 0.650072
O O2 0.562786 0.567585 0.637511
O O3 0.250000 0.750000 0.500000
O O4 0.136690 0.569132 0.596868
O O5 0.170014 0.607195 0.304523
O O6 0.070838 0.784127 0.466050
O O7 0.899538 0.315948 0.952118
O O8 0.000000 0.456881 0.750000
#
# Coordination Sequence:
#
# PCOD8136774 Si02
#       4
#     4   8   8   8
#     4  10  20  34  64  92 118 158 210 264 284 362
#     4  11  24  40  62  95 127 159 208 264 321 368
#     4  10  21  43  67  90 121 171 213 250 307 391
#     4  10  20  38  62  92 122 161 214 245 308 367
#
# _framework density 22.080708000000001
#
# number of rings (size 3 to 8) (size 9 to 14) (size 15 to 20)
#    0.000    1.714    4.286    3.429    6.000    2.286 
#    0.000    1.429    0.000    0.000    0.000    0.000 
#    0.000    0.000    0.000    0.000    0.000    0.000 
#
# Total GULP energy -173565.326908 kJ/mol
# GULP energy per Si atom -12397.523351 kJ/mol
# Density = 2.203045 g / cm^3
# Si number density = 22.080708 Si / 1000 Ang^3
#
#
#
# Elastic Constant Matrix: (Units=GPa)
#
#
# Indices 1 2 3 4 5 6 
#
# 1 63.2684 45.5531 38.0005 0.0000 21.9626 0.0000
# 2 45.5531 143.5448 78.7591 0.0000 -0.9781 0.0000
# 3 38.0005 78.7591 169.7154 0.0000 15.1629 0.0000
# 4 0.0000 0.0000 0.0000 57.2312 0.0000 -4.2802
# 5 21.9626 -0.9781 15.1629 0.0000 21.2916 0.0000
# 6 0.0000 0.0000 0.0000 -4.2802 0.0000 25.3095
#
#
#
# Elastic Compliance Matrix: (Units=1/GPa)
#
#
# Indices 1 2 3 4 5 6 
#
# 1 0.039365 -0.013422 0.001172 0.000000 -0.042056 0.000000
# 2 -0.013422 0.014213 -0.005218 0.000000 0.018213 0.000000
# 3 0.001172 -0.005218 0.008736 0.000000 -0.007670 0.000000
# 4 0.000000 0.000000 0.000000 0.017697 0.000000 0.002993
# 5 -0.042056 0.018213 -0.007670 0.000000 0.096648 0.000000
# 6 0.000000 0.000000 0.000000 0.002993 0.000000 0.040017
#
#
# Mechanical properties :
#
#
# Convention : Reuss Voigt Hill
#
# Bulk Modulus (GPa) = 36.52444 77.90597 57.21521
# Shear Modulus (GPa) = 19.17648 35.04751 27.11200
#
# Velocity S-wave (km/s) = 2.95018 3.98835 3.50788
# Velocity P-wave (km/s) = 5.30867 7.52118 6.50962
#
# Compressibility (1/GPa) = 0.02737893
#
# Stress axis : x y z
#
# Youngs Moduli (GPa) = 25.40358 70.35990 114.46353
#
# Poissons Ratio (x) = 0.94435 -0.13415
# Poissons Ratio (y) = 0.34096 0.59723
# Poissons Ratio (z) = -0.02977 0.36711
#
# Static dielectric constant tensor:
#      x y z
#    x 3.310800 0.000000 0.229230 
#    y 0.000000 4.315740 0.000000 
#    z 0.229230 0.000000 4.557350 
# 
# 
# High freq. dielectric constant tensor:
#      x y z
#    x 1.793310 0.000000 0.016280 
#    y 0.000000 1.893270 0.000000 
#    z 0.016280 0.000000 1.898680 
# 
# From -- ./inp_files/36347.got.cif
#   From: 2010.06.25/outbox.cif.g09.slc.cpg/sg15_19_cif.got.tgz:36347.got - 2010.06.28 07:06:18.
