data_PCOD8136922
_publ_section_title
;
Structure prediction by ZEFSAII (Michael W. Deem and Ramdas Pophale) SiO2 
 PCOD8136922
Probable space group: C 2/C
;
_chemical_formula_sum "Si O2"
_cell_formula_units_Z 48
_cell_length_a 18.915591
_cell_length_b 8.917675
_cell_length_c 13.765320
_cell_angle_alpha 90.000000
_cell_angle_beta 73.403994
_cell_angle_gamma 90.000000
_cell_volume 2225.248977
_symmetry_space_group_name_H-M "C 2/C"
_symmetry_group_IT_number 15
_symmetry_cell_setting 'monoclinic'
loop_
_space_group_symop_operation_xyz
x,y,z
-x,y,1/2-z
-x,-y,-z
x,-y,1/2+z
1/2+x,1/2+y,z
1/2-x,1/2+y,1/2-z
1/2-x,1/2-y,-z
1/2+x,1/2-y,1/2+z
loop_
_atom_site_type_symbol
_atom_site_label
_atom_site_fract_x
_atom_site_fract_y
_atom_site_fract_z
Si Si1 0.912609 0.894990 0.688629
Si Si2 0.428604 0.690667 0.400374
Si Si3 0.175649 0.825645 0.297109
Si Si4 0.297074 0.762589 0.100969
Si Si5 0.347491 0.919451 0.545581
Si Si6 0.786232 0.959233 0.027534
O O1 0.917007 0.812856 0.790155
O O2 0.843291 0.828780 0.661031
O O3 0.989613 0.864752 0.603091
O O4 0.896699 0.074162 0.701255
O O5 0.413437 0.857739 0.450428
O O6 0.371197 0.579326 0.473945
O O7 0.221079 0.815442 0.179680
O O8 0.150355 0.662959 0.349947
O O9 0.228742 0.904782 0.356443
O O10 0.277426 0.641818 0.022452
O O11 0.350158 0.900832 0.050140
O O12 0.269286 0.878233 0.524917
#
# Coordination Sequence:
#
# PCOD8136922 Si02
#       6
#     8   8   8   8   8   8
#     4  10  22  39  58  78 108 150 191 230 279 338
#     4  10  21  39  58  78 110 151 190 230 279 334
#     4  10  20  35  57  81 108 144 188 229 270 329
#     4  11  21  34  56  86 115 143 182 232 280 333
#     4  11  21  34  57  85 114 145 182 232 278 328
#     4  10  20  35  58  84 114 147 184 226 273 333
#
# _framework density 21.570620999999999
#
# number of rings (size 3 to 8) (size 9 to 14) (size 15 to 20)
#    0.000    1.667    0.000    7.500    0.000    6.667 
#    0.000    0.000    0.000    4.000    0.000    0.000 
#    0.000    0.000    0.000    0.000    0.000    0.000 
#
# Total GULP energy -297485.643228 kJ/mol
# GULP energy per Si atom -12395.235135 kJ/mol
# Density = 2.152152 g / cm^3
# Si number density = 21.570621 Si / 1000 Ang^3
#
#
#
# Elastic Constant Matrix: (Units=GPa)
#
#
# Indices 1 2 3 4 5 6 
#
# 1 74.4341 8.7257 17.4087 0.0000 -28.7236 0.0000
# 2 8.7257 90.2956 22.3915 0.0000 -17.3644 0.0000
# 3 17.4087 22.3915 82.1401 0.0000 -23.5113 0.0000
# 4 0.0000 0.0000 0.0000 24.6105 0.0000 0.4575
# 5 -28.7236 -17.3644 -23.5113 0.0000 27.5814 0.0000
# 6 0.0000 0.0000 0.0000 0.4575 0.0000 27.1699
#
#
#
# Elastic Compliance Matrix: (Units=1/GPa)
#
#
# Indices 1 2 3 4 5 6 
#
# 1 0.023367 0.002530 0.002353 0.000000 0.027934 0.000000
# 2 0.002530 0.013023 -0.001303 0.000000 0.009723 0.000000
# 3 0.002353 -0.001303 0.016531 0.000000 0.015722 0.000000
# 4 0.000000 0.000000 0.000000 0.040646 0.000000 -0.000684
# 5 0.027934 0.009723 0.015722 0.000000 0.084870 0.000000
# 6 0.000000 0.000000 0.000000 -0.000684 0.000000 0.036817
#
#
# Mechanical properties :
#
#
# Convention : Reuss Voigt Hill
#
# Bulk Modulus (GPa) = 16.64396 38.21351 27.42874
# Shear Modulus (GPa) = 21.91824 29.09532 25.50678
#
# Velocity S-wave (km/s) = 3.19111 3.67664 3.44245
# Velocity P-wave (km/s) = 4.61632 5.98144 5.34266
#
# Compressibility (1/GPa) = 0.06008184
#
# Stress axis : x y z
#
# Youngs Moduli (GPa) = 42.79519 76.78602 60.49251
#
# Poissons Ratio (x) = -0.19428 -0.14237
# Poissons Ratio (y) = -0.10828 0.07884
# Poissons Ratio (z) = -0.10072 0.10008
#
# Static dielectric constant tensor:
#      x y z
#    x 3.783670 0.000000 0.037070 
#    y 0.000000 4.215070 0.000000 
#    z 0.037070 0.000000 4.061060 
# 
# 
# High freq. dielectric constant tensor:
#      x y z
#    x 1.824070 0.000000 0.009760 
#    y 0.000000 1.857620 0.000000 
#    z 0.009760 0.000000 1.847920 
# 
# From -- ./inp_files/166126.got.cif
#   From: 2010.06.25/outbox.cif.g09.slc.cpg/sg15_84_cif.got.tgz:166126.got - 2010.06.28 07:06:18.
