data_PCOD8136341
_publ_section_title
;
Structure prediction by ZEFSAII (Michael W. Deem and Ramdas Pophale) SiO2 
 PCOD8136341
Probable space group: C 2/C
;
_chemical_formula_sum "Si O2"
_cell_formula_units_Z 60
_cell_length_a 11.311600
_cell_length_b 30.765823
_cell_length_c 10.440460
_cell_angle_alpha 90.000000
_cell_angle_beta 65.383118
_cell_angle_gamma 90.000000
_cell_volume 3303.165060
_symmetry_space_group_name_H-M "C 2/C"
_symmetry_group_IT_number 15
_symmetry_cell_setting 'monoclinic'
loop_
_space_group_symop_operation_xyz
x,y,z
-x,y,1/2-z
-x,-y,-z
x,-y,1/2+z
1/2+x,1/2+y,z
1/2-x,1/2+y,1/2-z
1/2-x,1/2-y,-z
1/2+x,1/2-y,1/2+z
loop_
_atom_site_type_symbol
_atom_site_label
_atom_site_fract_x
_atom_site_fract_y
_atom_site_fract_z
Si Si1 0.651256 0.537970 0.032890
Si Si2 0.731399 0.373338 0.800956
Si Si3 0.485061 0.319272 0.907264
Si Si4 0.000000 0.324577 0.250000
Si Si5 0.734746 0.868947 0.011406
Si Si6 0.653144 0.533436 0.325080
Si Si7 0.869422 0.261067 0.113643
Si Si8 0.356863 0.795421 0.846173
O O1 0.683150 0.520806 0.162901
O O2 0.497654 0.546064 0.091891
O O3 0.728376 0.581993 0.965680
O O4 0.696005 0.504093 0.903714
O O5 0.588155 0.356000 0.901970
O O6 0.766358 0.364606 0.639120
O O7 0.737013 0.424512 0.828105
O O8 0.838625 0.347149 0.833834
O O9 0.500000 0.310790 0.750000
O O10 0.512075 0.272926 0.963761
O O11 0.343596 0.335589 0.015514
O O12 0.092833 0.355932 0.125937
O O13 0.094317 0.294705 0.292258
O O14 0.742478 0.231176 0.201927
O O15 0.830776 0.288020 0.006670
O O16 0.500000 0.779611 0.750000
#
# Coordination Sequence:
#
# PCOD8136341 Si02
#       8
#     8   8   8   4   8   8   8   8
#     4   9  17  32  55  86 112 143 176 237 285 329
#     4   9  17  34  58  79 101 147 186 222 270 337
#     4   9  16  32  55  80 102 136 189 231 267 317
#     4  12  24  36  52  84 112 150 188 232 278 332
#     4  10  20  33  56  80 113 143 182 233 277 324
#     4   9  16  31  58  85 112 135 187 228 285 337
#     4  10  22  36  52  80 108 144 189 231 281 324
#     4  10  21  37  54  74 111 146 184 231 276 331
#
# _framework density 18.164396
#
# number of rings (size 3 to 8) (size 9 to 14) (size 15 to 20)
#    0.000    2.400    2.000    0.800    1.867    0.533 
#    2.400    0.000    1.467    1.600    0.000    0.000 
#    0.000    0.000    0.000    0.000    0.000    0.000 
#
# Total GULP energy -371839.842274 kJ/mol
# GULP energy per Si atom -12394.661409 kJ/mol
# Density = 1.812305 g / cm^3
# Si number density = 18.164396 Si / 1000 Ang^3
#
#
#
# Elastic Constant Matrix: (Units=GPa)
#
#
# Indices 1 2 3 4 5 6 
#
# 1 75.0011 50.4940 31.2660 0.0000 -0.8605 0.0000
# 2 50.4940 127.7141 50.7379 0.0000 10.5193 0.0000
# 3 31.2660 50.7379 60.9749 0.0000 -5.1368 0.0000
# 4 0.0000 0.0000 0.0000 24.1092 0.0000 7.4883
# 5 -0.8605 10.5193 -5.1368 0.0000 30.8915 0.0000
# 6 0.0000 0.0000 0.0000 7.4883 0.0000 32.3596
#
#
#
# Elastic Compliance Matrix: (Units=1/GPa)
#
#
# Indices 1 2 3 4 5 6 
#
# 1 0.019326 -0.005828 -0.004916 0.000000 0.001705 0.000000
# 2 -0.005828 0.014527 -0.009666 0.000000 -0.006717 0.000000
# 3 -0.004916 -0.009666 0.027617 0.000000 0.007747 0.000000
# 4 0.000000 0.000000 0.000000 0.044690 0.000000 -0.010342
# 5 0.001705 -0.006717 0.007747 0.000000 0.035994 0.000000
# 6 0.000000 0.000000 0.000000 -0.010342 0.000000 0.033296
#
#
# Mechanical properties :
#
#
# Convention : Reuss Voigt Hill
#
# Bulk Modulus (GPa) = 48.42723 58.74286 53.58504
# Shear Modulus (GPa) = 22.40603 26.21822 24.31212
#
# Velocity S-wave (km/s) = 3.51595 3.80331 3.66245
# Velocity P-wave (km/s) = 6.57274 7.19004 6.88831
#
# Compressibility (1/GPa) = 0.02064954
#
# Stress axis : x y z
#
# Youngs Moduli (GPa) = 51.74383 68.83511 36.20980
#
# Poissons Ratio (x) = 0.40118 0.17802
# Poissons Ratio (y) = 0.30157 0.35000
# Poissons Ratio (z) = 0.25439 0.66535
#
# Static dielectric constant tensor:
#      x y z
#    x 3.356210 0.000000 0.071410 
#    y 0.000000 3.396510 0.000000 
#    z 0.071410 0.000000 3.090010 
# 
# 
# High freq. dielectric constant tensor:
#      x y z
#    x 1.694030 0.000000 0.005470 
#    y 0.000000 1.704510 0.000000 
#    z 0.005470 0.000000 1.678410 
# 
# From -- ./inp_files/92052.got.cif
#   From: 2010.06.25/outbox.cif.g09.slc.cpg/sg15_47_cif.got.tgz:92052.got - 2010.06.28 07:06:18.
