data_PCOD8136843
_publ_section_title
;
Structure prediction by ZEFSAII (Michael W. Deem and Ramdas Pophale) SiO2 
 PCOD8136843
Probable space group: C 2/C
;
_chemical_formula_sum "Si O2"
_cell_formula_units_Z 48
_cell_length_a 21.149996
_cell_length_b 21.228316
_cell_length_c 13.129607
_cell_angle_alpha 90.000000
_cell_angle_beta 23.006443
_cell_angle_gamma 90.000000
_cell_volume 2303.937040
_symmetry_space_group_name_H-M "C 2/C"
_symmetry_group_IT_number 15
_symmetry_cell_setting 'monoclinic'
loop_
_space_group_symop_operation_xyz
x,y,z
-x,y,1/2-z
-x,-y,-z
x,-y,1/2+z
1/2+x,1/2+y,z
1/2-x,1/2+y,1/2-z
1/2-x,1/2-y,-z
1/2+x,1/2-y,1/2+z
loop_
_atom_site_type_symbol
_atom_site_label
_atom_site_fract_x
_atom_site_fract_y
_atom_site_fract_z
Si Si1 0.866892 0.315316 0.217679
Si Si2 0.091107 0.935255 0.375441
Si Si3 0.879807 0.270248 0.513707
Si Si4 0.658475 0.993308 0.623848
Si Si5 0.269910 0.374573 0.881637
Si Si6 0.155828 0.554267 0.837018
O O1 0.774387 0.276654 0.265181
O O2 0.751565 0.330140 0.486661
O O3 0.923986 0.381677 0.087224
O O4 0.025285 0.274952 0.018896
O O5 0.174626 0.930960 0.361713
O O6 0.960377 0.878793 0.568265
O O7 0.000000 0.000000 0.500000
O O8 0.227226 0.935379 0.084231
O O9 0.823405 0.341777 0.572965
O O10 0.000000 0.244477 0.250000
O O11 0.693887 0.056486 0.508019
O O12 0.692580 0.004520 0.692978
O O13 0.468762 0.974761 0.895143
#
# Coordination Sequence:
#
# PCOD8136843 Si02
#       6
#     8   8   8   8   8   8
#     4  10  22  34  57  84 114 148 194 238 302 334
#     4  10  21  33  53  85 114 154 184 236 287 343
#     4  10  20  35  54  85 111 149 187 245 290 341
#     4   9  20  37  55  82 115 154 190 231 287 359
#     4   9  19  33  54  83 117 144 185 237 293 346
#     4  10  21  35  57  81 118 154 192 237 283 354
#
# _framework density 20.833902999999999
#
# number of rings (size 3 to 8) (size 9 to 14) (size 15 to 20)
#    0.000    2.333    0.000    2.500    4.667   20.000 
#    0.000    0.000    0.000    1.000    0.000    0.000 
#    0.000    0.000    0.000    0.000    0.000    0.000 
#
# Total GULP energy -297425.452050 kJ/mol
# GULP energy per Si atom -12392.727169 kJ/mol
# Density = 2.078648 g / cm^3
# Si number density = 20.833903 Si / 1000 Ang^3
#
#
#
# Elastic Constant Matrix: (Units=GPa)
#
#
# Indices 1 2 3 4 5 6 
#
# 1 65.8556 25.6550 25.9593 -0.0033 -26.4231 0.0029
# 2 25.6550 67.2774 29.0887 -0.0039 -8.1437 0.0024
# 3 25.9593 29.0887 90.6998 -0.0023 -9.7900 0.0086
# 4 -0.0033 -0.0039 -0.0023 30.5552 0.0157 -14.9145
# 5 -26.4231 -8.1437 -9.7900 0.0157 33.9501 -0.0097
# 6 0.0029 0.0024 0.0086 -14.9145 -0.0097 30.1825
#
#
#
# Elastic Compliance Matrix: (Units=1/GPa)
#
#
# Indices 1 2 3 4 5 6 
#
# 1 0.026203 -0.006294 -0.003553 -0.000007 0.017859 0.000001
# 2 -0.006294 0.018998 -0.004468 0.000003 -0.001630 0.000001
# 3 -0.003553 -0.004468 0.013481 -0.000002 0.000050 -0.000004
# 4 -0.000007 0.000003 -0.000002 0.043131 -0.000019 0.021313
# 5 0.017859 -0.001630 0.000050 -0.000019 0.042978 0.000003
# 6 0.000001 0.000001 -0.000004 0.021313 0.000003 0.043664
#
#
# Mechanical properties :
#
#
# Convention : Reuss Voigt Hill
#
# Bulk Modulus (GPa) = 33.27537 42.80430 38.03984
# Shear Modulus (GPa) = 22.01664 28.47954 25.24809
#
# Velocity S-wave (km/s) = 3.25433 3.70128 3.48498
# Velocity P-wave (km/s) = 5.48883 6.23346 5.87296
#
# Compressibility (1/GPa) = 0.03005225
#
# Stress axis : x y z
#
# Youngs Moduli (GPa) = 38.16388 52.63648 74.18066
#
# Poissons Ratio (x) = 0.33128 0.26359
# Poissons Ratio (y) = 0.24020 0.33140
# Poissons Ratio (z) = 0.13561 0.23515
#
# Static dielectric constant tensor:
#      x y z
#    x 3.651170 -0.000050 -0.220200 
#    y -0.000050 4.027650 0.000130 
#    z -0.220200 0.000130 4.084820 
# 
# 
# High freq. dielectric constant tensor:
#      x y z
#    x 1.803670 0.000000 -0.031730 
#    y 0.000000 1.803450 0.000000 
#    z -0.031730 0.000000 1.796360 
# 
# From -- ./inp_files/174655.got.cif
#   From: 2010.06.25/outbox.cif.g09.slc.cpg/sg15_88_cif.got.tgz:174655.got - 2010.06.28 07:06:18.
