data_PCOD8136306
_publ_section_title
;
Structure prediction by ZEFSAII (Michael W. Deem and Ramdas Pophale) SiO2 
 PCOD8136306
Probable space group: C 2/C
;
_chemical_formula_sum "Si O2"
_cell_formula_units_Z 48
_cell_length_a 20.506965
_cell_length_b 6.471672
_cell_length_c 20.697488
_cell_angle_alpha 90.000000
_cell_angle_beta 115.348851
_cell_angle_gamma 90.000000
_cell_volume 2482.380715
_symmetry_space_group_name_H-M "C 2/C"
_symmetry_group_IT_number 15
_symmetry_cell_setting 'monoclinic'
loop_
_space_group_symop_operation_xyz
x,y,z
-x,y,1/2-z
-x,-y,-z
x,-y,1/2+z
1/2+x,1/2+y,z
1/2-x,1/2+y,1/2-z
1/2-x,1/2-y,-z
1/2+x,1/2-y,1/2+z
loop_
_atom_site_type_symbol
_atom_site_label
_atom_site_fract_x
_atom_site_fract_y
_atom_site_fract_z
Si Si1 0.678019 0.509783 0.282387
Si Si2 0.099991 0.623473 0.209211
Si Si3 0.418817 0.182051 0.690383
Si Si4 0.949710 0.199631 0.468161
Si Si5 0.464071 0.993691 0.585680
Si Si6 0.681032 0.202758 0.665810
O O1 0.623258 0.358787 0.222786
O O2 0.634495 0.622955 0.321177
O O3 0.705268 0.669303 0.239177
O O4 0.745895 0.376925 0.338773
O O5 0.113021 0.508670 0.282516
O O6 0.139351 0.504821 0.167761
O O7 0.015776 0.627493 0.156937
O O8 0.500000 0.238255 0.750000
O O9 0.411549 0.122493 0.611419
O O10 0.928617 0.317560 0.525819
O O11 0.871377 0.157065 0.401916
O O12 0.996277 0.342288 0.441807
O O13 0.000000 0.000000 0.500000
#
# Coordination Sequence:
#
# PCOD8136306 Si02
#       6
#     8   8   8   8   8   8
#     4  11  19  33  56  82 111 145 175 238 282 329
#     4   9  18  33  54  79 109 143 178 229 278 319
#     4   9  20  34  52  82 111 141 183 226 280 336
#     4  10  20  35  56  79 107 151 187 232 273 328
#     4   9  19  36  53  78 111 143 187 231 272 328
#     4  10  20  33  53  84 110 138 192 223 277 336
#
# _framework density 19.336276999999999
#
# number of rings (size 3 to 8) (size 9 to 14) (size 15 to 20)
#    0.000    2.333    1.667    2.000    0.000    3.333 
#    0.000    0.833    0.000    2.000    0.000    0.000 
#    0.000    0.000    0.000    0.000    0.000    0.000 
#
# Total GULP energy -297378.384541 kJ/mol
# GULP energy per Si atom -12390.766023 kJ/mol
# Density = 1.929227 g / cm^3
# Si number density = 19.336277 Si / 1000 Ang^3
#
#
#
# Elastic Constant Matrix: (Units=GPa)
#
#
# Indices 1 2 3 4 5 6 
#
# 1 94.9196 44.0867 40.7241 0.0000 -0.1592 0.0000
# 2 44.0867 84.4370 35.7523 0.0001 0.1457 -0.0001
# 3 40.7241 35.7523 92.6793 0.0000 -1.1093 0.0000
# 4 0.0000 0.0001 0.0000 23.9905 0.0000 3.8259
# 5 -0.1592 0.1457 -1.1093 0.0000 28.1134 0.0000
# 6 0.0000 -0.0001 0.0000 3.8259 0.0000 36.0973
#
#
#
# Elastic Compliance Matrix: (Units=1/GPa)
#
#
# Indices 1 2 3 4 5 6 
#
# 1 0.015238 -0.006120 -0.004335 0.000000 -0.000053 0.000000
# 2 -0.006120 0.016616 -0.003724 0.000000 -0.000268 0.000000
# 3 -0.004335 -0.003724 0.014138 0.000000 0.000553 0.000000
# 4 0.000000 0.000000 0.000000 0.042400 0.000000 -0.004494
# 5 -0.000053 -0.000268 0.000553 0.000000 0.035593 0.000000
# 6 0.000000 0.000000 0.000000 -0.004494 0.000000 0.028179
#
#
# Mechanical properties :
#
#
# Convention : Reuss Voigt Hill
#
# Bulk Modulus (GPa) = 56.71162 57.01802 56.86482
# Shear Modulus (GPa) = 26.82405 27.73843 27.28124
#
# Velocity S-wave (km/s) = 3.72861 3.79163 3.76025
# Velocity P-wave (km/s) = 6.92311 6.97998 6.95161
#
# Compressibility (1/GPa) = 0.01763307
#
# Stress axis : x y z
#
# Youngs Moduli (GPa) = 65.62629 60.18338 70.73174
#
# Poissons Ratio (x) = 0.36834 0.30664
# Poissons Ratio (y) = 0.40165 0.26338
# Poissons Ratio (z) = 0.28451 0.22410
#
# Static dielectric constant tensor:
#      x y z
#    x 3.534150 0.000000 0.001280 
#    y 0.000000 3.516720 0.000000 
#    z 0.001280 0.000000 3.539300 
# 
# 
# High freq. dielectric constant tensor:
#      x y z
#    x 1.738600 0.000000 -0.002350 
#    y 0.000000 1.753420 0.000000 
#    z -0.002350 0.000000 1.726000 
# 
# From -- ./inp_files/254110.got.cif
#   From: 2010.06.25/outbox.cif.g09.slc.cpg/sg15_128_cif.got.tgz:254110.got - 2010.06.28 07:06:18.
