data_PCOD8136747
_publ_section_title
;
Structure prediction by ZEFSAII (Michael W. Deem and Ramdas Pophale) SiO2 
 PCOD8136747
Probable space group: C 2/C
;
_chemical_formula_sum "Si O2"
_cell_formula_units_Z 60
_cell_length_a 18.951735
_cell_length_b 23.592764
_cell_length_c 11.943964
_cell_angle_alpha 90.000000
_cell_angle_beta 142.667169
_cell_angle_gamma 90.000000
_cell_volume 3238.672769
_symmetry_space_group_name_H-M "C 2/C"
_symmetry_group_IT_number 15
_symmetry_cell_setting 'monoclinic'
loop_
_space_group_symop_operation_xyz
x,y,z
-x,y,1/2-z
-x,-y,-z
x,-y,1/2+z
1/2+x,1/2+y,z
1/2-x,1/2+y,1/2-z
1/2-x,1/2-y,-z
1/2+x,1/2-y,1/2+z
loop_
_atom_site_type_symbol
_atom_site_label
_atom_site_fract_x
_atom_site_fract_y
_atom_site_fract_z
Si Si1 0.269318 0.045955 0.026802
Si Si2 0.281953 0.085827 0.276273
Si Si3 0.260266 0.425372 0.410031
Si Si4 0.923063 0.271192 0.255863
Si Si5 0.500000 0.898914 0.750000
Si Si6 0.476005 0.129078 0.972160
Si Si7 0.288084 0.335670 0.622092
Si Si8 0.868307 0.019626 0.846085
O O1 0.239405 0.087418 0.093465
O O2 0.387808 0.061244 0.113579
O O3 0.284854 0.982032 0.088578
O O4 0.162335 0.053085 0.806102
O O5 0.423787 0.087241 0.451724
O O6 0.238285 0.140762 0.287706
O O7 0.228612 0.030164 0.267418
O O8 0.324473 0.386223 0.583383
O O9 0.357648 0.439031 0.439202
O O10 0.149408 0.396821 0.211735
O O11 0.989272 0.308993 0.431995
O O12 0.884519 0.212276 0.263678
O O13 0.000000 0.251793 0.250000
O O14 0.821766 0.308220 0.075540
O O15 0.508937 0.861657 0.874932
O O16 0.000000 0.000000 0.000000
#
# Coordination Sequence:
#
# PCOD8136747 Si02
#       8
#     8   8   8   8   4   8   8   8
#     4  10  21  34  56  87 116 156 190 235 280 356
#     4  10  21  35  57  84 119 154 187 236 297 338
#     4  10  21  34  57  85 117 153 196 235 290 341
#     4  10  20  35  59  83 113 146 192 246 303 338
#     4  10  20  34  62  88 120 146 194 234 300 344
#     4  10  20  36  59  85 116 148 191 254 295 341
#     4  10  20  36  56  86 114 147 192 244 293 352
#     4  11  23  38  54  82 125 165 195 226 275 361
#
# _framework density 18.526108000000001
#
# number of rings (size 3 to 8) (size 9 to 14) (size 15 to 20)
#    0.000    1.867    4.000    0.000    1.867    4.800 
#    0.000    0.000    0.000    6.400    0.000    0.000 
#    0.000    0.000    0.000    0.000    0.000    0.000 
#
# Total GULP energy -371821.526690 kJ/mol
# GULP energy per Si atom -12394.050890 kJ/mol
# Density = 1.848394 g / cm^3
# Si number density = 18.526108 Si / 1000 Ang^3
#
#
#
# Elastic Constant Matrix: (Units=GPa)
#
#
# Indices 1 2 3 4 5 6 
#
# 1 127.4954 51.7066 58.0924 0.0000 -9.4198 0.0000
# 2 51.7066 84.8890 34.1209 0.0000 -8.2482 0.0000
# 3 58.0924 34.1209 89.8563 0.0000 -7.3994 0.0000
# 4 0.0000 0.0000 0.0000 37.9739 0.0000 10.6468
# 5 -9.4198 -8.2482 -7.3994 0.0000 29.6069 0.0000
# 6 0.0000 0.0000 0.0000 10.6468 0.0000 40.2730
#
#
#
# Elastic Compliance Matrix: (Units=1/GPa)
#
#
# Indices 1 2 3 4 5 6 
#
# 1 0.012900 -0.005235 -0.006263 0.000000 0.001081 0.000000
# 2 -0.005235 0.016226 -0.002595 0.000000 0.002206 0.000000
# 3 -0.006263 -0.002595 0.016275 0.000000 0.001352 0.000000
# 4 0.000000 0.000000 0.000000 0.028442 0.000000 -0.007519
# 5 0.001081 0.002206 0.001352 0.000000 0.035072 0.000000
# 6 0.000000 0.000000 0.000000 -0.007519 0.000000 0.026818
#
#
# Mechanical properties :
#
#
# Convention : Reuss Voigt Hill
#
# Bulk Modulus (GPa) = 58.09169 65.56450 61.82810
# Shear Modulus (GPa) = 29.47081 32.12546 30.79814
#
# Velocity S-wave (km/s) = 3.99278 4.16873 4.08170
# Velocity P-wave (km/s) = 7.25817 7.65756 7.46054
#
# Compressibility (1/GPa) = 0.01721416
#
# Stress axis : x y z
#
# Youngs Moduli (GPa) = 77.51854 61.62773 61.44456
#
# Poissons Ratio (x) = 0.32263 0.38483
# Poissons Ratio (y) = 0.40582 0.15947
# Poissons Ratio (z) = 0.48550 0.15995
#
# Static dielectric constant tensor:
#      x y z
#    x 3.814020 0.000000 -0.136250 
#    y 0.000000 3.374710 0.000000 
#    z -0.136250 0.000000 3.372010 
# 
# 
# High freq. dielectric constant tensor:
#      x y z
#    x 1.735400 0.000000 -0.010400 
#    y 0.000000 1.694600 0.000000 
#    z -0.010400 0.000000 1.705870 
# 
# From -- ./inp_files/100977.got.cif
#   From: 2010.06.25/outbox.cif.g09.slc.cpg/sg15_51_cif.got.tgz:100977.got - 2010.06.28 07:06:18.
