data_PCOD8136826
_publ_section_title
;
Structure prediction by ZEFSAII (Michael W. Deem and Ramdas Pophale) SiO2 
 PCOD8136826
Probable space group: C 2/C
;
_chemical_formula_sum "Si O2"
_cell_formula_units_Z 36
_cell_length_a 25.600027
_cell_length_b 20.767648
_cell_length_c 5.292916
_cell_angle_alpha 90.000000
_cell_angle_beta 36.104214
_cell_angle_gamma 90.000000
_cell_volume 1658.160601
_symmetry_space_group_name_H-M "C 2/C"
_symmetry_group_IT_number 15
_symmetry_cell_setting 'monoclinic'
loop_
_space_group_symop_operation_xyz
x,y,z
-x,y,1/2-z
-x,-y,-z
x,-y,1/2+z
1/2+x,1/2+y,z
1/2-x,1/2+y,1/2-z
1/2-x,1/2-y,-z
1/2+x,1/2-y,1/2+z
loop_
_atom_site_type_symbol
_atom_site_label
_atom_site_fract_x
_atom_site_fract_y
_atom_site_fract_z
Si Si1 0.385382 0.461280 0.537193
Si Si2 0.822539 0.538527 0.657111
Si Si3 0.396142 0.821150 0.885424
Si Si4 0.500000 0.349996 0.250000
Si Si5 0.588351 0.767644 0.175318
O O1 0.414517 0.503263 0.182372
O O2 0.434594 0.392887 0.335153
O O3 0.281540 0.447158 0.938914
O O4 0.850607 0.496079 0.306636
O O5 0.874418 0.604766 0.433393
O O6 0.501705 0.812845 0.492723
O O7 0.358325 0.778986 0.794644
O O8 0.353812 0.792364 0.310317
O O9 0.441740 0.306283 0.668794
#
# Coordination Sequence:
#
# PCOD8136826 Si02
#       5
#     8   8   8   4   8
#     4  10  22  36  55  82 107 135 174 215 260 313
#     4  10  20  35  54  77 107 141 172 213 264 309
#     4   9  17  35  51  73 109 135 170 222 251 298
#     4  10  20  38  58  78 106 140 172 216 264 310
#     4   9  20  33  52  77 103 138 176 213 255 303
#
# _framework density 21.710802999999999
#
# number of rings (size 3 to 8) (size 9 to 14) (size 15 to 20)
#    0.000    2.667    0.000    2.000    0.000    7.111 
#    0.000   18.889    0.000    0.000    0.000    1.556 
#    0.000    0.000    0.000    0.000    0.000    0.000 
#
# Total GULP energy -223110.927360 kJ/mol
# GULP energy per Si atom -12395.051520 kJ/mol
# Density = 2.166139 g / cm^3
# Si number density = 21.710803 Si / 1000 Ang^3
#
#
#
# Elastic Constant Matrix: (Units=GPa)
#
#
# Indices 1 2 3 4 5 6 
#
# 1 101.9801 53.7094 50.2812 0.0000 51.0887 0.0000
# 2 53.7094 164.4119 47.3030 0.0000 6.8038 0.0000
# 3 50.2812 47.3030 56.4758 0.0000 35.9491 0.0000
# 4 0.0000 0.0000 0.0000 1.6719 0.0000 9.4278
# 5 51.0887 6.8038 35.9491 0.0000 45.6965 0.0000
# 6 0.0000 0.0000 0.0000 9.4278 0.0000 25.9607
#
#
#
# Elastic Compliance Matrix: (Units=1/GPa)
#
#
# Indices 1 2 3 4 5 6 
#
# 1 0.031566 -0.009718 0.003163 0.000000 -0.036332 0.000000
# 2 -0.009718 0.012895 -0.015708 0.000000 0.021303 0.000000
# 3 0.003163 -0.015708 0.057707 0.000000 -0.046596 0.000000
# 4 0.000000 0.000000 0.000000 -0.570806 0.000000 0.207292
# 5 -0.036332 0.021303 -0.046596 0.000000 0.095987 0.000000
# 6 0.000000 0.000000 0.000000 0.207292 0.000000 -0.036760
#
#
# Mechanical properties :
#
#
# Convention : Reuss Voigt Hill
#
# Bulk Modulus (GPa) = 17.34865 69.49499 43.42182
# Shear Modulus (GPa) = -14.46459 26.10411 5.81976
#
# Velocity S-wave (km/s) = -2.58396 3.47126 1.63902
# Velocity P-wave (km/s) = 0.94569 6.93867 4.86060
#
# Compressibility (1/GPa) = 0.05764136
#
# Stress axis : x y z
#
# Youngs Moduli (GPa) = 31.68011 77.55047 17.32895
#
# Poissons Ratio (x) = 0.75366 -0.05482
# Poissons Ratio (y) = 0.30788 0.27220
# Poissons Ratio (z) = -0.10022 1.21816
#
# Static dielectric constant tensor:
#      x y z
#    x 4.960950 0.000000 1.156600 
#    y 0.000000 3.750560 0.000000 
#    z 1.156600 0.000000 4.402450 
# 
# 
# High freq. dielectric constant tensor:
#      x y z
#    x 1.862930 0.000000 0.032480 
#    y 0.000000 1.850610 0.000000 
#    z 0.032480 0.000000 1.832780 
# 
# From -- ./inp_files/15260.got.cif
#   From: 2010.06.25/outbox.cif.g09.slc.cpg/sg15_8_cif.got.tgz:15260.got - 2010.06.28 07:06:18.
