data_PCOD8136925
_publ_section_title
;
Structure prediction by ZEFSAII (Michael W. Deem and Ramdas Pophale) SiO2 
 PCOD8136925
Probable space group: C 2/C
;
_chemical_formula_sum "Si O2"
_cell_formula_units_Z 48
_cell_length_a 15.102752
_cell_length_b 13.010476
_cell_length_c 25.425202
_cell_angle_alpha 90.000000
_cell_angle_beta 30.182091
_cell_angle_gamma 90.000000
_cell_volume 2511.687323
_symmetry_space_group_name_H-M "C 2/C"
_symmetry_group_IT_number 15
_symmetry_cell_setting 'monoclinic'
loop_
_space_group_symop_operation_xyz
x,y,z
-x,y,1/2-z
-x,-y,-z
x,-y,1/2+z
1/2+x,1/2+y,z
1/2-x,1/2+y,1/2-z
1/2-x,1/2-y,-z
1/2+x,1/2-y,1/2+z
loop_
_atom_site_type_symbol
_atom_site_label
_atom_site_fract_x
_atom_site_fract_y
_atom_site_fract_z
Si Si1 0.284949 0.293028 0.591979
Si Si2 0.203355 0.488878 0.790339
Si Si3 0.684961 0.675299 0.183610
Si Si4 0.951925 0.686610 0.190160
Si Si5 0.525033 0.890005 0.463403
Si Si6 0.384319 0.653552 0.637200
O O1 0.216434 0.324309 0.684833
O O2 0.343092 0.173767 0.566613
O O3 0.454083 0.358926 0.486898
O O4 0.133317 0.307660 0.627660
O O5 0.312013 0.422049 0.777647
O O6 0.053911 0.415393 0.842538
O O7 0.328766 0.537506 0.681132
O O8 0.107495 0.590617 0.863620
O O9 0.500000 0.681890 0.250000
O O10 0.722685 0.781765 0.194948
O O11 0.833817 0.664230 0.061546
O O12 0.948021 0.788081 0.156876
O O13 0.500000 0.000000 0.500000
#
# Coordination Sequence:
#
# PCOD8136925 Si02
#       6
#     8   8   8   8   8   8
#     4  10  20  36  58  83 117 148 184 238 284 330
#     4  10  20  35  57  81 115 146 187 234 275 337
#     4   9  20  36  55  82 109 145 190 229 276 331
#     4  10  21  36  56  87 116 145 192 231 285 334
#     4   9  18  35  57  82 110 146 184 234 276 323
#     4  10  20  36  58  80 115 149 182 236 283 327
#
# _framework density 19.110658999999998
#
# number of rings (size 3 to 8) (size 9 to 14) (size 15 to 20)
#    0.000    2.333    1.667    1.500    0.000    4.667 
#    3.000    0.833    0.000    0.000    0.000    0.000 
#    0.000    0.000    0.000    0.000    0.000    0.000 
#
# Total GULP energy -297422.580210 kJ/mol
# GULP energy per Si atom -12392.607509 kJ/mol
# Density = 1.906716 g / cm^3
# Si number density = 19.110659 Si / 1000 Ang^3
#
#
#
# Elastic Constant Matrix: (Units=GPa)
#
#
# Indices 1 2 3 4 5 6 
#
# 1 87.4896 26.0418 41.1957 0.0006 -16.0783 0.0003
# 2 26.0418 67.9984 27.6762 -0.0007 -11.8053 0.0003
# 3 41.1957 27.6762 104.6351 0.0014 -7.4549 0.0015
# 4 0.0006 -0.0007 0.0014 26.9520 -0.0008 9.1515
# 5 -16.0783 -11.8053 -7.4549 -0.0008 26.0586 -0.0002
# 6 0.0003 0.0003 0.0015 9.1515 -0.0002 24.5626
#
#
#
# Elastic Compliance Matrix: (Units=1/GPa)
#
#
# Indices 1 2 3 4 5 6 
#
# 1 0.015945 -0.002826 -0.005023 0.000000 0.007121 0.000000
# 2 -0.002826 0.018079 -0.003277 0.000001 0.005509 0.000000
# 3 -0.005023 -0.003277 0.012326 0.000000 -0.001057 0.000000
# 4 0.000000 0.000001 0.000000 0.042477 0.000001 -0.015826
# 5 0.007121 0.005509 -0.001057 0.000001 0.044962 0.000000
# 6 0.000000 0.000000 0.000000 -0.015826 0.000000 0.046609
#
#
# Mechanical properties :
#
#
# Convention : Reuss Voigt Hill
#
# Bulk Modulus (GPa) = 41.49646 49.99448 45.74547
# Shear Modulus (GPa) = 23.73266 26.52860 25.13063
#
# Velocity S-wave (km/s) = 3.52782 3.72984 3.63024
# Velocity P-wave (km/s) = 6.19314 6.69076 6.44675
#
# Compressibility (1/GPa) = 0.02409844
#
# Stress axis : x y z
#
# Youngs Moduli (GPa) = 62.71658 55.31399 81.12991
#
# Poissons Ratio (x) = 0.15631 0.40750
# Poissons Ratio (y) = 0.17723 0.26584
# Poissons Ratio (z) = 0.31501 0.18125
#
# Static dielectric constant tensor:
#      x y z
#    x 3.649840 0.000000 0.758840 
#    y 0.000000 3.425530 0.000010 
#    z 0.758840 0.000010 4.479880 
# 
# 
# High freq. dielectric constant tensor:
#      x y z
#    x 1.725950 0.000000 0.015840 
#    y 0.000000 1.733110 0.000000 
#    z 0.015840 0.000000 1.753250 
# 
# From -- ./inp_files/151806.got.cif
#   From: 2010.06.25/outbox.cif.g09.slc.cpg/sg15_76_cif.got.tgz:151806.got - 2010.06.28 07:06:18.
