data_PCOD8136107
_publ_section_title
;
Structure prediction by ZEFSAII (Michael W. Deem and Ramdas Pophale) SiO2 
 PCOD8136107
Probable space group: C 2/C
;
_chemical_formula_sum "Si O2"
_cell_formula_units_Z 64
_cell_length_a 13.191718
_cell_length_b 22.064350
_cell_length_c 17.908604
_cell_angle_alpha 90.000000
_cell_angle_beta 134.722662
_cell_angle_gamma 90.000000
_cell_volume 3703.661397
_symmetry_space_group_name_H-M "C 2/C"
_symmetry_group_IT_number 15
_symmetry_cell_setting 'monoclinic'
loop_
_space_group_symop_operation_xyz
x,y,z
-x,y,1/2-z
-x,-y,-z
x,-y,1/2+z
1/2+x,1/2+y,z
1/2-x,1/2+y,1/2-z
1/2-x,1/2-y,-z
1/2+x,1/2-y,1/2+z
loop_
_atom_site_type_symbol
_atom_site_label
_atom_site_fract_x
_atom_site_fract_y
_atom_site_fract_z
Si Si1 0.355797 0.178983 0.505424
Si Si2 0.549220 0.723037 0.350916
Si Si3 0.442032 0.565982 0.952847
Si Si4 0.123280 0.581399 0.103358
Si Si5 0.639790 0.915845 0.365997
Si Si6 0.858693 0.514384 0.016618
Si Si7 0.540563 0.530844 0.853824
Si Si8 0.080612 0.098734 0.166728
O O1 0.472548 0.229814 0.591338
O O2 0.213138 0.214422 0.414991
O O3 0.406889 0.142720 0.458900
O O4 0.315682 0.134972 0.552507
O O5 0.500000 0.756166 0.250000
O O6 0.467160 0.659718 0.317247
O O7 0.274185 0.573329 0.881484
O O8 0.461110 0.574306 0.873282
O O9 0.500000 0.500000 0.000000
O O10 0.540995 0.608080 0.058072
O O11 0.251437 0.588803 0.229702
O O12 0.977114 0.566625 0.070369
O O13 0.159837 0.525876 0.067612
O O14 0.500000 0.894462 0.250000
O O15 0.595957 0.976061 0.387894
O O16 0.706591 0.544392 0.952857
O O17 0.500000 0.552215 0.750000
O O18 0.508454 0.458942 0.848169
#
# Coordination Sequence:
#
# PCOD8136107 Si02
#       8
#     8   8   8   8   8   8   8   8
#     4  10  21  34  48  78 109 140 176 222 267 323
#     4  11  19  32  56  75 102 143 181 221 271 317
#     4  10  21  33  49  76 106 141 184 215 255 319
#     4  10  20  32  51  76 108 145 180 215 266 316
#     4  11  21  33  48  74 117 145 164 223 275 313
#     4  10  20  31  49  76 107 148 177 216 261 317
#     4  11  20  33  53  75 109 147 182 213 256 324
#     4  11  18  34  55  75 103 145 183 216 255 322
#
# _framework density 17.280197999999999
#
# number of rings (size 3 to 8) (size 9 to 14) (size 15 to 20)
#    0.000    1.500    6.250    1.500    3.500    1.000 
#    0.000    0.000    0.000    0.000    0.000    0.875 
#    0.000    3.000    0.000    0.000    0.000    0.000 
#
# Total GULP energy -396564.347650 kJ/mol
# GULP energy per Si atom -12392.635864 kJ/mol
# Density = 1.724087 g / cm^3
# Si number density = 17.280198 Si / 1000 Ang^3
#
#
#
# Elastic Constant Matrix: (Units=GPa)
#
#
# Indices 1 2 3 4 5 6 
#
# 1 99.9773 33.9638 49.2192 -0.0001 2.8876 0.0000
# 2 33.9638 54.0232 31.8376 0.0000 4.8916 0.0000
# 3 49.2192 31.8376 116.5560 -0.0002 0.8599 -0.0002
# 4 -0.0001 0.0000 -0.0002 21.9200 -0.0002 -1.6356
# 5 2.8876 4.8916 0.8599 -0.0002 35.2863 -0.0001
# 6 0.0000 0.0000 -0.0002 -1.6356 -0.0001 13.4978
#
#
#
# Elastic Compliance Matrix: (Units=1/GPa)
#
#
# Indices 1 2 3 4 5 6 
#
# 1 0.014306 -0.006459 -0.004276 0.000000 -0.000171 0.000000
# 2 -0.006459 0.025281 -0.004157 0.000000 -0.002875 0.000000
# 3 -0.004276 -0.004157 0.011516 0.000000 0.000646 0.000000
# 4 0.000000 0.000000 0.000000 0.046037 0.000000 0.005579
# 5 -0.000171 -0.002875 0.000646 0.000000 0.028736 0.000000
# 6 0.000000 0.000000 0.000000 0.005579 0.000000 0.074762
#
#
# Mechanical properties :
#
#
# Convention : Reuss Voigt Hill
#
# Bulk Modulus (GPa) = 46.90373 55.62195 51.26284
# Shear Modulus (GPa) = 21.05008 24.50989 22.77999
#
# Velocity S-wave (km/s) = 3.49400 3.77022 3.63474
# Velocity P-wave (km/s) = 6.59389 7.15618 6.88078
#
# Compressibility (1/GPa) = 0.02132026
#
# Stress axis : x y z
#
# Youngs Moduli (GPa) = 69.89887 39.55481 86.83682
#
# Poissons Ratio (x) = 0.25548 0.37129
# Poissons Ratio (y) = 0.45147 0.36098
# Poissons Ratio (z) = 0.29887 0.16443
#
# Static dielectric constant tensor:
#      x y z
#    x 3.362680 0.000000 -0.312420 
#    y 0.000000 3.120440 0.000000 
#    z -0.312420 0.000000 3.683530 
# 
# 
# High freq. dielectric constant tensor:
#      x y z
#    x 1.641990 0.000000 -0.001410 
#    y 0.000000 1.631320 0.000000 
#    z -0.001410 0.000000 1.690810 
# 
# From -- ./inp_files/200797.got.cif
#   From: 2010.06.25/outbox.cif.g09.slc.cpg/sg15_101_cif.got.tgz:200797.got - 2010.06.28 07:06:18.
