data_PCOD8136102
_publ_section_title
;
Structure prediction by ZEFSAII (Michael W. Deem and Ramdas Pophale) SiO2 
 PCOD8136102
Probable space group: C 2/C
;
_chemical_formula_sum "Si O2"
_cell_formula_units_Z 60
_cell_length_a 16.759998
_cell_length_b 22.957001
_cell_length_c 8.829041
_cell_angle_alpha 90.000000
_cell_angle_beta 73.298937
_cell_angle_gamma 90.000000
_cell_volume 3253.758114
_symmetry_space_group_name_H-M "C 2/C"
_symmetry_group_IT_number 15
_symmetry_cell_setting 'monoclinic'
loop_
_space_group_symop_operation_xyz
x,y,z
-x,y,1/2-z
-x,-y,-z
x,-y,1/2+z
1/2+x,1/2+y,z
1/2-x,1/2+y,1/2-z
1/2-x,1/2-y,-z
1/2+x,1/2-y,1/2+z
loop_
_atom_site_type_symbol
_atom_site_label
_atom_site_fract_x
_atom_site_fract_y
_atom_site_fract_z
Si Si1 0.088628 0.824703 0.686252
Si Si2 0.244892 0.915082 0.142316
Si Si3 0.305299 0.491671 0.063704
Si Si4 0.846164 0.682582 0.456253
Si Si5 0.867414 0.179569 0.668205
Si Si6 0.000000 0.736397 0.250000
Si Si7 0.412416 0.449496 0.744923
Si Si8 0.732647 0.269418 0.788045
O O1 0.101283 0.845708 0.507194
O O2 0.077029 0.881399 0.799576
O O3 0.169363 0.790142 0.694428
O O4 0.000000 0.789511 0.750000
O O5 0.161507 0.874482 0.207825
O O6 0.255112 0.954536 0.289778
O O7 0.241015 0.954476 0.993179
O O8 0.325704 0.873637 0.072194
O O9 0.383689 0.515417 0.114616
O O10 0.341388 0.451415 0.912418
O O11 0.944987 0.690381 0.377301
O O12 0.792086 0.679860 0.328074
O O13 0.821860 0.743636 0.546123
O O14 0.787338 0.219553 0.679938
O O15 0.939708 0.220328 0.693648
O O16 0.500000 0.477356 0.750000
#
# Coordination Sequence:
#
# PCOD8136102 Si02
#       8
#     8   8   8   8   8   4   8   8
#     4  11  20  30  47  74 108 140 174 215 266 318
#     4  10  20  36  55  76 105 138 184 218 266 311
#     4  10  20  35  50  71 100 140 184 223 256 318
#     4   9  18  34  55  78 103 140 177 227 262 326
#     4  10  20  34  51  77 107 142 176 222 262 326
#     4  10  20  34  56  82 108 136 182 214 280 326
#     4  10  20  31  46  67 101 134 175 217 266 303
#     4   9  18  32  51  73 105 140 180 211 267 320
#
# _framework density 18.440214000000001
#
# number of rings (size 3 to 8) (size 9 to 14) (size 15 to 20)
#    0.000    2.133    1.333    3.200    0.000    2.133 
#    4.800    0.000    0.000    0.800    0.000    0.000 
#    0.000    0.000    0.000    0.000    0.000    0.000 
#
# Total GULP energy -371676.015567 kJ/mol
# GULP energy per Si atom -12389.200519 kJ/mol
# Density = 1.839824 g / cm^3
# Si number density = 18.440214 Si / 1000 Ang^3
#
#
#
# Elastic Constant Matrix: (Units=GPa)
#
#
# Indices 1 2 3 4 5 6 
#
# 1 81.9464 37.6786 30.8695 0.0000 -12.0673 0.0000
# 2 37.6786 81.2233 32.4490 0.0000 -6.0613 0.0000
# 3 30.8695 32.4490 76.2152 0.0000 -8.9220 0.0000
# 4 0.0000 0.0000 0.0000 30.8731 0.0000 -2.5623
# 5 -12.0673 -6.0613 -8.9220 0.0000 28.4889 0.0000
# 6 0.0000 0.0000 0.0000 -2.5623 0.0000 23.9847
#
#
#
# Elastic Compliance Matrix: (Units=1/GPa)
#
#
# Indices 1 2 3 4 5 6 
#
# 1 0.017128 -0.006074 -0.003792 0.000000 0.004775 0.000000
# 2 -0.006074 0.017030 -0.004845 0.000000 -0.000467 0.000000
# 3 -0.003792 -0.004845 0.017035 0.000000 0.002698 0.000000
# 4 0.000000 0.000000 0.000000 0.032680 0.000000 0.003491
# 5 0.004775 -0.000467 0.002698 0.000000 0.037870 0.000000
# 6 0.000000 0.000000 0.000000 0.003491 0.000000 0.042066
#
#
# Mechanical properties :
#
#
# Convention : Reuss Voigt Hill
#
# Bulk Modulus (GPa) = 45.93382 49.04211 47.48796
# Shear Modulus (GPa) = 24.93904 25.89520 25.41712
#
# Velocity S-wave (km/s) = 3.68152 3.75144 3.71664
# Velocity P-wave (km/s) = 6.56012 6.73924 6.65028
#
# Compressibility (1/GPa) = 0.02177045
#
# Stress axis : x y z
#
# Youngs Moduli (GPa) = 58.38540 58.71919 58.70132
#
# Poissons Ratio (x) = 0.35666 0.22261
# Poissons Ratio (y) = 0.35463 0.28442
# Poissons Ratio (z) = 0.22141 0.28451
#
# Static dielectric constant tensor:
#      x y z
#    x 3.252550 0.000000 -0.100980 
#    y 0.000000 3.329650 0.000000 
#    z -0.100980 0.000000 3.493800 
# 
# 
# High freq. dielectric constant tensor:
#      x y z
#    x 1.684510 0.000000 -0.004250 
#    y 0.000000 1.703050 0.000000 
#    z -0.004250 0.000000 1.721440 
# 
# From -- ./inp_files/42168.got.cif
#   From: 2010.06.25/outbox.cif.g09.slc.cpg/sg15_22_cif.got.tgz:42168.got - 2010.06.28 07:06:18.
