data_PCOD8136648
_publ_section_title
;
Structure prediction by ZEFSAII (Michael W. Deem and Ramdas Pophale) SiO2 
 PCOD8136648
Probable space group: C 2/C
;
_chemical_formula_sum "Si O2"
_cell_formula_units_Z 60
_cell_length_a 16.494772
_cell_length_b 15.483179
_cell_length_c 21.895725
_cell_angle_alpha 90.000000
_cell_angle_beta 146.586008
_cell_angle_gamma 90.000000
_cell_volume 3079.418483
_symmetry_space_group_name_H-M "C 2/C"
_symmetry_group_IT_number 15
_symmetry_cell_setting 'monoclinic'
loop_
_space_group_symop_operation_xyz
x,y,z
-x,y,1/2-z
-x,-y,-z
x,-y,1/2+z
1/2+x,1/2+y,z
1/2-x,1/2+y,1/2-z
1/2-x,1/2-y,-z
1/2+x,1/2-y,1/2+z
loop_
_atom_site_type_symbol
_atom_site_label
_atom_site_fract_x
_atom_site_fract_y
_atom_site_fract_z
Si Si1 0.237794 0.332210 0.034861
Si Si2 0.776850 0.704693 0.417488
Si Si3 0.053884 0.362783 0.029235
Si Si4 0.732466 0.624708 0.518221
Si Si5 0.405147 0.581185 0.278761
Si Si6 0.500000 0.436785 0.250000
Si Si7 0.442773 0.029681 0.151383
Si Si8 0.862976 0.495628 0.834216
O O1 0.164291 0.309276 0.054440
O O2 0.395794 0.375982 0.144152
O O3 0.250000 0.250000 0.000000
O O4 0.133521 0.397225 0.934839
O O5 0.789932 0.649394 0.487359
O O6 0.738461 0.802424 0.412242
O O7 0.650109 0.665066 0.294134
O O8 0.933771 0.702415 0.481940
O O9 0.146608 0.408864 0.141666
O O10 0.978670 0.438737 0.944165
O O11 0.559990 0.602423 0.406728
O O12 0.826825 0.543426 0.597923
O O13 0.405081 0.498984 0.233686
O O14 0.293527 0.554196 0.262605
O O15 0.500000 0.071278 0.250000
O O16 0.581442 0.992959 0.200138
#
# Coordination Sequence:
#
# PCOD8136648 Si02
#       8
#     8   8   8   8   8   4   8   8
#     4  11  24  41  64  91 118 161 219 268 316 365
#     4  10  20  34  58  91 125 157 200 259 313 359
#     4   9  17  36  61  86 117 154 214 260 296 375
#     4  11  21  35  59  93 128 158 205 252 313 388
#     4  11  19  37  63  92 120 160 218 259 298 373
#     4  12  20  38  68  90 116 162 218 270 300 370
#     4  11  23  42  61  89 131 169 201 255 333 389
#     4   9  18  35  64  88 112 165 214 253 306 369
#
# _framework density 19.484197999999999
#
# number of rings (size 3 to 8) (size 9 to 14) (size 15 to 20)
#    0.000    1.600    5.333    0.000    0.933    2.133 
#    2.400    3.333    0.000    0.000    0.000    0.000 
#    0.000    0.000    0.000    0.000    0.000    0.000 
#
# Total GULP energy -371953.065334 kJ/mol
# GULP energy per Si atom -12398.435511 kJ/mol
# Density = 1.943985 g / cm^3
# Si number density = 19.484198 Si / 1000 Ang^3
#
#
#
# Elastic Constant Matrix: (Units=GPa)
#
#
# Indices 1 2 3 4 5 6 
#
# 1 134.0716 44.4765 51.7506 0.0012 10.6137 -0.0001
# 2 44.4765 83.6874 32.0307 0.0029 7.0871 0.0001
# 3 51.7506 32.0307 85.4929 0.0045 5.5541 -0.0006
# 4 0.0012 0.0029 0.0045 18.9839 0.0006 -15.3442
# 5 10.6137 7.0871 5.5541 0.0006 23.1476 -0.0005
# 6 -0.0001 0.0001 -0.0006 -15.3442 -0.0005 9.8129
#
#
#
# Elastic Compliance Matrix: (Units=1/GPa)
#
#
# Indices 1 2 3 4 5 6 
#
# 1 0.010797 -0.003594 -0.005017 -0.000003 -0.002647 -0.000006
# 2 -0.003594 0.015363 -0.003436 0.000006 -0.002232 0.000009
# 3 -0.005017 -0.003436 0.016054 0.000008 -0.000500 0.000014
# 4 -0.000003 0.000006 0.000008 -0.199626 -0.000004 -0.312150
# 5 -0.002647 -0.002232 -0.000500 -0.000004 0.045218 -0.000004
# 6 -0.000006 0.000009 0.000014 -0.312150 -0.000004 -0.386193
#
#
# Mechanical properties :
#
#
# Convention : Reuss Voigt Hill
#
# Bulk Modulus (GPa) = 55.18631 62.19642 58.69136
# Shear Modulus (GPa) = -10.67795 22.05515 5.68860
#
# Velocity S-wave (km/s) = -2.34355 3.36810 1.71054
# Velocity P-wave (km/s) = 4.58935 6.86412 5.83859
#
# Compressibility (1/GPa) = 0.01812044
#
# Stress axis : x y z
#
# Youngs Moduli (GPa) = 92.61806 65.09112 62.29133
#
# Poissons Ratio (x) = 0.23392 0.31253
# Poissons Ratio (y) = 0.33284 0.21401
# Poissons Ratio (z) = 0.46469 0.22363
#
# Static dielectric constant tensor:
#      x y z
#    x 3.889450 0.000000 0.113940 
#    y 0.000000 3.475070 0.000000 
#    z 0.113940 0.000000 3.329510 
# 
# 
# High freq. dielectric constant tensor:
#      x y z
#    x 1.766870 0.000000 0.013180 
#    y 0.000000 1.738930 0.000000 
#    z 0.013180 0.000000 1.743910 
# 
# From -- ./inp_files/277578.got.cif
#   From: 2010.06.25/outbox.cif.g09.slc.cpg/sg15_139_cif.got.tgz:277578.got - 2010.06.28 07:06:18.
