data_PCOD8136525
_publ_section_title
;
Structure prediction by ZEFSAII (Michael W. Deem and Ramdas Pophale) SiO2 
 PCOD8136525
Probable space group: C 2/C
;
_chemical_formula_sum "Si O2"
_cell_formula_units_Z 64
_cell_length_a 13.915714
_cell_length_b 30.944684
_cell_length_c 8.839736
_cell_angle_alpha 90.000000
_cell_angle_beta 58.901024
_cell_angle_gamma 90.000000
_cell_volume 3259.453378
_symmetry_space_group_name_H-M "C 2/C"
_symmetry_group_IT_number 15
_symmetry_cell_setting 'monoclinic'
loop_
_space_group_symop_operation_xyz
x,y,z
-x,y,1/2-z
-x,-y,-z
x,-y,1/2+z
1/2+x,1/2+y,z
1/2-x,1/2+y,1/2-z
1/2-x,1/2-y,-z
1/2+x,1/2-y,1/2+z
loop_
_atom_site_type_symbol
_atom_site_label
_atom_site_fract_x
_atom_site_fract_y
_atom_site_fract_z
Si Si1 0.748672 0.196195 0.826133
Si Si2 0.644674 0.551796 0.443432
Si Si3 0.291515 0.477041 0.921272
Si Si4 0.909182 0.764465 0.437779
Si Si5 0.448901 0.314431 0.947972
Si Si6 0.915334 0.089016 0.520949
Si Si7 0.422657 0.024140 0.443813
Si Si8 0.239489 0.399797 0.410782
O O1 0.816949 0.210295 0.917749
O O2 0.822426 0.199390 0.609773
O O3 0.699095 0.148632 0.904539
O O4 0.642286 0.228539 0.906344
O O5 0.629063 0.516913 0.591225
O O6 0.712059 0.527628 0.256376
O O7 0.527760 0.563169 0.462174
O O8 0.719718 0.591898 0.447888
O O9 0.333783 0.433470 0.965741
O O10 0.162910 0.489751 0.064285
O O11 0.000000 0.742550 0.250000
O O12 0.966819 0.801664 0.488561
O O13 0.500000 0.293908 0.750000
O O14 0.448662 0.365366 0.923502
O O15 0.854542 0.093567 0.728319
O O16 0.500000 0.043636 0.250000
O O17 0.354829 0.065672 0.565413
O O18 0.500000 0.000000 0.500000
#
# Coordination Sequence:
#
# PCOD8136525 Si02
#       8
#     8   8   8   8   8   8   8   8
#     4   9  19  35  57  81 109 139 179 229 266 323
#     4  11  21  34  52  78 110 142 175 220 275 329
#     4  11  22  35  52  77 105 142 186 222 269 324
#     4   9  18  35  57  82 110 144 179 218 273 328
#     4  10  20  34  55  83 113 146 177 216 278 338
#     4  11  21  35  53  80 114 141 173 222 276 336
#     4  11  22  38  54  70  99 141 185 228 265 303
#     4  10  21  36  55  79 104 139 182 223 271 322
#
# _framework density 19.635193999999998
#
# number of rings (size 3 to 8) (size 9 to 14) (size 15 to 20)
#    0.000    1.750    0.000    6.375    0.000    5.000 
#    0.000    0.000    0.000    3.750    0.000    0.000 
#    0.000    0.000    0.000    0.000    0.000    0.000 
#
# Total GULP energy -396500.973782 kJ/mol
# GULP energy per Si atom -12390.655431 kJ/mol
# Density = 1.959050 g / cm^3
# Si number density = 19.635194 Si / 1000 Ang^3
#
#
#
# Elastic Constant Matrix: (Units=GPa)
#
#
# Indices 1 2 3 4 5 6 
#
# 1 79.7072 36.7219 16.1488 0.0000 -8.5928 0.0000
# 2 36.7219 105.3358 32.1308 0.0000 -10.1244 0.0000
# 3 16.1488 32.1308 98.0544 0.0000 -6.2580 0.0000
# 4 0.0000 0.0000 0.0000 23.0727 0.0000 -4.7594
# 5 -8.5928 -10.1244 -6.2580 0.0000 26.7361 0.0000
# 6 0.0000 0.0000 0.0000 -4.7594 0.0000 21.3820
#
#
#
# Elastic Compliance Matrix: (Units=1/GPa)
#
#
# Indices 1 2 3 4 5 6 
#
# 1 0.015221 -0.004799 -0.000749 0.000000 0.002899 0.000000
# 2 -0.004799 0.012344 -0.003101 0.000000 0.002406 0.000000
# 3 -0.000749 -0.003101 0.011418 0.000000 0.001258 0.000000
# 4 0.000000 0.000000 0.000000 0.045427 0.000000 0.010112
# 5 0.002899 0.002406 0.001258 0.000000 0.039540 0.000000
# 6 0.000000 0.000000 0.000000 0.010112 0.000000 0.049019
#
#
# Mechanical properties :
#
#
# Convention : Reuss Voigt Hill
#
# Bulk Modulus (GPa) = 46.11558 50.34448 48.23003
# Shear Modulus (GPa) = 25.31697 27.44455 26.38076
#
# Velocity S-wave (km/s) = 3.59467 3.74267 3.66942
# Velocity P-wave (km/s) = 6.38483 6.66126 6.52451
#
# Compressibility (1/GPa) = 0.02168464
#
# Stress axis : x y z
#
# Youngs Moduli (GPa) = 65.69732 81.01317 87.57971
#
# Poissons Ratio (x) = 0.38880 0.06561
# Poissons Ratio (y) = 0.31530 0.27157
# Poissons Ratio (z) = 0.04922 0.25121
#
# Static dielectric constant tensor:
#      x y z
#    x 3.475090 0.000000 -0.114050 
#    y 0.000000 3.629820 0.000000 
#    z -0.114050 0.000000 3.947990 
# 
# 
# High freq. dielectric constant tensor:
#      x y z
#    x 1.751820 0.000000 -0.003620 
#    y 0.000000 1.752080 0.000000 
#    z -0.003620 0.000000 1.774060 
# 
# From -- ./inp_files/44544.got.cif
#   From: 2010.06.25/outbox.cif.g09.slc.cpg/sg15_23_cif.got.tgz:44544.got - 2010.06.28 07:06:18.
