data_PCOD8136647
_publ_section_title
;
Structure prediction by ZEFSAII (Michael W. Deem and Ramdas Pophale) SiO2 
 PCOD8136647
Probable space group: C 2/C
;
_chemical_formula_sum "Si O2"
_cell_formula_units_Z 56
_cell_length_a 14.237872
_cell_length_b 9.490268
_cell_length_c 24.480863
_cell_angle_alpha 90.000000
_cell_angle_beta 55.554497
_cell_angle_gamma 90.000000
_cell_volume 2727.894767
_symmetry_space_group_name_H-M "C 2/C"
_symmetry_group_IT_number 15
_symmetry_cell_setting 'monoclinic'
loop_
_space_group_symop_operation_xyz
x,y,z
-x,y,1/2-z
-x,-y,-z
x,-y,1/2+z
1/2+x,1/2+y,z
1/2-x,1/2+y,1/2-z
1/2-x,1/2-y,-z
1/2+x,1/2-y,1/2+z
loop_
_atom_site_type_symbol
_atom_site_label
_atom_site_fract_x
_atom_site_fract_y
_atom_site_fract_z
Si Si1 0.618575 0.960611 0.933676
Si Si2 0.083582 0.614839 0.272019
Si Si3 0.890562 0.915369 0.514956
Si Si4 0.162719 0.890254 0.851013
Si Si5 0.562827 0.298260 0.384706
Si Si6 0.547420 0.874146 0.360547
Si Si7 0.707138 0.906209 0.014643
O O1 0.626147 0.800704 0.907892
O O2 0.637153 0.064833 0.876267
O O3 0.712059 0.970548 0.951339
O O4 0.500000 0.000000 0.000000
O O5 0.212676 0.638577 0.212228
O O6 0.051249 0.723493 0.330445
O O7 0.068809 0.453171 0.296346
O O8 0.000000 0.647321 0.250000
O O9 0.843286 0.835831 0.584018
O O10 0.934197 0.816472 0.451276
O O11 0.788239 0.009503 0.527734
O O12 0.000000 0.000000 0.500000
O O13 0.074090 0.792498 0.845701
O O14 0.128750 0.053890 0.856440
O O15 0.419746 0.908008 0.420222
O O16 0.750000 0.750000 0.000000
#
# Coordination Sequence:
#
# PCOD8136647 Si02
#       7
#     8   8   8   8   8   8   8
#     4   9  19  36  56  83 121 157 194 244 305 361
#     4  11  24  41  60  87 123 163 206 256 318 384
#     4  10  20  34  58  91 123 154 198 255 307 357
#     4  11  21  40  63  86 118 165 208 254 312 376
#     4  10  21  40  62  87 121 162 206 256 313 373
#     4  10  22  40  59  85 121 161 202 253 312 371
#     4  11  19  33  59  91 121 156 201 252 303 364
#
# _framework density 20.528649999999999
#
# number of rings (size 3 to 8) (size 9 to 14) (size 15 to 20)
#    0.000    1.714    0.000    6.857    0.000    1.143 
#    0.000    8.571    0.000    0.000    0.000    0.000 
#    0.000    0.000    0.000    0.000    0.000    0.000 
#
# Total GULP energy -347017.655947 kJ/mol
# GULP energy per Si atom -12393.487712 kJ/mol
# Density = 2.048193 g / cm^3
# Si number density = 20.528650 Si / 1000 Ang^3
#
#
#
# Elastic Constant Matrix: (Units=GPa)
#
#
# Indices 1 2 3 4 5 6 
#
# 1 117.2921 37.8093 45.7433 0.0000 9.6339 0.0000
# 2 37.8093 102.9386 41.7917 0.0000 -2.0149 0.0000
# 3 45.7433 41.7917 136.8206 0.0000 3.6554 0.0000
# 4 0.0000 0.0000 0.0000 36.6585 0.0000 2.6816
# 5 9.6339 -2.0149 3.6554 0.0000 27.0885 0.0000
# 6 0.0000 0.0000 0.0000 2.6816 0.0000 27.3306
#
#
#
# Elastic Compliance Matrix: (Units=1/GPa)
#
#
# Indices 1 2 3 4 5 6 
#
# 1 0.010808 -0.002986 -0.002602 0.000000 -0.003715 0.000000
# 2 -0.002986 0.011960 -0.002717 0.000000 0.002318 0.000000
# 3 -0.002602 -0.002717 0.009022 0.000000 -0.000494 0.000000
# 4 0.000000 0.000000 0.000000 0.027476 0.000000 -0.002696
# 5 -0.003715 0.002318 -0.000494 0.000000 0.038476 0.000000
# 6 0.000000 0.000000 0.000000 -0.002696 0.000000 0.036854
#
#
# Mechanical properties :
#
#
# Convention : Reuss Voigt Hill
#
# Bulk Modulus (GPa) = 65.87692 67.52667 66.70179
# Shear Modulus (GPa) = 31.99684 33.66264 32.82974
#
# Velocity S-wave (km/s) = 3.95225 4.05382 4.00336
# Velocity P-wave (km/s) = 7.27921 7.40787 7.34382
#
# Compressibility (1/GPa) = 0.01517982
#
# Stress axis : x y z
#
# Youngs Moduli (GPa) = 92.52167 83.61461 110.84233
#
# Poissons Ratio (x) = 0.24969 0.28843
# Poissons Ratio (y) = 0.27628 0.30112
# Poissons Ratio (z) = 0.24076 0.22715
#
# Static dielectric constant tensor:
#      x y z
#    x 3.696800 0.000000 0.213090 
#    y 0.000000 1.863370 0.000000 
#    z 0.213090 0.000000 4.106500 
# 
# 
# High freq. dielectric constant tensor:
#      x y z
#    x 1.786400 0.000000 0.008890 
#    y 0.000000 1.808400 0.000000 
#    z 0.008890 0.000000 1.808600 
# 
# From -- ./inp_files/273030.got.cif
#   From: 2010.06.25/outbox.cif.g09.slc.cpg/sg15_137_cif.got.tgz:273030.got - 2010.06.28 07:06:18.
