data_PCOD8136689
_publ_section_title
;
Structure prediction by ZEFSAII (Michael W. Deem and Ramdas Pophale) SiO2 
 PCOD8136689
Probable space group: C 2/C
;
_chemical_formula_sum "Si O2"
_cell_formula_units_Z 56
_cell_length_a 11.941109
_cell_length_b 18.176703
_cell_length_c 15.837716
_cell_angle_alpha 90.000000
_cell_angle_beta 54.536927
_cell_angle_gamma 90.000000
_cell_volume 2799.870043
_symmetry_space_group_name_H-M "C 2/C"
_symmetry_group_IT_number 15
_symmetry_cell_setting 'monoclinic'
loop_
_space_group_symop_operation_xyz
x,y,z
-x,y,1/2-z
-x,-y,-z
x,-y,1/2+z
1/2+x,1/2+y,z
1/2-x,1/2+y,1/2-z
1/2-x,1/2-y,-z
1/2+x,1/2-y,1/2+z
loop_
_atom_site_type_symbol
_atom_site_label
_atom_site_fract_x
_atom_site_fract_y
_atom_site_fract_z
Si Si1 0.227460 0.036642 0.070072
Si Si2 0.916276 0.533304 0.364290
Si Si3 0.752046 0.638993 0.328618
Si Si4 0.846700 0.903306 0.289802
Si Si5 0.556146 0.489741 0.882230
Si Si6 0.086827 0.630317 0.398266
Si Si7 0.175630 0.276802 0.445851
O O1 0.297939 0.108056 0.082308
O O2 0.064458 0.043219 0.124700
O O3 0.241564 0.963699 0.120556
O O4 0.303534 0.023998 0.946991
O O5 0.846532 0.609869 0.364460
O O6 0.000000 0.496463 0.250000
O O7 0.016929 0.554222 0.397287
O O8 0.672059 0.570669 0.325608
O O9 0.843522 0.670533 0.212086
O O10 0.650191 0.701605 0.405918
O O11 0.767487 0.827399 0.342884
O O12 0.000000 0.887767 0.250000
O O13 0.870625 0.934911 0.183733
O O14 0.500000 0.500000 0.000000
O O15 0.973701 0.687251 0.480938
O O16 0.250000 0.250000 0.500000
#
# Coordination Sequence:
#
# PCOD8136689 Si02
#       7
#     8   8   8   8   8   8   8
#     4  11  20  40  63  93 123 167 218 266 312 384
#     4  10  20  34  59  93 128 159 199 262 326 377
#     4  11  23  41  60  95 132 170 206 269 330 381
#     4  10  23  38  64  95 126 167 217 264 321 390
#     4  11  23  41  65  93 128 173 227 273 313 381
#     4  11  23  38  62  90 128 170 206 261 330 386
#     4  12  25  39  64  97 136 168 211 268 337 401
#
# _framework density 20.000927000000001
#
# number of rings (size 3 to 8) (size 9 to 14) (size 15 to 20)
#    0.000    1.143    5.714    0.429    4.000    0.000 
#    0.000    0.714    0.000    1.714    0.000    0.000 
#    0.000    0.000    0.000    0.000    0.000    0.000 
#
# Total GULP energy -346876.467080 kJ/mol
# GULP energy per Si atom -12388.445253 kJ/mol
# Density = 1.995540 g / cm^3
# Si number density = 20.000927 Si / 1000 Ang^3
#
#
#
# Elastic Constant Matrix: (Units=GPa)
#
#
# Indices 1 2 3 4 5 6 
#
# 1 78.9671 27.0156 23.1796 0.0000 -2.9409 0.0001
# 2 27.0156 70.0147 37.1935 0.0000 4.6951 0.0000
# 3 23.1796 37.1935 126.0726 0.0000 -2.2483 0.0000
# 4 0.0000 0.0000 0.0000 33.6126 0.0000 -6.8146
# 5 -2.9409 4.6951 -2.2483 0.0000 25.8277 0.0000
# 6 0.0001 0.0000 0.0000 -6.8146 0.0000 24.2107
#
#
#
# Elastic Compliance Matrix: (Units=1/GPa)
#
#
# Indices 1 2 3 4 5 6 
#
# 1 0.014912 -0.005329 -0.001124 0.000000 0.002569 0.000000
# 2 -0.005329 0.019167 -0.004755 0.000000 -0.004505 0.000000
# 3 -0.001124 -0.004755 0.009569 0.000000 0.001569 0.000000
# 4 0.000000 0.000000 0.000000 0.031551 0.000000 0.008881
# 5 0.002569 -0.004505 0.001569 0.000000 0.039966 0.000000
# 6 0.000000 0.000000 0.000000 0.008881 0.000000 0.043804
#
#
# Mechanical properties :
#
#
# Convention : Reuss Voigt Hill
#
# Bulk Modulus (GPa) = 47.09755 49.98129 48.53942
# Shear Modulus (GPa) = 26.53028 29.24124 27.88576
#
# Velocity S-wave (km/s) = 3.64600 3.82775 3.73798
# Velocity P-wave (km/s) = 6.42832 6.67677 6.55372
#
# Compressibility (1/GPa) = 0.02123252
#
# Stress axis : x y z
#
# Youngs Moduli (GPa) = 67.05901 52.17242 104.50002
#
# Poissons Ratio (x) = 0.27804 0.11743
# Poissons Ratio (y) = 0.35738 0.49691
# Poissons Ratio (z) = 0.07535 0.24809
#
# Static dielectric constant tensor:
#      x y z
#    x 3.665810 0.000000 -0.154870 
#    y 0.000000 3.431240 0.000000 
#    z -0.154870 0.000000 4.074520 
# 
# 
# High freq. dielectric constant tensor:
#      x y z
#    x 1.769240 0.000000 -0.015740 
#    y 0.000000 1.739790 0.000000 
#    z -0.015740 0.000000 1.806980 
# 
# From -- ./inp_files/145993.got.cif
#   From: 2010.06.25/outbox.cif.g09.slc.cpg/sg15_73_cif.got.tgz:145993.got - 2010.06.28 07:06:18.
