data_PCOD8136424
_publ_section_title
;
Structure prediction by ZEFSAII (Michael W. Deem and Ramdas Pophale) SiO2 
 PCOD8136424
Probable space group: C 2/C
;
_chemical_formula_sum "Si O2"
_cell_formula_units_Z 56
_cell_length_a 23.216597
_cell_length_b 13.549886
_cell_length_c 9.590750
_cell_angle_alpha 90.000000
_cell_angle_beta 63.419301
_cell_angle_gamma 90.000000
_cell_volume 2698.189474
_symmetry_space_group_name_H-M "C 2/C"
_symmetry_group_IT_number 15
_symmetry_cell_setting 'monoclinic'
loop_
_space_group_symop_operation_xyz
x,y,z
-x,y,1/2-z
-x,-y,-z
x,-y,1/2+z
1/2+x,1/2+y,z
1/2-x,1/2+y,1/2-z
1/2-x,1/2-y,-z
1/2+x,1/2-y,1/2+z
loop_
_atom_site_type_symbol
_atom_site_label
_atom_site_fract_x
_atom_site_fract_y
_atom_site_fract_z
Si Si1 0.752851 0.601056 0.205352
Si Si2 0.573323 0.229134 0.220273
Si Si3 0.354305 0.259163 0.638496
Si Si4 0.573094 0.182341 0.713222
Si Si5 0.848261 0.769436 0.120603
Si Si6 0.242192 0.403182 0.132991
Si Si7 0.953623 0.522740 0.176630
O O1 0.678946 0.633480 0.318701
O O2 0.794257 0.690572 0.225482
O O3 0.771488 0.504379 0.271402
O O4 0.762908 0.584501 0.028738
O O5 0.500000 0.255656 0.250000
O O6 0.603630 0.302725 0.304604
O O7 0.583992 0.125992 0.294964
O O8 0.623025 0.230117 0.039154
O O9 0.417864 0.258066 0.668053
O O10 0.308683 0.177709 0.760501
O O11 0.500000 0.177829 0.750000
O O12 0.613827 0.214076 0.539932
O O13 0.592892 0.070028 0.739965
O O14 0.814039 0.867192 0.097032
O O15 0.000000 0.551172 0.250000
O O16 0.000000 0.500000 0.000000
#
# Coordination Sequence:
#
# PCOD8136424 Si02
#       7
#     8   8   8   8   8   8   8
#     4  11  25  44  66  93 122 164 215 271 316 364
#     4  11  24  38  59  99 136 167 206 255 308 379
#     4  11  23  41  64  92 132 163 213 257 312 382
#     4  11  20  36  63  87 125 175 203 250 317 380
#     4  11  23  41  64  92 129 166 212 253 312 385
#     4  11  25  44  66  93 122 163 218 268 317 366
#     4  10  20  34  50  86 130 162 202 237 291 370
#
# _framework density 20.754657000000002
#
# number of rings (size 3 to 8) (size 9 to 14) (size 15 to 20)
#    0.000    1.143    2.857    5.143    8.000    1.143 
#    0.000    0.000    0.000    5.143    0.000    0.000 
#    0.000    0.000    0.000    0.000    0.000    0.000 
#
# Total GULP energy -346946.858626 kJ/mol
# GULP energy per Si atom -12390.959237 kJ/mol
# Density = 2.070742 g / cm^3
# Si number density = 20.754657 Si / 1000 Ang^3
#
#
#
# Elastic Constant Matrix: (Units=GPa)
#
#
# Indices 1 2 3 4 5 6 
#
# 1 72.3451 7.5883 6.1105 0.0000 27.8980 0.0000
# 2 7.5883 44.1258 18.4652 0.0000 1.3844 0.0000
# 3 6.1105 18.4652 128.7615 0.0000 12.4628 0.0000
# 4 0.0000 0.0000 0.0000 23.9671 0.0000 4.1840
# 5 27.8980 1.3844 12.4628 0.0000 32.9017 0.0000
# 6 0.0000 0.0000 0.0000 4.1840 0.0000 27.6969
#
#
#
# Elastic Compliance Matrix: (Units=1/GPa)
#
#
# Indices 1 2 3 4 5 6 
#
# 1 0.021129 -0.003596 0.001279 0.000000 -0.018249 0.000000
# 2 -0.003596 0.024724 -0.003705 0.000000 0.003413 0.000000
# 3 0.001279 -0.003705 0.008644 0.000000 -0.004203 0.000000
# 4 0.000000 0.000000 0.000000 0.042854 0.000000 -0.006474
# 5 -0.018249 0.003413 -0.004203 0.000000 0.047316 0.000000
# 6 0.000000 0.000000 0.000000 -0.006474 0.000000 0.037083
#
#
# Mechanical properties :
#
#
# Convention : Reuss Voigt Hill
#
# Bulk Modulus (GPa) = 23.55562 34.39560 28.97561
# Shear Modulus (GPa) = 24.04475 31.11769 27.58122
#
# Velocity S-wave (km/s) = 3.40740 3.87629 3.64939
# Velocity P-wave (km/s) = 5.18215 6.05332 5.63460
#
# Compressibility (1/GPa) = 0.04245271
#
# Stress axis : x y z
#
# Youngs Moduli (GPa) = 47.32812 40.44585 115.69050
#
# Poissons Ratio (x) = 0.14546 -0.14801
# Poissons Ratio (y) = 0.17021 0.42866
# Poissons Ratio (z) = -0.06055 0.14986
#
# Static dielectric constant tensor:
#      x y z
#    x 7.992260 0.000000 -0.367740 
#    y 0.000000 3.955920 0.000000 
#    z -0.367740 0.000000 3.799320 
# 
# 
# High freq. dielectric constant tensor:
#      x y z
#    x 1.830170 0.000000 0.010850 
#    y 0.000000 1.776040 0.000000 
#    z 0.010850 0.000000 1.822200 
# 
# From -- ./inp_files/61840.got.cif
#   From: 2010.06.25/outbox.cif.g09.slc.cpg/sg15_31_cif.got.tgz:61840.got - 2010.06.28 07:06:18.
