data_PCOD8136156
_publ_section_title
;
Structure prediction by ZEFSAII (Michael W. Deem and Ramdas Pophale) SiO2 
 PCOD8136156
Probable space group: C 2/C
;
_chemical_formula_sum "Si O2"
_cell_formula_units_Z 56
_cell_length_a 25.642532
_cell_length_b 13.316005
_cell_length_c 9.001802
_cell_angle_alpha 90.000000
_cell_angle_beta 66.823279
_cell_angle_gamma 90.000000
_cell_volume 2825.656469
_symmetry_space_group_name_H-M "C 2/C"
_symmetry_group_IT_number 15
_symmetry_cell_setting 'monoclinic'
loop_
_space_group_symop_operation_xyz
x,y,z
-x,y,1/2-z
-x,-y,-z
x,-y,1/2+z
1/2+x,1/2+y,z
1/2-x,1/2+y,1/2-z
1/2-x,1/2-y,-z
1/2+x,1/2-y,1/2+z
loop_
_atom_site_type_symbol
_atom_site_label
_atom_site_fract_x
_atom_site_fract_y
_atom_site_fract_z
Si Si1 0.174652 0.158514 0.635620
Si Si2 0.470980 0.863759 0.433277
Si Si3 0.311553 0.103778 0.746269
Si Si4 0.940167 0.258048 0.744052
Si Si5 0.754443 0.211153 0.230585
Si Si6 0.752858 0.489339 0.578988
Si Si7 0.925742 0.428328 0.989614
O O1 0.107194 0.170819 0.685890
O O2 0.206282 0.185784 0.450415
O O3 0.196745 0.232018 0.743352
O O4 0.189780 0.039955 0.649691
O O5 0.500000 0.821503 0.250000
O O6 0.441711 0.775751 0.562779
O O7 0.514770 0.904330 0.504770
O O8 0.427282 0.953965 0.439106
O O9 0.290922 0.217129 0.800350
O O10 0.379353 0.093348 0.670367
O O11 0.293890 0.074991 0.598278
O O12 0.278315 0.026281 0.887633
O O13 0.918176 0.359149 0.851893
O O14 0.000000 0.221279 0.750000
O O15 0.740545 0.112728 0.338501
#
# Coordination Sequence:
#
# PCOD8136156 Si02
#       7
#     8   8   8   8   8   8   8
#     4  10  21  39  61  88 120 158 199 245 300 355
#     4  10  21  33  49  81 117 149 195 237 291 352
#     4  11  23  34  59  88 121 157 197 235 299 359
#     4  10  21  38  60  81 115 159 200 243 298 350
#     4  10  21  39  58  87 122 155 197 246 296 354
#     4  11  23  38  58  89 120 157 198 244 291 353
#     4  10  20  32  50  80 116 158 187 232 287 362
#
# _framework density 19.818404000000001
#
# number of rings (size 3 to 8) (size 9 to 14) (size 15 to 20)
#    0.000    1.714    2.857    2.571    6.000    0.000 
#    0.000    0.000    0.000    0.857    0.000    0.000 
#    0.000    0.000    0.000    0.000    0.000    0.000 
#
# Total GULP energy -346976.171706 kJ/mol
# GULP energy per Si atom -12392.006132 kJ/mol
# Density = 1.977330 g / cm^3
# Si number density = 19.818404 Si / 1000 Ang^3
#
#
#
# Elastic Constant Matrix: (Units=GPa)
#
#
# Indices 1 2 3 4 5 6 
#
# 1 67.9759 26.0644 15.9782 0.0000 -20.9229 0.0000
# 2 26.0644 65.7927 21.0915 0.0000 -3.0094 0.0000
# 3 15.9782 21.0915 87.1253 0.0000 -0.7588 0.0000
# 4 0.0000 0.0000 0.0000 20.4797 0.0000 -2.2104
# 5 -20.9229 -3.0094 -0.7588 0.0000 24.2216 0.0000
# 6 0.0000 0.0000 0.0000 -2.2104 0.0000 30.0461
#
#
#
# Elastic Compliance Matrix: (Units=1/GPa)
#
#
# Indices 1 2 3 4 5 6 
#
# 1 0.024552 -0.008042 -0.002380 0.000000 0.020134 0.000000
# 2 -0.008042 0.019202 -0.003214 0.000000 -0.004662 0.000000
# 3 -0.002380 -0.003214 0.012674 0.000000 -0.002058 0.000000
# 4 0.000000 0.000000 0.000000 0.049220 0.000000 0.003621
# 5 0.020134 -0.004662 -0.002058 0.000000 0.058034 0.000000
# 6 0.000000 0.000000 0.000000 0.003621 0.000000 0.033549
#
#
# Mechanical properties :
#
#
# Convention : Reuss Voigt Hill
#
# Bulk Modulus (GPa) = 34.29985 38.57356 36.43671
# Shear Modulus (GPa) = 21.34719 25.46679 23.40699
#
# Velocity S-wave (km/s) = 3.28554 3.58859 3.44040
# Velocity P-wave (km/s) = 5.63362 6.05610 5.84868
#
# Compressibility (1/GPa) = 0.02915464
#
# Stress axis : x y z
#
# Youngs Moduli (GPa) = 40.73057 52.07662 78.89887
#
# Poissons Ratio (x) = 0.41882 0.18781
# Poissons Ratio (y) = 0.32757 0.25360
# Poissons Ratio (z) = 0.09695 0.16739
#
# Static dielectric constant tensor:
#      x y z
#    x 3.591810 0.000000 0.012540 
#    y 0.000000 3.664100 0.000000 
#    z 0.012540 0.000000 3.706970 
# 
# 
# High freq. dielectric constant tensor:
#      x y z
#    x 1.758870 0.000000 0.002510 
#    y 0.000000 1.742540 0.000000 
#    z 0.002510 0.000000 1.778380 
# 
# From -- ./inp_files/61480.got.cif
#   From: 2010.06.25/outbox.cif.g09.slc.cpg/sg15_31_cif.got.tgz:61480.got - 2010.06.28 07:06:18.
