data_PCOD8136380
_publ_section_title
;
Structure prediction by ZEFSAII (Michael W. Deem and Ramdas Pophale) SiO2 
 PCOD8136380
Probable space group: C 2/C
;
_chemical_formula_sum "Si O2"
_cell_formula_units_Z 64
_cell_length_a 11.782030
_cell_length_b 14.482659
_cell_length_c 27.698267
_cell_angle_alpha 90.000000
_cell_angle_beta 139.375292
_cell_angle_gamma 90.000000
_cell_volume 3077.299578
_symmetry_space_group_name_H-M "C 2/C"
_symmetry_group_IT_number 15
_symmetry_cell_setting 'monoclinic'
loop_
_space_group_symop_operation_xyz
x,y,z
-x,y,1/2-z
-x,-y,-z
x,-y,1/2+z
1/2+x,1/2+y,z
1/2-x,1/2+y,1/2-z
1/2-x,1/2-y,-z
1/2+x,1/2-y,1/2+z
loop_
_atom_site_type_symbol
_atom_site_label
_atom_site_fract_x
_atom_site_fract_y
_atom_site_fract_z
Si Si1 0.082078 0.122200 0.065051
Si Si2 0.327754 0.823596 0.404087
Si Si3 0.364177 0.677474 0.567075
Si Si4 0.091455 0.504794 0.827747
Si Si5 0.559927 0.024302 0.622024
Si Si6 0.147822 0.377179 0.573393
Si Si7 0.200262 0.029817 0.463873
Si Si8 0.830394 0.825925 0.398230
O O1 0.119581 0.223456 0.098857
O O2 0.256464 0.066085 0.107994
O O3 0.978663 0.068608 0.072895
O O4 0.969657 0.130621 0.980344
O O5 0.154292 0.809364 0.380879
O O6 0.466897 0.867728 0.486324
O O7 0.305940 0.894603 0.352120
O O8 0.250000 0.750000 0.500000
O O9 0.294222 0.578630 0.529271
O O10 0.568571 0.685391 0.620131
O O11 0.165317 0.607373 0.841110
O O12 0.000000 0.467545 0.750000
O O13 0.942220 0.508252 0.821124
O O14 0.608828 0.928804 0.611188
O O15 0.367663 0.065526 0.547747
O O16 0.284239 0.437946 0.586755
O O17 0.233827 0.276417 0.608185
#
# Coordination Sequence:
#
# PCOD8136380 Si02
#       8
#     8   8   8   8   8   8   8   8
#     4  11  22  37  62  92 119 155 197 254 303 353
#     4  10  21  32  58  97 127 150 193 248 306 355
#     4  12  18  31  54  92 130 150 190 242 297 357
#     4  12  27  43  59  84 123 164 204 248 304 363
#     4  11  20  37  59  86 127 159 192 245 304 358
#     4  10  20  33  58  97 122 152 190 251 309 353
#     4  11  19  33  58  92 127 148 193 246 299 357
#     4  11  22  36  63  92 118 158 201 249 306 353
#
# _framework density 20.797454999999999
#
# number of rings (size 3 to 8) (size 9 to 14) (size 15 to 20)
#    0.000    1.000    7.500    1.875    3.500    1.500 
#    0.000    1.250    0.000    1.500    0.000    0.000 
#    0.000    0.000    0.000    0.000    0.000    0.000 
#
# Total GULP energy -396749.149020 kJ/mol
# GULP energy per Si atom -12398.410907 kJ/mol
# Density = 2.075012 g / cm^3
# Si number density = 20.797455 Si / 1000 Ang^3
#
#
#
# Elastic Constant Matrix: (Units=GPa)
#
#
# Indices 1 2 3 4 5 6 
#
# 1 153.4043 53.3468 19.6134 0.0000 -17.3786 0.0000
# 2 53.3468 137.0695 17.0863 0.0000 -4.6652 0.0000
# 3 19.6134 17.0863 29.9136 0.0000 -11.2962 0.0000
# 4 0.0000 0.0000 0.0000 7.3881 0.0000 0.0664
# 5 -17.3786 -4.6652 -11.2962 0.0000 19.0139 0.0000
# 6 0.0000 0.0000 0.0000 0.0664 0.0000 32.5075
#
#
#
# Elastic Compliance Matrix: (Units=1/GPa)
#
#
# Indices 1 2 3 4 5 6 
#
# 1 0.008402 -0.002866 -0.001596 0.000000 0.006029 0.000000
# 2 -0.002866 0.008846 -0.004310 0.000000 -0.003010 0.000000
# 3 -0.001596 -0.004310 0.046397 0.000000 0.025049 0.000000
# 4 0.000000 0.000000 0.000000 0.135355 0.000000 -0.000277
# 5 0.006029 -0.003010 0.025049 0.000000 0.072246 0.000000
# 6 0.000000 0.000000 0.000000 -0.000277 0.000000 0.030763
#
#
# Mechanical properties :
#
#
# Convention : Reuss Voigt Hill
#
# Bulk Modulus (GPa) = 21.69123 55.60896 38.65009
# Shear Modulus (GPa) = 14.92896 27.13796 21.03346
#
# Velocity S-wave (km/s) = 2.68214 3.61622 3.18362
# Velocity P-wave (km/s) = 4.47707 6.65075 5.66907
#
# Compressibility (1/GPa) = 0.04610158
#
# Stress axis : x y z
#
# Youngs Moduli (GPa) = 119.01409 113.04718 21.55328
#
# Poissons Ratio (x) = 0.32400 0.03439
# Poissons Ratio (y) = 0.34110 0.09290
# Poissons Ratio (z) = 0.18989 0.48724
#
# Static dielectric constant tensor:
#      x y z
#    x 4.327970 0.000000 -0.007930 
#    y 0.000000 4.009180 0.000000 
#    z -0.007930 0.000000 2.974660 
# 
# 
# High freq. dielectric constant tensor:
#      x y z
#    x 1.839910 0.000000 -0.001880 
#    y 0.000000 1.835100 0.000000 
#    z -0.001880 0.000000 1.718890 
# 
# From -- ./inp_files/238721.got.cif
#   From: 2010.06.25/outbox.cif.g09.slc.cpg/sg15_120_cif.got.tgz:238721.got - 2010.06.28 07:06:18.
