data_PCOD8136740
_publ_section_title
;
Structure prediction by ZEFSAII (Michael W. Deem and Ramdas Pophale) SiO2 
 PCOD8136740
Probable space group: C 2/C
;
_chemical_formula_sum "Si O2"
_cell_formula_units_Z 60
_cell_length_a 13.002572
_cell_length_b 13.982687
_cell_length_c 15.046751
_cell_angle_alpha 90.000000
_cell_angle_beta 95.449197
_cell_angle_gamma 90.000000
_cell_volume 2723.300226
_symmetry_space_group_name_H-M "C 2/C"
_symmetry_group_IT_number 15
_symmetry_cell_setting 'monoclinic'
loop_
_space_group_symop_operation_xyz
x,y,z
-x,y,1/2-z
-x,-y,-z
x,-y,1/2+z
1/2+x,1/2+y,z
1/2-x,1/2+y,1/2-z
1/2-x,1/2-y,-z
1/2+x,1/2-y,1/2+z
loop_
_atom_site_type_symbol
_atom_site_label
_atom_site_fract_x
_atom_site_fract_y
_atom_site_fract_z
Si Si1 0.395184 0.592780 0.789889
Si Si2 0.500000 0.885373 0.750000
Si Si3 0.836571 0.002123 0.952691
Si Si4 0.801965 0.210417 0.416299
Si Si5 0.905940 0.599039 0.923282
Si Si6 0.109021 0.497187 0.899634
Si Si7 0.191216 0.709906 0.225449
Si Si8 0.219383 0.964208 0.856857
O O1 0.500000 0.627983 0.750000
O O2 0.417181 0.555045 0.892835
O O3 0.309134 0.676624 0.790702
O O4 0.348618 0.507123 0.727653
O O5 0.583451 0.951995 0.803882
O O6 0.427481 0.820355 0.805783
O O7 0.857243 0.888728 0.945614
O O8 0.724607 0.037686 0.907358
O O9 0.845950 0.031982 0.056645
O O10 0.750000 0.250000 0.500000
O O11 0.882393 0.292463 0.390838
O O12 0.720743 0.190938 0.330893
O O13 0.828139 0.521614 0.872279
O O14 0.025369 0.579929 0.910650
O O15 0.893126 0.587980 0.027953
O O16 0.262877 0.648015 0.164976
#
# Coordination Sequence:
#
# PCOD8136740 Si02
#       8
#     8   4   8   8   8   8   8   8
#     4  12  26  45  68  96 133 181 234 276 340 412
#     4  12  18  32  60  96 126 168 232 284 320 390
#     4  11  24  43  67  97 139 181 225 281 352 411
#     4  12  19  37  66  99 128 178 232 267 324 411
#     4  10  20  35  61  97 134 172 219 278 337 401
#     4  10  20  34  61  98 131 164 216 280 346 385
#     4  12  23  38  67  96 128 180 225 278 333 401
#     4  11  22  43  66  96 139 175 220 291 340 399
#
# _framework density 22.032091000000001
#
# number of rings (size 3 to 8) (size 9 to 14) (size 15 to 20)
#    0.000    0.800    8.667    0.000    0.000    1.067 
#    0.000    1.333    1.467    0.000    0.000    0.000 
#    0.000    0.000    0.000    0.000    0.000    0.000 
#
# Total GULP energy -371817.203477 kJ/mol
# GULP energy per Si atom -12393.906783 kJ/mol
# Density = 2.198195 g / cm^3
# Si number density = 22.032091 Si / 1000 Ang^3
#
#
#
# Elastic Constant Matrix: (Units=GPa)
#
#
# Indices 1 2 3 4 5 6 
#
# 1 56.0140 27.3103 10.0344 0.0000 -3.9519 0.0000
# 2 27.3103 128.8439 53.2266 0.0000 -20.8962 0.0000
# 3 10.0344 53.2266 100.1794 0.0000 -16.2821 0.0000
# 4 0.0000 0.0000 0.0000 33.8438 0.0000 -0.0454
# 5 -3.9519 -20.8962 -16.2821 0.0000 28.3155 0.0000
# 6 0.0000 0.0000 0.0000 -0.0454 0.0000 22.3470
#
#
#
# Elastic Compliance Matrix: (Units=1/GPa)
#
#
# Indices 1 2 3 4 5 6 
#
# 1 0.019920 -0.004389 0.000289 0.000000 -0.000293 0.000000
# 2 -0.004389 0.011524 -0.004854 0.000000 0.005101 0.000000
# 3 0.000289 -0.004854 0.013189 0.000000 0.004042 0.000000
# 4 0.000000 0.000000 0.000000 0.029548 0.000000 0.000060
# 5 -0.000293 0.005101 0.004042 0.000000 0.041364 0.000000
# 6 0.000000 0.000000 0.000000 0.000060 0.000000 0.044749
#
#
# Mechanical properties :
#
#
# Convention : Reuss Voigt Hill
#
# Bulk Modulus (GPa) = 37.41823 51.79778 44.60801
# Shear Modulus (GPa) = 26.72202 29.86566 28.29384
#
# Velocity S-wave (km/s) = 3.48640 3.68578 3.58748
# Velocity P-wave (km/s) = 5.76429 6.45558 6.11970
#
# Compressibility (1/GPa) = 0.02672494
#
# Stress axis : x y z
#
# Youngs Moduli (GPa) = 50.20001 86.77277 75.81928
#
# Poissons Ratio (x) = 0.38088 -0.02193
# Poissons Ratio (y) = 0.22035 0.36805
# Poissons Ratio (z) = -0.01452 0.42123
#
# Static dielectric constant tensor:
#      x y z
#    x 4.108360 0.000000 0.073230 
#    y 0.000000 4.111220 0.000000 
#    z 0.073230 0.000000 4.012550 
# 
# 
# High freq. dielectric constant tensor:
#      x y z
#    x 1.846000 0.000000 0.002970 
#    y 0.000000 1.859620 0.000000 
#    z 0.002970 0.000000 1.869270 
# 
# From -- ./inp_files/154005.got.cif
#   From: 2010.06.25/outbox.cif.g09.slc.cpg/sg15_78_cif.got.tgz:154005.got - 2010.06.28 07:06:18.
