data_PCOD8136359
_publ_section_title
;
Structure prediction by ZEFSAII (Michael W. Deem and Ramdas Pophale) SiO2 
 PCOD8136359
Probable space group: C 2/C
;
_chemical_formula_sum "Si O2"
_cell_formula_units_Z 52
_cell_length_a 20.927679
_cell_length_b 15.765063
_cell_length_c 17.916011
_cell_angle_alpha 90.000000
_cell_angle_beta 28.913705
_cell_angle_gamma 90.000000
_cell_volume 2857.901061
_symmetry_space_group_name_H-M "C 2/C"
_symmetry_group_IT_number 15
_symmetry_cell_setting 'monoclinic'
loop_
_space_group_symop_operation_xyz
x,y,z
-x,y,1/2-z
-x,-y,-z
x,-y,1/2+z
1/2+x,1/2+y,z
1/2-x,1/2+y,1/2-z
1/2-x,1/2-y,-z
1/2+x,1/2-y,1/2+z
loop_
_atom_site_type_symbol
_atom_site_label
_atom_site_fract_x
_atom_site_fract_y
_atom_site_fract_z
Si Si1 0.110958 0.794877 0.076683
Si Si2 0.426176 0.585100 0.492233
Si Si3 0.391676 0.686850 0.298709
Si Si4 0.302341 0.129739 0.884044
Si Si5 0.045005 0.095754 0.871492
Si Si6 0.725972 0.881903 0.471915
Si Si7 0.000000 0.494452 0.250000
O O1 0.209170 0.865440 0.012569
O O2 0.000000 0.770040 0.250000
O O3 0.045557 0.829261 0.068372
O O4 0.186489 0.709052 0.977738
O O5 0.550440 0.631843 0.327521
O O6 0.292517 0.595310 0.582969
O O7 0.406701 0.622254 0.595377
O O8 0.453214 0.486017 0.469117
O O9 0.500000 0.706560 0.250000
O O10 0.346955 0.777176 0.311839
O O11 0.270838 0.635950 0.460612
O O12 0.424930 0.065361 0.767037
O O13 0.168459 0.076397 0.691630
O O14 0.603809 0.945917 0.601124
#
# Coordination Sequence:
#
# PCOD8136359 Si02
#       7
#     8   8   8   8   8   8   4
#     4   9  18  36  57  80 105 139 178 224 264 313
#     4  10  21  37  55  77 108 145 181 216 262 318
#     4   9  18  36  57  80 105 139 178 224 264 313
#     4  10  20  33  57  83 109 136 179 222 269 312
#     4  10  21  37  55  77 108 145 181 216 262 318
#     4  10  20  33  57  83 109 136 179 222 269 312
#     4  12  20  32  56  88 106 136 172 232 264 316
#
# _framework density 18.195170999999998
#
# number of rings (size 3 to 8) (size 9 to 14) (size 15 to 20)
#    0.000    2.154    1.538    1.846    0.000    5.538 
#    0.000    0.769    0.000    0.000    0.000    0.000 
#    0.000    0.000    0.000    0.000    0.000    0.000 
#
# Total GULP energy -322440.828854 kJ/mol
# GULP energy per Si atom -12401.570341 kJ/mol
# Density = 1.815376 g / cm^3
# Si number density = 18.195171 Si / 1000 Ang^3
#
#
#
# Elastic Constant Matrix: (Units=GPa)
#
#
# Indices 1 2 3 4 5 6 
#
# 1 110.2131 53.3106 37.8289 0.0000 -2.0237 0.0000
# 2 53.3106 57.7137 19.8777 0.0000 -2.4260 -0.0001
# 3 37.8289 19.8777 48.4249 -0.0001 -13.4145 0.0000
# 4 0.0000 0.0000 -0.0001 37.2489 0.0000 -9.8074
# 5 -2.0237 -2.4260 -13.4145 0.0000 26.2790 0.0000
# 6 0.0000 -0.0001 0.0000 -9.8074 0.0000 26.9268
#
#
#
# Elastic Compliance Matrix: (Units=1/GPa)
#
#
# Indices 1 2 3 4 5 6 
#
# 1 0.019925 -0.014854 -0.010975 0.000000 -0.005439 0.000000
# 2 -0.014854 0.031426 -0.000943 0.000000 0.001276 0.000000
# 3 -0.010975 -0.000943 0.034187 0.000000 0.016519 0.000000
# 4 0.000000 0.000000 0.000000 0.029694 0.000000 0.010815
# 5 -0.005439 0.001276 0.016519 0.000000 0.046184 0.000000
# 6 0.000000 0.000000 0.000000 0.010815 0.000000 0.041077
#
#
# Mechanical properties :
#
#
# Convention : Reuss Voigt Hill
#
# Bulk Modulus (GPa) = 31.25464 48.70958 39.98211
# Shear Modulus (GPa) = 18.74758 25.11324 21.93041
#
# Velocity S-wave (km/s) = 3.21340 3.71915 3.47549
# Velocity P-wave (km/s) = 5.56621 6.72841 6.17472
#
# Compressibility (1/GPa) = 0.03199525
#
# Stress axis : x y z
#
# Youngs Moduli (GPa) = 50.18771 31.82105 29.25090
#
# Poissons Ratio (x) = 0.47266 0.32102
# Poissons Ratio (y) = 0.74547 0.02758
# Poissons Ratio (z) = 0.55080 0.03000
#
# Static dielectric constant tensor:
#      x y z
#    x 3.333920 0.000000 -0.159890 
#    y 0.000000 3.321330 0.000000 
#    z -0.159890 0.000000 3.398380 
# 
# 
# High freq. dielectric constant tensor:
#      x y z
#    x 1.692150 0.000000 -0.020450 
#    y 0.000000 1.713380 0.000000 
#    z -0.020450 0.000000 1.698650 
# 
# From -- ./inp_files/215563.got.cif
#   From: 2010.06.25/outbox.cif.g09.slc.cpg/sg15_108_cif.got.tgz:215563.got - 2010.06.28 07:06:18.
