data_PCOD8136678
_publ_section_title
;
Structure prediction by ZEFSAII (Michael W. Deem and Ramdas Pophale) SiO2 
 PCOD8136678
Probable space group: C 2/C
;
_chemical_formula_sum "Si O2"
_cell_formula_units_Z 40
_cell_length_a 24.076947
_cell_length_b 12.225060
_cell_length_c 9.336818
_cell_angle_alpha 90.000000
_cell_angle_beta 54.018024
_cell_angle_gamma 90.000000
_cell_volume 2223.863777
_symmetry_space_group_name_H-M "C 2/C"
_symmetry_group_IT_number 15
_symmetry_cell_setting 'monoclinic'
loop_
_space_group_symop_operation_xyz
x,y,z
-x,y,1/2-z
-x,-y,-z
x,-y,1/2+z
1/2+x,1/2+y,z
1/2-x,1/2+y,1/2-z
1/2-x,1/2-y,-z
1/2+x,1/2-y,1/2+z
loop_
_atom_site_type_symbol
_atom_site_label
_atom_site_fract_x
_atom_site_fract_y
_atom_site_fract_z
Si Si1 0.690249 0.106871 0.504307
Si Si2 0.846791 0.180705 0.938615
Si Si3 0.656804 0.688223 0.226044
Si Si4 0.050914 0.009328 0.294980
Si Si5 0.807379 0.609848 0.331398
O O1 0.648289 0.202911 0.645117
O O2 0.770026 0.131577 0.403172
O O3 0.670255 0.098610 0.367725
O O4 0.669410 0.995334 0.614361
O O5 0.909045 0.103339 0.796783
O O6 0.847035 0.286634 0.837113
O O7 0.857668 0.216638 0.086466
O O8 0.774576 0.119210 0.029765
O O9 0.604017 0.604416 0.240828
O O10 0.000000 0.046392 0.250000
O O11 0.000000 0.000000 0.500000
#
# Coordination Sequence:
#
# PCOD8136678 Si02
#       5
#     8   8   8   8   8
#     4  10  20  34  59  85 116 149 186 247 290 341
#     4  10  21  37  55  84 117 151 195 235 289 339
#     4  10  21  37  55  84 117 151 195 234 291 339
#     4  12  24  38  60  84 118 160 192 235 279 346
#     4  10  20  34  59  85 116 149 186 246 292 339
#
# _framework density 17.986713999999999
#
# number of rings (size 3 to 8) (size 9 to 14) (size 15 to 20)
#    0.000    1.600    4.000    1.200    2.800    1.600 
#    0.000    0.000    0.000    2.400    0.000    0.000 
#    0.000    0.000    0.000    0.000    0.000    0.000 
#
# Total GULP energy -247991.122711 kJ/mol
# GULP energy per Si atom -12399.556136 kJ/mol
# Density = 1.794578 g / cm^3
# Si number density = 17.986714 Si / 1000 Ang^3
#
#
#
# Elastic Constant Matrix: (Units=GPa)
#
#
# Indices 1 2 3 4 5 6 
#
# 1 76.7571 49.1972 47.1881 0.0000 21.1838 0.0000
# 2 49.1972 135.2371 75.5578 0.0000 20.6997 0.0000
# 3 47.1881 75.5578 136.7224 0.0000 24.4203 0.0000
# 4 0.0000 0.0000 0.0000 35.1184 0.0000 9.3586
# 5 21.1838 20.6997 24.4203 0.0000 35.9914 0.0000
# 6 0.0000 0.0000 0.0000 9.3586 0.0000 20.8223
#
#
#
# Elastic Compliance Matrix: (Units=1/GPa)
#
#
# Indices 1 2 3 4 5 6 
#
# 1 0.019655 -0.004326 -0.003153 0.000000 -0.006941 0.000000
# 2 -0.004326 0.011841 -0.004880 0.000000 -0.000952 0.000000
# 3 -0.003153 -0.004880 0.011682 0.000000 -0.003264 0.000000
# 4 0.000000 0.000000 0.000000 0.032350 0.000000 -0.014540
# 5 -0.006941 -0.000952 -0.003264 0.000000 0.034632 0.000000
# 6 0.000000 0.000000 0.000000 -0.014540 0.000000 0.054560
#
#
# Mechanical properties :
#
#
# Convention : Reuss Voigt Hill
#
# Bulk Modulus (GPa) = 54.17485 76.95587 65.56536
# Shear Modulus (GPa) = 25.56338 30.17132 27.86735
#
# Velocity S-wave (km/s) = 3.77402 4.10008 3.94042
# Velocity P-wave (km/s) = 7.01254 8.08034 7.56530
#
# Compressibility (1/GPa) = 0.01845875
#
# Stress axis : x y z
#
# Youngs Moduli (GPa) = 50.87763 84.45487 85.59873
#
# Poissons Ratio (x) = 0.36536 0.26991
# Poissons Ratio (y) = 0.22010 0.41775
# Poissons Ratio (z) = 0.16043 0.41217
#
# Static dielectric constant tensor:
#      x y z
#    x 3.253170 0.000000 0.191230 
#    y 0.000000 3.321360 0.000000 
#    z 0.191230 0.000000 3.405190 
# 
# 
# High freq. dielectric constant tensor:
#      x y z
#    x 1.682980 0.000000 0.024250 
#    y 0.000000 1.701450 0.000000 
#    z 0.024250 0.000000 1.703380 
# 
# From -- ./inp_files/46063.got.cif
#   From: 2010.06.25/outbox.cif.g09.slc.cpg/sg15_24_cif.got.tgz:46063.got - 2010.06.28 07:06:18.
