data_PCOD8136706
_publ_section_title
;
Structure prediction by ZEFSAII (Michael W. Deem and Ramdas Pophale) SiO2 
 PCOD8136706
Probable space group: C 2/C
;
_chemical_formula_sum "Si O2"
_cell_formula_units_Z 44
_cell_length_a 7.261155
_cell_length_b 16.511722
_cell_length_c 22.399495
_cell_angle_alpha 90.000000
_cell_angle_beta 51.425726
_cell_angle_gamma 90.000000
_cell_volume 2099.579174
_symmetry_space_group_name_H-M "C 2/C"
_symmetry_group_IT_number 15
_symmetry_cell_setting 'monoclinic'
loop_
_space_group_symop_operation_xyz
x,y,z
-x,y,1/2-z
-x,-y,-z
x,-y,1/2+z
1/2+x,1/2+y,z
1/2-x,1/2+y,1/2-z
1/2-x,1/2-y,-z
1/2+x,1/2-y,1/2+z
loop_
_atom_site_type_symbol
_atom_site_label
_atom_site_fract_x
_atom_site_fract_y
_atom_site_fract_z
Si Si1 0.655628 0.475128 0.365301
Si Si2 0.563031 0.301993 0.801878
Si Si3 0.262649 0.368647 0.265838
Si Si4 0.284411 0.082149 0.067066
Si Si5 0.055360 0.463374 0.085973
Si Si6 0.000000 0.397362 0.750000
O O1 0.704954 0.402242 0.308335
O O2 0.394292 0.506516 0.406189
O O3 0.699232 0.452050 0.426059
O O4 0.850399 0.546016 0.323718
O O5 0.500000 0.332158 0.750000
O O6 0.576802 0.205143 0.804209
O O7 0.360600 0.337089 0.886734
O O8 0.820829 0.338662 0.753853
O O9 0.500000 0.339205 0.250000
O O10 0.159304 0.439137 0.327725
O O11 0.479445 0.053263 0.076617
O O12 0.414861 0.096211 0.977374
#
# Coordination Sequence:
#
# PCOD8136706 Si02
#       6
#     8   8   8   8   8   4
#     4  11  20  37  64  90 115 163 199 247 297 359
#     4  11  23  39  60  91 122 158 199 251 306 351
#     4  12  23  40  64  88 123 160 207 249 298 360
#     4  10  24  37  62  92 124 156 196 255 298 363
#     4  11  21  40  61  91 124 156 200 245 307 359
#     4  10  20  34  60  90 116 146 202 254 288 344
#
# _framework density 20.956581
#
# number of rings (size 3 to 8) (size 9 to 14) (size 15 to 20)
#    0.000    1.091    4.545    2.727    2.545    0.727 
#    0.000    0.000    0.000    2.182    0.000    0.000 
#    0.000    0.000    0.000    0.000    0.000    0.000 
#
# Total GULP energy -272563.326996 kJ/mol
# GULP energy per Si atom -12389.242136 kJ/mol
# Density = 2.090888 g / cm^3
# Si number density = 20.956581 Si / 1000 Ang^3
#
#
#
# Elastic Constant Matrix: (Units=GPa)
#
#
# Indices 1 2 3 4 5 6 
#
# 1 121.2401 30.2153 31.9679 0.0004 24.1656 0.0007
# 2 30.2153 73.5684 14.2851 0.0001 12.8942 0.0002
# 3 31.9679 14.2851 73.2524 0.0013 17.4661 -0.0002
# 4 0.0004 0.0001 0.0013 26.9857 -0.0007 -3.8002
# 5 24.1656 12.8942 17.4661 -0.0007 35.9090 0.0000
# 6 0.0007 0.0002 -0.0002 -3.8002 0.0000 34.8427
#
#
#
# Elastic Compliance Matrix: (Units=1/GPa)
#
#
# Indices 1 2 3 4 5 6 
#
# 1 0.010714 -0.003002 -0.002973 0.000000 -0.004686 0.000000
# 2 -0.003002 0.015558 -0.000988 0.000000 -0.003086 0.000000
# 3 -0.002973 -0.000988 0.016493 -0.000001 -0.005666 0.000000
# 4 0.000000 0.000000 -0.000001 0.037635 0.000001 0.004105
# 5 -0.004686 -0.003086 -0.005666 0.000001 0.034866 0.000000
# 6 0.000000 0.000000 0.000000 0.004105 0.000000 0.029148
#
#
# Mechanical properties :
#
#
# Convention : Reuss Voigt Hill
#
# Bulk Modulus (GPa) = 34.67499 46.77749 40.72624
# Shear Modulus (GPa) = 29.77015 32.32032 31.04523
#
# Velocity S-wave (km/s) = 3.77313 3.93141 3.85308
# Velocity P-wave (km/s) = 5.96356 6.55573 6.26664
#
# Compressibility (1/GPa) = 0.02883923
#
# Stress axis : x y z
#
# Youngs Moduli (GPa) = 93.33422 64.27394 60.63301
#
# Poissons Ratio (x) = 0.19294 0.18026
# Poissons Ratio (y) = 0.28017 0.05992
# Poissons Ratio (z) = 0.27748 0.06352
#
# Static dielectric constant tensor:
#      x y z
#    x 3.948140 0.000000 0.148250 
#    y 0.000000 3.505810 0.000000 
#    z 0.148250 0.000000 3.769750 
# 
# 
# High freq. dielectric constant tensor:
#      x y z
#    x 1.846000 0.000000 0.006530 
#    y 0.000000 1.788090 0.000000 
#    z 0.006530 0.000000 1.815040 
# 
# From -- ./inp_files/264135.got.cif
#   From: 2010.06.25/outbox.cif.g09.slc.cpg/sg15_133_cif.got.tgz:264135.got - 2010.06.28 07:06:18.
