data_PCOD8136132
_publ_section_title
;
Structure prediction by ZEFSAII (Michael W. Deem and Ramdas Pophale) SiO2 
 PCOD8136132
Probable space group: C 2/C
;
_chemical_formula_sum "Si O2"
_cell_formula_units_Z 48
_cell_length_a 19.652683
_cell_length_b 26.068269
_cell_length_c 5.778062
_cell_angle_alpha 90.000000
_cell_angle_beta 116.617520
_cell_angle_gamma 90.000000
_cell_volume 2646.440614
_symmetry_space_group_name_H-M "C 2/C"
_symmetry_group_IT_number 15
_symmetry_cell_setting 'monoclinic'
loop_
_space_group_symop_operation_xyz
x,y,z
-x,y,1/2-z
-x,-y,-z
x,-y,1/2+z
1/2+x,1/2+y,z
1/2-x,1/2+y,1/2-z
1/2-x,1/2-y,-z
1/2+x,1/2-y,1/2+z
loop_
_atom_site_type_symbol
_atom_site_label
_atom_site_fract_x
_atom_site_fract_y
_atom_site_fract_z
Si Si1 0.900460 0.116150 0.918818
Si Si2 0.500000 0.447114 0.250000
Si Si3 0.000000 0.740331 0.250000
Si Si4 0.851799 0.013562 0.993773
Si Si5 0.098231 0.790100 0.768814
Si Si6 0.702486 0.320795 0.543012
Si Si7 0.642048 0.779860 0.710245
O O1 0.836287 0.128931 0.625645
O O2 0.974956 0.090372 0.919680
O O3 0.863530 0.074627 0.036588
O O4 0.928276 0.167152 0.089509
O O5 0.430524 0.483034 0.064161
O O6 0.029124 0.779654 0.489282
O O7 0.068695 0.704982 0.255928
O O8 0.810625 0.995678 0.173206
O O9 0.173630 0.811756 0.759559
O O10 0.115694 0.734513 0.910761
O O11 0.679625 0.272359 0.355459
O O12 0.795090 0.325268 0.690103
#
# Coordination Sequence:
#
# PCOD8136132 Si02
#       7
#     8   4   4   8   8   8   8
#     4  10  21  33  48  67  93 125 176 211 245 288
#     4  10  22  39  46  68 100 138 172 214 252 291
#     4  10  20  33  46  70  94 122 164 206 258 295
#     4  10  21  38  49  67  97 139 171 212 258 293
#     4  10  20  32  45  71  91 126 164 211 247 297
#     4   9  19  33  47  67  90 125 160 207 247 302
#     4   9  18  34  48  63  95 122 158 200 259 297
#
# _framework density 18.13757
#
# number of rings (size 3 to 8) (size 9 to 14) (size 15 to 20)
#    0.000    2.333    0.000    3.000    4.667    8.667 
#   15.000    0.000    0.000    0.000    0.000    0.000 
#    0.000    0.000    0.000    6.000    0.333    4.333 
#
# Total GULP energy -297338.188333 kJ/mol
# GULP energy per Si atom -12389.091181 kJ/mol
# Density = 1.809629 g / cm^3
# Si number density = 18.137570 Si / 1000 Ang^3
#
#
#
# Elastic Constant Matrix: (Units=GPa)
#
#
# Indices 1 2 3 4 5 6 
#
# 1 96.7341 11.7324 30.4239 0.0000 8.7467 0.0000
# 2 11.7324 35.6621 21.2077 0.0000 5.5882 0.0000
# 3 30.4239 21.2077 93.7547 0.0000 -10.5087 0.0000
# 4 0.0000 0.0000 0.0000 21.0313 0.0000 4.3542
# 5 8.7467 5.5882 -10.5087 0.0000 23.2137 0.0000
# 6 0.0000 0.0000 0.0000 4.3542 0.0000 11.6807
#
#
#
# Elastic Compliance Matrix: (Units=1/GPa)
#
#
# Indices 1 2 3 4 5 6 
#
# 1 0.012477 -0.000203 -0.004766 0.000000 -0.006810 0.000000
# 2 -0.000203 0.035736 -0.009453 0.000000 -0.012805 0.000000
# 3 -0.004766 -0.009453 0.015599 0.000000 0.011133 0.000000
# 4 0.000000 0.000000 0.000000 0.051525 0.000000 -0.019207
# 5 -0.006810 -0.012805 0.011133 0.000000 0.053766 0.000000
# 6 0.000000 0.000000 0.000000 -0.019207 0.000000 0.092771
#
#
# Mechanical properties :
#
#
# Convention : Reuss Voigt Hill
#
# Bulk Modulus (GPa) = 28.59836 39.20876 33.90356
# Shear Modulus (GPa) = 16.53578 22.03762 19.28670
#
# Velocity S-wave (km/s) = 3.02269 3.48950 3.26445
# Velocity P-wave (km/s) = 5.28998 6.15629 5.73950
#
# Compressibility (1/GPa) = 0.03496704
#
# Stress axis : x y z
#
# Youngs Moduli (GPa) = 80.14726 27.98301 64.10690
#
# Poissons Ratio (x) = 0.00569 0.30554
# Poissons Ratio (y) = 0.01630 0.60600
# Poissons Ratio (z) = 0.38200 0.26452
#
# Static dielectric constant tensor:
#      x y z
#    x 3.386230 0.000000 -0.169770 
#    y 0.000000 3.138870 0.000000 
#    z -0.169770 0.000000 3.810750 
# 
# 
# High freq. dielectric constant tensor:
#      x y z
#    x 1.670660 0.000000 -0.030970 
#    y 0.000000 1.654190 0.000000 
#    z -0.030970 0.000000 1.715370 
# 
# From -- ./inp_files/11092.got.cif
#   From: 2010.06.25/outbox.cif.g09.slc.cpg/sg15_6_cif.got.tgz:11092.got - 2010.06.28 07:06:18.
