data_PCOD8136840
_publ_section_title
;
Structure prediction by ZEFSAII (Michael W. Deem and Ramdas Pophale) SiO2 
 PCOD8136840
Probable space group: C 2/C
;
_chemical_formula_sum "Si O2"
_cell_formula_units_Z 60
_cell_length_a 14.947452
_cell_length_b 11.237578
_cell_length_c 23.783103
_cell_angle_alpha 90.000000
_cell_angle_beta 134.704638
_cell_angle_gamma 90.000000
_cell_volume 2839.361629
_symmetry_space_group_name_H-M "C 2/C"
_symmetry_group_IT_number 15
_symmetry_cell_setting 'monoclinic'
loop_
_space_group_symop_operation_xyz
x,y,z
-x,y,1/2-z
-x,-y,-z
x,-y,1/2+z
1/2+x,1/2+y,z
1/2-x,1/2+y,1/2-z
1/2-x,1/2-y,-z
1/2+x,1/2-y,1/2+z
loop_
_atom_site_type_symbol
_atom_site_label
_atom_site_fract_x
_atom_site_fract_y
_atom_site_fract_z
Si Si1 0.444423 0.370014 0.877480
Si Si2 0.000000 0.512687 0.250000
Si Si3 0.942393 0.217828 0.966190
Si Si4 0.210957 0.309267 0.041583
Si Si5 0.539212 0.134801 0.667769
Si Si6 0.318215 0.219162 0.198022
Si Si7 0.595526 0.048779 0.998269
Si Si8 0.665255 0.382382 0.193774
O O1 0.492614 0.276493 0.851180
O O2 0.322083 0.303347 0.845525
O O3 0.414138 0.495469 0.835567
O O4 0.535682 0.378037 0.972948
O O5 0.958936 0.422161 0.182846
O O6 0.112760 0.594121 0.277751
O O7 0.860843 0.166492 0.879845
O O8 0.858318 0.324379 0.956509
O O9 0.074904 0.260457 0.999098
O O10 0.315756 0.282452 0.135784
O O11 0.250000 0.250000 0.000000
O O12 0.206709 0.453895 0.034398
O O13 0.490411 0.065166 0.593160
O O14 0.685894 0.100112 0.738175
O O15 0.382754 0.299832 0.275573
O O16 0.500000 0.000000 0.000000
#
# Coordination Sequence:
#
# PCOD8136840 Si02
#       8
#     8   4   8   8   8   8   8   8
#     4   9  19  40  55  86 113 156 202 237 285 369
#     4  12  22  40  58  86 126 152 192 244 314 350
#     4   9  20  33  58  84 113 157 198 240 294 351
#     4  10  20  35  54  83 124 156 192 247 305 347
#     4  10  22  35  61  86 114 158 199 244 291 356
#     4  10  23  33  58  89 117 149 201 244 295 356
#     4   9  18  34  57  83 115 154 205 239 280 360
#     4  11  20  36  60  89 117 152 196 254 294 346
#
# _framework density 21.131511
#
# number of rings (size 3 to 8) (size 9 to 14) (size 15 to 20)
#    0.000    2.133    1.333    3.600    5.600    2.133 
#    0.000    0.667    2.933    1.600    0.000    0.000 
#    0.000    0.000    0.000    0.000    0.000    0.000 
#
# Total GULP energy -371672.684834 kJ/mol
# GULP energy per Si atom -12389.089494 kJ/mol
# Density = 2.108342 g / cm^3
# Si number density = 21.131511 Si / 1000 Ang^3
#
#
#
# Elastic Constant Matrix: (Units=GPa)
#
#
# Indices 1 2 3 4 5 6 
#
# 1 50.1615 47.0930 28.8325 0.0000 -25.7473 0.0000
# 2 47.0930 136.2300 75.0752 0.0000 -36.9363 0.0000
# 3 28.8325 75.0752 141.9887 0.0000 -45.9011 0.0000
# 4 0.0000 0.0000 0.0000 -505.0575 0.0000 -90.8044
# 5 -25.7473 -36.9363 -45.9011 0.0000 29.2314 0.0000
# 6 0.0000 0.0000 0.0000 -90.8044 0.0000 24.9662
#
#
#
# Elastic Compliance Matrix: (Units=1/GPa)
#
#
# Indices 1 2 3 4 5 6 
#
# 1 0.045420 -0.009251 0.009794 0.000000 0.043696 0.000000
# 2 -0.009251 0.013596 -0.004855 0.000000 0.001407 0.000000
# 3 0.009794 -0.004855 0.017114 0.000000 0.029366 0.000000
# 4 0.000000 0.000000 0.000000 -0.001197 0.000000 -0.004354
# 5 0.043696 0.001407 0.029366 0.000000 0.120588 0.000000
# 6 0.000000 0.000000 0.000000 -0.004354 0.000000 0.024218
#
#
# Mechanical properties :
#
#
# Convention : Reuss Voigt Hill
#
# Bulk Modulus (GPa) = 14.81361 70.04238 42.42800
# Shear Modulus (GPa) = 19.93107 -78.34667 -29.20780
#
# Velocity S-wave (km/s) = 3.07447 -6.09559 -3.72182
# Velocity P-wave (km/s) = 4.43042 4.04027 1.28547
#
# Compressibility (1/GPa) = 0.06750548
#
# Stress axis : x y z
#
# Youngs Moduli (GPa) = 22.01677 73.55312 58.43040
#
# Poissons Ratio (x) = 0.68045 -0.57228
# Poissons Ratio (y) = 0.20368 0.28370
# Poissons Ratio (z) = -0.21564 0.35712
#
# Static dielectric constant tensor:
#      x y z
#    x 3.665700 0.000000 -0.301930 
#    y 0.000000 4.600010 0.000000 
#    z -0.301930 0.000000 4.037280 
# 
# 
# High freq. dielectric constant tensor:
#      x y z
#    x 1.797110 0.000000 -0.025510 
#    y 0.000000 1.836100 0.000000 
#    z -0.025510 0.000000 1.836410 
# 
# From -- ./inp_files/277273.got.cif
#   From: 2010.06.25/outbox.cif.g09.slc.cpg/sg15_139_cif.got.tgz:277273.got - 2010.06.28 07:06:18.
