data_PCOD8136758
_publ_section_title
;
Structure prediction by ZEFSAII (Michael W. Deem and Ramdas Pophale) SiO2 
 PCOD8136758
Probable space group: C 2/C
;
_chemical_formula_sum "Si O2"
_cell_formula_units_Z 52
_cell_length_a 16.550801
_cell_length_b 20.201927
_cell_length_c 10.685218
_cell_angle_alpha 90.000000
_cell_angle_beta 44.293754
_cell_angle_gamma 90.000000
_cell_volume 2494.941786
_symmetry_space_group_name_H-M "C 2/C"
_symmetry_group_IT_number 15
_symmetry_cell_setting 'monoclinic'
loop_
_space_group_symop_operation_xyz
x,y,z
-x,y,1/2-z
-x,-y,-z
x,-y,1/2+z
1/2+x,1/2+y,z
1/2-x,1/2+y,1/2-z
1/2-x,1/2-y,-z
1/2+x,1/2-y,1/2+z
loop_
_atom_site_type_symbol
_atom_site_label
_atom_site_fract_x
_atom_site_fract_y
_atom_site_fract_z
Si Si1 0.886564 0.888964 0.451609
Si Si2 0.984766 0.331966 0.904433
Si Si3 0.000000 0.882868 0.750000
Si Si4 0.006347 0.199968 0.001431
Si Si5 0.565305 0.025341 0.306328
Si Si6 0.773363 0.872466 0.329642
Si Si7 0.187764 0.974582 0.413816
O O1 0.908303 0.825203 0.513065
O O2 0.781015 0.877532 0.471760
O O3 0.000000 0.906084 0.250000
O O4 0.867528 0.954215 0.556052
O O5 0.000000 0.298223 0.750000
O O6 0.071941 0.394618 0.814885
O O7 0.008234 0.279764 0.990316
O O8 0.854317 0.354972 0.070150
O O9 0.968685 0.831472 0.674386
O O10 0.109890 0.928771 0.592311
O O11 0.136549 0.181087 0.820645
O O12 0.500000 0.007685 0.250000
O O13 0.500000 0.000000 0.500000
O O14 0.688602 0.988895 0.158572
O O15 0.802457 0.942588 0.233742
#
# Coordination Sequence:
#
# PCOD8136758 Si02
#       7
#     8   8   4   8   8   8   8
#     4  10  20  34  62  96 121 163 212 263 333 385
#     4  11  22  42  65  92 131 173 222 270 330 398
#     4  10  24  44  66  98 136 170 214 288 326 402
#     4  10  24  41  63  95 130 172 218 263 335 400
#     4  11  24  42  66 100 134 181 227 279 337 399
#     4  10  22  39  61  93 129 163 215 281 313 387
#     4  11  22  39  66  94 138 167 218 280 333 391
#
# _framework density 20.842168999999998
#
# number of rings (size 3 to 8) (size 9 to 14) (size 15 to 20)
#    0.000    1.538    2.308    3.231    2.154    5.538 
#    1.385    3.077    0.000    0.000    0.000    0.000 
#    0.000    0.000    0.000    0.000    0.000    0.000 
#
# Total GULP energy -322249.324366 kJ/mol
# GULP energy per Si atom -12394.204783 kJ/mol
# Density = 2.079473 g / cm^3
# Si number density = 20.842169 Si / 1000 Ang^3
#
#
#
# Elastic Constant Matrix: (Units=GPa)
#
#
# Indices 1 2 3 4 5 6 
#
# 1 93.2850 47.8166 42.2891 -0.0001 1.6521 0.0001
# 2 47.8166 104.2729 46.0479 0.0000 -1.2264 0.0000
# 3 42.2891 46.0479 97.2059 -0.0001 3.8251 0.0001
# 4 -0.0001 0.0000 -0.0001 24.6017 0.0001 8.7412
# 5 1.6521 -1.2264 3.8251 0.0001 30.3445 -0.0001
# 6 0.0001 0.0000 0.0001 8.7412 -0.0001 26.9838
#
#
#
# Elastic Compliance Matrix: (Units=1/GPa)
#
#
# Indices 1 2 3 4 5 6 
#
# 1 0.015269 -0.005164 -0.004176 0.000000 -0.000514 0.000000
# 2 -0.005164 0.013919 -0.004402 0.000000 0.001399 0.000000
# 3 -0.004176 -0.004402 0.014258 0.000000 -0.001748 0.000000
# 4 0.000000 0.000000 0.000000 0.045935 0.000000 -0.014880
# 5 -0.000514 0.001399 -0.001748 0.000000 0.033260 0.000000
# 6 0.000000 0.000000 0.000000 -0.014880 0.000000 0.041880
#
#
# Mechanical properties :
#
#
# Convention : Reuss Voigt Hill
#
# Bulk Modulus (GPa) = 62.64942 63.00789 62.82866
# Shear Modulus (GPa) = 25.33888 26.96000 26.14944
#
# Velocity S-wave (km/s) = 3.49054 3.60047 3.54593
# Velocity P-wave (km/s) = 6.80951 6.89791 6.85385
#
# Compressibility (1/GPa) = 0.01596184
#
# Stress axis : x y z
#
# Youngs Moduli (GPa) = 65.49197 71.84652 70.13368
#
# Poissons Ratio (x) = 0.37099 0.29291
# Poissons Ratio (y) = 0.33818 0.30873
# Poissons Ratio (z) = 0.27352 0.31627
#
# Static dielectric constant tensor:
#      x y z
#    x 3.957920 0.000000 -0.000250 
#    y 0.000000 3.838480 0.000000 
#    z -0.000250 0.000000 3.890590 
# 
# 
# High freq. dielectric constant tensor:
#      x y z
#    x 1.803170 0.000000 -0.008560 
#    y 0.000000 1.814860 0.000000 
#    z -0.008560 0.000000 1.824420 
# 
# From -- ./inp_files/107462.got.cif
#   From: 2010.06.25/outbox.cif.g09.slc.cpg/sg15_54_cif.got.tgz:107462.got - 2010.06.28 07:06:18.
