data_PCOD8136076
_publ_section_title
;
Structure prediction by ZEFSAII (Michael W. Deem and Ramdas Pophale) SiO2 
 PCOD8136076
Probable space group: C 2/C
;
_chemical_formula_sum "Si O2"
_cell_formula_units_Z 40
_cell_length_a 10.396880
_cell_length_b 28.707637
_cell_length_c 5.161935
_cell_angle_alpha 90.000000
_cell_angle_beta 86.624549
_cell_angle_gamma 90.000000
_cell_volume 1538.009144
_symmetry_space_group_name_H-M "C 2/C"
_symmetry_group_IT_number 15
_symmetry_cell_setting 'monoclinic'
loop_
_space_group_symop_operation_xyz
x,y,z
-x,y,1/2-z
-x,-y,-z
x,-y,1/2+z
1/2+x,1/2+y,z
1/2-x,1/2+y,1/2-z
1/2-x,1/2-y,-z
1/2+x,1/2-y,1/2+z
loop_
_atom_site_type_symbol
_atom_site_label
_atom_site_fract_x
_atom_site_fract_y
_atom_site_fract_z
Si Si1 0.586953 0.908597 0.493169
Si Si2 0.633663 0.684289 0.067024
Si Si3 0.313953 0.470814 0.528675
Si Si4 0.645457 0.629506 0.570552
Si Si5 0.574183 0.210686 0.494944
O O1 0.500000 0.896093 0.750000
O O2 0.697616 0.868867 0.447968
O O3 0.661592 0.957817 0.529936
O O4 0.500000 0.912485 0.250000
O O5 0.593855 0.666548 0.360770
O O6 0.570401 0.733631 0.015406
O O7 0.592551 0.645264 0.859735
O O8 0.785823 0.689232 0.032075
O O9 0.349495 0.507367 0.300777
O O10 0.398687 0.423511 0.484366
O O11 0.500000 0.188718 0.750000
O O12 0.500000 0.194389 0.250000
#
# Coordination Sequence:
#
# PCOD8136076 Si02
#       5
#     8   8   8   8   8
#     4  10  20  30  44  68 101 146 190 230 270 318
#     4  11  22  41  59  84 121 149 185 245 284 328
#     4  10  20  33  48  71 108 150 195 234 275 328
#     4  10  22  34  53  77 109 152 188 234 274 332
#     4  11  24  40  63  88 114 151 189 231 292 354
#
# _framework density 26.007648
#
# number of rings (size 3 to 8) (size 9 to 14) (size 15 to 20)
#    1.200    0.400    0.000    6.000    0.000   10.400 
#    0.000    0.000    0.000    0.000    0.000    0.000 
#    0.000   56.000    0.000    0.000    0.000    0.000 
#
# Total GULP energy -248033.028223 kJ/mol
# GULP energy per Si atom -12401.651411 kJ/mol
# Density = 2.594845 g / cm^3
# Si number density = 26.007648 Si / 1000 Ang^3
#
#
#
# Elastic Constant Matrix: (Units=GPa)
#
#
# Indices 1 2 3 4 5 6 
#
# 1 64.9707 -1.1054 27.4617 0.0000 -12.5162 0.0000
# 2 -1.1054 103.4614 12.6148 0.0000 -6.0124 0.0000
# 3 27.4617 12.6148 183.8621 0.0000 -34.4775 0.0000
# 4 0.0000 0.0000 0.0000 45.9526 0.0000 23.0278
# 5 -12.5162 -6.0124 -34.4775 0.0000 46.2895 0.0000
# 6 0.0000 0.0000 0.0000 23.0278 0.0000 5.4179
#
#
#
# Elastic Compliance Matrix: (Units=1/GPa)
#
#
# Indices 1 2 3 4 5 6 
#
# 1 0.016842 0.000603 -0.001962 0.000000 0.003171 0.000000
# 2 0.000603 0.009800 -0.000573 0.000000 0.001009 0.000000
# 3 -0.001962 -0.000573 0.006576 0.000000 0.004293 0.000000
# 4 0.000000 0.000000 0.000000 -0.019260 0.000000 0.081859
# 5 0.003171 0.001009 0.004293 0.000000 0.025789 0.000000
# 6 0.000000 0.000000 0.000000 0.081859 0.000000 -0.163353
#
#
# Mechanical properties :
#
#
# Convention : Reuss Voigt Hill
#
# Bulk Modulus (GPa) = 34.06646 47.80404 40.93525
# Shear Modulus (GPa) = -45.47315 40.42022 -2.52647
#
# Velocity S-wave (km/s) = -4.18599 3.94657 -0.98668
# Velocity P-wave (km/s) = 3.19941 6.26002 3.80471
#
# Compressibility (1/GPa) = 0.02935438
#
# Stress axis : x y z
#
# Youngs Moduli (GPa) = 59.37509 102.03627 152.06035
#
# Poissons Ratio (x) = -0.06158 0.29840
# Poissons Ratio (y) = -0.03583 0.08718
# Poissons Ratio (z) = 0.11652 0.05850
#
# Static dielectric constant tensor:
#      x y z
#    x 5.024970 0.000000 -0.119050 
#    y 0.000000 4.541820 0.000000 
#    z -0.119050 0.000000 4.391870 
# 
# 
# High freq. dielectric constant tensor:
#      x y z
#    x 2.076440 0.000000 -0.005790 
#    y 0.000000 2.039320 0.000000 
#    z -0.005790 0.000000 2.049790 
# 
# From -- ./inp_files/5007.got.cif
#   From: 2010.06.25/outbox.cif.g09.slc.cpg/sg15_3_cif.got.tgz:5007.got - 2010.06.28 07:06:18.
