data_PCOD8136104
_publ_section_title
;
Structure prediction by ZEFSAII (Michael W. Deem and Ramdas Pophale) SiO2 
 PCOD8136104
Probable space group: C 2/C
;
_chemical_formula_sum "Si O2"
_cell_formula_units_Z 64
_cell_length_a 13.224389
_cell_length_b 31.259803
_cell_length_c 9.181355
_cell_angle_alpha 90.000000
_cell_angle_beta 90.434264
_cell_angle_gamma 90.000000
_cell_volume 3795.387805
_symmetry_space_group_name_H-M "C 2/C"
_symmetry_group_IT_number 15
_symmetry_cell_setting 'monoclinic'
loop_
_space_group_symop_operation_xyz
x,y,z
-x,y,1/2-z
-x,-y,-z
x,-y,1/2+z
1/2+x,1/2+y,z
1/2-x,1/2+y,1/2-z
1/2-x,1/2-y,-z
1/2+x,1/2-y,1/2+z
loop_
_atom_site_type_symbol
_atom_site_label
_atom_site_fract_x
_atom_site_fract_y
_atom_site_fract_z
Si Si1 0.888511 0.773577 0.577619
Si Si2 0.305153 0.182461 0.969433
Si Si3 0.381227 0.131705 0.715329
Si Si4 0.608387 0.037990 0.827515
Si Si5 0.118559 0.366736 0.775020
Si Si6 0.383838 0.726480 0.418717
Si Si7 0.811627 0.313824 0.968010
Si Si8 0.390639 0.043030 0.322428
O O1 0.863038 0.769185 0.747430
O O2 0.877254 0.727665 0.503648
O O3 0.807937 0.806018 0.504033
O O4 0.002131 0.789633 0.550098
O O5 0.355404 0.142826 0.057119
O O6 0.188421 0.191033 0.009216
O O7 0.312632 0.164502 0.806248
O O8 0.366483 0.226801 0.989497
O O9 0.500000 0.136455 0.750000
O O10 0.342759 0.082658 0.725089
O O11 0.359112 0.145710 0.550879
O O12 0.500000 0.035635 0.750000
O O13 0.667425 0.996977 0.758145
O O14 0.602042 0.035743 0.003291
O O15 0.173802 0.326668 0.699266
O O16 0.164502 0.412325 0.720313
O O17 0.000000 0.365026 0.750000
O O18 0.500000 0.046836 0.250000
#
# Coordination Sequence:
#
# PCOD8136104 Si02
#       8
#     8   8   8   8   8   8   8   8
#     4  10  20  34  55  68 102 132 167 211 260 296
#     4  11  22  33  51  72 100 131 173 211 241 300
#     4  11  21  33  52  71 103 138 169 201 250 297
#     4  10  20  31  47  69  99 137 166 199 249 297
#     4  11  21  31  48  73 102 130 172 209 240 289
#     4  10  20  36  50  74  98 134 166 213 259 293
#     4  11  20  35  49  76  94 137 171 208 246 297
#     4  10  20  31  46  69 102 132 169 203 243 299
#
# _framework density 16.862573000000001
#
# number of rings (size 3 to 8) (size 9 to 14) (size 15 to 20)
#    0.000    1.500    3.750    3.750    7.000    0.000 
#    0.000    1.875    0.000    0.000    0.000    0.000 
#    0.000    6.000    0.000    0.000    0.000    0.000 
#
# Total GULP energy -396563.105518 kJ/mol
# GULP energy per Si atom -12392.597047 kJ/mol
# Density = 1.682419 g / cm^3
# Si number density = 16.862573 Si / 1000 Ang^3
#
#
#
# Elastic Constant Matrix: (Units=GPa)
#
#
# Indices 1 2 3 4 5 6 
#
# 1 74.1454 35.3757 17.8426 0.0000 -3.9624 0.0000
# 2 35.3757 106.5028 27.7997 0.0000 -2.3100 0.0000
# 3 17.8426 27.7997 66.2758 0.0000 -2.1349 0.0000
# 4 0.0000 0.0000 0.0000 24.6851 0.0000 0.2771
# 5 -3.9624 -2.3100 -2.1349 0.0000 23.8277 0.0000
# 6 0.0000 0.0000 0.0000 0.2771 0.0000 13.8684
#
#
#
# Elastic Compliance Matrix: (Units=1/GPa)
#
#
# Indices 1 2 3 4 5 6 
#
# 1 0.016456 -0.004809 -0.002347 0.000000 0.002060 0.000000
# 2 -0.004809 0.011958 -0.003721 0.000000 0.000026 0.000000
# 3 -0.002347 -0.003721 0.017307 0.000000 0.000800 0.000000
# 4 0.000000 0.000000 0.000000 0.040519 0.000000 -0.000810
# 5 0.002060 0.000026 0.000800 0.000000 0.042385 0.000000
# 6 0.000000 0.000000 0.000000 -0.000810 0.000000 0.072123
#
#
# Mechanical properties :
#
#
# Convention : Reuss Voigt Hill
#
# Bulk Modulus (GPa) = 41.72085 45.44002 43.58044
# Shear Modulus (GPa) = 21.69292 23.53664 22.61478
#
# Velocity S-wave (km/s) = 3.59061 3.74008 3.66611
# Velocity P-wave (km/s) = 6.47961 6.75698 6.61975
#
# Compressibility (1/GPa) = 0.02396883
#
# Stress axis : x y z
#
# Youngs Moduli (GPa) = 60.76743 83.62307 57.78127
#
# Poissons Ratio (x) = 0.40212 0.13561
# Poissons Ratio (y) = 0.29222 0.21498
# Poissons Ratio (z) = 0.14261 0.31113
#
# Static dielectric constant tensor:
#      x y z
#    x 2.823560 0.000000 0.047510 
#    y 0.000000 3.852540 0.000000 
#    z 0.047510 0.000000 3.268780 
# 
# 
# High freq. dielectric constant tensor:
#      x y z
#    x 1.598570 0.000000 0.005600 
#    y 0.000000 1.654000 0.000000 
#    z 0.005600 0.000000 1.666620 
# 
# From -- ./inp_files/44272.got.cif
#   From: 2010.06.25/outbox.cif.g09.slc.cpg/sg15_23_cif.got.tgz:44272.got - 2010.06.28 07:06:18.
