data_PCOD8136473
_publ_section_title
;
Structure prediction by ZEFSAII (Michael W. Deem and Ramdas Pophale) SiO2 
 PCOD8136473
Probable space group: C 2/C
;
_chemical_formula_sum "Si O2"
_cell_formula_units_Z 60
_cell_length_a 22.517175
_cell_length_b 22.224020
_cell_length_c 16.808571
_cell_angle_alpha 90.000000
_cell_angle_beta 156.425911
_cell_angle_gamma 90.000000
_cell_volume 3364.002230
_symmetry_space_group_name_H-M "C 2/C"
_symmetry_group_IT_number 15
_symmetry_cell_setting 'monoclinic'
loop_
_space_group_symop_operation_xyz
x,y,z
-x,y,1/2-z
-x,-y,-z
x,-y,1/2+z
1/2+x,1/2+y,z
1/2-x,1/2+y,1/2-z
1/2-x,1/2-y,-z
1/2+x,1/2-y,1/2+z
loop_
_atom_site_type_symbol
_atom_site_label
_atom_site_fract_x
_atom_site_fract_y
_atom_site_fract_z
Si Si1 0.992995 0.361101 0.914026
Si Si2 0.830334 0.877496 0.331567
Si Si3 0.042817 0.800111 0.390531
Si Si4 0.690736 0.560411 0.858157
Si Si5 0.809481 0.918918 0.962892
Si Si6 0.477586 0.536019 0.133550
Si Si7 0.850172 0.242898 0.787482
Si Si8 0.000000 0.389136 0.750000
O O1 0.867519 0.412735 0.769693
O O2 0.947965 0.303635 0.913088
O O3 0.988390 0.345527 0.813071
O O4 0.155097 0.384759 0.137633
O O5 0.870277 0.905367 0.294461
O O6 0.925510 0.909100 0.516037
O O7 0.878968 0.806847 0.391762
O O8 0.103769 0.867559 0.478820
O O9 0.174943 0.754591 0.577119
O O10 0.000000 0.784074 0.250000
O O11 0.894880 0.789989 0.260256
O O12 0.630158 0.491682 0.784198
O O13 0.640546 0.588954 0.882349
O O14 0.867675 0.563339 0.074859
O O15 0.854370 0.983256 0.982896
O O16 0.500000 0.561349 0.250000
#
# Coordination Sequence:
#
# PCOD8136473 Si02
#       8
#     8   8   8   8   8   8   8   4
#     4   9  19  32  47  74 104 141 167 198 251 298
#     4  11  20  33  51  74 103 133 176 213 250 304
#     4  11  20  29  47  73 107 144 169 195 241 309
#     4   9  17  31  49  76 103 136 160 203 250 307
#     4   9  18  33  49  72 109 134 165 198 248 312
#     4  10  20  34  54  75  98 131 172 218 264 302
#     4  11  21  32  45  71 106 140 175 210 242 292
#     4   8  16  30  48  72 114 132 164 192 236 318
#
# _framework density 17.835898
#
# number of rings (size 3 to 8) (size 9 to 14) (size 15 to 20)
#    0.000    2.133    1.333    3.600    0.933    2.667 
#    0.000    0.000    0.000    0.800    0.000    0.000 
#    0.000    0.000    0.000    0.000    0.000    0.000 
#
# Total GULP energy -371720.892468 kJ/mol
# GULP energy per Si atom -12390.696416 kJ/mol
# Density = 1.779530 g / cm^3
# Si number density = 17.835898 Si / 1000 Ang^3
#
#
#
# Elastic Constant Matrix: (Units=GPa)
#
#
# Indices 1 2 3 4 5 6 
#
# 1 57.7412 35.1011 31.9060 0.0000 3.7992 0.0000
# 2 35.1011 97.0916 50.2287 0.0000 -11.1225 0.0000
# 3 31.9060 50.2287 73.8535 0.0000 -2.7429 0.0000
# 4 0.0000 0.0000 0.0000 27.4286 0.0000 -3.9897
# 5 3.7992 -11.1225 -2.7429 0.0000 18.4068 0.0000
# 6 0.0000 0.0000 0.0000 -3.9897 0.0000 20.6555
#
#
#
# Elastic Compliance Matrix: (Units=1/GPa)
#
#
# Indices 1 2 3 4 5 6 
#
# 1 0.026145 -0.007147 -0.006833 0.000000 -0.010733 0.000000
# 2 -0.007147 0.019121 -0.009486 0.000000 0.011616 0.000000
# 3 -0.006833 -0.009486 0.022910 0.000000 -0.000907 0.000000
# 4 0.000000 0.000000 0.000000 0.037512 0.000000 0.007246
# 5 -0.010733 0.011616 -0.000907 0.000000 0.063427 0.000000
# 6 0.000000 0.000000 0.000000 0.007246 0.000000 0.049813
#
#
# Mechanical properties :
#
#
# Convention : Reuss Voigt Hill
#
# Bulk Modulus (GPa) = 47.06941 51.46199 49.26570
# Shear Modulus (GPa) = 18.31897 20.72822 19.52360
#
# Velocity S-wave (km/s) = 3.20829 3.41275 3.31210
# Velocity P-wave (km/s) = 6.33812 6.66670 6.50448
#
# Compressibility (1/GPa) = 0.02124522
#
# Stress axis : x y z
#
# Youngs Moduli (GPa) = 38.24796 52.29815 43.64905
#
# Poissons Ratio (x) = 0.37376 0.29827
# Poissons Ratio (y) = 0.27334 0.41404
# Poissons Ratio (z) = 0.26136 0.49608
#
# Static dielectric constant tensor:
#      x y z
#    x 3.399490 0.000000 0.422710 
#    y 0.000000 3.119720 0.000000 
#    z 0.422710 0.000000 3.147060 
# 
# 
# High freq. dielectric constant tensor:
#      x y z
#    x 1.681810 0.000000 0.041090 
#    y 0.000000 1.671910 0.000000 
#    z 0.041090 0.000000 1.663650 
# 
# From -- ./inp_files/169495.got.cif
#   From: 2010.06.25/outbox.cif.g09.slc.cpg/sg15_85_cif.got.tgz:169495.got - 2010.06.28 07:06:18.
