data_PCOD8136831
_publ_section_title
;
Structure prediction by ZEFSAII (Michael W. Deem and Ramdas Pophale) SiO2 
 PCOD8136831
Probable space group: C 2/C
;
_chemical_formula_sum "Si O2"
_cell_formula_units_Z 56
_cell_length_a 9.818278
_cell_length_b 27.403836
_cell_length_c 19.757931
_cell_angle_alpha 90.000000
_cell_angle_beta 32.978740
_cell_angle_gamma 90.000000
_cell_volume 2893.667767
_symmetry_space_group_name_H-M "C 2/C"
_symmetry_group_IT_number 15
_symmetry_cell_setting 'monoclinic'
loop_
_space_group_symop_operation_xyz
x,y,z
-x,y,1/2-z
-x,-y,-z
x,-y,1/2+z
1/2+x,1/2+y,z
1/2-x,1/2+y,1/2-z
1/2-x,1/2-y,-z
1/2+x,1/2-y,1/2+z
loop_
_atom_site_type_symbol
_atom_site_label
_atom_site_fract_x
_atom_site_fract_y
_atom_site_fract_z
Si Si1 0.152522 0.124604 0.506925
Si Si2 0.913663 0.315488 0.712934
Si Si3 0.950377 0.124644 0.444914
Si Si4 0.670922 0.212717 0.587458
Si Si5 0.382845 0.277307 0.140291
Si Si6 0.285595 0.558252 0.894054
Si Si7 0.294105 0.443175 0.892639
O O1 0.439941 0.135855 0.370301
O O2 0.031146 0.107132 0.486301
O O3 0.131333 0.081412 0.569501
O O4 0.041786 0.173947 0.586480
O O5 0.630919 0.334732 0.834417
O O6 0.989102 0.272208 0.629417
O O7 0.000000 0.296042 0.750000
O O8 0.698932 0.155773 0.557729
O O9 0.896067 0.078545 0.420542
O O10 0.750000 0.250000 0.500000
O O11 0.381204 0.216466 0.716110
O O12 0.848157 0.229088 0.575154
O O13 0.500000 0.573922 0.750000
O O14 0.294691 0.500769 0.900475
O O15 0.995807 0.574382 0.998622
O O16 0.500000 0.427075 0.750000
#
# Coordination Sequence:
#
# PCOD8136831 Si02
#       7
#     8   8   8   8   8   8   8
#     4  10  22  38  56  85 121 150 192 241 296 349
#     4  10  20  37  57  82 115 152 196 241 284 334
#     4  10  21  37  61  85 112 155 197 240 287 350
#     4  10  20  35  54  79 113 148 193 241 281 333
#     4  10  21  36  53  80 115 153 190 237 283 345
#     4  10  23  42  61  91 123 150 190 252 304 353
#     4  10  22  42  66  88 117 153 199 245 297 358
#
# _framework density 19.352602000000001
#
# number of rings (size 3 to 8) (size 9 to 14) (size 15 to 20)
#    0.000    2.000    1.429    1.286    2.000    3.429 
#    0.000    0.000    0.000    5.143    0.000    0.000 
#    0.000    0.000    0.000    0.000    0.000    0.000 
#
# Total GULP energy -346890.398421 kJ/mol
# GULP energy per Si atom -12388.942801 kJ/mol
# Density = 1.930855 g / cm^3
# Si number density = 19.352602 Si / 1000 Ang^3
#
#
#
# Elastic Constant Matrix: (Units=GPa)
#
#
# Indices 1 2 3 4 5 6 
#
# 1 96.4527 51.6754 44.0247 0.0016 13.2414 -0.0012
# 2 51.6754 51.4602 25.3428 0.0033 15.4658 -0.0012
# 3 44.0247 25.3428 120.7058 -0.0083 3.5490 -0.0222
# 4 0.0016 0.0033 -0.0083 27.7542 0.0009 14.1260
# 5 13.2414 15.4658 3.5490 0.0009 33.3722 0.0052
# 6 -0.0012 -0.0012 -0.0222 14.1260 0.0052 28.6221
#
#
#
# Elastic Compliance Matrix: (Units=1/GPa)
#
#
# Indices 1 2 3 4 5 6 
#
# 1 0.024222 -0.022706 -0.004107 0.000002 0.001349 -0.000004
# 2 -0.022706 0.046522 -0.001120 -0.000007 -0.012431 0.000006
# 3 -0.004107 -0.001120 0.009986 -0.000001 0.001087 0.000008
# 4 0.000002 -0.000007 -0.000001 0.048117 0.000005 -0.023747
# 5 0.001349 -0.012431 0.001087 0.000005 0.035075 -0.000008
# 6 -0.000004 0.000006 0.000008 -0.023747 -0.000008 0.046658
#
#
# Mechanical properties :
#
#
# Convention : Reuss Voigt Hill
#
# Bulk Modulus (GPa) = 40.22124 56.74494 48.48309
# Shear Modulus (GPa) = 18.19936 27.78810 22.99373
#
# Velocity S-wave (km/s) = 3.06994 3.79342 3.45069
# Velocity P-wave (km/s) = 5.77880 6.96936 6.40181
#
# Compressibility (1/GPa) = 0.02486249
#
# Stress axis : x y z
#
# Youngs Moduli (GPa) = 41.28421 21.49541 100.14261
#
# Poissons Ratio (x) = 0.48808 0.41127
# Poissons Ratio (y) = 0.93742 0.11219
# Poissons Ratio (z) = 0.16955 0.02408
#
# Static dielectric constant tensor:
#      x y z
#    x 3.628650 -0.000020 -0.421000 
#    y -0.000020 3.208330 0.000100 
#    z -0.421000 0.000100 5.418180 
# 
# 
# High freq. dielectric constant tensor:
#      x y z
#    x 1.749320 0.000000 -0.003480 
#    y 0.000000 1.737810 0.000000 
#    z -0.003480 0.000000 1.777710 
# 
# From -- ./inp_files/82131.got.cif
#   From: 2010.06.25/outbox.cif.g09.slc.cpg/sg15_42_cif.got.tgz:82131.got - 2010.06.28 07:06:18.
