data_PCOD8136519
_publ_section_title
;
Structure prediction by ZEFSAII (Michael W. Deem and Ramdas Pophale) SiO2 
 PCOD8136519
Probable space group: C 2/C
;
_chemical_formula_sum "Si O2"
_cell_formula_units_Z 56
_cell_length_a 26.276744
_cell_length_b 14.573030
_cell_length_c 9.652783
_cell_angle_alpha 90.000000
_cell_angle_beta 52.324654
_cell_angle_gamma 90.000000
_cell_volume 2925.617306
_symmetry_space_group_name_H-M "C 2/C"
_symmetry_group_IT_number 15
_symmetry_cell_setting 'monoclinic'
loop_
_space_group_symop_operation_xyz
x,y,z
-x,y,1/2-z
-x,-y,-z
x,-y,1/2+z
1/2+x,1/2+y,z
1/2-x,1/2+y,1/2-z
1/2-x,1/2-y,-z
1/2+x,1/2-y,1/2+z
loop_
_atom_site_type_symbol
_atom_site_label
_atom_site_fract_x
_atom_site_fract_y
_atom_site_fract_z
Si Si1 0.776657 0.388020 0.055800
Si Si2 0.429531 0.285534 0.910537
Si Si3 0.183509 0.804377 0.606147
Si Si4 0.958275 0.007491 0.436158
Si Si5 0.649918 0.277067 0.195448
Si Si6 0.650596 0.381820 0.932618
Si Si7 0.253302 0.476274 0.119918
O O1 0.707257 0.336434 0.170151
O O2 0.789190 0.421936 0.193717
O O3 0.828323 0.315362 0.916982
O O4 0.785045 0.478190 0.944318
O O5 0.500000 0.243376 0.750000
O O6 0.375087 0.260614 0.886021
O O7 0.438309 0.393229 0.915557
O O8 0.403606 0.248653 0.102025
O O9 0.250000 0.750000 0.500000
O O10 0.163845 0.802112 0.800034
O O11 0.194300 0.907227 0.531560
O O12 0.000000 0.957406 0.250000
O O13 0.894717 0.951780 0.571647
O O14 0.000000 0.000000 0.500000
O O15 0.619833 0.340454 0.124231
O O16 0.715529 0.436187 0.857047
#
# Coordination Sequence:
#
# PCOD8136519 Si02
#       7
#     8   8   8   8   8   8   8
#     4  10  20  34  55  81 115 148 194 245 294 341
#     4  11  23  39  57  83 123 162 203 236 289 361
#     4  12  24  37  56  87 122 155 200 252 298 351
#     4  11  21  33  54  80 115 161 198 222 270 355
#     4  10  21  35  56  81 115 157 200 241 293 345
#     4  11  21  34  54  81 118 159 192 239 283 349
#     4  11  20  34  54  83 115 150 189 244 298 350
#
# _framework density 19.141258000000001
#
# number of rings (size 3 to 8) (size 9 to 14) (size 15 to 20)
#    0.000    1.143    4.286    3.429    6.000    0.000 
#    0.000    0.000    0.000    0.000    0.000    4.000 
#    0.000    0.000    0.000    0.000    0.000    0.000 
#
# Total GULP energy -346915.605740 kJ/mol
# GULP energy per Si atom -12389.843062 kJ/mol
# Density = 1.909769 g / cm^3
# Si number density = 19.141258 Si / 1000 Ang^3
#
#
#
# Elastic Constant Matrix: (Units=GPa)
#
#
# Indices 1 2 3 4 5 6 
#
# 1 83.5871 8.2672 30.4278 0.0000 0.7019 0.0000
# 2 8.2672 39.8811 22.6587 0.0000 -0.3810 0.0000
# 3 30.4278 22.6587 138.2177 0.0000 1.5132 0.0000
# 4 0.0000 0.0000 0.0000 28.7890 0.0000 1.7383
# 5 0.7019 -0.3810 1.5132 0.0000 27.3977 0.0000
# 6 0.0000 0.0000 0.0000 1.7383 0.0000 19.0238
#
#
#
# Elastic Compliance Matrix: (Units=1/GPa)
#
#
# Indices 1 2 3 4 5 6 
#
# 1 0.013057 -0.001187 -0.002678 0.000000 -0.000203 0.000000
# 2 -0.001187 0.027769 -0.004298 0.000000 0.000654 0.000000
# 3 -0.002678 -0.004298 0.008534 0.000000 -0.000463 0.000000
# 4 0.000000 0.000000 0.000000 0.034928 0.000000 -0.003192
# 5 -0.000203 0.000654 -0.000463 0.000000 0.036539 0.000000
# 6 0.000000 0.000000 0.000000 -0.003192 0.000000 0.052857
#
#
# Mechanical properties :
#
#
# Convention : Reuss Voigt Hill
#
# Bulk Modulus (GPa) = 30.27156 42.71035 36.49095
# Shear Modulus (GPa) = 24.87277 28.39757 26.63517
#
# Velocity S-wave (km/s) = 3.60867 3.85590 3.73434
# Velocity P-wave (km/s) = 5.76303 6.49505 6.13996
#
# Compressibility (1/GPa) = 0.03303431
#
# Stress axis : x y z
#
# Youngs Moduli (GPa) = 76.58469 36.01147 117.17699
#
# Poissons Ratio (x) = 0.04276 0.31376
# Poissons Ratio (y) = 0.09093 0.50364
# Poissons Ratio (z) = 0.20507 0.15478
#
# Static dielectric constant tensor:
#      x y z
#    x 3.469160 0.000000 0.110930 
#    y 0.000000 3.332660 0.000000 
#    z 0.110930 0.000000 4.031310 
# 
# 
# High freq. dielectric constant tensor:
#      x y z
#    x 1.716180 0.000000 0.026800 
#    y 0.000000 1.713740 0.000000 
#    z 0.026800 0.000000 1.764940 
# 
# From -- ./inp_files/56182.got.cif
#   From: 2010.06.25/outbox.cif.g09.slc.cpg/sg15_29_cif.got.tgz:56182.got - 2010.06.28 07:06:18.
