data_PCOD8136570
_publ_section_title
;
Structure prediction by ZEFSAII (Michael W. Deem and Ramdas Pophale) SiO2 
 PCOD8136570
Probable space group: C 2/C
;
_chemical_formula_sum "Si O2"
_cell_formula_units_Z 36
_cell_length_a 5.303311
_cell_length_b 21.996718
_cell_length_c 18.290282
_cell_angle_alpha 90.000000
_cell_angle_beta 115.100463
_cell_angle_gamma 90.000000
_cell_volume 1932.169362
_symmetry_space_group_name_H-M "C 2/C"
_symmetry_group_IT_number 15
_symmetry_cell_setting 'monoclinic'
loop_
_space_group_symop_operation_xyz
x,y,z
-x,y,1/2-z
-x,-y,-z
x,-y,1/2+z
1/2+x,1/2+y,z
1/2-x,1/2+y,1/2-z
1/2-x,1/2-y,-z
1/2+x,1/2-y,1/2+z
loop_
_atom_site_type_symbol
_atom_site_label
_atom_site_fract_x
_atom_site_fract_y
_atom_site_fract_z
Si Si1 0.669583 0.819788 0.990347
Si Si2 0.595507 0.903708 0.106876
Si Si3 0.117707 0.879181 0.950119
Si Si4 0.000000 0.572338 0.750000
Si Si5 0.497398 0.510050 0.165845
O O1 0.754871 0.851658 0.078599
O O2 0.750000 0.750000 0.000000
O O3 0.336349 0.831962 0.937646
O O4 0.839563 0.847083 0.943707
O O5 0.612575 0.886650 0.196004
O O6 0.730418 0.969691 0.112460
O O7 0.277890 0.909303 0.038921
O O8 0.007457 0.929464 0.881579
O O9 0.769408 0.530048 0.683625
O O10 0.500000 0.530484 0.250000
#
# Coordination Sequence:
#
# PCOD8136570 Si02
#       5
#     8   8   8   4   8
#     4  10  22  39  61  87 115 155 201 245 282 343
#     4   9  21  34  61  86 120 152 196 238 300 347
#     4  10  22  37  64  85 118 151 201 240 298 346
#     4  10  20  34  56  88 130 148 190 240 304 362
#     4  10  21  36  56  91 122 156 186 246 302 360
#
# _framework density 18.631907000000002
#
# number of rings (size 3 to 8) (size 9 to 14) (size 15 to 20)
#    1.333    0.889    0.000    2.667    6.222    1.778 
#    0.000    0.000    2.444    2.667    0.000    0.000 
#    0.000    0.000    0.000    0.000    0.000    0.000 
#
# Total GULP energy -222987.265260 kJ/mol
# GULP energy per Si atom -12388.181403 kJ/mol
# Density = 1.858950 g / cm^3
# Si number density = 18.631907 Si / 1000 Ang^3
#
#
#
# Elastic Constant Matrix: (Units=GPa)
#
#
# Indices 1 2 3 4 5 6 
#
# 1 118.1723 39.8562 28.6660 0.0000 -20.2737 0.0000
# 2 39.8562 109.0402 56.9571 0.0000 -32.7357 0.0000
# 3 28.6660 56.9571 74.7073 0.0000 -14.4153 0.0000
# 4 0.0000 0.0000 0.0000 9.4286 0.0000 -4.7466
# 5 -20.2737 -32.7357 -14.4153 0.0000 28.3640 0.0000
# 6 0.0000 0.0000 0.0000 -4.7466 0.0000 21.0302
#
#
#
# Elastic Compliance Matrix: (Units=1/GPa)
#
#
# Indices 1 2 3 4 5 6 
#
# 1 0.010200 -0.001184 -0.002071 0.000000 0.004872 0.000000
# 2 -0.001184 0.021354 -0.012456 0.000000 0.017469 0.000000
# 3 -0.002071 -0.012456 0.022859 0.000000 -0.004238 0.000000
# 4 0.000000 0.000000 0.000000 0.119655 0.000000 0.027007
# 5 0.004872 0.017469 -0.004238 0.000000 0.056746 0.000000
# 6 0.000000 0.000000 0.000000 0.027007 0.000000 0.053646
#
#
# Mechanical properties :
#
#
# Convention : Reuss Voigt Hill
#
# Bulk Modulus (GPa) = 43.49408 61.43090 52.46249
# Shear Modulus (GPa) = 15.45380 23.52727 19.49053
#
# Velocity S-wave (km/s) = 2.88310 3.55736 3.23783
# Velocity P-wave (km/s) = 5.87176 7.06509 6.49589
#
# Compressibility (1/GPa) = 0.02299163
#
# Stress axis : x y z
#
# Youngs Moduli (GPa) = 98.04239 46.82878 43.74709
#
# Poissons Ratio (x) = 0.05543 0.09061
# Poissons Ratio (y) = 0.11606 0.54490
# Poissons Ratio (z) = 0.20307 0.58328
#
# Static dielectric constant tensor:
#      x y z
#    x 3.723670 0.000000 -0.107560 
#    y 0.000000 3.084380 0.000000 
#    z -0.107560 0.000000 3.275800 
# 
# 
# High freq. dielectric constant tensor:
#      x y z
#    x 1.743330 0.000000 -0.008950 
#    y 0.000000 1.689820 0.000000 
#    z -0.008950 0.000000 1.708080 
# 
# From -- ./inp_files/128681.got.cif
#   From: 2010.06.25/outbox.cif.g09.slc.cpg/sg15_65_cif.got.tgz:128681.got - 2010.06.28 07:06:18.
