data_PCOD8136052
_publ_section_title
;
Structure prediction by ZEFSAII (Michael W. Deem and Ramdas Pophale) SiO2 
 PCOD8136052
Probable space group: C 2/C
;
_chemical_formula_sum "Si O2"
_cell_formula_units_Z 56
_cell_length_a 16.361951
_cell_length_b 10.783813
_cell_length_c 18.702567
_cell_angle_alpha 90.000000
_cell_angle_beta 56.690420
_cell_angle_gamma 90.000000
_cell_volume 2757.827762
_symmetry_space_group_name_H-M "C 2/C"
_symmetry_group_IT_number 15
_symmetry_cell_setting 'monoclinic'
loop_
_space_group_symop_operation_xyz
x,y,z
-x,y,1/2-z
-x,-y,-z
x,-y,1/2+z
1/2+x,1/2+y,z
1/2-x,1/2+y,1/2-z
1/2-x,1/2-y,-z
1/2+x,1/2-y,1/2+z
loop_
_atom_site_type_symbol
_atom_site_label
_atom_site_fract_x
_atom_site_fract_y
_atom_site_fract_z
Si Si1 0.895845 0.640651 0.764483
Si Si2 0.269603 0.758626 0.572914
Si Si3 0.693960 0.112891 0.222053
Si Si4 0.727914 0.994785 0.853288
Si Si5 0.542538 0.630879 0.954869
Si Si6 0.620970 0.234833 0.886705
Si Si7 0.418140 0.362654 0.230527
O O1 0.830707 0.740755 0.835994
O O2 0.840384 0.509693 0.802693
O O3 0.908815 0.687568 0.677536
O O4 0.000000 0.629352 0.750000
O O5 0.250000 0.750000 0.500000
O O6 0.350573 0.662497 0.564314
O O7 0.290413 0.904903 0.571315
O O8 0.807035 0.145882 0.150370
O O9 0.626448 0.227882 0.232975
O O10 0.680325 0.083910 0.311901
O O11 0.673507 0.120720 0.900285
O O12 0.838859 0.028716 0.778314
O O13 0.540839 0.632452 0.869784
O O14 0.500000 0.500000 0.000000
O O15 0.472648 0.736344 0.020648
O O16 0.500000 0.389140 0.250000
#
# Coordination Sequence:
#
# PCOD8136052 Si02
#       7
#     8   8   8   8   8   8   8
#     4  11  22  39  65  96 127 168 217 266 318 383
#     4  12  25  42  64  96 133 169 216 271 324 383
#     4  10  19  44  65  88 126 175 212 259 325 383
#     4  10  21  42  64  87 129 173 213 261 325 386
#     4  12  25  43  66  99 130 168 217 273 325 386
#     4  10  21  40  68  89 127 175 212 263 327 385
#     4  11  24  42  67  94 127 174 216 265 324 395
#
# _framework density 20.305835999999999
#
# number of rings (size 3 to 8) (size 9 to 14) (size 15 to 20)
#    0.000    1.143    2.857    4.714    2.000    1.143 
#    5.143    1.429    0.000    0.000    0.000    0.000 
#    0.000    0.000    0.000    0.000    0.000    0.000 
#
# Total GULP energy -347142.047588 kJ/mol
# GULP energy per Si atom -12397.930271 kJ/mol
# Density = 2.025962 g / cm^3
# Si number density = 20.305836 Si / 1000 Ang^3
#
#
#
# Elastic Constant Matrix: (Units=GPa)
#
#
# Indices 1 2 3 4 5 6 
#
# 1 138.1978 51.7147 53.0173 0.0000 7.2129 0.0000
# 2 51.7147 101.6407 34.1828 0.0000 0.4444 0.0000
# 3 53.0173 34.1828 110.4611 0.0000 10.4542 0.0000
# 4 0.0000 0.0000 0.0000 31.0799 0.0000 2.1133
# 5 7.2129 0.4444 10.4542 0.0000 29.9754 0.0000
# 6 0.0000 0.0000 0.0000 2.1133 0.0000 13.7828
#
#
#
# Elastic Compliance Matrix: (Units=1/GPa)
#
#
# Indices 1 2 3 4 5 6 
#
# 1 0.010133 -0.003964 -0.003528 0.000000 -0.001149 0.000000
# 2 -0.003964 0.012565 -0.002129 0.000000 0.001510 0.000000
# 3 -0.003528 -0.002129 0.011708 0.000000 -0.003203 0.000000
# 4 0.000000 0.000000 0.000000 0.032514 0.000000 -0.004985
# 5 -0.001149 0.001510 -0.003203 0.000000 0.034732 0.000000
# 6 0.000000 0.000000 0.000000 -0.004985 0.000000 0.073318
#
#
# Mechanical properties :
#
#
# Convention : Reuss Voigt Hill
#
# Bulk Modulus (GPa) = 65.94324 69.79212 67.86768
# Shear Modulus (GPa) = 25.09212 29.05994 27.07603
#
# Velocity S-wave (km/s) = 3.51908 3.78711 3.65555
# Velocity P-wave (km/s) = 7.00410 7.31902 7.16329
#
# Compressibility (1/GPa) = 0.01516456
#
# Stress axis : x y z
#
# Youngs Moduli (GPa) = 98.68950 79.58780 85.41141
#
# Poissons Ratio (x) = 0.31549 0.30132
# Poissons Ratio (y) = 0.39121 0.18180
# Poissons Ratio (z) = 0.34817 0.16940
#
# Static dielectric constant tensor:
#      x y z
#    x 3.685540 0.000000 -0.119210 
#    y 0.000000 4.007870 0.000000 
#    z -0.119210 0.000000 3.601740 
# 
# 
# High freq. dielectric constant tensor:
#      x y z
#    x 1.792260 0.000000 -0.007140 
#    y 0.000000 1.814590 0.000000 
#    z -0.007140 0.000000 1.784890 
# 
# From -- ./inp_files/204361.got.cif
#   From: 2010.06.25/outbox.cif.g09.slc.cpg/sg15_103_cif.got.tgz:204361.got - 2010.06.28 07:06:18.
