data_PCOD8136148
_publ_section_title
;
Structure prediction by ZEFSAII (Michael W. Deem and Ramdas Pophale) SiO2 
 PCOD8136148
Probable space group: C 2/C
;
_chemical_formula_sum "Si O2"
_cell_formula_units_Z 48
_cell_length_a 24.038887
_cell_length_b 25.301784
_cell_length_c 8.679451
_cell_angle_alpha 90.000000
_cell_angle_beta 29.316714
_cell_angle_gamma 90.000000
_cell_volume 2584.829072
_symmetry_space_group_name_H-M "C 2/C"
_symmetry_group_IT_number 15
_symmetry_cell_setting 'monoclinic'
loop_
_space_group_symop_operation_xyz
x,y,z
-x,y,1/2-z
-x,-y,-z
x,-y,1/2+z
1/2+x,1/2+y,z
1/2-x,1/2+y,1/2-z
1/2-x,1/2-y,-z
1/2+x,1/2-y,1/2+z
loop_
_atom_site_type_symbol
_atom_site_label
_atom_site_fract_x
_atom_site_fract_y
_atom_site_fract_z
Si Si1 0.904481 0.751996 0.753032
Si Si2 0.868430 0.529653 0.112550
Si Si3 0.598163 0.882812 0.741533
Si Si4 0.656039 0.926698 0.148691
Si Si5 0.215734 0.332176 0.161402
Si Si6 0.370631 0.774463 0.678366
O O1 0.866558 0.714331 0.703571
O O2 0.041308 0.760301 0.427708
O O3 0.837279 0.807407 0.912470
O O4 0.885022 0.723848 0.961802
O O5 0.839847 0.567244 0.327336
O O6 0.830901 0.470972 0.250122
O O7 0.807363 0.549319 0.104321
O O8 0.000000 0.529900 0.750000
O O9 0.655764 0.863534 0.445149
O O10 0.612247 0.835244 0.824919
O O11 0.468145 0.900082 0.034666
O O12 0.741548 0.877857 0.973747
O O13 0.250000 0.750000 0.000000
#
# Coordination Sequence:
#
# PCOD8136148 Si02
#       6
#     8   8   8   8   8   8
#     4  10  23  35  53  79 111 147 199 229 274 338
#     4  10  20  32  49  82 112 152 186 231 285 357
#     4  11  20  31  52  77 110 153 184 225 291 334
#     4  11  20  33  53  78 118 147 189 233 292 349
#     4  11  20  35  51  78 112 149 186 231 277 336
#     4  11  21  38  54  78 111 152 192 235 280 331
#
# _framework density 18.569893
#
# number of rings (size 3 to 8) (size 9 to 14) (size 15 to 20)
#    0.000    1.333    3.333    5.500    4.667    0.000 
#    0.000    0.000    0.000    0.000    0.000    1.167 
#    0.000    0.000    0.000    0.333    0.000    0.000 
#
# Total GULP energy -297333.523842 kJ/mol
# GULP energy per Si atom -12388.896827 kJ/mol
# Density = 1.852763 g / cm^3
# Si number density = 18.569893 Si / 1000 Ang^3
#
#
#
# Elastic Constant Matrix: (Units=GPa)
#
#
# Indices 1 2 3 4 5 6 
#
# 1 87.0894 48.3446 26.5341 0.0000 -0.2598 0.0000
# 2 48.3446 130.2928 28.7221 0.0000 -6.0022 0.0000
# 3 26.5341 28.7221 45.7851 -0.0002 -15.1133 0.0000
# 4 0.0000 0.0000 -0.0002 27.0877 0.0001 4.6661
# 5 -0.2598 -6.0022 -15.1133 0.0001 27.9949 0.0000
# 6 0.0000 0.0000 0.0000 4.6661 0.0000 47.3416
#
#
#
# Elastic Compliance Matrix: (Units=1/GPa)
#
#
# Indices 1 2 3 4 5 6 
#
# 1 0.016585 -0.004514 -0.008577 0.000000 -0.005444 0.000000
# 2 -0.004514 0.010177 -0.003726 0.000000 0.000129 0.000000
# 3 -0.008577 -0.003726 0.035117 0.000000 0.018080 0.000000
# 4 0.000000 0.000000 0.000000 0.037555 0.000000 -0.003701
# 5 -0.005444 0.000129 0.018080 0.000000 0.045458 0.000000
# 6 0.000000 0.000000 0.000000 -0.003701 0.000000 0.021488
#
#
# Mechanical properties :
#
#
# Convention : Reuss Voigt Hill
#
# Bulk Modulus (GPa) = 35.40364 52.26322 43.83343
# Shear Modulus (GPa) = 23.87430 31.12260 27.49845
#
# Velocity S-wave (km/s) = 3.58948 4.09830 3.85230
# Velocity P-wave (km/s) = 6.02375 7.11336 6.59111
#
# Compressibility (1/GPa) = 0.02824568
#
# Stress axis : x y z
#
# Youngs Moduli (GPa) = 60.29463 98.25909 28.47592
#
# Poissons Ratio (x) = 0.44353 0.24424
# Poissons Ratio (y) = 0.27216 0.10610
# Poissons Ratio (z) = 0.51716 0.36611
#
# Static dielectric constant tensor:
#      x y z
#    x 3.916230 0.000000 0.247820 
#    y 0.000000 3.727150 0.000000 
#    z 0.247820 0.000000 3.382900 
# 
# 
# High freq. dielectric constant tensor:
#      x y z
#    x 1.738290 0.000000 0.029130 
#    y 0.000000 1.732030 0.000000 
#    z 0.029130 0.000000 1.664600 
# 
# From -- ./inp_files/58397.got.cif
#   From: 2010.06.25/outbox.cif.g09.slc.cpg/sg15_30_cif.got.tgz:58397.got - 2010.06.28 07:06:18.
