data_PCOD8136734
_publ_section_title
;
Structure prediction by ZEFSAII (Michael W. Deem and Ramdas Pophale) SiO2 
 PCOD8136734
Probable space group: C 2/C
;
_chemical_formula_sum "Si O2"
_cell_formula_units_Z 52
_cell_length_a 16.288589
_cell_length_b 11.821637
_cell_length_c 25.283890
_cell_angle_alpha 90.000000
_cell_angle_beta 149.832588
_cell_angle_gamma 90.000000
_cell_volume 2446.614220
_symmetry_space_group_name_H-M "C 2/C"
_symmetry_group_IT_number 15
_symmetry_cell_setting 'monoclinic'
loop_
_space_group_symop_operation_xyz
x,y,z
-x,y,1/2-z
-x,-y,-z
x,-y,1/2+z
1/2+x,1/2+y,z
1/2-x,1/2+y,1/2-z
1/2-x,1/2-y,-z
1/2+x,1/2-y,1/2+z
loop_
_atom_site_type_symbol
_atom_site_label
_atom_site_fract_x
_atom_site_fract_y
_atom_site_fract_z
Si Si1 0.342385 0.195644 0.264078
Si Si2 0.883706 0.847252 0.955612
Si Si3 0.994259 0.917954 0.186171
Si Si4 0.338083 0.161286 0.012756
Si Si5 0.551444 0.344679 0.679349
Si Si6 0.339569 0.411931 0.467421
Si Si7 0.000000 0.685858 0.750000
O O1 0.268670 0.144608 0.169650
O O2 0.418973 0.320703 0.300179
O O3 0.493658 0.115367 0.367350
O O4 0.206856 0.200395 0.233960
O O5 0.881707 0.725259 0.982210
O O6 0.868608 0.952321 0.988008
O O7 0.053995 0.857267 0.020032
O O8 0.797387 0.937094 0.067991
O O9 0.000000 0.881222 0.250000
O O10 0.089245 0.032691 0.225641
O O11 0.250000 0.250000 0.000000
O O12 0.393836 0.354664 0.552908
O O13 0.521026 0.260835 0.709968
O O14 0.153363 0.392679 0.348065
#
# Coordination Sequence:
#
# PCOD8136734 Si02
#       7
#     8   8   8   8   8   8   4
#     4  10  22  39  66  92 124 166 210 257 313 374
#     4  10  20  40  60  90 123 161 210 262 305 369
#     4  11  21  41  65  91 128 165 204 261 316 367
#     4  10  20  34  61  93 122 157 208 258 306 365
#     4  11  24  43  62  92 129 165 208 259 321 373
#     4  10  23  39  63  87 123 165 208 258 317 368
#     4  12  24  40  62  88 126 168 208 256 316 386
#
# _framework density 21.253861000000001
#
# number of rings (size 3 to 8) (size 9 to 14) (size 15 to 20)
#    0.000    1.538    2.308    3.231    0.000    6.154 
#    0.000    3.846    0.000    0.000    0.000    0.000 
#    0.000    0.000    0.000    0.000    0.000    0.000 
#
# Total GULP energy -322275.938023 kJ/mol
# GULP energy per Si atom -12395.228385 kJ/mol
# Density = 2.120549 g / cm^3
# Si number density = 21.253861 Si / 1000 Ang^3
#
#
#
# Elastic Constant Matrix: (Units=GPa)
#
#
# Indices 1 2 3 4 5 6 
#
# 1 91.3122 24.0997 35.0157 -0.0002 2.0026 0.0000
# 2 24.0997 54.6040 -3.8385 0.0004 11.5866 0.0001
# 3 35.0157 -3.8385 136.4485 0.0028 18.2658 0.0006
# 4 -0.0002 0.0004 0.0028 19.0333 0.0005 -9.0461
# 5 2.0026 11.5866 18.2658 0.0005 30.6322 0.0001
# 6 0.0000 0.0001 0.0006 -9.0461 0.0001 25.9509
#
#
#
# Elastic Compliance Matrix: (Units=1/GPa)
#
#
# Indices 1 2 3 4 5 6 
#
# 1 0.014683 -0.007814 -0.004624 0.000001 0.004753 0.000001
# 2 -0.007814 0.024442 0.004197 -0.000001 -0.011237 -0.000001
# 3 -0.004624 0.004197 0.009569 -0.000002 -0.006991 -0.000001
# 4 0.000001 -0.000001 -0.000002 0.062972 0.000000 0.021951
# 5 0.004753 -0.011237 -0.006991 0.000000 0.040754 0.000000
# 6 0.000001 -0.000001 -0.000001 0.021951 0.000000 0.046186
#
#
# Mechanical properties :
#
#
# Convention : Reuss Voigt Hill
#
# Bulk Modulus (GPa) = 31.04412 43.65763 37.35088
# Shear Modulus (GPa) = 22.14103 30.26246 26.20175
#
# Velocity S-wave (km/s) = 3.23110 3.77750 3.51493
# Velocity P-wave (km/s) = 5.34398 6.29378 5.83822
#
# Compressibility (1/GPa) = 0.03221222
#
# Stress axis : x y z
#
# Youngs Moduli (GPa) = 68.10762 40.91355 104.50021
#
# Poissons Ratio (x) = 0.31969 0.48321
# Poissons Ratio (y) = 0.53218 -0.43859
# Poissons Ratio (z) = 0.31493 -0.17172
#
# Static dielectric constant tensor:
#      x y z
#    x 4.063780 0.000000 0.058280 
#    y 0.000000 3.607060 -0.000010 
#    z 0.058280 -0.000010 5.002910 
# 
# 
# High freq. dielectric constant tensor:
#      x y z
#    x 1.845250 0.000000 -0.006080 
#    y 0.000000 1.801080 0.000000 
#    z -0.006080 0.000000 1.850690 
# 
# From -- ./inp_files/298886.got.cif
#   From: 2010.06.25/outbox.cif.g09.slc.cpg/sg15_150_cif.got.tgz:298886.got - 2010.06.28 07:06:18.
