data_PCOD8136858
_publ_section_title
;
Structure prediction by ZEFSAII (Michael W. Deem and Ramdas Pophale) SiO2 
 PCOD8136858
Probable space group: C 2/C
;
_chemical_formula_sum "Si O2"
_cell_formula_units_Z 64
_cell_length_a 20.243478
_cell_length_b 27.927054
_cell_length_c 8.978345
_cell_angle_alpha 90.000000
_cell_angle_beta 38.096010
_cell_angle_gamma 90.000000
_cell_volume 3131.687259
_symmetry_space_group_name_H-M "C 2/C"
_symmetry_group_IT_number 15
_symmetry_cell_setting 'monoclinic'
loop_
_space_group_symop_operation_xyz
x,y,z
-x,y,1/2-z
-x,-y,-z
x,-y,1/2+z
1/2+x,1/2+y,z
1/2-x,1/2+y,1/2-z
1/2-x,1/2-y,-z
1/2+x,1/2-y,1/2+z
loop_
_atom_site_type_symbol
_atom_site_label
_atom_site_fract_x
_atom_site_fract_y
_atom_site_fract_z
Si Si1 0.784281 0.813962 0.858129
Si Si2 0.269995 0.496053 0.012189
Si Si3 0.808709 0.393575 0.276357
Si Si4 0.885821 0.876410 0.450421
Si Si5 0.592715 0.521315 0.485002
Si Si6 0.516820 0.142566 0.542561
Si Si7 0.428339 0.241227 0.743642
Si Si8 0.713927 0.095575 0.033772
O O1 0.798238 0.843492 0.683332
O O2 0.893285 0.784042 0.696468
O O3 0.760970 0.849633 0.036706
O O4 0.683505 0.780616 0.997992
O O5 0.387507 0.498568 0.716794
O O6 0.221142 0.443261 0.088650
O O7 0.293481 0.507574 0.141732
O O8 0.192218 0.538378 0.090390
O O9 0.932633 0.387585 0.096002
O O10 0.792048 0.391806 0.128923
O O11 0.916452 0.921574 0.500741
O O12 0.834058 0.892446 0.383751
O O13 0.000000 0.848393 0.250000
O O14 0.500000 0.496808 0.750000
O O15 0.500000 0.133799 0.750000
O O16 0.497688 0.199146 0.541738
O O17 0.631626 0.126056 0.279595
O O18 0.500000 0.262875 0.750000
#
# Coordination Sequence:
#
# PCOD8136858 Si02
#       8
#     8   8   8   8   8   8   8   8
#     4  10  20  38  62  86 120 155 201 250 307 367
#     4  11  21  36  56  85 124 162 204 255 298 360
#     4  11  22  38  60  90 124 159 202 259 303 357
#     4  10  21  37  59  84 118 158 199 244 299 361
#     4  10  20  35  55  79 118 165 205 242 295 358
#     4  10  22  40  67  86 115 163 204 249 314 366
#     4   9  19  37  63  90 113 154 200 251 310 373
#     4  11  23  39  60  90 125 160 205 252 301 365
#
# _framework density 20.436268999999999
#
# number of rings (size 3 to 8) (size 9 to 14) (size 15 to 20)
#    0.000    1.750    2.500    3.000    1.750    1.500 
#    0.000    4.375    0.000   11.250    0.000    0.000 
#    0.000    0.000    0.000    0.000    0.000    0.000 
#
# Total GULP energy -396448.698365 kJ/mol
# GULP energy per Si atom -12389.021824 kJ/mol
# Density = 2.038976 g / cm^3
# Si number density = 20.436269 Si / 1000 Ang^3
#
#
#
# Elastic Constant Matrix: (Units=GPa)
#
#
# Indices 1 2 3 4 5 6 
#
# 1 128.4938 34.3614 35.5917 0.0000 4.1905 0.0000
# 2 34.3614 85.1975 29.4972 0.0000 -1.4847 0.0000
# 3 35.5917 29.4972 79.8512 0.0000 0.8685 0.0000
# 4 0.0000 0.0000 0.0000 25.9276 0.0000 -2.6242
# 5 4.1905 -1.4847 0.8685 0.0000 29.8399 0.0000
# 6 0.0000 0.0000 0.0000 -2.6242 0.0000 27.8912
#
#
#
# Elastic Compliance Matrix: (Units=1/GPa)
#
#
# Indices 1 2 3 4 5 6 
#
# 1 0.009439 -0.002728 -0.003184 0.000000 -0.001369 0.000000
# 2 -0.002728 0.014267 -0.004067 0.000000 0.001211 0.000000
# 3 -0.003184 -0.004067 0.015447 0.000000 -0.000205 0.000000
# 4 0.000000 0.000000 0.000000 0.038940 0.000000 0.003664
# 5 -0.001369 0.001211 -0.000205 0.000000 0.033771 0.000000
# 6 0.000000 0.000000 0.000000 0.003664 0.000000 0.036198
#
#
# Mechanical properties :
#
#
# Convention : Reuss Voigt Hill
#
# Bulk Modulus (GPa) = 52.10176 54.71591 53.40883
# Shear Modulus (GPa) = 28.66650 29.67122 29.16886
#
# Velocity S-wave (km/s) = 3.74936 3.81450 3.78207
# Velocity P-wave (km/s) = 6.65535 6.79946 6.72779
#
# Compressibility (1/GPa) = 0.01919321
#
# Stress axis : x y z
#
# Youngs Moduli (GPa) = 105.94673 70.09142 64.73566
#
# Poissons Ratio (x) = 0.19122 0.20614
# Poissons Ratio (y) = 0.28903 0.26331
# Poissons Ratio (z) = 0.33738 0.28510
#
# Static dielectric constant tensor:
#      x y z
#    x 3.725520 0.000000 -0.097280 
#    y 0.000000 3.751050 0.000000 
#    z -0.097280 0.000000 3.668190 
# 
# 
# High freq. dielectric constant tensor:
#      x y z
#    x 1.808460 0.000000 -0.006590 
#    y 0.000000 1.793040 0.000000 
#    z -0.006590 0.000000 1.782560 
# 
# From -- ./inp_files/52804.got.cif
#   From: 2010.06.25/outbox.cif.g09.slc.cpg/sg15_27_cif.got.tgz:52804.got - 2010.06.28 07:06:18.
