data_PCOD8136440
_publ_section_title
;
Structure prediction by ZEFSAII (Michael W. Deem and Ramdas Pophale) SiO2 
 PCOD8136440
Probable space group: C 2/C
;
_chemical_formula_sum "Si O2"
_cell_formula_units_Z 48
_cell_length_a 12.373514
_cell_length_b 21.110464
_cell_length_c 15.949895
_cell_angle_alpha 90.000000
_cell_angle_beta 140.341227
_cell_angle_gamma 90.000000
_cell_volume 2658.979633
_symmetry_space_group_name_H-M "C 2/C"
_symmetry_group_IT_number 15
_symmetry_cell_setting 'monoclinic'
loop_
_space_group_symop_operation_xyz
x,y,z
-x,y,1/2-z
-x,-y,-z
x,-y,1/2+z
1/2+x,1/2+y,z
1/2-x,1/2+y,1/2-z
1/2-x,1/2-y,-z
1/2+x,1/2-y,1/2+z
loop_
_atom_site_type_symbol
_atom_site_label
_atom_site_fract_x
_atom_site_fract_y
_atom_site_fract_z
Si Si1 0.990532 0.754111 0.984021
Si Si2 0.373304 0.617260 0.488718
Si Si3 0.380034 0.457267 0.252758
Si Si4 0.853220 0.632205 0.988189
Si Si5 0.352740 0.706735 0.229033
Si Si6 0.780678 0.581280 0.274813
O O1 0.187673 0.738602 0.090302
O O2 0.974914 0.821683 0.018630
O O3 0.898643 0.702699 0.986946
O O4 0.903341 0.753747 0.841378
O O5 0.507207 0.566509 0.602671
O O6 0.240618 0.638489 0.479680
O O7 0.271382 0.584135 0.353166
O O8 0.500000 0.482660 0.250000
O O9 0.266481 0.399236 0.152692
O O10 0.260522 0.513162 0.212201
O O11 0.018867 0.589630 0.098634
O O12 0.500000 0.710283 0.250000
O O13 0.318946 0.633845 0.231485
#
# Coordination Sequence:
#
# PCOD8136440 Si02
#       6
#     8   8   8   8   8   8
#     4  10  20  34  54  78 104 134 168 210 256 302
#     4  10  20  34  54  78 104 134 168 210 256 302
#     4  10  20  34  52  74 102 136 172 210 252 300
#     4  10  20  34  54  78 104 134 168 210 256 302
#     4  10  20  34  52  74 102 136 172 210 252 300
#     4  10  20  34  52  74 102 136 172 210 252 300
#
# _framework density 18.052038
#
# number of rings (size 3 to 8) (size 9 to 14) (size 15 to 20)
#    0.000    2.000    0.000    4.000    0.000    0.000 
#    0.000    5.000    0.000   14.000    0.000    0.000 
#    0.000    0.000    0.000    0.000    0.000    0.000 
#
# Total GULP energy -297716.887006 kJ/mol
# GULP energy per Si atom -12404.870292 kJ/mol
# Density = 1.801095 g / cm^3
# Si number density = 18.052038 Si / 1000 Ang^3
#
#
#
# Elastic Constant Matrix: (Units=GPa)
#
#
# Indices 1 2 3 4 5 6 
#
# 1 75.5922 17.4943 12.2788 0.0003 5.9387 0.0005
# 2 17.4943 42.3324 4.2003 -0.0004 -2.0928 0.0004
# 3 12.2788 4.2003 69.3876 0.0007 2.1278 0.0013
# 4 0.0003 -0.0004 0.0007 19.1946 0.0007 6.0293
# 5 5.9387 -2.0928 2.1278 0.0007 27.1419 0.0003
# 6 0.0005 0.0004 0.0013 6.0293 0.0003 22.1823
#
#
#
# Elastic Compliance Matrix: (Units=1/GPa)
#
#
# Indices 1 2 3 4 5 6 
#
# 1 0.015335 -0.006298 -0.002220 0.000000 -0.003667 0.000000
# 2 -0.006298 0.026456 -0.000593 0.000001 0.003465 -0.000001
# 3 -0.002220 -0.000593 0.014863 0.000000 -0.000725 -0.000001
# 4 0.000000 0.000001 0.000000 0.056961 -0.000001 -0.015482
# 5 -0.003667 0.003465 -0.000725 -0.000001 0.037970 0.000000
# 6 0.000000 -0.000001 -0.000001 -0.015482 0.000000 0.049289
#
#
# Mechanical properties :
#
#
# Convention : Reuss Voigt Hill
#
# Bulk Modulus (GPa) = 26.02102 28.36211 27.19157
# Shear Modulus (GPa) = 21.56038 23.92637 22.74337
#
# Velocity S-wave (km/s) = 3.45968 3.64457 3.55333
# Velocity P-wave (km/s) = 5.51407 5.78411 5.65070
#
# Compressibility (1/GPa) = 0.03843047
#
# Stress axis : x y z
#
# Youngs Moduli (GPa) = 65.20940 37.79916 67.28213
#
# Poissons Ratio (x) = 0.23808 0.14937
# Poissons Ratio (y) = 0.41072 0.03991
# Poissons Ratio (z) = 0.14477 0.02242
#
# Static dielectric constant tensor:
#      x y z
#    x 3.320280 0.000000 0.005970 
#    y 0.000000 3.186610 0.000000 
#    z 0.005970 0.000000 3.501960 
# 
# 
# High freq. dielectric constant tensor:
#      x y z
#    x 1.703150 0.000000 0.001840 
#    y 0.000000 1.696980 0.000000 
#    z 0.001840 0.000000 1.716460 
# 
# From -- ./inp_files/31926.got.cif
#   From: 2010.06.25/outbox.cif.g09.slc.cpg/sg15_16_cif.got.tgz:31926.got - 2010.06.28 07:06:18.
