data_PCOD8136749
_publ_section_title
;
Structure prediction by ZEFSAII (Michael W. Deem and Ramdas Pophale) SiO2 
 PCOD8136749
Probable space group: C 2/C
;
_chemical_formula_sum "Si O2"
_cell_formula_units_Z 64
_cell_length_a 30.805932
_cell_length_b 20.114285
_cell_length_c 14.626060
_cell_angle_alpha 90.000000
_cell_angle_beta 21.153777
_cell_angle_gamma 90.000000
_cell_volume 3270.542956
_symmetry_space_group_name_H-M "C 2/C"
_symmetry_group_IT_number 15
_symmetry_cell_setting 'monoclinic'
loop_
_space_group_symop_operation_xyz
x,y,z
-x,y,1/2-z
-x,-y,-z
x,-y,1/2+z
1/2+x,1/2+y,z
1/2-x,1/2+y,1/2-z
1/2-x,1/2-y,-z
1/2+x,1/2-y,1/2+z
loop_
_atom_site_type_symbol
_atom_site_label
_atom_site_fract_x
_atom_site_fract_y
_atom_site_fract_z
Si Si1 0.600329 0.427910 0.730889
Si Si2 0.883085 0.777399 0.741335
Si Si3 0.864485 0.021910 0.995855
Si Si4 0.169727 0.976682 0.242834
Si Si5 0.540927 0.755079 0.764166
Si Si6 0.564512 0.752426 0.029881
Si Si7 0.754707 0.338160 0.057812
Si Si8 0.268851 0.654074 0.106500
O O1 0.620562 0.350579 0.707189
O O2 0.637980 0.452724 0.555761
O O3 0.684635 0.466658 0.637567
O O4 0.460370 0.443827 0.017698
O O5 0.935213 0.774450 0.536037
O O6 0.964450 0.732991 0.649265
O O7 0.750000 0.750000 0.000000
O O8 0.788932 0.076474 0.087067
O O9 0.803280 0.010249 0.213098
O O10 0.000000 0.046589 0.750000
O O11 0.265696 0.917663 0.045696
O O12 0.500000 0.790204 0.750000
O O13 0.614937 0.809264 0.675937
O O14 0.621178 0.694622 0.566242
O O15 0.500000 0.730157 0.250000
O O16 0.652571 0.692889 0.824287
O O17 0.640673 0.820308 0.897105
O O18 0.722290 0.323295 0.016737
#
# Coordination Sequence:
#
# PCOD8136749 Si02
#       8
#     8   8   8   8   8   8   8   8
#     4  10  21  36  54  90 125 153 196 257 312 357
#     4  12  26  40  59  89 133 159 201 257 309 364
#     4  10  22  33  61  96 122 158 202 258 316 364
#     4  10  20  34  62  89 120 153 197 260 309 356
#     4  11  24  38  61  94 120 164 210 248 302 365
#     4  11  24  38  60  91 123 165 204 248 315 362
#     4  11  20  42  67  84 125 165 208 253 301 376
#     4  11  20  42  65  87 126 162 209 257 299 376
#
# _framework density 19.568617
#
# number of rings (size 3 to 8) (size 9 to 14) (size 15 to 20)
#    0.000    1.250    5.000    1.125   10.500    0.000 
#    0.000    0.000    0.000    6.750    0.000    0.000 
#    0.000    0.000    0.000    0.000    0.000    0.000 
#
# Total GULP energy -396730.964605 kJ/mol
# GULP energy per Si atom -12397.842644 kJ/mol
# Density = 1.952408 g / cm^3
# Si number density = 19.568617 Si / 1000 Ang^3
#
#
#
# Elastic Constant Matrix: (Units=GPa)
#
#
# Indices 1 2 3 4 5 6 
#
# 1 122.4772 36.0223 37.4382 -0.0004 5.7195 0.0003
# 2 36.0223 94.7641 37.0758 -0.0004 -11.4031 0.0000
# 3 37.4382 37.0758 84.4135 -0.0006 -3.2851 0.0000
# 4 -0.0004 -0.0004 -0.0006 21.5616 0.0000 -4.0511
# 5 5.7195 -11.4031 -3.2851 0.0000 28.0112 -0.0003
# 6 0.0003 0.0000 0.0000 -4.0511 -0.0003 32.7870
#
#
#
# Elastic Compliance Matrix: (Units=1/GPa)
#
#
# Indices 1 2 3 4 5 6 
#
# 1 0.010258 -0.003032 -0.003363 0.000000 -0.003723 0.000000
# 2 -0.003032 0.014243 -0.004683 0.000000 0.005868 0.000000
# 3 -0.003363 -0.004683 0.015418 0.000000 0.000588 0.000000
# 4 0.000000 0.000000 0.000000 0.047481 0.000000 0.005867
# 5 -0.003723 0.005868 0.000588 0.000000 0.038918 0.000000
# 6 0.000000 0.000000 0.000000 0.005867 0.000000 0.031225
#
#
# Mechanical properties :
#
#
# Convention : Reuss Voigt Hill
#
# Bulk Modulus (GPa) = 56.29358 58.08083 57.18721
# Shear Modulus (GPa) = 26.93681 29.21320 28.07500
#
# Velocity S-wave (km/s) = 3.71419 3.86795 3.79185
# Velocity P-wave (km/s) = 6.87192 7.04933 6.96119
#
# Compressibility (1/GPa) = 0.01776401
#
# Stress axis : x y z
#
# Youngs Moduli (GPa) = 97.48213 70.20884 64.86071
#
# Poissons Ratio (x) = 0.21285 0.21812
# Poissons Ratio (y) = 0.29554 0.30374
# Poissons Ratio (z) = 0.32783 0.32878
#
# Static dielectric constant tensor:
#      x y z
#    x 3.736400 0.000000 0.021130 
#    y 0.000000 3.495390 0.000000 
#    z 0.021130 0.000000 3.384720 
# 
# 
# High freq. dielectric constant tensor:
#      x y z
#    x 1.779680 0.000000 0.005870 
#    y 0.000000 1.751550 0.000000 
#    z 0.005870 0.000000 1.727060 
# 
# From -- ./inp_files/183119.got.cif
#   From: 2010.06.25/outbox.cif.g09.slc.cpg/sg15_92_cif.got.tgz:183119.got - 2010.06.28 07:06:18.
