data_PCOD8136654
_publ_section_title
;
Structure prediction by ZEFSAII (Michael W. Deem and Ramdas Pophale) SiO2 
 PCOD8136654
Probable space group: C 2/C
;
_chemical_formula_sum "Si O2"
_cell_formula_units_Z 56
_cell_length_a 28.219931
_cell_length_b 11.099255
_cell_length_c 23.947326
_cell_angle_alpha 90.000000
_cell_angle_beta 159.435244
_cell_angle_gamma 90.000000
_cell_volume 2634.769685
_symmetry_space_group_name_H-M "C 2/C"
_symmetry_group_IT_number 15
_symmetry_cell_setting 'monoclinic'
loop_
_space_group_symop_operation_xyz
x,y,z
-x,y,1/2-z
-x,-y,-z
x,-y,1/2+z
1/2+x,1/2+y,z
1/2-x,1/2+y,1/2-z
1/2-x,1/2-y,-z
1/2+x,1/2-y,1/2+z
loop_
_atom_site_type_symbol
_atom_site_label
_atom_site_fract_x
_atom_site_fract_y
_atom_site_fract_z
Si Si1 0.255259 0.006558 0.335571
Si Si2 0.540482 0.315541 0.074526
Si Si3 0.305974 0.065912 0.677765
Si Si4 0.068739 0.783083 0.880425
Si Si5 0.251632 0.108327 0.212416
Si Si6 0.480499 0.996748 0.166851
Si Si7 0.571056 0.702069 0.162593
O O1 0.297432 0.030906 0.317478
O O2 0.369170 0.946606 0.501325
O O3 0.216573 0.138050 0.317046
O O4 0.124586 0.921599 0.195844
O O5 0.624232 0.191393 0.171865
O O6 0.386787 0.313689 0.930370
O O7 0.528869 0.345250 0.996002
O O8 0.217850 0.163119 0.546739
O O9 0.378506 0.987044 0.710054
O O10 0.415302 0.152426 0.829491
O O11 0.225702 0.984096 0.632990
O O12 0.065668 0.639648 0.874497
O O13 0.000000 0.838707 0.750000
O O14 0.990448 0.836031 0.846799
O O15 0.500000 0.058665 0.250000
#
# Coordination Sequence:
#
# PCOD8136654 Si02
#       7
#     8   8   8   8   8   8   8
#     4  11  22  40  63  89 129 168 199 254 309 374
#     4  11  25  41  64  92 131 165 210 251 316 374
#     4  11  22  38  62  92 130 160 208 258 313 375
#     4  10  20  34  58  92 128 164 201 249 312 376
#     4  11  25  41  65  97 124 168 206 260 313 375
#     4  10  23  36  60  95 126 166 206 257 311 369
#     4  10  21  36  60  92 125 163 199 254 310 377
#
# _framework density 21.25423
#
# number of rings (size 3 to 8) (size 9 to 14) (size 15 to 20)
#    0.000    1.429    1.429    5.143   10.000    2.857 
#    0.000    0.000    0.000    1.714    0.000    0.000 
#    0.000    0.000    0.000    0.000    0.000    0.000 
#
# Total GULP energy -346975.895823 kJ/mol
# GULP energy per Si atom -12391.996279 kJ/mol
# Density = 2.120585 g / cm^3
# Si number density = 21.254230 Si / 1000 Ang^3
#
#
#
# Elastic Constant Matrix: (Units=GPa)
#
#
# Indices 1 2 3 4 5 6 
#
# 1 114.8083 16.2103 51.4051 -0.0026 -6.1486 -0.0016
# 2 16.2103 28.5885 21.0309 -0.0019 -5.6312 -0.0010
# 3 51.4051 21.0309 107.5530 -0.0040 -8.3215 -0.0033
# 4 -0.0026 -0.0019 -0.0040 31.9503 -0.0019 6.3865
# 5 -6.1486 -5.6312 -8.3215 -0.0019 29.9801 -0.0011
# 6 -0.0016 -0.0010 -0.0033 6.3865 -0.0011 26.8027
#
#
#
# Elastic Compliance Matrix: (Units=1/GPa)
#
#
# Indices 1 2 3 4 5 6 
#
# 1 0.011281 -0.002764 -0.004816 0.000000 0.000458 0.000000
# 2 -0.002764 0.042466 -0.006550 0.000002 0.005592 0.000000
# 3 -0.004816 -0.006550 0.012988 0.000001 0.001387 0.000001
# 4 0.000000 0.000002 0.000001 0.032864 0.000002 -0.007831
# 5 0.000458 0.005592 0.001387 0.000002 0.034885 0.000001
# 6 0.000000 0.000000 0.000001 -0.007831 0.000001 0.039176
#
#
# Mechanical properties :
#
#
# Convention : Reuss Voigt Hill
#
# Bulk Modulus (GPa) = 25.99082 47.58251 36.78666
# Shear Modulus (GPa) = 23.28349 28.56686 25.92517
#
# Velocity S-wave (km/s) = 3.31339 3.67011 3.49630
# Velocity P-wave (km/s) = 5.18586 6.35575 5.80037
#
# Compressibility (1/GPa) = 0.03847513
#
# Stress axis : x y z
#
# Youngs Moduli (GPa) = 88.64229 23.54812 76.99563
#
# Poissons Ratio (x) = 0.06508 0.37082
# Poissons Ratio (y) = 0.24498 0.50435
# Poissons Ratio (z) = 0.42691 0.15425
#
# Static dielectric constant tensor:
#      x y z
#    x 3.886690 0.000000 -0.151710 
#    y 0.000000 3.475080 0.000000 
#    z -0.151710 0.000000 4.033530 
# 
# 
# High freq. dielectric constant tensor:
#      x y z
#    x 1.831400 0.000000 0.002740 
#    y 0.000000 1.791350 0.000000 
#    z 0.002740 0.000000 1.840840 
# 
# From -- ./inp_files/284625.got.cif
#   From: 2010.06.25/outbox.cif.g09.slc.cpg/sg15_143_cif.got.tgz:284625.got - 2010.06.28 07:06:18.
