data_PCOD8136047
_publ_section_title
;
Structure prediction by ZEFSAII (Michael W. Deem and Ramdas Pophale) SiO2 
 PCOD8136047
Probable space group: C 2/C
;
_chemical_formula_sum "Si O2"
_cell_formula_units_Z 56
_cell_length_a 13.971129
_cell_length_b 12.344419
_cell_length_c 26.405343
_cell_angle_alpha 90.000000
_cell_angle_beta 32.623955
_cell_angle_gamma 90.000000
_cell_volume 2455.171305
_symmetry_space_group_name_H-M "C 2/C"
_symmetry_group_IT_number 15
_symmetry_cell_setting 'monoclinic'
loop_
_space_group_symop_operation_xyz
x,y,z
-x,y,1/2-z
-x,-y,-z
x,-y,1/2+z
1/2+x,1/2+y,z
1/2-x,1/2+y,1/2-z
1/2-x,1/2-y,-z
1/2+x,1/2-y,1/2+z
loop_
_atom_site_type_symbol
_atom_site_label
_atom_site_fract_x
_atom_site_fract_y
_atom_site_fract_z
Si Si1 0.838347 0.484703 0.035152
Si Si2 0.633677 0.708325 0.646269
Si Si3 0.484187 0.849472 0.630896
Si Si4 0.759793 0.228333 0.437984
Si Si5 0.902463 0.178667 0.089674
Si Si6 0.353849 0.230438 0.723374
Si Si7 0.644330 0.993462 0.228798
O O1 0.670759 0.420616 0.133378
O O2 0.776168 0.602312 0.049217
O O3 0.000000 0.500000 0.000000
O O4 0.893164 0.408345 0.963983
O O5 0.500000 0.744014 0.750000
O O6 0.570722 0.742125 0.617996
O O7 0.815423 0.769108 0.578967
O O8 0.295391 0.814537 0.689838
O O9 0.464021 0.930271 0.686079
O O10 0.750000 0.250000 0.500000
O O11 0.612221 0.311153 0.480351
O O12 0.960088 0.250448 0.329785
O O13 0.868523 0.252233 0.155674
O O14 0.825694 0.056300 0.130056
O O15 0.292422 0.110215 0.766712
O O16 0.500000 0.963591 0.250000
#
# Coordination Sequence:
#
# PCOD8136047 Si02
#       7
#     8   8   8   8   8   8   8
#     4  12  27  42  71 103 140 181 234 286 356 412
#     4  12  22  44  72  98 135 181 236 287 340 415
#     4  11  23  44  68 100 136 181 232 287 338 424
#     4  10  22  44  65  97 139 180 221 288 348 405
#     4  10  19  43  69  95 133 180 228 282 343 410
#     4  10  23  39  71  98 140 171 232 285 350 408
#     4  11  21  40  70  97 131 185 226 282 349 409
#
# _framework density 22.808999
#
# number of rings (size 3 to 8) (size 9 to 14) (size 15 to 20)
#    0.000    1.143    5.714    2.143    0.000    5.714 
#    0.000    2.143    0.000    0.000    0.000    0.000 
#    0.000    0.000    0.000    0.000    0.000    0.000 
#
# Total GULP energy -346901.278719 kJ/mol
# GULP energy per Si atom -12389.331383 kJ/mol
# Density = 2.275708 g / cm^3
# Si number density = 22.808999 Si / 1000 Ang^3
#
#
#
# Elastic Constant Matrix: (Units=GPa)
#
#
# Indices 1 2 3 4 5 6 
#
# 1 89.1045 40.7915 35.2512 0.0000 -22.1135 0.0001
# 2 40.7915 127.0587 28.2792 0.0000 -8.9367 0.0001
# 3 35.2512 28.2792 72.5604 0.0000 -28.7764 0.0003
# 4 0.0000 0.0000 0.0000 31.8188 -0.0001 -4.3160
# 5 -22.1135 -8.9367 -28.7764 -0.0001 32.2451 0.0000
# 6 0.0001 0.0001 0.0003 -4.3160 0.0000 42.3795
#
#
#
# Elastic Compliance Matrix: (Units=1/GPa)
#
#
# Indices 1 2 3 4 5 6 
#
# 1 0.016113 -0.003889 -0.003649 0.000000 0.006716 0.000000
# 2 -0.003889 0.009575 -0.002860 0.000000 -0.002565 0.000000
# 3 -0.003649 -0.002860 0.023778 0.000000 0.017925 0.000000
# 4 0.000000 0.000000 0.000000 0.031868 0.000000 0.003245
# 5 0.006716 -0.002565 0.017925 0.000000 0.050904 0.000000
# 6 0.000000 0.000000 0.000000 0.003245 0.000000 0.023927
#
#
# Mechanical properties :
#
#
# Convention : Reuss Voigt Hill
#
# Bulk Modulus (GPa) = 34.87874 55.26304 45.07089
# Shear Modulus (GPa) = 26.80723 33.58211 30.19467
#
# Velocity S-wave (km/s) = 3.43197 3.84124 3.64236
# Velocity P-wave (km/s) = 5.57041 6.62984 6.12308
#
# Compressibility (1/GPa) = 0.02867076
#
# Stress axis : x y z
#
# Youngs Moduli (GPa) = 62.06026 104.44012 42.05626
#
# Poissons Ratio (x) = 0.40612 0.15347
# Poissons Ratio (y) = 0.24132 0.12028
# Poissons Ratio (z) = 0.22647 0.29869
#
# Static dielectric constant tensor:
#      x y z
#    x 4.330770 0.000000 -0.312140 
#    y 0.000000 4.150170 0.000000 
#    z -0.312140 0.000000 4.505810 
# 
# 
# High freq. dielectric constant tensor:
#      x y z
#    x 1.903910 0.000000 -0.016440 
#    y 0.000000 1.900510 0.000000 
#    z -0.016440 0.000000 1.893610 
# 
# From -- ./inp_files/313692.got.cif
#   From: 2010.06.25/outbox.cif.g09.slc.cpg/sg15_157_cif.got.tgz:313692.got - 2010.06.28 07:06:18.
