data_PCOD8136496
_publ_section_title
;
Structure prediction by ZEFSAII (Michael W. Deem and Ramdas Pophale) SiO2 
 PCOD8136496
Probable space group: C 2/C
;
_chemical_formula_sum "Si O2"
_cell_formula_units_Z 60
_cell_length_a 16.902419
_cell_length_b 18.208441
_cell_length_c 19.631380
_cell_angle_alpha 90.000000
_cell_angle_beta 30.867987
_cell_angle_gamma 90.000000
_cell_volume 3099.860063
_symmetry_space_group_name_H-M "C 2/C"
_symmetry_group_IT_number 15
_symmetry_cell_setting 'monoclinic'
loop_
_space_group_symop_operation_xyz
x,y,z
-x,y,1/2-z
-x,-y,-z
x,-y,1/2+z
1/2+x,1/2+y,z
1/2-x,1/2+y,1/2-z
1/2-x,1/2-y,-z
1/2+x,1/2-y,1/2+z
loop_
_atom_site_type_symbol
_atom_site_label
_atom_site_fract_x
_atom_site_fract_y
_atom_site_fract_z
Si Si1 0.608401 0.796657 0.937625
Si Si2 0.811517 0.508448 0.981498
Si Si3 0.619117 0.609162 0.215382
Si Si4 0.651779 0.815867 0.267198
Si Si5 0.207628 0.960827 0.312796
Si Si6 0.500000 0.122112 0.750000
Si Si7 0.038195 0.440966 0.913644
Si Si8 0.072351 0.990591 0.552476
O O1 0.768143 0.825797 0.849906
O O2 0.679021 0.723271 0.850798
O O3 0.535657 0.856049 0.938955
O O4 0.483702 0.776640 0.088381
O O5 0.897040 0.571699 0.875723
O O6 0.927335 0.449123 0.929177
O O7 0.719687 0.542004 0.112598
O O8 0.684536 0.470838 0.025396
O O9 0.500000 0.643097 0.250000
O O10 0.518574 0.579511 0.351937
O O11 0.674301 0.894444 0.288394
O O12 0.600830 0.826174 0.225804
O O13 0.050676 0.950510 0.385385
O O14 0.287430 0.038879 0.236962
O O15 0.175801 0.957956 0.416296
O O16 0.000000 0.500000 0.000000
#
# Coordination Sequence:
#
# PCOD8136496 Si02
#       8
#     8   8   8   8   8   4   8   8
#     4  12  26  41  58  89 123 177 209 249 313 379
#     4  11  19  35  62  90 118 155 206 262 300 358
#     4  10  20  34  54  85 121 153 197 244 295 363
#     4  12  27  39  59  86 132 169 206 256 315 392
#     4  11  20  37  60  87 124 160 197 266 306 371
#     4  12  20  40  58  90 126 166 204 250 322 380
#     4  12  19  39  65  84 115 161 218 255 305 357
#     4  10  21  32  58  94 121 149 202 257 311 361
#
# _framework density 19.355713000000002
#
# number of rings (size 3 to 8) (size 9 to 14) (size 15 to 20)
#    0.000    0.800    8.000    0.000    2.800    0.533 
#    0.000    0.000    0.000    0.800    0.000    0.000 
#    0.000    0.000    0.000    0.000    0.000    0.000 
#
# Total GULP energy -371780.764400 kJ/mol
# GULP energy per Si atom -12392.692147 kJ/mol
# Density = 1.931166 g / cm^3
# Si number density = 19.355713 Si / 1000 Ang^3
#
#
#
# Elastic Constant Matrix: (Units=GPa)
#
#
# Indices 1 2 3 4 5 6 
#
# 1 100.0704 22.6691 19.4121 -0.0030 -15.9612 -0.0463
# 2 22.6691 46.5135 12.1082 0.0463 0.8421 -0.0409
# 3 19.4121 12.1082 109.3493 0.0454 9.5840 -0.0666
# 4 -0.0030 0.0463 0.0454 24.5641 -0.0038 -11.0250
# 5 -15.9612 0.8421 9.5840 -0.0038 35.3558 0.0066
# 6 -0.0463 -0.0409 -0.0666 -11.0250 0.0066 25.1090
#
#
#
# Elastic Compliance Matrix: (Units=1/GPa)
#
#
# Indices 1 2 3 4 5 6 
#
# 1 0.012761 -0.005765 -0.002196 0.000025 0.006493 0.000018
# 2 -0.005765 0.024742 -0.001471 -0.000041 -0.002793 0.000008
# 3 -0.002196 -0.001471 0.010020 -0.000009 -0.003672 0.000017
# 4 0.000025 -0.000041 -0.000009 0.050702 0.000016 0.022262
# 5 0.006493 -0.002793 -0.003672 0.000016 0.032277 -0.000004
# 6 0.000018 0.000008 0.000017 0.022262 -0.000004 0.049601
#
#
# Mechanical properties :
#
#
# Convention : Reuss Voigt Hill
#
# Bulk Modulus (GPa) = 34.89468 40.47912 37.68690
# Shear Modulus (GPa) = 23.97840 30.45536 27.21688
#
# Velocity S-wave (km/s) = 3.52352 3.97098 3.75392
# Velocity P-wave (km/s) = 5.88395 6.47948 6.18888
#
# Compressibility (1/GPa) = 0.02865766
#
# Stress axis : x y z
#
# Youngs Moduli (GPa) = 78.36614 40.41638 99.80358
#
# Poissons Ratio (x) = 0.23300 0.21918
# Poissons Ratio (y) = 0.45178 0.14686
# Poissons Ratio (z) = 0.17210 0.05947
#
# Static dielectric constant tensor:
#      x y z
#    x 3.824320 -0.000050 -0.081390 
#    y -0.000050 3.275070 0.000040 
#    z -0.081390 0.000040 3.826930 
# 
# 
# High freq. dielectric constant tensor:
#      x y z
#    x 1.753700 0.000000 -0.006230 
#    y 0.000000 1.701130 0.000000 
#    z -0.006230 0.000000 1.781330 
# 
# From -- ./inp_files/249623.got.cif
#   From: 2010.06.25/outbox.cif.g09.slc.cpg/sg15_125_cif.got.tgz:249623.got - 2010.06.28 07:06:18.
