data_PCOD8136914
_publ_section_title
;
Structure prediction by ZEFSAII (Michael W. Deem and Ramdas Pophale) SiO2 
 PCOD8136914
Probable space group: C 2/C
;
_chemical_formula_sum "Si O2"
_cell_formula_units_Z 44
_cell_length_a 8.533992
_cell_length_b 21.882682
_cell_length_c 14.106552
_cell_angle_alpha 90.000000
_cell_angle_beta 118.301266
_cell_angle_gamma 90.000000
_cell_volume 2319.458880
_symmetry_space_group_name_H-M "C 2/C"
_symmetry_group_IT_number 15
_symmetry_cell_setting 'monoclinic'
loop_
_space_group_symop_operation_xyz
x,y,z
-x,y,1/2-z
-x,-y,-z
x,-y,1/2+z
1/2+x,1/2+y,z
1/2-x,1/2+y,1/2-z
1/2-x,1/2-y,-z
1/2+x,1/2-y,1/2+z
loop_
_atom_site_type_symbol
_atom_site_label
_atom_site_fract_x
_atom_site_fract_y
_atom_site_fract_z
Si Si1 0.448425 0.674662 0.337840
Si Si2 0.319741 0.036388 0.447953
Si Si3 0.184659 0.423757 0.751760
Si Si4 0.204691 0.873353 0.069873
Si Si5 0.533817 0.477540 0.113523
Si Si6 0.000000 0.290822 0.250000
O O1 0.500000 0.644154 0.250000
O O2 0.271898 0.638147 0.319800
O O3 0.592727 0.665973 0.462060
O O4 0.420383 0.747224 0.311462
O O5 0.338168 0.084522 0.367446
O O6 0.306472 0.073322 0.542240
O O7 0.500000 0.000000 0.500000
O O8 0.150420 0.990276 0.382638
O O9 0.304513 0.483773 0.798227
O O10 0.000000 0.435475 0.750000
O O11 0.084476 0.905417 0.118189
O O12 0.342570 0.830556 0.162837
O O13 0.500000 0.500000 0.000000
#
# Coordination Sequence:
#
# PCOD8136914 Si02
#       6
#     8   8   8   8   8   4
#     4  10  20  40  62  83 115 167 207 260 289 366
#     4  11  22  35  57  91 126 160 197 248 321 375
#     4  12  21  36  61  88 125 164 210 251 311 373
#     4  11  21  39  63  90 127 157 209 255 311 371
#     4  10  20  35  56  91 123 153 192 255 313 367
#     4  10  24  38  66  92 116 170 216 244 308 368
#
# _framework density 18.969943000000001
#
# number of rings (size 3 to 8) (size 9 to 14) (size 15 to 20)
#    0.545    0.727    5.455    3.273    3.818    0.000 
#    0.000    0.000    4.000    2.182    0.000    0.000 
#    0.000    0.000    0.000    0.000    0.000    0.000 
#
# Total GULP energy -272553.241844 kJ/mol
# GULP energy per Si atom -12388.783720 kJ/mol
# Density = 1.892677 g / cm^3
# Si number density = 18.969943 Si / 1000 Ang^3
#
#
#
# Elastic Constant Matrix: (Units=GPa)
#
#
# Indices 1 2 3 4 5 6 
#
# 1 120.1709 48.8104 48.9304 0.0000 22.1970 0.0000
# 2 48.8104 124.0345 65.4965 0.0000 16.3412 0.0000
# 3 48.9304 65.4965 106.2020 0.0000 26.3419 0.0000
# 4 0.0000 0.0000 0.0000 39.4426 0.0000 0.3912
# 5 22.1970 16.3412 26.3419 0.0000 32.8997 0.0000
# 6 0.0000 0.0000 0.0000 0.3912 0.0000 25.6225
#
#
#
# Elastic Compliance Matrix: (Units=1/GPa)
#
#
# Indices 1 2 3 4 5 6 
#
# 1 0.011154 -0.002480 -0.002556 0.000000 -0.004247 0.000000
# 2 -0.002480 0.012507 -0.006794 0.000000 0.000901 0.000000
# 3 -0.002556 -0.006794 0.016869 0.000000 -0.008407 0.000000
# 4 0.000000 0.000000 0.000000 0.025357 0.000000 -0.000387
# 5 -0.004247 0.000901 -0.008407 0.000000 0.039545 0.000000
# 6 0.000000 0.000000 0.000000 -0.000387 0.000000 0.039034
#
#
# Mechanical properties :
#
#
# Convention : Reuss Voigt Hill
#
# Bulk Modulus (GPa) = 59.27796 75.20910 67.24353
# Shear Modulus (GPa) = 28.77685 32.07096 30.42391
#
# Velocity S-wave (km/s) = 3.89906 4.11618 4.00909
# Velocity P-wave (km/s) = 7.18237 7.89450 7.54684
#
# Compressibility (1/GPa) = 0.01686968
#
# Stress axis : x y z
#
# Youngs Moduli (GPa) = 89.65318 79.95364 59.27992
#
# Poissons Ratio (x) = 0.19829 0.15152
# Poissons Ratio (y) = 0.22235 0.40276
# Poissons Ratio (z) = 0.22916 0.54322
#
# Static dielectric constant tensor:
#      x y z
#    x 3.675890 0.000000 0.283680 
#    y 0.000000 3.597940 0.000000 
#    z 0.283680 0.000000 3.813410 
# 
# 
# High freq. dielectric constant tensor:
#      x y z
#    x 1.720100 0.000000 0.005880 
#    y 0.000000 1.717290 0.000000 
#    z 0.005880 0.000000 1.753480 
# 
# From -- ./inp_files/78711.got.cif
#   From: 2010.06.25/outbox.cif.g09.slc.cpg/sg15_40_cif.got.tgz:78711.got - 2010.06.28 07:06:18.
