data_PCOD8136395
_publ_section_title
;
Structure prediction by ZEFSAII (Michael W. Deem and Ramdas Pophale) SiO2 
 PCOD8136395
Probable space group: C 2/C
;
_chemical_formula_sum "Si O2"
_cell_formula_units_Z 64
_cell_length_a 19.560802
_cell_length_b 20.051008
_cell_length_c 11.559672
_cell_angle_alpha 90.000000
_cell_angle_beta 40.446115
_cell_angle_gamma 90.000000
_cell_volume 2941.264734
_symmetry_space_group_name_H-M "C 2/C"
_symmetry_group_IT_number 15
_symmetry_cell_setting 'monoclinic'
loop_
_space_group_symop_operation_xyz
x,y,z
-x,y,1/2-z
-x,-y,-z
x,-y,1/2+z
1/2+x,1/2+y,z
1/2-x,1/2+y,1/2-z
1/2-x,1/2-y,-z
1/2+x,1/2-y,1/2+z
loop_
_atom_site_type_symbol
_atom_site_label
_atom_site_fract_x
_atom_site_fract_y
_atom_site_fract_z
Si Si1 0.075251 0.306671 0.364143
Si Si2 0.136597 0.231785 0.500874
Si Si3 0.374624 0.522865 0.927179
Si Si4 0.920631 0.110409 0.063324
Si Si5 0.755540 0.399528 0.349732
Si Si6 0.106943 0.817143 0.673953
Si Si7 0.150254 0.891823 0.258718
Si Si8 0.867234 0.264125 0.743972
O O1 0.141000 0.285533 0.392955
O O2 0.120156 0.382514 0.283687
O O3 0.099781 0.260070 0.221625
O O4 0.950585 0.301876 0.553418
O O5 0.062483 0.171193 0.551603
O O6 0.092846 0.267325 0.673974
O O7 0.253542 0.201294 0.374320
O O8 0.500000 0.507094 0.750000
O O9 0.331141 0.577018 0.891513
O O10 0.356415 0.552211 0.080402
O O11 0.298561 0.459072 0.007385
O O12 0.864945 0.137065 0.250153
O O13 0.035799 0.083448 0.950291
O O14 0.698513 0.330078 0.462828
O O15 0.737479 0.416380 0.237873
O O16 0.000000 0.840158 0.750000
O O17 0.150131 0.812591 0.262822
#
# Coordination Sequence:
#
# PCOD8136395 Si02
#       8
#     8   8   8   8   8   8   8   8
#     4  11  23  36  59  84 127 167 195 247 306 378
#     4  10  20  33  60  92 121 150 188 257 316 369
#     4  10  24  36  60  87 122 164 202 258 313 367
#     4  10  20  36  58  87 121 155 196 251 317 363
#     4  12  24  39  53  87 126 166 209 237 304 378
#     4  11  21  37  59  85 126 166 199 251 308 378
#     4  11  20  36  60  87 124 152 198 258 311 365
#     4  11  19  35  60  94 123 147 198 248 316 366
#
# _framework density 21.759347000000002
#
# number of rings (size 3 to 8) (size 9 to 14) (size 15 to 20)
#    0.000    1.250    6.250    1.125    1.750    1.000 
#    0.000    0.000    0.000    0.750    0.000    0.000 
#    0.000    0.000    0.000    0.000    0.000    0.000 
#
# Total GULP energy -396442.414319 kJ/mol
# GULP energy per Si atom -12388.825447 kJ/mol
# Density = 2.170982 g / cm^3
# Si number density = 21.759347 Si / 1000 Ang^3
#
#
#
# Elastic Constant Matrix: (Units=GPa)
#
#
# Indices 1 2 3 4 5 6 
#
# 1 52.8495 16.8537 10.5016 0.0000 14.2055 0.0000
# 2 16.8537 71.2505 31.9728 0.0000 -5.7409 0.0000
# 3 10.5016 31.9728 53.3906 0.0000 2.7454 0.0000
# 4 0.0000 0.0000 0.0000 27.1827 0.0000 -9.7499
# 5 14.2055 -5.7409 2.7454 0.0000 30.4332 0.0000
# 6 0.0000 0.0000 0.0000 -9.7499 0.0000 22.2163
#
#
#
# Elastic Compliance Matrix: (Units=1/GPa)
#
#
# Indices 1 2 3 4 5 6 
#
# 1 0.024522 -0.006774 -0.000113 0.000000 -0.012714 0.000000
# 2 -0.006774 0.021751 -0.012123 0.000000 0.008359 0.000000
# 3 -0.000113 -0.012123 0.026248 0.000000 -0.004602 0.000000
# 4 0.000000 0.000000 0.000000 0.043661 0.000000 0.019161
# 5 -0.012714 0.008359 -0.004602 0.000000 0.040785 0.000000
# 6 0.000000 0.000000 0.000000 0.019161 0.000000 0.053421
#
#
# Mechanical properties :
#
#
# Convention : Reuss Voigt Hill
#
# Bulk Modulus (GPa) = 28.98429 32.90518 30.94474
# Shear Modulus (GPa) = 19.23755 23.84394 21.54075
#
# Velocity S-wave (km/s) = 2.97662 3.31388 3.14977
# Velocity P-wave (km/s) = 5.01627 5.45871 5.24216
#
# Compressibility (1/GPa) = 0.03450145
#
# Stress axis : x y z
#
# Youngs Moduli (GPa) = 40.78010 45.97532 38.09755
#
# Poissons Ratio (x) = 0.31145 0.00430
# Poissons Ratio (y) = 0.27625 0.46185
# Poissons Ratio (z) = 0.00460 0.55735
#
# Static dielectric constant tensor:
#      x y z
#    x 4.132720 0.000000 0.110430 
#    y 0.000000 3.723260 0.000000 
#    z 0.110430 0.000000 3.875010 
# 
# 
# High freq. dielectric constant tensor:
#      x y z
#    x 1.855960 0.000000 0.023260 
#    y 0.000000 1.816040 0.000000 
#    z 0.023260 0.000000 1.838360 
# 
# From -- ./inp_files/114247.got.cif
#   From: 2010.06.25/outbox.cif.g09.slc.cpg/sg15_58_cif.got.tgz:114247.got - 2010.06.28 07:06:18.
