data_PCOD8136921
_publ_section_title
;
Structure prediction by ZEFSAII (Michael W. Deem and Ramdas Pophale) SiO2 
 PCOD8136921
Probable space group: C 2/C
;
_chemical_formula_sum "Si O2"
_cell_formula_units_Z 40
_cell_length_a 8.941377
_cell_length_b 24.591112
_cell_length_c 7.566661
_cell_angle_alpha 90.000000
_cell_angle_beta 80.645099
_cell_angle_gamma 90.000000
_cell_volume 1641.618214
_symmetry_space_group_name_H-M "C 2/C"
_symmetry_group_IT_number 15
_symmetry_cell_setting 'monoclinic'
loop_
_space_group_symop_operation_xyz
x,y,z
-x,y,1/2-z
-x,-y,-z
x,-y,1/2+z
1/2+x,1/2+y,z
1/2-x,1/2+y,1/2-z
1/2-x,1/2-y,-z
1/2+x,1/2-y,1/2+z
loop_
_atom_site_type_symbol
_atom_site_label
_atom_site_fract_x
_atom_site_fract_y
_atom_site_fract_z
Si Si1 0.680230 0.553808 0.406541
Si Si2 0.339034 0.435781 0.000165
Si Si3 0.325078 0.241884 0.252551
Si Si4 0.112306 0.352191 0.557242
Si Si5 0.337459 0.829888 0.403414
O O1 0.737334 0.491868 0.418579
O O2 0.679928 0.570562 0.204264
O O3 0.514804 0.561899 0.524146
O O4 0.792939 0.593372 0.489260
O O5 0.259841 0.384349 0.102555
O O6 0.500000 0.260942 0.250000
O O7 0.281949 0.201408 0.425258
O O8 0.210829 0.293046 0.257553
O O9 0.298060 0.204601 0.084574
O O10 0.000000 0.357371 0.750000
O O11 0.017179 0.345303 0.391491
#
# Coordination Sequence:
#
# PCOD8136921 Si02
#       5
#     8   8   8   8   8
#     4  10  20  36  53  84 113 150 188 232 282 337
#     4  10  20  35  57  80 113 148 193 231 278 340
#     4   8  15  29  53  80 107 140 192 218 274 338
#     4   9  16  32  56  82 111 147 187 227 285 337
#     4   9  16  31  54  84 102 148 188 227 275 335
#
# _framework density 24.366199999999999
#
# number of rings (size 3 to 8) (size 9 to 14) (size 15 to 20)
#    0.000    3.200    4.000    0.000    0.000    0.800 
#    7.200    0.000    0.000   24.000    0.000    0.000 
#    0.000    0.000    0.000    0.000    0.000    0.000 
#
# Total GULP energy -247891.949417 kJ/mol
# GULP energy per Si atom -12394.597471 kJ/mol
# Density = 2.431074 g / cm^3
# Si number density = 24.366200 Si / 1000 Ang^3
#
#
#
# Elastic Constant Matrix: (Units=GPa)
#
#
# Indices 1 2 3 4 5 6 
#
# 1 114.3382 104.9393 34.9095 0.0000 24.8023 0.0000
# 2 104.9393 232.2225 41.3221 0.0000 19.9324 0.0000
# 3 34.9095 41.3221 87.7335 0.0000 29.2964 0.0000
# 4 0.0000 0.0000 0.0000 6.4358 0.0000 10.0464
# 5 24.8023 19.9324 29.2964 0.0000 28.4989 0.0000
# 6 0.0000 0.0000 0.0000 10.0464 0.0000 60.1681
#
#
#
# Elastic Compliance Matrix: (Units=1/GPa)
#
#
# Indices 1 2 3 4 5 6 
#
# 1 0.017366 -0.006937 -0.000329 0.000000 -0.009923 0.000000
# 2 -0.006937 0.007516 -0.001584 0.000000 0.002409 0.000000
# 3 -0.000329 -0.001584 0.017982 0.000000 -0.017091 0.000000
# 4 0.000000 0.000000 0.000000 0.210158 0.000000 -0.035091
# 5 -0.009923 0.002409 -0.017091 0.000000 0.059610 0.000000
# 6 0.000000 0.000000 0.000000 -0.035091 0.000000 0.022479
#
#
# Mechanical properties :
#
#
# Convention : Reuss Voigt Hill
#
# Bulk Modulus (GPa) = 39.73953 88.51514 64.12733
# Shear Modulus (GPa) = 13.84272 35.89544 24.86908
#
# Velocity S-wave (km/s) = 2.38610 3.84235 3.19821
# Velocity P-wave (km/s) = 4.89244 7.48937 6.32561
#
# Compressibility (1/GPa) = 0.02516386
#
# Stress axis : x y z
#
# Youngs Moduli (GPa) = 57.58393 133.04571 55.60993
#
# Poissons Ratio (x) = 0.92297 0.01829
# Poissons Ratio (y) = 0.39947 0.08810
# Poissons Ratio (z) = 0.01894 0.21077
#
# Static dielectric constant tensor:
#      x y z
#    x 4.476080 0.000000 0.421240 
#    y 0.000000 4.579690 0.000000 
#    z 0.421240 0.000000 4.468180 
# 
# 
# High freq. dielectric constant tensor:
#      x y z
#    x 1.952110 0.000000 0.019830 
#    y 0.000000 1.978260 0.000000 
#    z 0.019830 0.000000 1.993420 
# 
# From -- ./inp_files/24540.got.cif
#   From: 2010.06.25/outbox.cif.g09.slc.cpg/sg15_13_cif.got.tgz:24540.got - 2010.06.28 07:06:18.
