data_PCOD8136904
_publ_section_title
;
Structure prediction by ZEFSAII (Michael W. Deem and Ramdas Pophale) SiO2 
 PCOD8136904
Probable space group: C 2/C
;
_chemical_formula_sum "Si O2"
_cell_formula_units_Z 64
_cell_length_a 16.421106
_cell_length_b 20.431495
_cell_length_c 12.020666
_cell_angle_alpha 90.000000
_cell_angle_beta 127.854482
_cell_angle_gamma 90.000000
_cell_volume 3184.364221
_symmetry_space_group_name_H-M "C 2/C"
_symmetry_group_IT_number 15
_symmetry_cell_setting 'monoclinic'
loop_
_space_group_symop_operation_xyz
x,y,z
-x,y,1/2-z
-x,-y,-z
x,-y,1/2+z
1/2+x,1/2+y,z
1/2-x,1/2+y,1/2-z
1/2-x,1/2-y,-z
1/2+x,1/2-y,1/2+z
loop_
_atom_site_type_symbol
_atom_site_label
_atom_site_fract_x
_atom_site_fract_y
_atom_site_fract_z
Si Si1 0.438426 0.564628 0.985429
Si Si2 0.246836 0.768412 0.838906
Si Si3 0.761664 0.595537 0.082702
Si Si4 0.177754 0.268914 0.838898
Si Si5 0.378965 0.173287 0.625002
Si Si6 0.650146 0.599872 0.224913
Si Si7 0.902627 0.863563 0.231214
Si Si8 0.747752 0.955786 0.489108
O O1 0.395587 0.606865 0.847422
O O2 0.340339 0.552849 0.979679
O O3 0.500000 0.500000 0.000000
O O4 0.526288 0.603622 0.125533
O O5 0.257832 0.757238 0.718551
O O6 0.188316 0.704732 0.833220
O O7 0.178927 0.832208 0.806780
O O8 0.355300 0.784142 0.993301
O O9 0.849382 0.652725 0.175421
O O10 0.691088 0.590656 0.133655
O O11 0.808191 0.524793 0.089178
O O12 0.696967 0.617390 0.921798
O O13 0.084574 0.216549 0.754091
O O14 0.250000 0.250000 0.000000
O O15 0.500000 0.175318 0.750000
O O16 0.342266 0.098003 0.588480
O O17 0.699386 0.542468 0.343630
O O18 0.000000 0.893999 0.250000
#
# Coordination Sequence:
#
# PCOD8136904 Si02
#       8
#     8   8   8   8   8   8   8   8
#     4  12  21  33  56  93 122 153 187 236 301 367
#     4   9  20  39  60  86 117 152 194 248 298 349
#     4  10  20  38  54  80 115 157 191 240 288 350
#     4   9  20  37  58  82 114 156 197 237 293 344
#     4  10  22  40  61  88 115 155 201 248 299 355
#     4  10  20  35  56  85 122 152 186 240 299 354
#     4  11  20  34  56  84 118 148 191 236 290 353
#     4  11  22  36  59  83 121 156 192 235 301 357
#
# _framework density 20.098203000000002
#
# number of rings (size 3 to 8) (size 9 to 14) (size 15 to 20)
#    0.000    1.750    2.500    1.875    0.000    4.000 
#    0.000    0.625    0.000    6.750    0.000    0.000 
#    0.000    0.000    0.000    0.000    0.000    0.000 
#
# Total GULP energy -396420.751683 kJ/mol
# GULP energy per Si atom -12388.148490 kJ/mol
# Density = 2.005246 g / cm^3
# Si number density = 20.098203 Si / 1000 Ang^3
#
#
#
# Elastic Constant Matrix: (Units=GPa)
#
#
# Indices 1 2 3 4 5 6 
#
# 1 53.1321 25.1262 42.5818 0.0000 -0.9472 0.0000
# 2 25.1262 119.2617 49.0710 0.0000 -2.6524 0.0000
# 3 42.5818 49.0710 119.1052 0.0000 -10.5777 0.0000
# 4 0.0000 0.0000 0.0000 28.5813 0.0000 -0.4784
# 5 -0.9472 -2.6524 -10.5777 0.0000 34.2351 0.0000
# 6 0.0000 0.0000 0.0000 -0.4784 0.0000 22.7360
#
#
#
# Elastic Compliance Matrix: (Units=1/GPa)
#
#
# Indices 1 2 3 4 5 6 
#
# 1 0.026948 -0.002025 -0.008994 0.000000 -0.002190 0.000000
# 2 -0.002025 0.010258 -0.003533 0.000000 -0.000353 0.000000
# 3 -0.008994 -0.003533 0.013388 0.000000 0.003614 0.000000
# 4 0.000000 0.000000 0.000000 0.035000 0.000000 0.000737
# 5 -0.002190 -0.000353 0.003614 0.000000 0.030238 0.000000
# 6 0.000000 0.000000 0.000000 0.000737 0.000000 0.043999
#
#
# Mechanical properties :
#
#
# Convention : Reuss Voigt Hill
#
# Bulk Modulus (GPa) = 46.53817 58.33968 52.43892
# Shear Modulus (GPa) = 25.49717 28.75848 27.12782
#
# Velocity S-wave (km/s) = 3.56565 3.78683 3.67790
# Velocity P-wave (km/s) = 6.33699 6.94337 6.64710
#
# Compressibility (1/GPa) = 0.02148774
#
# Stress axis : x y z
#
# Youngs Moduli (GPa) = 37.10822 97.48864 74.69231
#
# Poissons Ratio (x) = 0.19745 0.67181
# Poissons Ratio (y) = 0.07516 0.26391
# Poissons Ratio (z) = 0.33377 0.34446
#
# Static dielectric constant tensor:
#      x y z
#    x 3.360700 0.000000 -0.072890 
#    y 0.000000 4.343010 0.000000 
#    z -0.072890 0.000000 4.024030 
# 
# 
# High freq. dielectric constant tensor:
#      x y z
#    x 1.747420 0.000000 -0.028230 
#    y 0.000000 1.803080 0.000000 
#    z -0.028230 0.000000 1.790510 
# 
# From -- ./inp_files/107534.got.cif
#   From: 2010.06.25/outbox.cif.g09.slc.cpg/sg15_54_cif.got.tgz:107534.got - 2010.06.28 07:06:18.
