data_PCOD8136761
_publ_section_title
;
Structure prediction by ZEFSAII (Michael W. Deem and Ramdas Pophale) SiO2 
 PCOD8136761
Probable space group: C 2/C
;
_chemical_formula_sum "Si O2"
_cell_formula_units_Z 48
_cell_length_a 17.380634
_cell_length_b 6.359212
_cell_length_c 27.078749
_cell_angle_alpha 90.000000
_cell_angle_beta 56.990478
_cell_angle_gamma 90.000000
_cell_volume 2509.816886
_symmetry_space_group_name_H-M "C 2/C"
_symmetry_group_IT_number 15
_symmetry_cell_setting 'monoclinic'
loop_
_space_group_symop_operation_xyz
x,y,z
-x,y,1/2-z
-x,-y,-z
x,-y,1/2+z
1/2+x,1/2+y,z
1/2-x,1/2+y,1/2-z
1/2-x,1/2-y,-z
1/2+x,1/2-y,1/2+z
loop_
_atom_site_type_symbol
_atom_site_label
_atom_site_fract_x
_atom_site_fract_y
_atom_site_fract_z
Si Si1 0.757777 0.322509 0.926586
Si Si2 0.630173 0.084616 0.787432
Si Si3 0.101654 0.109405 0.213341
Si Si4 0.077774 0.624090 0.628018
Si Si5 0.733186 0.249134 0.183315
Si Si6 0.815850 0.061256 0.464235
O O1 0.853237 0.435766 0.908646
O O2 0.729514 0.366881 0.879175
O O3 0.772126 0.077370 0.935117
O O4 0.675083 0.417877 0.989489
O O5 0.631123 0.297750 0.755820
O O6 0.525024 0.030028 0.838150
O O7 0.684507 0.130224 0.818660
O O8 0.677992 0.895521 0.740939
O O9 0.105606 0.298688 0.172959
O O10 0.000000 0.014022 0.250000
O O11 0.166440 0.914685 0.180036
O O12 0.089420 0.827057 0.587232
O O13 0.750000 0.250000 0.500000
#
# Coordination Sequence:
#
# PCOD8136761 Si02
#       6
#     8   8   8   8   8   8
#     4  10  20  34  63  85 109 151 197 240 285 343
#     4  11  24  36  53  85 125 153 187 231 293 350
#     4  10  21  34  55  82 114 151 189 233 284 345
#     4  10  20  37  59  86 113 149 196 243 280 341
#     4  12  22  37  54  85 119 157 185 236 295 350
#     4   9  19  37  59  88 112 143 200 246 284 327
#
# _framework density 19.1249
#
# number of rings (size 3 to 8) (size 9 to 14) (size 15 to 20)
#    0.000    1.667    5.000    0.000    2.333    0.000 
#    0.000    0.833    0.000    9.000    0.000    0.000 
#    0.000    0.000    0.000    0.000    0.000    0.000 
#
# Total GULP energy -297422.866995 kJ/mol
# GULP energy per Si atom -12392.619458 kJ/mol
# Density = 1.908137 g / cm^3
# Si number density = 19.124900 Si / 1000 Ang^3
#
#
#
# Elastic Constant Matrix: (Units=GPa)
#
#
# Indices 1 2 3 4 5 6 
#
# 1 83.4982 30.0035 41.6866 0.0004 12.6669 0.0076
# 2 30.0035 69.3447 28.7094 0.0112 6.4411 0.0284
# 3 41.6866 28.7094 111.6840 -0.0050 7.5216 0.0035
# 4 0.0004 0.0112 -0.0050 35.4203 0.0041 -2.3585
# 5 12.6669 6.4411 7.5216 0.0041 17.9883 0.0105
# 6 0.0076 0.0284 0.0035 -2.3585 0.0105 19.4410
#
#
#
# Elastic Compliance Matrix: (Units=1/GPa)
#
#
# Indices 1 2 3 4 5 6 
#
# 1 0.017311 -0.004768 -0.004661 0.000002 -0.008534 0.000006
# 2 -0.004768 0.017760 -0.002658 -0.000007 -0.001890 -0.000023
# 3 -0.004661 -0.002658 0.011413 0.000003 -0.000538 0.000004
# 4 0.000002 -0.000007 0.000003 0.028462 -0.000009 0.003453
# 5 -0.008534 -0.001890 -0.000538 -0.000009 0.062503 -0.000029
# 6 0.000006 -0.000023 0.000004 0.003453 -0.000029 0.051857
#
#
# Mechanical properties :
#
#
# Convention : Reuss Voigt Hill
#
# Bulk Modulus (GPa) = 44.82358 51.70289 48.26324
# Shear Modulus (GPa) = 22.63292 25.51176 24.07234
#
# Velocity S-wave (km/s) = 3.44383 3.65630 3.55165
# Velocity P-wave (km/s) = 6.26909 6.70207 6.48919
#
# Compressibility (1/GPa) = 0.02230969
#
# Stress axis : x y z
#
# Youngs Moduli (GPa) = 57.76612 56.30708 87.61732
#
# Poissons Ratio (x) = 0.26845 0.40840
# Poissons Ratio (y) = 0.27541 0.23293
# Poissons Ratio (z) = 0.26926 0.14969
#
# Static dielectric constant tensor:
#      x y z
#    x 3.182560 -0.000040 -0.094020 
#    y -0.000040 3.538080 -0.000070 
#    z -0.094020 -0.000070 3.965440 
# 
# 
# High freq. dielectric constant tensor:
#      x y z
#    x 1.698550 0.000000 -0.001430 
#    y 0.000000 1.749850 -0.000010 
#    z -0.001430 -0.000010 1.762310 
# 
# From -- ./inp_files/275697.got.cif
#   From: 2010.06.25/outbox.cif.g09.slc.cpg/sg15_138_cif.got.tgz:275697.got - 2010.06.28 07:06:18.
