data_PCOD8136307
_publ_section_title
;
Structure prediction by ZEFSAII (Michael W. Deem and Ramdas Pophale) SiO2 
 PCOD8136307
Probable space group: C 2/C
;
_chemical_formula_sum "Si O2"
_cell_formula_units_Z 44
_cell_length_a 10.624747
_cell_length_b 21.289917
_cell_length_c 15.797964
_cell_angle_alpha 90.000000
_cell_angle_beta 138.285335
_cell_angle_gamma 90.000000
_cell_volume 2377.882951
_symmetry_space_group_name_H-M "C 2/C"
_symmetry_group_IT_number 15
_symmetry_cell_setting 'monoclinic'
loop_
_space_group_symop_operation_xyz
x,y,z
-x,y,1/2-z
-x,-y,-z
x,-y,1/2+z
1/2+x,1/2+y,z
1/2-x,1/2+y,1/2-z
1/2-x,1/2-y,-z
1/2+x,1/2-y,1/2+z
loop_
_atom_site_type_symbol
_atom_site_label
_atom_site_fract_x
_atom_site_fract_y
_atom_site_fract_z
Si Si1 0.000000 0.952793 0.750000
Si Si2 0.556953 0.411988 0.598382
Si Si3 0.830314 0.534923 0.956298
Si Si4 0.709791 0.987523 0.376076
Si Si5 0.224030 0.306743 0.878529
Si Si6 0.297792 0.667617 0.609395
O O1 0.006212 0.908092 0.671667
O O2 0.166927 0.001339 0.824372
O O3 0.359276 0.429822 0.452183
O O4 0.718796 0.463413 0.658789
O O5 0.640297 0.344340 0.616716
O O6 0.841007 0.609325 0.939703
O O7 0.800600 0.525454 0.041390
O O8 0.000000 0.500000 0.000000
O O9 0.500000 0.961650 0.250000
O O10 0.267765 0.233294 0.881945
O O11 0.000000 0.321170 0.750000
O O12 0.297307 0.324442 0.008156
O O13 0.500000 0.649344 0.750000
#
# Coordination Sequence:
#
# PCOD8136307 Si02
#       6
#     4   8   8   8   8   8
#     4  10  22  34  52  86 112 146 192 232 290 340
#     4  10  20  35  57  83 117 151 192 243 285 350
#     4  11  21  33  55  85 116 148 182 241 284 342
#     4  10  20  33  53  84 117 154 187 238 296 339
#     4  10  21  37  62  87 115 153 190 241 294 347
#     4  10  21  37  57  91 118 145 196 242 291 336
#
# _framework density 18.503855000000001
#
# number of rings (size 3 to 8) (size 9 to 14) (size 15 to 20)
#    0.000    1.818    2.727    1.636    2.545    1.455 
#    0.000    0.000    0.000    4.364    9.455    0.000 
#    0.000    0.000    0.000    0.000    0.000    0.000 
#
# Total GULP energy -272583.546173 kJ/mol
# GULP energy per Si atom -12390.161190 kJ/mol
# Density = 1.846174 g / cm^3
# Si number density = 18.503855 Si / 1000 Ang^3
#
#
#
# Elastic Constant Matrix: (Units=GPa)
#
#
# Indices 1 2 3 4 5 6 
#
# 1 90.3120 65.4351 26.9169 0.0045 15.5052 0.0014
# 2 65.4351 158.0282 38.5350 0.0020 14.4946 0.0006
# 3 26.9169 38.5350 95.4343 0.0118 19.2210 0.0024
# 4 0.0045 0.0020 0.0118 -8.7397 0.0051 -1.6066
# 5 15.5052 14.4946 19.2210 0.0051 34.8305 0.0009
# 6 0.0014 0.0006 0.0024 -1.6066 0.0009 23.9955
#
#
#
# Elastic Compliance Matrix: (Units=1/GPa)
#
#
# Indices 1 2 3 4 5 6 
#
# 1 0.016671 -0.006192 -0.001379 0.000003 -0.004083 0.000000
# 2 -0.006192 0.009392 -0.002041 -0.000004 -0.000026 0.000000
# 3 -0.001379 -0.002041 0.012822 0.000013 -0.005612 0.000000
# 4 0.000003 -0.000004 0.000013 -0.113029 0.000010 -0.007568
# 5 -0.004083 -0.000026 -0.005612 0.000010 0.033636 0.000000
# 6 0.000000 0.000000 0.000000 -0.007568 0.000000 0.041168
#
#
# Mechanical properties :
#
#
# Convention : Reuss Voigt Hill
#
# Bulk Modulus (GPa) = 50.86290 67.28316 59.07303
# Shear Modulus (GPa) = 189.11738 24.20977 106.66358
#
# Velocity S-wave (km/s) = 10.12058 3.62106 7.60060
# Velocity P-wave (km/s) = 12.81076 7.34325 10.44124
#
# Compressibility (1/GPa) = 0.01966070
#
# Stress axis : x y z
#
# Youngs Moduli (GPa) = 59.98267 106.47334 77.99216
#
# Poissons Ratio (x) = 0.65932 0.10758
# Poissons Ratio (y) = 0.37143 0.15916
# Poissons Ratio (z) = 0.08274 0.21728
#
# Static dielectric constant tensor:
#      x y z
#    x 4.119890 -0.000010 0.093360 
#    y -0.000010 3.484410 -0.000010 
#    z 0.093360 -0.000010 3.666580 
# 
# 
# High freq. dielectric constant tensor:
#      x y z
#    x 1.699320 0.000000 -0.000950 
#    y 0.000000 1.704870 0.000000 
#    z -0.000950 0.000000 1.735600 
# 
# From -- ./inp_files/88122.got.cif
#   From: 2010.06.25/outbox.cif.g09.slc.cpg/sg15_45_cif.got.tgz:88122.got - 2010.06.28 07:06:18.
