data_PCOD8136061
_publ_section_title
;
Structure prediction by ZEFSAII (Michael W. Deem and Ramdas Pophale) SiO2 
 PCOD8136061
Probable space group: C 2/C
;
_chemical_formula_sum "Si O2"
_cell_formula_units_Z 40
_cell_length_a 9.333082
_cell_length_b 11.206708
_cell_length_c 15.703606
_cell_angle_alpha 90.000000
_cell_angle_beta 88.089533
_cell_angle_gamma 90.000000
_cell_volume 1641.576231
_symmetry_space_group_name_H-M "C 2/C"
_symmetry_group_IT_number 15
_symmetry_cell_setting 'monoclinic'
loop_
_space_group_symop_operation_xyz
x,y,z
-x,y,1/2-z
-x,-y,-z
x,-y,1/2+z
1/2+x,1/2+y,z
1/2-x,1/2+y,1/2-z
1/2-x,1/2-y,-z
1/2+x,1/2-y,1/2+z
loop_
_atom_site_type_symbol
_atom_site_label
_atom_site_fract_x
_atom_site_fract_y
_atom_site_fract_z
Si Si1 0.639934 0.710727 0.575522
Si Si2 0.907098 0.528425 0.421199
Si Si3 0.000000 0.555052 0.250000
Si Si4 0.500000 0.356030 0.750000
Si Si5 0.283354 0.261734 0.243455
Si Si6 0.099155 0.043251 0.885736
O O1 0.750000 0.750000 0.500000
O O2 0.556337 0.832660 0.596479
O O3 0.718376 0.676150 0.662449
O O4 0.528535 0.602394 0.552649
O O5 0.738296 0.496387 0.439009
O O6 0.000000 0.500000 0.500000
O O7 0.967535 0.468730 0.332573
O O8 0.141439 0.633460 0.260259
O O9 0.376031 0.267283 0.783288
O O10 0.545111 0.431659 0.832149
O O11 0.361165 0.351534 0.179248
#
# Coordination Sequence:
#
# PCOD8136061 Si02
#       6
#     8   8   4   4   8   8
#     4  11  24  43  66 103 145 180 242 305 353 431
#     4  11  26  45  70 108 142 194 243 292 371 433
#     4  10  19  47  70  94 148 184 233 307 344 436
#     4  12  23  41  78 106 130 186 247 285 364 428
#     4  11  22  44  72 103 137 186 247 288 358 445
#     4  12  23  47  75  97 145 193 231 304 365 423
#
# _framework density 24.366826
#
# number of rings (size 3 to 8) (size 9 to 14) (size 15 to 20)
#    0.000    0.800   10.000    0.000    0.000    7.200 
#    3.600    0.000    0.000    0.000    0.000    0.000 
#    0.000    0.000    0.000    0.000    0.000    0.000 
#
# Total GULP energy -247811.045899 kJ/mol
# GULP energy per Si atom -12390.552295 kJ/mol
# Density = 2.431137 g / cm^3
# Si number density = 24.366826 Si / 1000 Ang^3
#
#
#
# Elastic Constant Matrix: (Units=GPa)
#
#
# Indices 1 2 3 4 5 6 
#
# 1 154.9742 16.2328 43.2478 0.0000 12.7903 0.0000
# 2 16.2328 46.0084 -6.9942 0.0000 12.2888 0.0000
# 3 43.2478 -6.9942 71.7014 0.0000 5.5770 0.0000
# 4 0.0000 0.0000 0.0000 -0.2138 0.0000 -1.3731
# 5 12.7903 12.2888 5.5770 0.0000 52.0303 0.0000
# 6 0.0000 0.0000 0.0000 -1.3731 0.0000 49.6017
#
#
#
# Elastic Compliance Matrix: (Units=1/GPa)
#
#
# Indices 1 2 3 4 5 6 
#
# 1 0.008376 -0.003600 -0.005354 0.000000 -0.000635 0.000000
# 2 -0.003600 0.025280 0.005075 0.000000 -0.005630 0.000000
# 3 -0.005354 0.005075 0.017810 0.000000 -0.001792 0.000000
# 4 0.000000 0.000000 0.000000 -3.971725 0.000000 -0.109944
# 5 -0.000635 -0.005630 -0.001792 0.000000 0.020897 0.000000
# 6 0.000000 0.000000 0.000000 -0.109944 0.000000 0.017117
#
#
# Mechanical properties :
#
#
# Convention : Reuss Voigt Hill
#
# Bulk Modulus (GPa) = 22.87800 41.96187 32.41993
# Shear Modulus (GPa) = -1.29536 34.96346 16.83405
#
# Velocity S-wave (km/s) = -0.72991 3.79209 2.63127
# Velocity P-wave (km/s) = 2.94941 6.03586 4.75029
#
# Compressibility (1/GPa) = 0.04371012
#
# Stress axis : x y z
#
# Youngs Moduli (GPa) = 119.38505 39.55621 56.14668
#
# Poissons Ratio (x) = 0.14239 0.30061
# Poissons Ratio (y) = 0.42974 -0.28495
# Poissons Ratio (z) = 0.63919 -0.20075
#
# Static dielectric constant tensor:
#      x y z
#    x 4.444720 0.000000 -0.230840 
#    y 0.000000 4.619770 0.000000 
#    z -0.230840 0.000000 5.435730 
# 
# 
# High freq. dielectric constant tensor:
#      x y z
#    x 1.975680 0.000000 -0.012970 
#    y 0.000000 1.963400 0.000000 
#    z -0.012970 0.000000 1.964900 
# 
# From -- ./inp_files/187939.got.cif
#   From: 2010.06.25/outbox.cif.g09.slc.cpg/sg15_94_cif.got.tgz:187939.got - 2010.06.28 07:06:18.
