data_PCOD8136713
_publ_section_title
;
Structure prediction by ZEFSAII (Michael W. Deem and Ramdas Pophale) SiO2 
 PCOD8136713
Probable space group: C 2/C
;
_chemical_formula_sum "Si O2"
_cell_formula_units_Z 56
_cell_length_a 10.037033
_cell_length_b 21.850128
_cell_length_c 12.074674
_cell_angle_alpha 90.000000
_cell_angle_beta 84.240808
_cell_angle_gamma 90.000000
_cell_volume 2634.735783
_symmetry_space_group_name_H-M "C 2/C"
_symmetry_group_IT_number 15
_symmetry_cell_setting 'monoclinic'
loop_
_space_group_symop_operation_xyz
x,y,z
-x,y,1/2-z
-x,-y,-z
x,-y,1/2+z
1/2+x,1/2+y,z
1/2-x,1/2+y,1/2-z
1/2-x,1/2-y,-z
1/2+x,1/2-y,1/2+z
loop_
_atom_site_type_symbol
_atom_site_label
_atom_site_fract_x
_atom_site_fract_y
_atom_site_fract_z
Si Si1 0.601523 0.590809 0.149150
Si Si2 0.243233 0.498345 0.221236
Si Si3 0.747456 0.892665 0.366490
Si Si4 0.636332 0.303124 0.297085
Si Si5 0.616301 0.890752 0.615924
Si Si6 0.830455 0.668111 0.170098
Si Si7 0.541512 0.579512 0.914426
O O1 0.500000 0.614541 0.250000
O O2 0.692602 0.536160 0.184763
O O3 0.704305 0.644958 0.110366
O O4 0.519362 0.570697 0.047425
O O5 0.171681 0.441022 0.290964
O O6 0.137064 0.538997 0.158517
O O7 0.364847 0.475939 0.133272
O O8 0.756162 0.826825 0.304147
O O9 0.676980 0.883643 0.489170
O O10 0.899355 0.919367 0.363954
O O11 0.500000 0.284792 0.250000
O O12 0.676329 0.240233 0.353285
O O13 0.617168 0.356294 0.388640
O O14 0.690885 0.845418 0.696100
O O15 0.461853 0.870126 0.621276
#
# Coordination Sequence:
#
# PCOD8136713 Si02
#       7
#     8   8   8   8   8   8   8
#     4  11  22  36  56  85 112 149 196 239 287 353
#     4  10  20  35  58  84 122 147 187 245 293 348
#     4  10  20  34  60  92 111 155 199 237 293 350
#     4   9  18  37  59  81 114 151 198 240 287 338
#     4  10  20  36  57  85 116 152 193 239 291 348
#     4  10  21  39  55  80 116 157 192 243 292 340
#     4  10  20  35  57  86 116 154 188 245 296 330
#
# _framework density 21.254504000000001
#
# number of rings (size 3 to 8) (size 9 to 14) (size 15 to 20)
#    0.000    2.000    1.429    4.714    0.000    2.857 
#    2.571   12.857    0.000    1.714    0.000    0.000 
#    0.000    0.000    0.000    0.000    0.000    0.000 
#
# Total GULP energy -346977.968791 kJ/mol
# GULP energy per Si atom -12392.070314 kJ/mol
# Density = 2.120613 g / cm^3
# Si number density = 21.254504 Si / 1000 Ang^3
#
#
#
# Elastic Constant Matrix: (Units=GPa)
#
#
# Indices 1 2 3 4 5 6 
#
# 1 35.9608 25.5733 16.5419 0.0000 -9.8732 0.0000
# 2 25.5733 125.0878 26.6400 0.0000 -15.1679 0.0000
# 3 16.5419 26.6400 104.7088 0.0000 -25.0169 0.0000
# 4 0.0000 0.0000 0.0000 17.3710 0.0000 -2.4893
# 5 -9.8732 -15.1679 -25.0169 0.0000 27.7320 0.0000
# 6 0.0000 0.0000 0.0000 -2.4893 0.0000 15.7833
#
#
#
# Elastic Compliance Matrix: (Units=1/GPa)
#
#
# Indices 1 2 3 4 5 6 
#
# 1 0.034965 -0.005780 -0.002338 0.000000 0.007177 0.000000
# 2 -0.005780 0.009670 -0.000988 0.000000 0.002340 0.000000
# 3 -0.002338 -0.000988 0.012547 0.000000 0.009946 0.000000
# 4 0.000000 0.000000 0.000000 0.058898 0.000000 0.009289
# 5 0.007177 0.002340 0.009946 0.000000 0.048867 0.000000
# 6 0.000000 0.000000 0.000000 0.009289 0.000000 0.064823
#
#
# Mechanical properties :
#
#
# Convention : Reuss Voigt Hill
#
# Bulk Modulus (GPa) = 25.66112 44.80752 35.23432
# Shear Modulus (GPa) = 19.15905 25.31075 22.23490
#
# Velocity S-wave (km/s) = 3.00561 3.45460 3.23790
# Velocity P-wave (km/s) = 4.91369 6.08601 5.53100
#
# Compressibility (1/GPa) = 0.03896946
#
# Stress axis : x y z
#
# Youngs Moduli (GPa) = 28.60026 103.41017 79.69794
#
# Poissons Ratio (x) = 0.59771 0.18636
# Poissons Ratio (y) = 0.16531 0.07875
# Poissons Ratio (z) = 0.06688 0.10218
#
# Static dielectric constant tensor:
#      x y z
#    x 3.624180 0.000000 -0.076320 
#    y 0.000000 4.009280 0.000000 
#    z -0.076320 0.000000 3.735950 
# 
# 
# High freq. dielectric constant tensor:
#      x y z
#    x 1.802190 0.000000 -0.005740 
#    y 0.000000 1.836770 0.000000 
#    z -0.005740 0.000000 1.832510 
# 
# From -- ./inp_files/88901.got.cif
#   From: 2010.06.25/outbox.cif.g09.slc.cpg/sg15_45_cif.got.tgz:88901.got - 2010.06.28 07:06:18.
