data_PCOD8136882
_publ_section_title
;
Structure prediction by ZEFSAII (Michael W. Deem and Ramdas Pophale) SiO2 
 PCOD8136882
Probable space group: C 2/C
;
_chemical_formula_sum "Si O2"
_cell_formula_units_Z 60
_cell_length_a 26.545531
_cell_length_b 6.625297
_cell_length_c 22.015798
_cell_angle_alpha 90.000000
_cell_angle_beta 127.076243
_cell_angle_gamma 90.000000
_cell_volume 3089.183638
_symmetry_space_group_name_H-M "C 2/C"
_symmetry_group_IT_number 15
_symmetry_cell_setting 'monoclinic'
loop_
_space_group_symop_operation_xyz
x,y,z
-x,y,1/2-z
-x,-y,-z
x,-y,1/2+z
1/2+x,1/2+y,z
1/2-x,1/2+y,1/2-z
1/2-x,1/2-y,-z
1/2+x,1/2-y,1/2+z
loop_
_atom_site_type_symbol
_atom_site_label
_atom_site_fract_x
_atom_site_fract_y
_atom_site_fract_z
Si Si1 0.539518 0.460431 0.155290
Si Si2 0.859481 0.375002 0.750000
Si Si3 0.427199 0.868374 0.384875
Si Si4 0.207676 0.881630 0.384876
Si Si5 0.500000 0.375005 0.750000
Si Si6 0.163560 0.600173 0.459271
Si Si7 0.365774 0.210429 0.655292
Si Si8 0.954289 0.649828 0.040729
O O1 0.590072 0.299915 0.213155
O O2 0.573208 0.652816 0.149129
O O3 0.504396 0.497147 0.192399
O O4 0.489394 0.364999 0.072001
O O5 0.866528 0.492863 0.819780
O O6 0.796748 0.257148 0.680216
O O7 0.873093 0.549911 0.713161
O O8 0.418863 0.846933 0.450612
O O9 0.494475 0.970437 0.417318
O O10 0.172845 0.779573 0.417322
O O11 0.281749 0.903078 0.450612
O O12 0.174077 0.097186 0.350868
O O13 0.438003 0.247158 0.692393
O O14 0.167394 0.385007 0.427997
O O15 0.096610 0.624999 0.443219
#
# Coordination Sequence:
#
# PCOD8136882 Si02
#       8
#     8   8   8   8   4   8   8   8
#     4  11  21  34  54  85 116 149 185 238 291 347
#     4  10  20  35  56  75 112 150 189 232 286 331
#     4  10  20  39  56  82 116 151 188 239 286 346
#     4  10  20  39  56  82 116 151 188 239 286 346
#     4  12  20  30  56  86 122 144 194 238 308 352
#     4  10  22  36  59  83 115 150 191 232 290 348
#     4  11  21  34  54  85 116 149 185 238 291 347
#     4  10  22  36  59  83 115 150 191 232 290 348
#
# _framework density 19.422605999999998
#
# number of rings (size 3 to 8) (size 9 to 14) (size 15 to 20)
#    0.000    1.600    2.667    2.400    3.733    0.000 
#    0.000    0.000    5.867    0.000    0.000    0.000 
#    0.000    0.000    0.000    0.000    0.000    0.000 
#
# Total GULP energy -371653.579375 kJ/mol
# GULP energy per Si atom -12388.452646 kJ/mol
# Density = 1.937840 g / cm^3
# Si number density = 19.422606 Si / 1000 Ang^3
#
#
#
# Elastic Constant Matrix: (Units=GPa)
#
#
# Indices 1 2 3 4 5 6 
#
# 1 26.4984 8.4210 4.7856 -0.0001 -0.1994 0.0000
# 2 8.4210 119.8767 49.9791 -0.0032 -0.4651 0.0010
# 3 4.7856 49.9791 136.4297 0.0000 -1.0269 0.0000
# 4 -0.0001 -0.0032 0.0000 65.8334 0.0000 -0.6664
# 5 -0.1994 -0.4651 -1.0269 0.0000 19.8938 0.0000
# 6 0.0000 0.0010 0.0000 -0.6664 0.0000 4.6141
#
#
#
# Elastic Compliance Matrix: (Units=1/GPa)
#
#
# Indices 1 2 3 4 5 6 
#
# 1 0.038623 -0.002535 -0.000424 0.000000 0.000306 0.000001
# 2 -0.002535 0.010012 -0.003579 0.000000 0.000024 -0.000002
# 3 -0.000424 -0.003579 0.008658 0.000000 0.000359 0.000001
# 4 0.000000 0.000000 0.000000 0.015212 0.000000 0.002197
# 5 0.000306 0.000024 0.000359 0.000000 0.050289 0.000000
# 6 0.000001 -0.000002 0.000001 0.002197 0.000000 0.217045
#
#
# Mechanical properties :
#
#
# Convention : Reuss Voigt Hill
#
# Bulk Modulus (GPa) = 22.61534 45.46402 34.03968
# Shear Modulus (GPa) = 13.59974 32.70951 23.15463
#
# Velocity S-wave (km/s) = 2.64900 4.10822 3.45650
# Velocity P-wave (km/s) = 4.58534 6.77952 5.78737
#
# Compressibility (1/GPa) = 0.04421778
#
# Stress axis : x y z
#
# Youngs Moduli (GPa) = 25.89151 99.87892 115.49542
#
# Poissons Ratio (x) = 0.25322 0.04894
# Poissons Ratio (y) = 0.06564 0.41332
# Poissons Ratio (z) = 0.01097 0.35744
#
# Static dielectric constant tensor:
#      x y z
#    x 2.992360 0.000000 -0.012140 
#    y 0.000000 3.997670 0.000000 
#    z -0.012140 0.000000 4.102600 
# 
# 
# High freq. dielectric constant tensor:
#      x y z
#    x 1.704530 0.000000 -0.000890 
#    y 0.000000 1.772740 0.000000 
#    z -0.000890 0.000000 1.784260 
# 
# From -- ./inp_files/284079.got.cif
#   From: 2010.06.25/outbox.cif.g09.slc.cpg/sg15_143_cif.got.tgz:284079.got - 2010.06.28 07:06:18.
