data_PCOD8136201
_publ_section_title
;
Structure prediction by ZEFSAII (Michael W. Deem and Ramdas Pophale) SiO2 
 PCOD8136201
Probable space group: C 2/C
;
_chemical_formula_sum "Si O2"
_cell_formula_units_Z 60
_cell_length_a 20.152738
_cell_length_b 17.950405
_cell_length_c 12.600722
_cell_angle_alpha 90.000000
_cell_angle_beta 52.379918
_cell_angle_gamma 90.000000
_cell_volume 3610.525800
_symmetry_space_group_name_H-M "C 2/C"
_symmetry_group_IT_number 15
_symmetry_cell_setting 'monoclinic'
loop_
_space_group_symop_operation_xyz
x,y,z
-x,y,1/2-z
-x,-y,-z
x,-y,1/2+z
1/2+x,1/2+y,z
1/2-x,1/2+y,1/2-z
1/2-x,1/2-y,-z
1/2+x,1/2-y,1/2+z
loop_
_atom_site_type_symbol
_atom_site_label
_atom_site_fract_x
_atom_site_fract_y
_atom_site_fract_z
Si Si1 0.917692 0.484731 0.893522
Si Si2 0.194722 0.442817 0.679497
Si Si3 0.591192 0.200883 0.346411
Si Si4 0.992165 0.362756 0.373316
Si Si5 0.753897 0.205266 0.836460
Si Si6 0.646970 0.916536 0.341317
Si Si7 0.828964 0.839725 0.481436
Si Si8 0.000000 0.213168 0.750000
O O1 0.835080 0.479255 0.901888
O O2 0.927362 0.568577 0.927993
O O3 0.000000 0.459413 0.750000
O O4 0.908951 0.427144 0.998912
O O5 0.130293 0.377171 0.771864
O O6 0.194908 0.506516 0.768727
O O7 0.290473 0.412729 0.576500
O O8 0.538323 0.193929 0.506551
O O9 0.665105 0.259147 0.298367
O O10 0.533143 0.232923 0.309932
O O11 0.000000 0.322857 0.250000
O O12 0.084310 0.394940 0.308215
O O13 0.715378 0.147570 0.790752
O O14 0.777570 0.164964 0.922494
O O15 0.685428 0.267894 0.930604
O O16 0.928254 0.842922 0.363487
#
# Coordination Sequence:
#
# PCOD8136201 Si02
#       8
#     8   8   8   8   8   8   8   4
#     4  11  20  30  45  78 109 132 163 205 259 312
#     4  11  20  31  52  77 110 132 170 213 263 311
#     4  10  21  33  52  78 105 139 171 221 256 309
#     4  11  21  32  46  76 114 139 171 201 257 321
#     4   9  19  33  50  74 104 135 176 208 265 305
#     4  12  20  32  52  75 105 145 166 209 262 316
#     4   9  18  34  49  77 104 132 168 224 260 310
#     4  10  20  32  58  78 100 132 176 222 276 292
#
# _framework density 16.618078000000001
#
# number of rings (size 3 to 8) (size 9 to 14) (size 15 to 20)
#    0.000    1.600    5.333    2.800    2.800    0.000 
#    0.000    0.667    0.000    3.200    1.733    0.000 
#    0.000    0.000    0.000    0.000    0.000    0.000 
#
# Total GULP energy -371976.609100 kJ/mol
# GULP energy per Si atom -12399.220303 kJ/mol
# Density = 1.658025 g / cm^3
# Si number density = 16.618078 Si / 1000 Ang^3
#
#
#
# Elastic Constant Matrix: (Units=GPa)
#
#
# Indices 1 2 3 4 5 6 
#
# 1 79.7875 47.7173 47.4830 0.0000 -5.8090 0.0000
# 2 47.7173 77.6450 43.7627 0.0000 -7.1926 0.0000
# 3 47.4830 43.7627 107.7921 0.0000 -7.0349 0.0000
# 4 0.0000 0.0000 0.0000 27.8879 0.0000 0.0448
# 5 -5.8090 -7.1926 -7.0349 0.0000 28.3576 0.0000
# 6 0.0000 0.0000 0.0000 0.0448 0.0000 27.9886
#
#
#
# Elastic Compliance Matrix: (Units=1/GPa)
#
#
# Indices 1 2 3 4 5 6 
#
# 1 0.022052 -0.010436 -0.005443 0.000000 0.000520 0.000000
# 2 -0.010436 0.021830 -0.004110 0.000000 0.002379 0.000000
# 3 -0.005443 -0.004110 0.013420 0.000000 0.001172 0.000000
# 4 0.000000 0.000000 0.000000 0.035858 0.000000 -0.000057
# 5 0.000520 0.002379 0.001172 0.000000 0.036265 0.000000
# 6 0.000000 0.000000 0.000000 -0.000057 0.000000 0.035729
#
#
# Mechanical properties :
#
#
# Convention : Reuss Voigt Hill
#
# Bulk Modulus (GPa) = 57.72743 60.35006 59.03875
# Shear Modulus (GPa) = 23.70726 25.26426 24.48576
#
# Velocity S-wave (km/s) = 3.78113 3.90332 3.84271
# Velocity P-wave (km/s) = 7.34001 7.53056 7.43589
#
# Compressibility (1/GPa) = 0.01732279
#
# Stress axis : x y z
#
# Youngs Moduli (GPa) = 45.34797 45.80906 74.51562
#
# Poissons Ratio (x) = 0.47807 0.40559
# Poissons Ratio (y) = 0.47325 0.30628
# Poissons Ratio (z) = 0.24683 0.18829
#
# Static dielectric constant tensor:
#      x y z
#    x 3.005680 0.000000 0.010220 
#    y 0.000000 2.937530 0.000000 
#    z 0.010220 0.000000 3.187190 
# 
# 
# High freq. dielectric constant tensor:
#      x y z
#    x 1.627200 0.000000 0.003870 
#    y 0.000000 1.614380 0.000000 
#    z 0.003870 0.000000 1.638210 
# 
# From -- ./inp_files/106683.got.cif
#   From: 2010.06.25/outbox.cif.g09.slc.cpg/sg15_54_cif.got.tgz:106683.got - 2010.06.28 07:06:18.
