data_PCOD8136892
_publ_section_title
;
Structure prediction by ZEFSAII (Michael W. Deem and Ramdas Pophale) SiO2 
 PCOD8136892
Probable space group: C 2/C
;
_chemical_formula_sum "Si O2"
_cell_formula_units_Z 32
_cell_length_a 26.369770
_cell_length_b 7.687062
_cell_length_c 15.415010
_cell_angle_alpha 90.000000
_cell_angle_beta 28.838389
_cell_angle_gamma 90.000000
_cell_volume 1507.177664
_symmetry_space_group_name_H-M "C 2/C"
_symmetry_group_IT_number 15
_symmetry_cell_setting 'monoclinic'
loop_
_space_group_symop_operation_xyz
x,y,z
-x,y,1/2-z
-x,-y,-z
x,-y,1/2+z
1/2+x,1/2+y,z
1/2-x,1/2+y,1/2-z
1/2-x,1/2-y,-z
1/2+x,1/2-y,1/2+z
loop_
_atom_site_type_symbol
_atom_site_label
_atom_site_fract_x
_atom_site_fract_y
_atom_site_fract_z
Si Si1 0.689866 0.515207 0.600011
Si Si2 0.772868 0.240690 0.111212
Si Si3 0.597364 0.840518 0.268464
Si Si4 0.383751 0.011618 0.571972
O O1 0.686883 0.648876 0.685087
O O2 0.663499 0.615690 0.550237
O O3 0.603342 0.366234 0.743171
O O4 0.807177 0.436279 0.422304
O O5 0.709508 0.127789 0.276481
O O6 0.856240 0.361794 0.034302
O O7 0.490010 0.910722 0.387651
O O8 0.599950 0.873020 0.367092
#
# Coordination Sequence:
#
# PCOD8136892 Si02
#       4
#     8   8   8   8
#     4   9  19  37  58  82 114 148 184 236 287 331
#     4  10  20  35  56  82 116 150 186 229 280 338
#     4   9  19  37  59  80 112 151 188 234 284 330
#     4  10  20  35  57  84 114 151 190 231 277 336
#
# _framework density 21.231736999999999
#
# number of rings (size 3 to 8) (size 9 to 14) (size 15 to 20)
#    0.000    2.500    0.000    1.500    0.000    2.000 
#    0.000    7.500    0.000    6.000    0.000    0.000 
#    0.000    0.000    0.000    0.000    0.000    0.000 
#
# Total GULP energy -198462.696284 kJ/mol
# GULP energy per Si atom -12403.918518 kJ/mol
# Density = 2.118341 g / cm^3
# Si number density = 21.231737 Si / 1000 Ang^3
#
#
#
# Elastic Constant Matrix: (Units=GPa)
#
#
# Indices 1 2 3 4 5 6 
#
# 1 88.9335 60.6319 42.6403 0.0001 -12.6099 -0.0001
# 2 60.6319 160.9701 56.0770 -0.0003 -4.7668 -0.0004
# 3 42.6403 56.0770 75.8383 0.0001 -9.7521 -0.0002
# 4 0.0001 -0.0003 0.0001 38.5090 0.0000 -0.8337
# 5 -12.6099 -4.7668 -9.7521 0.0000 20.9709 0.0001
# 6 -0.0001 -0.0004 -0.0002 -0.8337 0.0001 49.1678
#
#
#
# Elastic Compliance Matrix: (Units=1/GPa)
#
#
# Indices 1 2 3 4 5 6 
#
# 1 0.018235 -0.004587 -0.005940 0.000000 0.007160 0.000000
# 2 -0.004587 0.009543 -0.004843 0.000000 -0.002841 0.000000
# 3 -0.005940 -0.004843 0.020746 0.000000 0.004975 0.000000
# 4 0.000000 0.000000 0.000000 0.025977 0.000000 0.000440
# 5 0.007160 -0.002841 0.004975 0.000000 0.053658 0.000000
# 6 0.000000 0.000000 0.000000 0.000440 0.000000 0.020346
#
#
# Mechanical properties :
#
#
# Convention : Reuss Voigt Hill
#
# Bulk Modulus (GPa) = 56.22840 71.60446 63.91643
# Shear Modulus (GPa) = 27.00168 32.82240 29.91204
#
# Velocity S-wave (km/s) = 3.57004 3.93607 3.75752
# Velocity P-wave (km/s) = 6.59805 7.37939 6.99963
#
# Compressibility (1/GPa) = 0.01778461
#
# Stress axis : x y z
#
# Youngs Moduli (GPa) = 54.83975 104.78871 48.20132
#
# Poissons Ratio (x) = 0.48068 0.28632
# Poissons Ratio (y) = 0.25156 0.23342
# Poissons Ratio (z) = 0.32576 0.50745
#
# Static dielectric constant tensor:
#      x y z
#    x 3.576560 0.000000 0.123630 
#    y 0.000000 4.114130 0.000000 
#    z 0.123630 0.000000 3.624020 
# 
# 
# High freq. dielectric constant tensor:
#      x y z
#    x 1.820320 0.000000 0.013230 
#    y 0.000000 1.849160 0.000000 
#    z 0.013230 0.000000 1.811960 
# 
# From -- ./inp_files/125767.got.cif
#   From: 2010.06.25/outbox.cif.g09.slc.cpg/sg15_63_cif.got.tgz:125767.got - 2010.06.28 07:06:18.
