data_PCOD8136522
_publ_section_title
;
Structure prediction by ZEFSAII (Michael W. Deem and Ramdas Pophale) SiO2 
 PCOD8136522
Probable space group: C 2/C
;
_chemical_formula_sum "Si O2"
_cell_formula_units_Z 56
_cell_length_a 21.451419
_cell_length_b 10.733081
_cell_length_c 12.816474
_cell_angle_alpha 90.000000
_cell_angle_beta 88.780390
_cell_angle_gamma 90.000000
_cell_volume 2950.194140
_symmetry_space_group_name_H-M "C 2/C"
_symmetry_group_IT_number 15
_symmetry_cell_setting 'monoclinic'
loop_
_space_group_symop_operation_xyz
x,y,z
-x,y,1/2-z
-x,-y,-z
x,-y,1/2+z
1/2+x,1/2+y,z
1/2-x,1/2+y,1/2-z
1/2-x,1/2-y,-z
1/2+x,1/2-y,1/2+z
loop_
_atom_site_type_symbol
_atom_site_label
_atom_site_fract_x
_atom_site_fract_y
_atom_site_fract_z
Si Si1 0.424238 0.114902 0.558518
Si Si2 0.560265 0.839253 0.025052
Si Si3 0.252924 0.557209 0.445311
Si Si4 0.772577 0.147972 0.782817
Si Si5 0.639141 0.899876 0.217624
Si Si6 0.336478 0.714971 0.581883
Si Si7 0.820814 0.625671 0.405913
O O1 0.488266 0.194514 0.550374
O O2 0.399806 0.113855 0.676389
O O3 0.373858 0.176945 0.482848
O O4 0.436587 0.974852 0.524230
O O5 0.601408 0.830675 0.128270
O O6 0.590269 0.740572 0.942338
O O7 0.273795 0.484798 0.340455
O O8 0.312066 0.626922 0.490476
O O9 0.198466 0.652216 0.416659
O O10 0.226719 0.462346 0.531420
O O11 0.706285 0.167365 0.727104
O O12 0.827307 0.149647 0.694392
O O13 0.782313 0.257860 0.865075
O O14 0.648194 0.046231 0.189278
#
# Coordination Sequence:
#
# PCOD8136522 Si02
#       7
#     8   8   8   8   8   8   8
#     4  10  20  34  55  82 121 150 197 246 287 355
#     4  10  20  36  54  81 115 162 194 234 298 358
#     4  11  21  37  54  88 120 155 191 246 305 355
#     4  12  22  33  60  87 119 156 196 249 302 358
#     4  11  19  34  54  85 115 151 194 240 302 359
#     4  11  21  39  58  80 128 156 192 246 302 365
#     4  11  21  36  55  91 121 149 197 250 303 366
#
# _framework density 18.981801999999998
#
# number of rings (size 3 to 8) (size 9 to 14) (size 15 to 20)
#    0.000    1.143    5.714    3.429    0.000    0.000 
#    0.000    2.143    0.000    0.857    0.000    2.000 
#    0.000    0.000    0.000    0.000    0.000    0.000 
#
# Total GULP energy -347227.499486 kJ/mol
# GULP energy per Si atom -12400.982125 kJ/mol
# Density = 1.893860 g / cm^3
# Si number density = 18.981802 Si / 1000 Ang^3
#
#
#
# Elastic Constant Matrix: (Units=GPa)
#
#
# Indices 1 2 3 4 5 6 
#
# 1 116.6692 40.1269 62.1360 0.0000 -8.9571 0.0000
# 2 40.1269 61.1529 38.4609 0.0000 3.7164 0.0000
# 3 62.1360 38.4609 120.9153 0.0000 -16.7857 0.0000
# 4 0.0000 0.0000 0.0000 29.9253 0.0000 -2.7544
# 5 -8.9571 3.7164 -16.7857 0.0000 29.0090 0.0000
# 6 0.0000 0.0000 0.0000 -2.7544 0.0000 24.8889
#
#
#
# Elastic Compliance Matrix: (Units=1/GPa)
#
#
# Indices 1 2 3 4 5 6 
#
# 1 0.013229 -0.005908 -0.004618 0.000000 0.002170 0.000000
# 2 -0.005908 0.024451 -0.005904 0.000000 -0.008373 0.000000
# 3 -0.004618 -0.005904 0.013514 0.000000 0.007150 0.000000
# 4 0.000000 0.000000 0.000000 0.033760 0.000000 0.003736
# 5 0.002170 -0.008373 0.007150 0.000000 0.040352 0.000000
# 6 0.000000 0.000000 0.000000 0.003736 0.000000 0.040592
#
#
# Mechanical properties :
#
#
# Convention : Reuss Voigt Hill
#
# Bulk Modulus (GPa) = 54.54140 64.46498 59.50319
# Shear Modulus (GPa) = 24.40584 27.29890 25.85237
#
# Velocity S-wave (km/s) = 3.58962 3.79642 3.69447
# Velocity P-wave (km/s) = 6.78059 7.29742 7.04375
#
# Compressibility (1/GPa) = 0.01833470
#
# Stress axis : x y z
#
# Youngs Moduli (GPa) = 75.59031 40.89798 73.99957
#
# Poissons Ratio (x) = 0.24164 0.34171
# Poissons Ratio (y) = 0.44661 0.43686
# Poissons Ratio (z) = 0.34905 0.24145
#
# Static dielectric constant tensor:
#      x y z
#    x 3.724080 0.000000 -0.033790 
#    y 0.000000 3.286080 0.000000 
#    z -0.033790 0.000000 3.740690 
# 
# 
# High freq. dielectric constant tensor:
#      x y z
#    x 1.722840 0.000000 -0.004070 
#    y 0.000000 1.703030 0.000000 
#    z -0.004070 0.000000 1.759570 
# 
# From -- ./inp_files/111063.got.cif
#   From: 2010.06.25/outbox.cif.g09.slc.cpg/sg15_56_cif.got.tgz:111063.got - 2010.06.28 07:06:18.
