data_PCOD8136134
_publ_section_title
;
Structure prediction by ZEFSAII (Michael W. Deem and Ramdas Pophale) SiO2 
 PCOD8136134
Probable space group: C 2/C
;
_chemical_formula_sum "Si O2"
_cell_formula_units_Z 56
_cell_length_a 21.486080
_cell_length_b 24.933782
_cell_length_c 16.429879
_cell_angle_alpha 90.000000
_cell_angle_beta 21.046288
_cell_angle_gamma 90.000000
_cell_volume 3160.980269
_symmetry_space_group_name_H-M "C 2/C"
_symmetry_group_IT_number 15
_symmetry_cell_setting 'monoclinic'
loop_
_space_group_symop_operation_xyz
x,y,z
-x,y,1/2-z
-x,-y,-z
x,-y,1/2+z
1/2+x,1/2+y,z
1/2-x,1/2+y,1/2-z
1/2-x,1/2-y,-z
1/2+x,1/2-y,1/2+z
loop_
_atom_site_type_symbol
_atom_site_label
_atom_site_fract_x
_atom_site_fract_y
_atom_site_fract_z
Si Si1 0.853223 0.603380 0.093802
Si Si2 0.797409 0.622239 0.912840
Si Si3 0.811087 0.000344 0.946682
Si Si4 0.379114 0.292380 0.971841
Si Si5 0.985059 0.547717 0.080376
Si Si6 0.304069 0.507210 0.769069
Si Si7 0.322233 0.314201 0.784618
O O1 0.921703 0.599250 0.103950
O O2 0.789722 0.547649 0.136273
O O3 0.702971 0.648671 0.265553
O O4 0.000347 0.621028 0.851263
O O5 0.717378 0.563108 0.014138
O O6 0.711105 0.652099 0.941820
O O7 0.768879 0.655897 0.028854
O O8 0.806034 0.020579 0.861068
O O9 0.000000 0.015155 0.750000
O O10 0.661449 0.033617 0.174883
O O11 0.500000 0.272669 0.750000
O O12 0.478159 0.305397 0.935102
O O13 0.247947 0.244621 0.149017
O O14 0.000000 0.500000 0.000000
O O15 0.180704 0.553990 0.879342
O O16 0.500000 0.500000 0.500000
#
# Coordination Sequence:
#
# PCOD8136134 Si02
#       7
#     8   8   8   8   8   8   8
#     4  11  21  33  51  69 101 138 182 218 266 306
#     4  11  20  31  49  73 102 144 185 218 259 318
#     4  12  21  34  54  75 103 143 185 216 269 320
#     4  10  20  32  46  73 105 136 189 222 260 314
#     4  10  21  36  48  73 102 133 183 226 260 305
#     4  11  23  36  52  74 102 137 183 228 269 320
#     4  11  20  33  49  73 101 146 183 220 264 314
#
# _framework density 17.716024000000001
#
# number of rings (size 3 to 8) (size 9 to 14) (size 15 to 20)
#    0.000    1.143    4.286    7.286    0.000    0.000 
#    0.000    0.000    0.000    0.000    0.000    0.000 
#    0.000    0.000    0.000   97.714    2.857    0.000 
#
# Total GULP energy -346956.281901 kJ/mol
# GULP energy per Si atom -12391.295782 kJ/mol
# Density = 1.767570 g / cm^3
# Si number density = 17.716024 Si / 1000 Ang^3
#
#
#
# Elastic Constant Matrix: (Units=GPa)
#
#
# Indices 1 2 3 4 5 6 
#
# 1 141.8233 40.3463 47.4727 0.0460 -24.9728 0.1219
# 2 40.3463 49.8023 6.5761 0.1170 -8.8386 0.0167
# 3 47.4727 6.5761 83.8986 0.2187 -11.1614 -0.1824
# 4 0.0460 0.1170 0.2187 17.5378 -0.0958 -10.4654
# 5 -24.9728 -8.8386 -11.1614 -0.0958 37.5198 0.0984
# 6 0.1219 0.0167 -0.1824 -10.4654 0.0984 31.8447
#
#
#
# Elastic Compliance Matrix: (Units=1/GPa)
#
#
# Indices 1 2 3 4 5 6 
#
# 1 0.012038 -0.008232 -0.005579 0.000081 0.004414 -0.000061
# 2 -0.008232 0.026671 0.002785 -0.000206 0.001632 -0.000039
# 3 -0.005579 0.002785 0.015047 -0.000153 0.001418 0.000051
# 4 0.000081 -0.000206 -0.000153 0.070933 0.000080 0.023310
# 5 0.004414 0.001632 0.001418 0.000080 0.030397 -0.000077
# 6 -0.000061 -0.000039 0.000051 0.023310 -0.000077 0.039064
#
#
# Mechanical properties :
#
#
# Convention : Reuss Voigt Hill
#
# Bulk Modulus (GPa) = 31.54303 51.59049 41.56676
# Shear Modulus (GPa) = 22.04882 29.45575 25.75229
#
# Velocity S-wave (km/s) = 3.53167 4.08200 3.81677
# Velocity P-wave (km/s) = 5.87143 7.16945 6.55266
#
# Compressibility (1/GPa) = 0.03170273
#
# Stress axis : x y z
#
# Youngs Moduli (GPa) = 83.07242 37.49408 66.45852
#
# Poissons Ratio (x) = 0.30866 0.37079
# Poissons Ratio (y) = 0.68387 -0.18509
# Poissons Ratio (z) = 0.46348 -0.10443
#
# Static dielectric constant tensor:
#      x y z
#    x 4.185960 -0.000180 -0.547580 
#    y -0.000180 3.249290 0.000280 
#    z -0.547580 0.000280 3.054260 
# 
# 
# High freq. dielectric constant tensor:
#      x y z
#    x 1.694290 -0.000030 -0.040610 
#    y -0.000030 1.655250 0.000040 
#    z -0.040610 0.000040 1.666250 
# 
# From -- ./inp_files/220457.got.cif
#   From: 2010.06.25/outbox.cif.g09.slc.cpg/sg15_111_cif.got.tgz:220457.got - 2010.06.28 07:06:18.
