data_PCOD8136788
_publ_section_title
;
Structure prediction by ZEFSAII (Michael W. Deem and Ramdas Pophale) SiO2 
 PCOD8136788
Probable space group: C 2/C
;
_chemical_formula_sum "Si O2"
_cell_formula_units_Z 52
_cell_length_a 31.792289
_cell_length_b 10.565758
_cell_length_c 13.245448
_cell_angle_alpha 90.000000
_cell_angle_beta 145.540295
_cell_angle_gamma 90.000000
_cell_volume 2517.516909
_symmetry_space_group_name_H-M "C 2/C"
_symmetry_group_IT_number 15
_symmetry_cell_setting 'monoclinic'
loop_
_space_group_symop_operation_xyz
x,y,z
-x,y,1/2-z
-x,-y,-z
x,-y,1/2+z
1/2+x,1/2+y,z
1/2-x,1/2+y,1/2-z
1/2-x,1/2-y,-z
1/2+x,1/2-y,1/2+z
loop_
_atom_site_type_symbol
_atom_site_label
_atom_site_fract_x
_atom_site_fract_y
_atom_site_fract_z
Si Si1 0.663308 0.111809 0.387024
Si Si2 0.406681 0.573380 0.905549
Si Si3 0.713840 0.773015 0.790572
Si Si4 0.500000 0.564540 0.750000
Si Si5 0.635008 0.310210 0.742161
Si Si6 0.711780 0.161430 0.058413
Si Si7 0.022643 0.759326 0.117488
O O1 0.687470 0.119757 0.317339
O O2 0.701367 0.230128 0.521264
O O3 0.574171 0.133526 0.223324
O O4 0.688196 0.977685 0.477565
O O5 0.331430 0.643568 0.785445
O O6 0.389211 0.456175 0.796624
O O7 0.461934 0.665854 0.956016
O O8 0.440759 0.524744 0.077692
O O9 0.701987 0.832614 0.658155
O O10 0.458355 0.653404 0.748726
O O11 0.704036 0.300745 0.801984
O O12 0.565808 0.227015 0.560543
O O13 0.656939 0.260983 0.896158
#
# Coordination Sequence:
#
# PCOD8136788 Si02
#       7
#     8   8   8   4   8   8   8
#     4  10  23  45  60  94 128 165 212 263 316 383
#     4  10  21  40  62  95 121 161 208 271 305 371
#     4  10  23  41  66  88 127 170 207 260 324 371
#     4  10  20  34  66  94 120 162 208 260 324 362
#     4  10  22  41  59 100 124 158 217 263 309 372
#     4  11  24  40  68  92 127 172 209 259 314 394
#     4  10  23  39  63  90 131 162 207 270 316 367
#
# _framework density 20.655273000000001
#
# number of rings (size 3 to 8) (size 9 to 14) (size 15 to 20)
#    0.000    1.846    1.538    1.846    8.615    3.077 
#    0.000    0.000    0.000    0.000    0.000    0.000 
#    0.000    0.000    0.000    0.000    0.000    0.000 
#
# Total GULP energy -322362.758954 kJ/mol
# GULP energy per Si atom -12398.567652 kJ/mol
# Density = 2.060826 g / cm^3
# Si number density = 20.655273 Si / 1000 Ang^3
#
#
#
# Elastic Constant Matrix: (Units=GPa)
#
#
# Indices 1 2 3 4 5 6 
#
# 1 95.3087 44.2761 74.8590 0.0000 -7.6403 0.0000
# 2 44.2761 78.5603 57.1244 0.0000 -3.9295 0.0000
# 3 74.8590 57.1244 136.3713 0.0000 -4.8127 0.0000
# 4 0.0000 0.0000 0.0000 26.1164 0.0000 -4.7401
# 5 -7.6403 -3.9295 -4.8127 0.0000 49.5456 0.0000
# 6 0.0000 0.0000 0.0000 -4.7401 0.0000 22.1959
#
#
#
# Elastic Compliance Matrix: (Units=1/GPa)
#
#
# Indices 1 2 3 4 5 6 
#
# 1 0.019708 -0.004597 -0.008829 0.000000 0.001817 0.000000
# 2 -0.004597 0.019401 -0.005594 0.000000 0.000287 0.000000
# 3 -0.008829 -0.005594 0.014508 0.000000 -0.000396 0.000000
# 4 0.000000 0.000000 0.000000 0.039834 0.000000 0.008507
# 5 0.001817 0.000287 -0.000396 0.000000 0.020448 0.000000
# 6 0.000000 0.000000 0.000000 0.008507 0.000000 0.046870
#
#
# Mechanical properties :
#
#
# Convention : Reuss Voigt Hill
#
# Bulk Modulus (GPa) = 64.18622 73.63992 68.91307
# Shear Modulus (GPa) = 24.50976 28.50364 26.50670
#
# Velocity S-wave (km/s) = 3.44846 3.71882 3.58619
# Velocity P-wave (km/s) = 6.85553 7.35995 7.11221
#
# Compressibility (1/GPa) = 0.01557967
#
# Stress axis : x y z
#
# Youngs Moduli (GPa) = 50.74208 51.54269 68.92546
#
# Poissons Ratio (x) = 0.23692 0.60851
# Poissons Ratio (y) = 0.23324 0.38555
# Poissons Ratio (z) = 0.44798 0.28832
#
# Static dielectric constant tensor:
#      x y z
#    x 3.759760 0.000000 0.137400 
#    y 0.000000 3.499820 0.000000 
#    z 0.137400 0.000000 3.987030 
# 
# 
# High freq. dielectric constant tensor:
#      x y z
#    x 1.804580 0.000000 0.005510 
#    y 0.000000 1.788600 0.000000 
#    z 0.005510 0.000000 1.821140 
# 
# From -- ./inp_files/126482.got.cif
#   From: 2010.06.25/outbox.cif.g09.slc.cpg/sg15_64_cif.got.tgz:126482.got - 2010.06.28 07:06:18.
