data_PCOD8136267
_publ_section_title
;
Structure prediction by ZEFSAII (Michael W. Deem and Ramdas Pophale) SiO2 
 PCOD8136267
Probable space group: C 2/C
;
_chemical_formula_sum "Si O2"
_cell_formula_units_Z 48
_cell_length_a 4.991927
_cell_length_b 31.232224
_cell_length_c 15.907321
_cell_angle_alpha 90.000000
_cell_angle_beta 82.528011
_cell_angle_gamma 90.000000
_cell_volume 2459.034644
_symmetry_space_group_name_H-M "C 2/C"
_symmetry_group_IT_number 15
_symmetry_cell_setting 'monoclinic'
loop_
_space_group_symop_operation_xyz
x,y,z
-x,y,1/2-z
-x,-y,-z
x,-y,1/2+z
1/2+x,1/2+y,z
1/2-x,1/2+y,1/2-z
1/2-x,1/2-y,-z
1/2+x,1/2-y,1/2+z
loop_
_atom_site_type_symbol
_atom_site_label
_atom_site_fract_x
_atom_site_fract_y
_atom_site_fract_z
Si Si1 0.781136 0.425487 0.193760
Si Si2 0.280493 0.979542 0.693552
Si Si3 0.681322 0.881913 0.478594
Si Si4 0.154002 0.816118 0.657604
Si Si5 0.652821 0.404628 0.578473
Si Si6 0.298129 0.207325 0.446315
O O1 0.500000 0.429653 0.250000
O O2 0.877605 0.473100 0.159676
O O3 0.728453 0.394142 0.118077
O O4 0.000000 0.406188 0.250000
O O5 0.500000 0.959885 0.750000
O O6 0.228800 0.949778 0.615829
O O7 0.000000 0.984096 0.750000
O O8 0.373975 0.897172 0.498011
O O9 0.681040 0.830770 0.487120
O O10 0.862568 0.904403 0.544108
O O11 0.172927 0.867768 0.649317
O O12 0.451091 0.794591 0.631200
O O13 0.000000 0.803934 0.750000
O O14 0.979726 0.797339 0.590424
O O15 0.250000 0.250000 0.500000
#
# Coordination Sequence:
#
# PCOD8136267 Si02
#       6
#     8   8   8   8   8   8
#     4  10  21  37  54  74 105 142 181 222 259 307
#     4  10  20  33  51  77 109 143 175 213 262 308
#     4  10  21  36  55  78 103 140 180 217 271 318
#     4  10  20  35  57  83 110 139 174 217 267 322
#     4  10  20  33  54  81 108 138 173 217 266 322
#     4  10  21  38  57  79 111 143 174 221 273 320
#
# _framework density 19.519856000000001
#
# number of rings (size 3 to 8) (size 9 to 14) (size 15 to 20)
#    0.000    2.000    0.000    3.500    0.000    4.000 
#    0.000    2.500    0.000    0.000    0.000    0.000 
#    0.000    0.000    0.000    0.000    0.000    0.000 
#
# Total GULP energy -297486.066067 kJ/mol
# GULP energy per Si atom -12395.252753 kJ/mol
# Density = 1.947543 g / cm^3
# Si number density = 19.519856 Si / 1000 Ang^3
#
#
#
# Elastic Constant Matrix: (Units=GPa)
#
#
# Indices 1 2 3 4 5 6 
#
# 1 91.4574 21.4916 12.6592 0.0000 4.2121 0.0000
# 2 21.4916 96.6474 59.7418 0.0000 -3.0361 0.0000
# 3 12.6592 59.7418 85.1843 0.0000 -6.0335 0.0000
# 4 0.0000 0.0000 0.0000 25.6575 0.0000 0.5307
# 5 4.2121 -3.0361 -6.0335 0.0000 25.7650 0.0000
# 6 0.0000 0.0000 0.0000 0.5307 0.0000 20.7936
#
#
#
# Elastic Compliance Matrix: (Units=1/GPa)
#
#
# Indices 1 2 3 4 5 6 
#
# 1 0.011662 -0.002638 -0.000041 0.000000 -0.002227 0.000000
# 2 -0.002638 0.018881 -0.012875 0.000000 -0.000359 0.000000
# 3 -0.000041 -0.012875 0.021016 0.000000 0.003411 0.000000
# 4 0.000000 0.000000 0.000000 0.038995 0.000000 -0.000995
# 5 -0.002227 -0.000359 0.003411 0.000000 0.039933 0.000000
# 6 0.000000 0.000000 0.000000 -0.000995 0.000000 0.048117
#
#
# Mechanical properties :
#
#
# Convention : Reuss Voigt Hill
#
# Bulk Modulus (GPa) = 48.89515 51.23046 50.06281
# Shear Modulus (GPa) = 23.09153 26.40299 24.74726
#
# Velocity S-wave (km/s) = 3.44317 3.68179 3.56448
# Velocity P-wave (km/s) = 6.39614 6.66156 6.53020
#
# Compressibility (1/GPa) = 0.02045192
#
# Stress axis : x y z
#
# Youngs Moduli (GPa) = 85.74726 52.96390 47.58199
#
# Poissons Ratio (x) = 0.13973 0.00193
# Poissons Ratio (y) = 0.22622 0.61261
# Poissons Ratio (z) = 0.00348 0.68190
#
# Static dielectric constant tensor:
#      x y z
#    x 3.790330 0.000000 -0.017550 
#    y 0.000000 3.727860 0.000000 
#    z -0.017550 0.000000 3.196650 
# 
# 
# High freq. dielectric constant tensor:
#      x y z
#    x 1.784840 0.000000 0.001920 
#    y 0.000000 1.743360 0.000000 
#    z 0.001920 0.000000 1.743220 
# 
# From -- ./inp_files/130056.got.cif
#   From: 2010.06.25/outbox.cif.g09.slc.cpg/sg15_66_cif.got.tgz:130056.got - 2010.06.28 07:06:18.
