data_PCOD8136499
_publ_section_title
;
Structure prediction by ZEFSAII (Michael W. Deem and Ramdas Pophale) SiO2 
 PCOD8136499
Probable space group: C 2/C
;
_chemical_formula_sum "Si O2"
_cell_formula_units_Z 56
_cell_length_a 22.138733
_cell_length_b 24.338007
_cell_length_c 14.289629
_cell_angle_alpha 90.000000
_cell_angle_beta 157.185696
_cell_angle_gamma 90.000000
_cell_volume 2985.422073
_symmetry_space_group_name_H-M "C 2/C"
_symmetry_group_IT_number 15
_symmetry_cell_setting 'monoclinic'
loop_
_space_group_symop_operation_xyz
x,y,z
-x,y,1/2-z
-x,-y,-z
x,-y,1/2+z
1/2+x,1/2+y,z
1/2-x,1/2+y,1/2-z
1/2-x,1/2-y,-z
1/2+x,1/2-y,1/2+z
loop_
_atom_site_type_symbol
_atom_site_label
_atom_site_fract_x
_atom_site_fract_y
_atom_site_fract_z
Si Si1 0.606997 0.539326 0.712864
Si Si2 0.318632 0.791542 0.481631
Si Si3 0.216148 0.884854 0.213400
Si Si4 0.222992 0.327481 0.873667
Si Si5 0.508260 0.080539 0.025254
Si Si6 0.500000 0.405579 0.250000
Si Si7 0.000000 0.078696 0.250000
Si Si8 0.196013 0.484134 0.379919
O O1 0.500000 0.500000 0.500000
O O2 0.647839 0.592162 0.711753
O O3 0.527475 0.557026 0.697362
O O4 0.770172 0.506424 0.967355
O O5 0.279952 0.824499 0.331447
O O6 0.225634 0.734458 0.339438
O O7 0.268597 0.826456 0.501408
O O8 0.500000 0.777545 0.750000
O O9 0.358387 0.923157 0.380504
O O10 0.074305 0.881939 0.936211
O O11 0.066269 0.356739 0.610730
O O12 0.358436 0.364909 0.025705
O O13 0.645071 0.038059 0.247180
O O14 0.438575 0.062333 0.823527
O O15 0.136075 0.038955 0.410022
#
# Coordination Sequence:
#
# PCOD8136499 Si02
#       8
#     8   8   8   8   8   4   4   8
#     4  12  24  36  60  87 120 158 194 239 284 355
#     4  11  21  37  59  92 115 148 199 250 304 350
#     4  11  22  38  59  87 118 156 198 237 293 350
#     4  11  22  36  59  87 121 152 190 251 303 342
#     4  10  21  35  58  83 117 153 189 238 287 352
#     4  12  23  38  56  88 122 156 192 239 296 348
#     4  10  21  38  60  82 120 160 198 233 278 362
#     4  10  20  34  54  87 115 151 193 230 289 341
#
# _framework density 18.757816999999999
#
# number of rings (size 3 to 8) (size 9 to 14) (size 15 to 20)
#    0.000    1.143    6.429    0.429    2.000    0.000 
#    0.000    0.000    0.000    5.143    0.000    0.000 
#    0.000    0.000    0.000    0.000    0.000    0.000 
#
# Total GULP energy -346890.699913 kJ/mol
# GULP energy per Si atom -12388.953568 kJ/mol
# Density = 1.871512 g / cm^3
# Si number density = 18.757817 Si / 1000 Ang^3
#
#
#
# Elastic Constant Matrix: (Units=GPa)
#
#
# Indices 1 2 3 4 5 6 
#
# 1 64.8462 25.3211 30.4096 0.0000 -10.4906 0.0000
# 2 25.3211 103.2123 61.7526 0.0000 -15.4313 0.0000
# 3 30.4096 61.7526 138.2049 0.0000 -20.7926 0.0000
# 4 0.0000 0.0000 0.0000 34.9475 0.0000 5.6475
# 5 -10.4906 -15.4313 -20.7926 0.0000 30.1106 0.0000
# 6 0.0000 0.0000 0.0000 5.6475 0.0000 17.1919
#
#
#
# Elastic Compliance Matrix: (Units=1/GPa)
#
#
# Indices 1 2 3 4 5 6 
#
# 1 0.018049 -0.002526 -0.002334 0.000000 0.003382 0.000000
# 2 -0.002526 0.013827 -0.005232 0.000000 0.002593 0.000000
# 3 -0.002334 -0.005232 0.010670 0.000000 0.003873 0.000000
# 4 0.000000 0.000000 0.000000 0.030218 0.000000 -0.009927
# 5 0.003382 0.002593 0.003873 0.000000 0.038393 0.000000
# 6 0.000000 0.000000 0.000000 -0.009927 0.000000 0.061428
#
#
# Mechanical properties :
#
#
# Convention : Reuss Voigt Hill
#
# Bulk Modulus (GPa) = 44.71980 60.13668 52.42824
# Shear Modulus (GPa) = 24.97228 29.03534 27.00381
#
# Velocity S-wave (km/s) = 3.65266 3.93861 3.79833
# Velocity P-wave (km/s) = 6.45613 7.26723 6.87365
#
# Compressibility (1/GPa) = 0.02236146
#
# Stress axis : x y z
#
# Youngs Moduli (GPa) = 55.40454 72.32486 93.72336
#
# Poissons Ratio (x) = 0.18269 0.21874
# Poissons Ratio (y) = 0.13995 0.49037
# Poissons Ratio (z) = 0.12931 0.37841
#
# Static dielectric constant tensor:
#      x y z
#    x 3.393010 0.000000 -0.046940 
#    y 0.000000 3.487750 0.000000 
#    z -0.046940 0.000000 3.570280 
# 
# 
# High freq. dielectric constant tensor:
#      x y z
#    x 1.703640 0.000000 0.009670 
#    y 0.000000 1.725680 0.000000 
#    z 0.009670 0.000000 1.737780 
# 
# From -- ./inp_files/174798.got.cif
#   From: 2010.06.25/outbox.cif.g09.slc.cpg/sg15_88_cif.got.tgz:174798.got - 2010.06.28 07:06:18.
