data_PCOD8136319
_publ_section_title
;
Structure prediction by ZEFSAII (Michael W. Deem and Ramdas Pophale) SiO2 
 PCOD8136319
Probable space group: C 2/C
;
_chemical_formula_sum "Si O2"
_cell_formula_units_Z 64
_cell_length_a 24.265839
_cell_length_b 19.313038
_cell_length_c 9.235819
_cell_angle_alpha 90.000000
_cell_angle_beta 47.438095
_cell_angle_gamma 90.000000
_cell_volume 3188.025349
_symmetry_space_group_name_H-M "C 2/C"
_symmetry_group_IT_number 15
_symmetry_cell_setting 'monoclinic'
loop_
_space_group_symop_operation_xyz
x,y,z
-x,y,1/2-z
-x,-y,-z
x,-y,1/2+z
1/2+x,1/2+y,z
1/2-x,1/2+y,1/2-z
1/2-x,1/2-y,-z
1/2+x,1/2-y,1/2+z
loop_
_atom_site_type_symbol
_atom_site_label
_atom_site_fract_x
_atom_site_fract_y
_atom_site_fract_z
Si Si1 0.663705 0.549618 0.719075
Si Si2 0.332608 0.201099 0.392885
Si Si3 0.758660 0.382089 0.275987
Si Si4 0.495144 0.428295 0.926669
Si Si5 0.299238 0.338826 0.559608
Si Si6 0.349518 0.614644 0.280522
Si Si7 0.563394 0.079716 0.321974
Si Si8 0.902388 0.458580 0.053599
O O1 0.721403 0.557498 0.747321
O O2 0.693404 0.584571 0.519453
O O3 0.656159 0.468371 0.707410
O O4 0.589239 0.595143 0.888359
O O5 0.285564 0.177966 0.619545
O O6 0.353773 0.281313 0.386830
O O7 0.283715 0.190513 0.333059
O O8 0.408904 0.158629 0.235176
O O9 0.699330 0.354226 0.500304
O O10 0.829109 0.416529 0.233624
O O11 0.500000 0.444543 0.750000
O O12 0.560312 0.373439 0.859697
O O13 0.500000 0.500000 0.000000
O O14 0.317900 0.346528 0.695721
O O15 0.473884 0.080501 0.496665
O O16 0.601034 0.038115 0.387422
O O17 0.590349 0.038764 0.131817
#
# Coordination Sequence:
#
# PCOD8136319 Si02
#       8
#     8   8   8   8   8   8   8   8
#     4  10  21  36  56  82 118 147 192 243 296 345
#     4   9  21  40  57  77 121 157 189 240 296 357
#     4  10  20  33  54  82 111 149 189 245 283 348
#     4  10  21  36  53  82 120 148 176 237 301 341
#     4  10  22  38  58  86 111 158 198 236 297 357
#     4  11  22  33  58  87 114 146 196 245 292 354
#     4   9  18  35  54  78 115 146 181 240 292 346
#     4   9  19  31  52  85 110 142 187 237 294 333
#
# _framework density 20.075123000000001
#
# number of rings (size 3 to 8) (size 9 to 14) (size 15 to 20)
#    0.000    2.250    1.250    0.750   12.250    0.500 
#    0.000    5.000    0.000    0.000    6.500    0.000 
#    0.000    0.000    0.000    0.000    0.000    0.000 
#
# Total GULP energy -396484.404661 kJ/mol
# GULP energy per Si atom -12390.137646 kJ/mol
# Density = 2.002943 g / cm^3
# Si number density = 20.075123 Si / 1000 Ang^3
#
#
#
# Elastic Constant Matrix: (Units=GPa)
#
#
# Indices 1 2 3 4 5 6 
#
# 1 101.2717 21.8208 31.1766 0.0000 5.2688 0.0000
# 2 21.8208 71.5421 2.4246 0.0000 -2.2344 0.0000
# 3 31.1766 2.4246 53.7105 0.0000 -5.3847 0.0000
# 4 0.0000 0.0000 0.0000 18.2348 0.0000 -5.9285
# 5 5.2688 -2.2344 -5.3847 0.0000 35.2278 0.0000
# 6 0.0000 0.0000 0.0000 -5.9285 0.0000 18.3452
#
#
#
# Elastic Compliance Matrix: (Units=1/GPa)
#
#
# Indices 1 2 3 4 5 6 
#
# 1 0.013330 -0.003905 -0.007907 0.000000 -0.003450 0.000000
# 2 -0.003905 0.015166 0.001764 0.000000 0.001816 0.000000
# 3 -0.007907 0.001764 0.023620 0.000000 0.004905 0.000000
# 4 0.000000 0.000000 0.000000 0.061279 0.000000 0.019803
# 5 -0.003450 0.001816 0.004905 0.000000 0.029768 0.000000
# 6 0.000000 0.000000 0.000000 0.019803 0.000000 0.060910
#
#
# Mechanical properties :
#
#
# Convention : Reuss Voigt Hill
#
# Bulk Modulus (GPa) = 31.23081 37.48536 34.35809
# Shear Modulus (GPa) = 21.29106 25.76837 23.52972
#
# Velocity S-wave (km/s) = 3.26017 3.58662 3.42728
# Velocity P-wave (km/s) = 5.45549 5.98873 5.72832
#
# Compressibility (1/GPa) = 0.03201967
#
# Stress axis : x y z
#
# Youngs Moduli (GPa) = 75.02154 65.93755 42.33710
#
# Poissons Ratio (x) = 0.25751 0.33475
# Poissons Ratio (y) = 0.29299 -0.07470
# Poissons Ratio (z) = 0.59318 -0.11633
#
# Static dielectric constant tensor:
#      x y z
#    x 4.009310 0.000000 -0.212610 
#    y 0.000000 3.345400 0.000000 
#    z -0.212610 0.000000 3.646370 
# 
# 
# High freq. dielectric constant tensor:
#      x y z
#    x 1.798140 0.000000 -0.003570 
#    y 0.000000 1.748750 0.000000 
#    z -0.003570 0.000000 1.772520 
# 
# From -- ./inp_files/63390.got.cif
#   From: 2010.06.25/outbox.cif.g09.slc.cpg/sg15_32_cif.got.tgz:63390.got - 2010.06.28 07:06:18.
