data_PCOD8136642
_publ_section_title
;
Structure prediction by ZEFSAII (Michael W. Deem and Ramdas Pophale) SiO2 
 PCOD8136642
Probable space group: C 2/C
;
_chemical_formula_sum "Si O2"
_cell_formula_units_Z 64
_cell_length_a 8.561470
_cell_length_b 19.779937
_cell_length_c 21.475043
_cell_angle_alpha 90.000000
_cell_angle_beta 66.504903
_cell_angle_gamma 90.000000
_cell_volume 3335.194985
_symmetry_space_group_name_H-M "C 2/C"
_symmetry_group_IT_number 15
_symmetry_cell_setting 'monoclinic'
loop_
_space_group_symop_operation_xyz
x,y,z
-x,y,1/2-z
-x,-y,-z
x,-y,1/2+z
1/2+x,1/2+y,z
1/2-x,1/2+y,1/2-z
1/2-x,1/2-y,-z
1/2+x,1/2-y,1/2+z
loop_
_atom_site_type_symbol
_atom_site_label
_atom_site_fract_x
_atom_site_fract_y
_atom_site_fract_z
Si Si1 0.004988 0.587234 0.177563
Si Si2 0.639886 0.587234 0.177563
Si Si3 0.732404 0.805413 0.585831
Si Si4 0.125418 0.655981 0.554876
Si Si5 0.257363 0.981525 0.423128
Si Si6 0.396382 0.481525 0.423128
Si Si7 0.264830 0.155981 0.554876
Si Si8 0.404066 0.694587 0.414169
O O1 0.817111 0.600715 0.182889
O O2 0.000000 0.565995 0.250000
O O3 0.112566 0.656470 0.153891
O O4 0.088777 0.526402 0.126017
O O5 0.500000 0.565995 0.250000
O O6 0.659189 0.526402 0.126017
O O7 0.579653 0.656470 0.153891
O O8 0.696855 0.836872 0.524186
O O9 0.688084 0.725828 0.594053
O O10 0.929644 0.817827 0.570356
O O11 0.192228 0.597295 0.589719
O O12 0.245228 0.663128 0.475814
O O13 0.123809 0.725828 0.594053
O O14 0.939035 0.636120 0.560965
O O15 0.092546 0.996275 0.407454
O O16 0.224602 1.000000 0.500000
O O17 0.371666 0.402705 0.410281
#
# Coordination Sequence:
#
# PCOD8136642 Si02
#       8
#     8   8   8   8   8   8   8   8
#     4  12  25  41  62  86 119 159 201 245 300 362
#     4  12  25  41  62  86 119 159 201 245 300 362
#     4  10  20  36  57  86 120 152 193 242 293 348
#     4  10  20  34  58  89 119 152 194 244 294 345
#     4  11  22  37  60  89 122 157 198 249 298 350
#     4  11  22  37  60  89 122 157 198 249 298 350
#     4  10  20  34  58  89 119 152 194 244 294 345
#     4  10  20  36  57  86 120 152 193 242 293 348
#
# _framework density 19.189283
#
# number of rings (size 3 to 8) (size 9 to 14) (size 15 to 20)
#    0.000    1.250    2.500    4.500    0.000    4.000 
#    0.000    1.250    0.000    6.000    0.000    0.000 
#    0.000    0.000    0.000    0.000    0.000    0.000 
#
# Total GULP energy -396986.460829 kJ/mol
# GULP energy per Si atom -12405.826901 kJ/mol
# Density = 1.914561 g / cm^3
# Si number density = 19.189283 Si / 1000 Ang^3
#
#
#
# Elastic Constant Matrix: (Units=GPa)
#
#
# Indices 1 2 3 4 5 6 
#
# 1 56.0690 35.7093 24.5539 0.0000 1.0802 0.0000
# 2 35.7093 128.4833 39.1099 0.0000 0.1314 0.0000
# 3 24.5539 39.1099 79.7488 0.0000 -0.1655 0.0000
# 4 0.0000 0.0000 0.0000 19.2549 0.0000 -0.5340
# 5 1.0802 0.1314 -0.1655 0.0000 29.6921 0.0000
# 6 0.0000 0.0000 0.0000 -0.5340 0.0000 33.0798
#
#
#
# Elastic Compliance Matrix: (Units=1/GPa)
#
#
# Indices 1 2 3 4 5 6 
#
# 1 0.023071 -0.004994 -0.004656 0.000000 -0.000843 0.000000
# 2 -0.004994 0.010230 -0.003479 0.000000 0.000117 0.000000
# 3 -0.004656 -0.003479 0.015680 0.000000 0.000272 0.000000
# 4 0.000000 0.000000 0.000000 0.051958 0.000000 0.000839
# 5 -0.000843 0.000117 0.000272 0.000000 0.033711 0.000000
# 6 0.000000 0.000000 0.000000 0.000839 0.000000 0.030243
#
#
# Mechanical properties :
#
#
# Convention : Reuss Voigt Hill
#
# Bulk Modulus (GPa) = 44.00918 51.44971 47.72944
# Shear Modulus (GPa) = 25.16039 27.40055 26.28047
#
# Velocity S-wave (km/s) = 3.62493 3.78287 3.70474
# Velocity P-wave (km/s) = 6.36429 6.77864 6.57473
#
# Compressibility (1/GPa) = 0.02272253
#
# Stress axis : x y z
#
# Youngs Moduli (GPa) = 43.34460 97.75185 63.77687
#
# Poissons Ratio (x) = 0.48817 0.29694
# Poissons Ratio (y) = 0.21646 0.22189
# Poissons Ratio (z) = 0.20181 0.34009
#
# Static dielectric constant tensor:
#      x y z
#    x 3.550750 0.000000 -0.009470 
#    y 0.000000 3.733660 0.000000 
#    z -0.009470 0.000000 3.305630 
# 
# 
# High freq. dielectric constant tensor:
#      x y z
#    x 1.761860 0.000000 -0.001900 
#    y 0.000000 1.761780 0.000000 
#    z -0.001900 0.000000 1.712670 
# 
# From -- ./inp_files/233829.got.cif
#   From: 2010.06.25/outbox.cif.g09.slc.cpg/sg15_117_cif.got.tgz:233829.got - 2010.06.28 07:06:18.
