data_PCOD8136293
_publ_section_title
;
Structure prediction by ZEFSAII (Michael W. Deem and Ramdas Pophale) SiO2 
 PCOD8136293
Probable space group: C 2/C
;
_chemical_formula_sum "Si O2"
_cell_formula_units_Z 40
_cell_length_a 18.276480
_cell_length_b 5.201633
_cell_length_c 20.361329
_cell_angle_alpha 90.000000
_cell_angle_beta 81.360162
_cell_angle_gamma 90.000000
_cell_volume 1913.735477
_symmetry_space_group_name_H-M "C 2/C"
_symmetry_group_IT_number 15
_symmetry_cell_setting 'monoclinic'
loop_
_space_group_symop_operation_xyz
x,y,z
-x,y,1/2-z
-x,-y,-z
x,-y,1/2+z
1/2+x,1/2+y,z
1/2-x,1/2+y,1/2-z
1/2-x,1/2-y,-z
1/2+x,1/2-y,1/2+z
loop_
_atom_site_type_symbol
_atom_site_label
_atom_site_fract_x
_atom_site_fract_y
_atom_site_fract_z
Si Si1 0.053181 0.458497 0.053466
Si Si2 0.120108 0.032022 0.585803
Si Si3 0.830791 0.004628 0.189535
Si Si4 0.249738 0.997134 0.662943
Si Si5 0.506211 0.679537 0.323147
O O1 0.110205 0.694853 0.051710
O O2 0.002753 0.422609 0.126055
O O3 0.102393 0.199470 0.036745
O O4 0.000000 0.500000 0.000000
O O5 0.202437 0.995414 0.602536
O O6 0.061017 0.018509 0.653872
O O7 0.805656 0.010750 0.268246
O O8 0.796903 0.244327 0.155348
O O9 0.918766 0.023935 0.174108
O O10 0.804853 0.744901 0.157180
O O11 0.500000 0.786142 0.250000
#
# Coordination Sequence:
#
# PCOD8136293 Si02
#       5
#     8   8   8   8   8
#     4  10  22  38  62  86 114 155 196 240 288 344
#     4  10  21  37  60  82 112 151 198 236 283 343
#     4  10  20  33  52  82 122 149 185 231 302 343
#     4  10  20  34  53  81 118 156 181 234 294 356
#     4  10  22  36  60  92 117 147 195 251 288 338
#
# _framework density 20.901529
#
# number of rings (size 3 to 8) (size 9 to 14) (size 15 to 20)
#    1.200    0.800    2.000    1.800    2.800    2.400 
#    0.000    0.000    0.000    7.200    0.000    0.000 
#    0.000    0.000    0.000    0.000    0.000    0.000 
#
# Total GULP energy -247895.298461 kJ/mol
# GULP energy per Si atom -12394.764923 kJ/mol
# Density = 2.085396 g / cm^3
# Si number density = 20.901529 Si / 1000 Ang^3
#
#
#
# Elastic Constant Matrix: (Units=GPa)
#
#
# Indices 1 2 3 4 5 6 
#
# 1 76.5529 14.2942 20.3157 0.0000 29.4959 0.0000
# 2 14.2942 135.0802 26.9265 0.0000 21.6658 0.0000
# 3 20.3157 26.9265 75.6051 0.0000 34.7769 0.0000
# 4 0.0000 0.0000 0.0000 14.1766 0.0000 11.1793
# 5 29.4959 21.6658 34.7769 0.0000 38.1038 0.0000
# 6 0.0000 0.0000 0.0000 11.1793 0.0000 21.7293
#
#
#
# Elastic Compliance Matrix: (Units=1/GPa)
#
#
# Indices 1 2 3 4 5 6 
#
# 1 0.018972 0.000218 0.002821 0.000000 -0.017385 0.000000
# 2 0.000218 0.008227 -0.001308 0.000000 -0.003652 0.000000
# 3 0.002821 -0.001308 0.023436 0.000000 -0.022829 0.000000
# 4 0.000000 0.000000 0.000000 0.118694 0.000000 -0.061066
# 5 -0.017385 -0.003652 -0.022829 0.000000 0.062614 0.000000
# 6 0.000000 0.000000 0.000000 -0.061066 0.000000 0.077438
#
#
# Mechanical properties :
#
#
# Convention : Reuss Voigt Hill
#
# Bulk Modulus (GPa) = 18.48566 45.59011 32.03789
# Shear Modulus (GPa) = 15.43447 29.84872 22.64160
#
# Velocity S-wave (km/s) = 2.72037 3.78307 3.29485
# Velocity P-wave (km/s) = 4.32788 6.39855 5.46223
#
# Compressibility (1/GPa) = 0.05409599
#
# Stress axis : x y z
#
# Youngs Moduli (GPa) = 52.70964 121.55756 42.67022
#
# Poissons Ratio (x) = -0.02656 -0.12037
# Poissons Ratio (y) = -0.01152 0.05583
# Poissons Ratio (z) = -0.14870 0.15906
#
# Static dielectric constant tensor:
#      x y z
#    x 3.675790 0.000000 0.174810 
#    y 0.000000 3.745960 0.000000 
#    z 0.174810 0.000000 3.444260 
# 
# 
# High freq. dielectric constant tensor:
#      x y z
#    x 1.813880 0.000000 0.025680 
#    y 0.000000 1.821120 0.000000 
#    z 0.025680 0.000000 1.791150 
# 
# From -- ./inp_files/275493.got.cif
#   From: 2010.06.25/outbox.cif.g09.slc.cpg/sg15_138_cif.got.tgz:275493.got - 2010.06.28 07:06:18.
