data_PCOD8136502
_publ_section_title
;
Structure prediction by ZEFSAII (Michael W. Deem and Ramdas Pophale) SiO2 
 PCOD8136502
Probable space group: C 2/C
;
_chemical_formula_sum "Si O2"
_cell_formula_units_Z 44
_cell_length_a 10.183209
_cell_length_b 22.295179
_cell_length_c 12.646772
_cell_angle_alpha 90.000000
_cell_angle_beta 44.290203
_cell_angle_gamma 90.000000
_cell_volume 2004.993345
_symmetry_space_group_name_H-M "C 2/C"
_symmetry_group_IT_number 15
_symmetry_cell_setting 'monoclinic'
loop_
_space_group_symop_operation_xyz
x,y,z
-x,y,1/2-z
-x,-y,-z
x,-y,1/2+z
1/2+x,1/2+y,z
1/2-x,1/2+y,1/2-z
1/2-x,1/2-y,-z
1/2+x,1/2-y,1/2+z
loop_
_atom_site_type_symbol
_atom_site_label
_atom_site_fract_x
_atom_site_fract_y
_atom_site_fract_z
Si Si1 0.180900 0.423485 0.075025
Si Si2 0.567758 0.389168 0.952603
Si Si3 0.121514 0.363389 0.897897
Si Si4 0.000000 0.266231 0.250000
Si Si5 0.596035 0.272040 0.468034
Si Si6 0.142724 0.557823 0.072562
O O1 0.155596 0.488307 0.032920
O O2 0.000000 0.409412 0.250000
O O3 0.375396 0.421927 0.028393
O O4 0.184329 0.374010 0.981636
O O5 0.714007 0.387178 0.771780
O O6 0.650589 0.423006 0.006511
O O7 0.534004 0.321027 0.013480
O O8 0.084197 0.291519 0.914264
O O9 0.929139 0.399849 0.982053
O O10 0.193178 0.302043 0.159753
O O11 0.962619 0.225818 0.374944
O O12 0.000000 0.567872 0.250000
#
# Coordination Sequence:
#
# PCOD8136502 Si02
#       6
#     8   8   8   4   8   8
#     4  11  23  38  66  93 117 154 207 258 291 347
#     4  11  23  40  64  88 123 162 199 246 302 361
#     4  11  23  40  64  88 123 162 199 246 302 361
#     4  10  20  34  54  88 124 146 192 252 282 356
#     4  11  22  35  60  90 120 154 202 240 308 350
#     4   9  22  44  61  86 123 163 201 244 302 359
#
# _framework density 21.945208999999998
#
# number of rings (size 3 to 8) (size 9 to 14) (size 15 to 20)
#    0.000    1.455    1.818    3.818    5.091    0.727 
#    0.000    2.727    0.000    0.000    0.000    0.000 
#    0.000    0.000    0.000    0.000    0.000    0.000 
#
# Total GULP energy -272656.319099 kJ/mol
# GULP energy per Si atom -12393.469050 kJ/mol
# Density = 2.189526 g / cm^3
# Si number density = 21.945209 Si / 1000 Ang^3
#
#
#
# Elastic Constant Matrix: (Units=GPa)
#
#
# Indices 1 2 3 4 5 6 
#
# 1 109.1907 19.1606 21.4638 0.0000 -23.3770 0.0000
# 2 19.1606 66.6047 11.0445 0.0000 -6.4413 0.0000
# 3 21.4638 11.0445 83.1312 0.0000 -16.0863 0.0000
# 4 0.0000 0.0000 0.0000 19.3700 0.0000 -9.8291
# 5 -23.3770 -6.4413 -16.0863 0.0000 25.4427 0.0000
# 6 0.0000 0.0000 0.0000 -9.8291 0.0000 32.5819
#
#
#
# Elastic Compliance Matrix: (Units=1/GPa)
#
#
# Indices 1 2 3 4 5 6 
#
# 1 0.011816 -0.002316 -0.000861 0.000000 0.009726 0.000000
# 2 -0.002316 0.016004 -0.001317 0.000000 0.001091 0.000000
# 3 -0.000861 -0.001317 0.013911 0.000000 0.007671 0.000000
# 4 0.000000 0.000000 0.000000 0.060958 0.000000 0.018389
# 5 0.009726 0.001091 0.007671 0.000000 0.053366 0.000000
# 6 0.000000 0.000000 0.000000 0.018389 0.000000 0.036239
#
#
# Mechanical properties :
#
#
# Convention : Reuss Voigt Hill
#
# Bulk Modulus (GPa) = 30.54104 40.25161 35.39632
# Shear Modulus (GPa) = 23.56299 29.29611 26.42955
#
# Velocity S-wave (km/s) = 3.28032 3.65768 3.47413
# Velocity P-wave (km/s) = 5.31926 6.01829 5.67954
#
# Compressibility (1/GPa) = 0.03274283
#
# Stress axis : x y z
#
# Youngs Moduli (GPa) = 84.62933 62.48391 71.88664
#
# Poissons Ratio (x) = 0.14470 0.06190
# Poissons Ratio (y) = 0.19599 0.09469
# Poissons Ratio (z) = 0.07288 0.08230
#
# Static dielectric constant tensor:
#      x y z
#    x 4.030940 0.000000 -0.343280 
#    y 0.000000 3.992520 0.000000 
#    z -0.343280 0.000000 3.954980 
# 
# 
# High freq. dielectric constant tensor:
#      x y z
#    x 1.849390 0.000000 -0.022920 
#    y 0.000000 1.876270 0.000000 
#    z -0.022920 0.000000 1.853580 
# 
# From -- ./inp_files/81082.got.cif
#   From: 2010.06.25/outbox.cif.g09.slc.cpg/sg15_41_cif.got.tgz:81082.got - 2010.06.28 07:06:18.
