data_PCOD8136960
_publ_section_title
;
Structure prediction by ZEFSAII (Michael W. Deem and Ramdas Pophale) SiO2 
 PCOD8136960
Probable space group: C 2/C
;
_chemical_formula_sum "Si O2"
_cell_formula_units_Z 40
_cell_length_a 18.070470
_cell_length_b 13.840803
_cell_length_c 8.628129
_cell_angle_alpha 90.000000
_cell_angle_beta 116.488733
_cell_angle_gamma 90.000000
_cell_volume 1931.439542
_symmetry_space_group_name_H-M "C 2/C"
_symmetry_group_IT_number 15
_symmetry_cell_setting 'monoclinic'
loop_
_space_group_symop_operation_xyz
x,y,z
-x,y,1/2-z
-x,-y,-z
x,-y,1/2+z
1/2+x,1/2+y,z
1/2-x,1/2+y,1/2-z
1/2-x,1/2-y,-z
1/2+x,1/2-y,1/2+z
loop_
_atom_site_type_symbol
_atom_site_label
_atom_site_fract_x
_atom_site_fract_y
_atom_site_fract_z
Si Si1 0.050982 0.379579 0.935689
Si Si2 0.217369 0.207968 0.721915
Si Si3 0.649453 0.916492 0.308933
Si Si4 0.285872 0.876871 0.569751
Si Si5 0.559419 0.777056 0.437035
O O1 0.129636 0.331545 0.923181
O O2 0.000000 0.435864 0.750000
O O3 0.087430 0.446365 0.108735
O O4 0.993078 0.297957 0.956953
O O5 0.291032 0.172790 0.679871
O O6 0.232708 0.320387 0.787475
O O7 0.130897 0.200991 0.548601
O O8 0.214197 0.142302 0.875233
O O9 0.597223 0.878466 0.406657
O O10 0.704844 0.008833 0.399174
O O11 0.500000 0.730563 0.250000
#
# Coordination Sequence:
#
# PCOD8136960 Si02
#       5
#     8   8   8   8   8
#     4  10  20  35  57  88 127 158 182 242 303 377
#     4  10  21  39  58  86 124 162 199 244 295 360
#     4  10  23  37  59  91 124 159 200 248 293 359
#     4  10  22  37  59  91 120 160 202 240 301 355
#     4  10  21  38  59  93 122 158 191 250 310 358
#
# _framework density 20.709942999999999
#
# number of rings (size 3 to 8) (size 9 to 14) (size 15 to 20)
#    0.000    2.000    2.000    0.600    5.600    4.000 
#    0.000    0.000    0.000    1.200    0.000    0.000 
#    0.000    0.000    0.000    0.000    0.000    0.000 
#
# Total GULP energy -247770.645691 kJ/mol
# GULP energy per Si atom -12388.532285 kJ/mol
# Density = 2.066281 g / cm^3
# Si number density = 20.709943 Si / 1000 Ang^3
#
#
#
# Elastic Constant Matrix: (Units=GPa)
#
#
# Indices 1 2 3 4 5 6 
#
# 1 96.7538 43.9071 38.0688 0.0000 -10.2410 0.0000
# 2 43.9071 71.7181 42.9325 0.0000 10.9311 0.0000
# 3 38.0688 42.9325 156.7909 0.0000 33.6601 0.0000
# 4 0.0000 0.0000 0.0000 30.1348 0.0000 -5.5377
# 5 -10.2410 10.9311 33.6601 0.0000 32.7751 0.0000
# 6 0.0000 0.0000 0.0000 -5.5377 0.0000 -2.7500
#
#
#
# Elastic Compliance Matrix: (Units=1/GPa)
#
#
# Indices 1 2 3 4 5 6 
#
# 1 0.018485 -0.010723 -0.004566 0.000000 0.014042 0.000000
# 2 -0.010723 0.022930 -0.001686 0.000000 -0.009267 0.000000
# 3 -0.004566 -0.001686 0.010434 0.000000 -0.011581 0.000000
# 4 0.000000 0.000000 0.000000 0.024221 0.000000 -0.048774
# 5 0.014042 -0.009267 -0.011581 0.000000 0.049883 0.000000
# 6 0.000000 0.000000 0.000000 -0.048774 0.000000 -0.265417
#
#
# Mechanical properties :
#
#
# Convention : Reuss Voigt Hill
#
# Bulk Modulus (GPa) = 55.87059 63.89772 59.88416
# Shear Modulus (GPa) = -50.22713 25.38895 -12.41909
#
# Velocity S-wave (km/s) = -4.93004 3.50513 -2.45147
# Velocity P-wave (km/s) = 2.31751 6.87763 4.57881
#
# Compressibility (1/GPa) = 0.01789850
#
# Stress axis : x y z
#
# Youngs Moduli (GPa) = 54.09869 43.61092 95.83744
#
# Poissons Ratio (x) = 0.46766 0.43763
# Poissons Ratio (y) = 0.58012 0.16154
# Poissons Ratio (z) = 0.24703 0.07351
#
# Static dielectric constant tensor:
#      x y z
#    x 3.879920 0.000000 0.043910 
#    y 0.000000 3.148850 0.000000 
#    z 0.043910 0.000000 4.348970 
# 
# 
# High freq. dielectric constant tensor:
#      x y z
#    x 1.806540 0.000000 -0.006920 
#    y 0.000000 1.745650 0.000000 
#    z -0.006920 0.000000 1.845200 
# 
# From -- ./inp_files/55044.got.cif
#   From: 2010.06.25/outbox.cif.g09.slc.cpg/sg15_28_cif.got.tgz:55044.got - 2010.06.28 07:06:18.
