data_PCOD8136188
_publ_section_title
;
Structure prediction by ZEFSAII (Michael W. Deem and Ramdas Pophale) SiO2 
 PCOD8136188
Probable space group: C 2/C
;
_chemical_formula_sum "Si O2"
_cell_formula_units_Z 60
_cell_length_a 26.601329
_cell_length_b 14.352081
_cell_length_c 11.985135
_cell_angle_alpha 90.000000
_cell_angle_beta 44.119027
_cell_angle_gamma 90.000000
_cell_volume 3185.405608
_symmetry_space_group_name_H-M "C 2/C"
_symmetry_group_IT_number 15
_symmetry_cell_setting 'monoclinic'
loop_
_space_group_symop_operation_xyz
x,y,z
-x,y,1/2-z
-x,-y,-z
x,-y,1/2+z
1/2+x,1/2+y,z
1/2-x,1/2+y,1/2-z
1/2-x,1/2-y,-z
1/2+x,1/2-y,1/2+z
loop_
_atom_site_type_symbol
_atom_site_label
_atom_site_fract_x
_atom_site_fract_y
_atom_site_fract_z
Si Si1 0.455132 0.592800 0.595899
Si Si2 0.572799 0.278991 0.000880
Si Si3 0.417018 0.259650 0.987747
Si Si4 0.000000 0.379310 0.750000
Si Si5 0.928576 0.503393 0.188509
Si Si6 0.573168 0.796265 0.271781
Si Si7 0.825534 0.338903 0.799194
Si Si8 0.658249 0.332010 0.073413
O O1 0.500000 0.500000 0.500000
O O2 0.503181 0.656681 0.599560
O O3 0.434283 0.637072 0.508714
O O4 0.382342 0.587830 0.787804
O O5 0.545029 0.180543 0.090077
O O6 0.630108 0.328149 0.990927
O O7 0.605672 0.261389 0.824870
O O8 0.404302 0.260406 0.875202
O O9 0.485677 0.196408 0.914143
O O10 0.344607 0.216933 0.155871
O O11 0.056831 0.445722 0.718999
O O12 0.897621 0.401388 0.268213
O O13 0.865068 0.561790 0.231220
O O14 0.000000 0.500000 0.000000
O O15 0.852288 0.271570 0.857437
O O16 0.741321 0.360576 0.939678
#
# Coordination Sequence:
#
# PCOD8136188 Si02
#       8
#     8   8   8   4   8   8   8   8
#     4  10  20  37  64  87 107 145 210 257 282 337
#     4  11  19  37  57  85 114 148 203 242 290 351
#     4   9  18  37  54  87 118 150 185 234 312 351
#     4  12  18  32  56  90 118 144 198 246 276 340
#     4  12  20  30  55  93 120 146 196 237 285 349
#     4  10  20  32  55  86 123 152 183 240 297 354
#     4  10  20  36  60  85 118 158 191 242 293 360
#     4  10  20  39  61  82 116 155 199 242 302 341
#
# _framework density 18.835905
#
# number of rings (size 3 to 8) (size 9 to 14) (size 15 to 20)
#    0.000    1.600    5.333    1.600    0.000    0.000 
#    9.600    2.000    5.867    0.000    0.000    0.000 
#    0.000    0.000    0.000    0.000    0.000    0.000 
#
# Total GULP energy -371847.440898 kJ/mol
# GULP energy per Si atom -12394.914697 kJ/mol
# Density = 1.879303 g / cm^3
# Si number density = 18.835905 Si / 1000 Ang^3
#
#
#
# Elastic Constant Matrix: (Units=GPa)
#
#
# Indices 1 2 3 4 5 6 
#
# 1 87.4132 33.0873 66.9725 0.0000 16.4737 0.0000
# 2 33.0873 85.3451 57.7706 0.0000 -0.1455 0.0000
# 3 66.9725 57.7706 125.1245 0.0000 7.2898 0.0000
# 4 0.0000 0.0000 0.0000 27.6981 0.0000 1.2198
# 5 16.4737 -0.1455 7.2898 0.0000 38.0256 0.0000
# 6 0.0000 0.0000 0.0000 1.2198 0.0000 23.2870
#
#
#
# Elastic Compliance Matrix: (Units=1/GPa)
#
#
# Indices 1 2 3 4 5 6 
#
# 1 0.021199 -0.001213 -0.010367 0.000000 -0.007201 0.000000
# 2 -0.001213 0.017209 -0.007413 0.000000 0.002013 0.000000
# 3 -0.010367 -0.007413 0.016892 0.000000 0.001224 0.000000
# 4 0.000000 0.000000 0.000000 0.036187 0.000000 -0.001896
# 5 -0.007201 0.002013 0.001224 0.000000 0.029191 0.000000
# 6 0.000000 0.000000 0.000000 -0.001896 0.000000 0.043042
#
#
# Mechanical properties :
#
#
# Convention : Reuss Voigt Hill
#
# Bulk Modulus (GPa) = 57.75960 68.17151 62.96556
# Shear Modulus (GPa) = 24.09887 27.13897 25.61892
#
# Velocity S-wave (km/s) = 3.58077 3.79992 3.69197
# Velocity P-wave (km/s) = 6.91571 7.45140 7.18855
#
# Compressibility (1/GPa) = 0.01731314
#
# Stress axis : x y z
#
# Youngs Moduli (GPa) = 47.17175 58.10869 59.19847
#
# Poissons Ratio (x) = 0.07051 0.61371
# Poissons Ratio (y) = 0.05724 0.43886
# Poissons Ratio (z) = 0.48903 0.43078
#
# Static dielectric constant tensor:
#      x y z
#    x 3.335010 0.000000 0.191190 
#    y 0.000000 3.425940 0.000000 
#    z 0.191190 0.000000 3.478660 
# 
# 
# High freq. dielectric constant tensor:
#      x y z
#    x 1.716430 0.000000 0.022070 
#    y 0.000000 1.713870 0.000000 
#    z 0.022070 0.000000 1.725300 
# 
# From -- ./inp_files/123146.got.cif
#   From: 2010.06.25/outbox.cif.g09.slc.cpg/sg15_62_cif.got.tgz:123146.got - 2010.06.28 07:06:18.
