data_PCOD8136291
_publ_section_title
;
Structure prediction by ZEFSAII (Michael W. Deem and Ramdas Pophale) SiO2 
 PCOD8136291
Probable space group: C 2/C
;
_chemical_formula_sum "Si O2"
_cell_formula_units_Z 56
_cell_length_a 22.316923
_cell_length_b 20.772619
_cell_length_c 11.397163
_cell_angle_alpha 90.000000
_cell_angle_beta 32.007866
_cell_angle_gamma 90.000000
_cell_volume 2800.447533
_symmetry_space_group_name_H-M "C 2/C"
_symmetry_group_IT_number 15
_symmetry_cell_setting 'monoclinic'
loop_
_space_group_symop_operation_xyz
x,y,z
-x,y,1/2-z
-x,-y,-z
x,-y,1/2+z
1/2+x,1/2+y,z
1/2-x,1/2+y,1/2-z
1/2-x,1/2-y,-z
1/2+x,1/2-y,1/2+z
loop_
_atom_site_type_symbol
_atom_site_label
_atom_site_fract_x
_atom_site_fract_y
_atom_site_fract_z
Si Si1 0.178005 0.435772 0.989242
Si Si2 0.465456 0.900083 0.486685
Si Si3 0.888056 0.431412 0.860104
Si Si4 0.302156 0.732790 0.604477
Si Si5 0.125705 0.289405 0.587996
Si Si6 0.968527 0.747478 0.026072
Si Si7 0.689718 0.328954 0.637320
O O1 0.294072 0.401783 0.842023
O O2 0.137682 0.402669 0.935231
O O3 0.198695 0.513059 0.949717
O O4 0.078169 0.431256 0.249962
O O5 0.423596 0.941145 0.666368
O O6 0.499748 0.827701 0.468569
O O7 0.826721 0.361968 0.973670
O O8 0.000000 0.437272 0.750000
O O9 0.417261 0.731367 0.486572
O O10 0.298160 0.670227 0.525405
O O11 0.296893 0.791129 0.518445
O O12 0.200460 0.743485 0.864342
O O13 0.121902 0.247060 0.715273
O O14 0.000000 0.294558 0.750000
O O15 0.074440 0.794692 0.872363
#
# Coordination Sequence:
#
# PCOD8136291 Si02
#       7
#     8   8   8   8   8   8   8
#     4  11  21  33  52  79 115 151 180 226 287 342
#     4  10  20  33  52  80 112 148 181 228 287 345
#     4  10  21  33  54  81 112 147 190 232 288 343
#     4  11  21  36  56  83 113 151 188 236 289 337
#     4  10  21  36  56  83 116 150 187 238 285 344
#     4  11  21  38  56  81 118 151 190 231 286 346
#     4  11  23  33  55  84 116 153 188 231 287 349
#
# _framework density 19.996804999999998
#
# number of rings (size 3 to 8) (size 9 to 14) (size 15 to 20)
#    0.000    1.429    4.286    3.000    6.000    0.000 
#    0.000    0.000    0.000    0.857    0.000    0.000 
#    0.000    0.000    0.000    0.571    0.000    0.000 
#
# Total GULP energy -346983.935974 kJ/mol
# GULP energy per Si atom -12392.283428 kJ/mol
# Density = 1.995129 g / cm^3
# Si number density = 19.996805 Si / 1000 Ang^3
#
#
#
# Elastic Constant Matrix: (Units=GPa)
#
#
# Indices 1 2 3 4 5 6 
#
# 1 112.8117 41.2806 24.7257 0.0000 14.3927 0.0000
# 2 41.2806 74.9833 14.0182 0.0000 -5.1635 0.0000
# 3 24.7257 14.0182 54.9997 -0.0001 17.1153 0.0001
# 4 0.0000 0.0000 -0.0001 5.9597 0.0000 18.3556
# 5 14.3927 -5.1635 17.1153 0.0000 34.1399 -0.0001
# 6 0.0000 0.0000 0.0001 18.3556 -0.0001 -15.6512
#
#
#
# Elastic Compliance Matrix: (Units=1/GPa)
#
#
# Indices 1 2 3 4 5 6 
#
# 1 0.012520 -0.006822 -0.002282 0.000000 -0.005166 0.000000
# 2 -0.006822 0.018366 -0.003998 0.000000 0.007658 0.000000
# 3 -0.002282 -0.003998 0.023834 0.000000 -0.011591 0.000000
# 4 0.000000 0.000000 0.000000 0.036381 0.000000 0.042667
# 5 -0.005166 0.007658 -0.011591 0.000000 0.038438 0.000000
# 6 0.000000 0.000000 0.000000 0.042667 0.000000 -0.013853
#
#
# Mechanical properties :
#
#
# Convention : Reuss Voigt Hill
#
# Bulk Modulus (GPa) = 35.06630 44.76043 39.91336
# Shear Modulus (GPa) = 33.02637 15.74102 24.38370
#
# Velocity S-wave (km/s) = 4.06838 2.80871 3.49575
# Velocity P-wave (km/s) = 6.29626 5.74028 6.02469
#
# Compressibility (1/GPa) = 0.02851741
#
# Stress axis : x y z
#
# Youngs Moduli (GPa) = 79.87375 54.44715 41.95721
#
# Poissons Ratio (x) = 0.37141 0.09576
# Poissons Ratio (y) = 0.54486 0.16772
# Poissons Ratio (z) = 0.18229 0.21765
#
# Static dielectric constant tensor:
#      x y z
#    x 3.987470 0.000000 0.338920 
#    y 0.000000 3.698170 0.000000 
#    z 0.338920 0.000000 3.369790 
# 
# 
# High freq. dielectric constant tensor:
#      x y z
#    x 1.796150 0.000000 0.030500 
#    y 0.000000 1.755670 0.000000 
#    z 0.030500 0.000000 1.747460 
# 
# From -- ./inp_files/119809.got.cif
#   From: 2010.06.25/outbox.cif.g09.slc.cpg/sg15_60_cif.got.tgz:119809.got - 2010.06.28 07:06:18.
