data_PCOD8136873
_publ_section_title
;
Structure prediction by ZEFSAII (Michael W. Deem and Ramdas Pophale) SiO2 
 PCOD8136873
Probable space group: C 2/C
;
_chemical_formula_sum "Si O2"
_cell_formula_units_Z 64
_cell_length_a 30.224078
_cell_length_b 11.751871
_cell_length_c 15.497106
_cell_angle_alpha 90.000000
_cell_angle_beta 143.379583
_cell_angle_gamma 90.000000
_cell_volume 3283.439937
_symmetry_space_group_name_H-M "C 2/C"
_symmetry_group_IT_number 15
_symmetry_cell_setting 'monoclinic'
loop_
_space_group_symop_operation_xyz
x,y,z
-x,y,1/2-z
-x,-y,-z
x,-y,1/2+z
1/2+x,1/2+y,z
1/2-x,1/2+y,1/2-z
1/2-x,1/2-y,-z
1/2+x,1/2-y,1/2+z
loop_
_atom_site_type_symbol
_atom_site_label
_atom_site_fract_x
_atom_site_fract_y
_atom_site_fract_z
Si Si1 0.398271 0.001000 0.417065
Si Si2 0.162374 0.733263 0.120696
Si Si3 0.351938 0.209179 0.587884
Si Si4 0.675718 0.357879 0.307658
Si Si5 0.186084 0.121812 0.324973
Si Si6 0.437520 0.002229 0.282804
Si Si7 0.847989 0.293941 0.573119
Si Si8 0.167086 0.263605 0.138194
O O1 0.345510 0.099992 0.370089
O O2 0.473998 0.993056 0.590238
O O3 0.414405 0.030554 0.343700
O O4 0.354477 0.884328 0.355550
O O5 0.133842 0.811010 0.155843
O O6 0.246094 0.767497 0.237653
O O7 0.122139 0.755872 0.965769
O O8 0.274411 0.140594 0.458788
O O9 0.346509 0.315930 0.642535
O O10 0.413669 0.124081 0.719702
O O11 0.664071 0.491313 0.298734
O O12 0.762596 0.330971 0.441588
O O13 0.636720 0.298677 0.328917
O O14 0.145909 0.167708 0.175087
O O15 0.399642 0.095853 0.163089
O O16 0.869108 0.240614 0.512469
#
# Coordination Sequence:
#
# PCOD8136873 Si02
#       8
#     8   8   8   8   8   8   8   8
#     4  11  23  39  61  94 121 160 196 251 300 351
#     4  10  22  35  56  86 120 149 197 248 294 346
#     4  10  20  35  56  86 114 159 196 245 296 350
#     4  10  20  35  55  84 123 154 197 242 296 353
#     4  10  20  35  55  84 123 154 197 242 296 353
#     4  11  21  39  65  86 127 156 202 244 299 362
#     4  10  20  35  56  86 114 159 196 245 296 350
#     4  10  22  35  56  86 120 149 197 248 294 346
#
# _framework density 19.491754
#
# number of rings (size 3 to 8) (size 9 to 14) (size 15 to 20)
#    0.000    1.750    3.750    0.750    5.250    3.000 
#    0.000    0.000    0.000    3.000    0.000    3.500 
#    0.000    0.000    0.000    0.000    0.000    0.000 
#
# Total GULP energy -396736.326424 kJ/mol
# GULP energy per Si atom -12398.010201 kJ/mol
# Density = 1.944739 g / cm^3
# Si number density = 19.491754 Si / 1000 Ang^3
#
#
#
# Elastic Constant Matrix: (Units=GPa)
#
#
# Indices 1 2 3 4 5 6 
#
# 1 54.4843 37.0484 24.9326 0.0000 -19.4224 0.0000
# 2 37.0484 128.3114 24.1504 0.0000 -11.7871 0.0000
# 3 24.9326 24.1504 64.1600 0.0000 -16.3829 0.0000
# 4 0.0000 0.0000 0.0000 24.0525 0.0000 -5.0004
# 5 -19.4224 -11.7871 -16.3829 0.0000 41.8756 0.0000
# 6 0.0000 0.0000 0.0000 -5.0004 0.0000 22.9758
#
#
#
# Elastic Compliance Matrix: (Units=1/GPa)
#
#
# Indices 1 2 3 4 5 6 
#
# 1 0.028830 -0.006263 -0.006534 0.000000 0.009052 0.000000
# 2 -0.006263 0.009808 -0.001438 0.000000 -0.000707 0.000000
# 3 -0.006534 -0.001438 0.019764 0.000000 0.004297 0.000000
# 4 0.000000 0.000000 0.000000 0.043546 0.000000 0.009477
# 5 0.009052 -0.000707 0.004297 0.000000 0.029561 0.000000
# 6 0.000000 0.000000 0.000000 0.009477 0.000000 0.045587
#
#
# Mechanical properties :
#
#
# Convention : Reuss Voigt Hill
#
# Bulk Modulus (GPa) = 33.41144 46.57985 39.99564
# Shear Modulus (GPa) = 23.19729 28.50241 25.84985
#
# Velocity S-wave (km/s) = 3.45354 3.82813 3.64565
# Velocity P-wave (km/s) = 5.75162 6.59458 6.18747
#
# Compressibility (1/GPa) = 0.02992987
#
# Stress axis : x y z
#
# Youngs Moduli (GPa) = 34.68650 101.96124 50.59743
#
# Poissons Ratio (x) = 0.63856 0.33062
# Poissons Ratio (y) = 0.21723 0.07278
# Poissons Ratio (z) = 0.22666 0.14667
#
# Static dielectric constant tensor:
#      x y z
#    x 3.748710 0.000000 -0.556410 
#    y 0.000000 3.420630 0.000000 
#    z -0.556410 0.000000 3.808790 
# 
# 
# High freq. dielectric constant tensor:
#      x y z
#    x 1.757720 0.000000 -0.036870 
#    y 0.000000 1.749740 0.000000 
#    z -0.036870 0.000000 1.748530 
# 
# From -- ./inp_files/181780.got.cif
#   From: 2010.06.25/outbox.cif.g09.slc.cpg/sg15_91_cif.got.tgz:181780.got - 2010.06.28 07:06:18.
