data_PCOD8136777
_publ_section_title
;
Structure prediction by ZEFSAII (Michael W. Deem and Ramdas Pophale) SiO2 
 PCOD8136777
Probable space group: C 2/C
;
_chemical_formula_sum "Si O2"
_cell_formula_units_Z 64
_cell_length_a 17.119471
_cell_length_b 5.901450
_cell_length_c 32.593517
_cell_angle_alpha 90.000000
_cell_angle_beta 98.937809
_cell_angle_gamma 90.000000
_cell_volume 3252.929307
_symmetry_space_group_name_H-M "C 2/C"
_symmetry_group_IT_number 15
_symmetry_cell_setting 'monoclinic'
loop_
_space_group_symop_operation_xyz
x,y,z
-x,y,1/2-z
-x,-y,-z
x,-y,1/2+z
1/2+x,1/2+y,z
1/2-x,1/2+y,1/2-z
1/2-x,1/2-y,-z
1/2+x,1/2-y,1/2+z
loop_
_atom_site_type_symbol
_atom_site_label
_atom_site_fract_x
_atom_site_fract_y
_atom_site_fract_z
Si Si1 0.700980 0.677808 0.837750
Si Si2 0.015145 0.430109 0.103059
Si Si3 0.402795 0.622419 0.452857
Si Si4 0.877190 0.120619 0.105881
Si Si5 0.948945 0.187861 0.545176
Si Si6 0.348435 0.862253 0.839739
Si Si7 0.262086 0.435850 0.396823
Si Si8 0.207393 0.255128 0.749351
O O1 0.637969 0.507797 0.852557
O O2 0.787828 0.571351 0.838050
O O3 0.707354 0.882765 0.869793
O O4 0.666430 0.757206 0.790846
O O5 0.079951 0.308723 0.080142
O O6 0.062386 0.568701 0.141359
O O7 0.956193 0.262272 0.121690
O O8 0.959050 0.577058 0.069246
O O9 0.407068 0.733775 0.498225
O O10 0.464564 0.417365 0.454661
O O11 0.313747 0.536292 0.438190
O O12 0.798065 0.257925 0.088135
O O13 0.891432 0.967578 0.067298
O O14 0.321989 0.665965 0.868383
O O15 0.352990 0.765485 0.793761
O O16 0.246349 0.000166 0.748667
#
# Coordination Sequence:
#
# PCOD8136777 Si02
#       8
#     8   8   8   8   8   8   8   8
#     4  10  20  38  60  91 124 155 203 254 312 372
#     4  11  20  39  60  89 121 160 205 251 311 376
#     4  10  21  35  63  88 114 158 209 260 301 363
#     4  10  24  37  59  86 123 168 192 250 321 373
#     4  10  21  39  55  87 124 158 202 254 313 367
#     4  10  20  34  64  95 114 157 204 259 306 369
#     4  11  19  38  60  88 117 154 205 253 305 368
#     4  10  20  36  63 103 128 155 210 272 319 370
#
# _framework density 19.674575000000001
#
# number of rings (size 3 to 8) (size 9 to 14) (size 15 to 20)
#    0.000    1.750    3.750    1.125    0.000    0.500 
#    0.000    2.500    0.000    4.500    0.000    0.000 
#    0.000    0.000    0.000    0.000    0.000    0.000 
#
# Total GULP energy -396611.063483 kJ/mol
# GULP energy per Si atom -12394.095734 kJ/mol
# Density = 1.962979 g / cm^3
# Si number density = 19.674575 Si / 1000 Ang^3
#
#
#
# Elastic Constant Matrix: (Units=GPa)
#
#
# Indices 1 2 3 4 5 6 
#
# 1 82.7961 27.4945 51.0387 0.0000 -2.5568 0.0000
# 2 27.4945 86.8616 21.4264 0.0000 -0.1292 0.0000
# 3 51.0387 21.4264 112.3499 0.0000 11.4133 0.0000
# 4 0.0000 0.0000 0.0000 19.0524 0.0000 4.7925
# 5 -2.5568 -0.1292 11.4133 0.0000 24.9050 0.0000
# 6 0.0000 0.0000 0.0000 4.7925 0.0000 16.8484
#
#
#
# Elastic Compliance Matrix: (Units=1/GPa)
#
#
# Indices 1 2 3 4 5 6 
#
# 1 0.018663 -0.003845 -0.008325 0.000000 0.005711 0.000000
# 2 -0.003845 0.012906 -0.000714 0.000000 0.000000 0.000000
# 3 -0.008325 -0.000714 0.013536 0.000000 -0.007062 0.000000
# 4 0.000000 0.000000 0.000000 0.056532 0.000000 -0.016080
# 5 0.005711 0.000000 -0.007062 0.000000 0.043975 0.000000
# 6 0.000000 0.000000 0.000000 -0.016080 0.000000 0.063927
#
#
# Mechanical properties :
#
#
# Convention : Reuss Voigt Hill
#
# Bulk Modulus (GPa) = 51.71809 53.54742 52.63275
# Shear Modulus (GPa) = 20.68217 24.29771 22.48994
#
# Velocity S-wave (km/s) = 3.24576 3.51804 3.38464
# Velocity P-wave (km/s) = 6.35535 6.61648 6.48723
#
# Compressibility (1/GPa) = 0.01933560
#
# Stress axis : x y z
#
# Youngs Moduli (GPa) = 53.58153 77.48352 73.87506
#
# Poissons Ratio (x) = 0.29796 0.61502
# Poissons Ratio (y) = 0.20604 0.05277
# Poissons Ratio (z) = 0.44608 0.05535
#
# Static dielectric constant tensor:
#      x y z
#    x 3.277800 0.000000 -0.020750 
#    y 0.000000 3.841810 0.000000 
#    z -0.020750 0.000000 3.769630 
# 
# 
# High freq. dielectric constant tensor:
#      x y z
#    x 1.737390 0.000000 0.001140 
#    y 0.000000 1.780230 0.000000 
#    z 0.001140 0.000000 1.769930 
# 
# From -- ./inp_files/315104.got.cif
#   From: 2010.06.25/outbox.cif.g09.slc.cpg/sg15_158_cif.got.tgz:315104.got - 2010.06.28 07:06:18.
