data_PCOD8136867
_publ_section_title
;
Structure prediction by ZEFSAII (Michael W. Deem and Ramdas Pophale) SiO2 
 PCOD8136867
Probable space group: C 2/C
;
_chemical_formula_sum "Si O2"
_cell_formula_units_Z 60
_cell_length_a 12.122159
_cell_length_b 19.135324
_cell_length_c 28.160566
_cell_angle_alpha 90.000000
_cell_angle_beta 150.715322
_cell_angle_gamma 90.000000
_cell_volume 3195.203670
_symmetry_space_group_name_H-M "C 2/C"
_symmetry_group_IT_number 15
_symmetry_cell_setting 'monoclinic'
loop_
_space_group_symop_operation_xyz
x,y,z
-x,y,1/2-z
-x,-y,-z
x,-y,1/2+z
1/2+x,1/2+y,z
1/2-x,1/2+y,1/2-z
1/2-x,1/2-y,-z
1/2+x,1/2-y,1/2+z
loop_
_atom_site_type_symbol
_atom_site_label
_atom_site_fract_x
_atom_site_fract_y
_atom_site_fract_z
Si Si1 0.721403 0.310534 0.191705
Si Si2 0.000000 0.426468 0.250000
Si Si3 0.707044 0.885060 0.760461
Si Si4 0.508769 0.596713 0.462691
Si Si5 0.955074 0.764408 0.473740
Si Si6 0.311998 0.015533 0.100989
Si Si7 0.034324 0.820499 0.814241
Si Si8 0.035217 0.237996 0.817453
O O1 0.849495 0.382693 0.230641
O O2 0.566704 0.290760 0.088590
O O3 0.914422 0.253872 0.270363
O O4 0.579661 0.314548 0.187585
O O5 0.830397 0.473749 0.157023
O O6 0.808600 0.905170 0.849163
O O7 0.927072 0.874362 0.810787
O O8 0.557963 0.815873 0.709605
O O9 0.549999 0.946311 0.678396
O O10 0.600761 0.674431 0.508655
O O11 0.384775 0.572479 0.464893
O O12 0.716436 0.543056 0.527540
O O13 0.793859 0.697633 0.423572
O O14 0.202473 0.735545 0.573789
O O15 0.000000 0.855850 0.750000
O O16 0.000000 0.212619 0.750000
#
# Coordination Sequence:
#
# PCOD8136867 Si02
#       8
#     8   4   8   8   8   8   8   8
#     4  10  20  35  55  83 114 151 187 236 292 340
#     4  12  18  36  56  78 118 142 192 238 278 348
#     4  11  20  37  57  83 116 152 189 234 297 339
#     4  11  20  32  55  85 117 141 186 236 286 345
#     4  11  18  35  53  84 117 145 191 236 284 350
#     4  11  21  33  54  83 113 147 182 238 284 341
#     4   9  20  37  58  81 111 151 192 239 284 346
#     4  11  21  35  55  83 121 153 186 238 289 343
#
# _framework density 18.778146
#
# number of rings (size 3 to 8) (size 9 to 14) (size 15 to 20)
#    0.000    1.333    7.333    0.400    0.000    0.533 
#    2.400    0.000    0.000    1.600    0.000    0.000 
#    0.000    0.000    0.000    0.000    0.000    0.000 
#
# Total GULP energy -371769.004736 kJ/mol
# GULP energy per Si atom -12392.300158 kJ/mol
# Density = 1.873541 g / cm^3
# Si number density = 18.778146 Si / 1000 Ang^3
#
#
#
# Elastic Constant Matrix: (Units=GPa)
#
#
# Indices 1 2 3 4 5 6 
#
# 1 92.6759 31.1152 34.9013 -0.0006 16.7206 0.0000
# 2 31.1152 62.3549 27.1518 -0.0006 12.4084 0.0002
# 3 34.9013 27.1518 123.3982 -0.0019 12.4865 0.0008
# 4 -0.0006 -0.0006 -0.0019 28.9300 -0.0008 4.1484
# 5 16.7206 12.4084 12.4865 -0.0008 17.3639 0.0004
# 6 0.0000 0.0002 0.0008 4.1484 0.0004 22.8574
#
#
#
# Elastic Compliance Matrix: (Units=1/GPa)
#
#
# Indices 1 2 3 4 5 6 
#
# 1 0.014873 -0.004564 -0.002247 0.000000 -0.009445 0.000000
# 2 -0.004564 0.021170 -0.002460 0.000000 -0.008964 0.000000
# 3 -0.002247 -0.002460 0.009581 0.000000 -0.002968 0.000000
# 4 0.000000 0.000000 0.000000 0.035490 0.000002 -0.006441
# 5 -0.009445 -0.008964 -0.002968 0.000002 0.075226 -0.000001
# 6 0.000000 0.000000 0.000000 -0.006441 -0.000001 0.044919
#
#
# Mechanical properties :
#
#
# Convention : Reuss Voigt Hill
#
# Bulk Modulus (GPa) = 36.92461 51.64062 44.28261
# Shear Modulus (GPa) = 21.85064 26.18097 24.01580
#
# Velocity S-wave (km/s) = 3.41489 3.73798 3.58008
# Velocity P-wave (km/s) = 5.93759 6.79633 6.38142
#
# Compressibility (1/GPa) = 0.02708221
#
# Stress axis : x y z
#
# Youngs Moduli (GPa) = 67.23762 47.23737 104.37390
#
# Poissons Ratio (x) = 0.21558 0.23449
# Poissons Ratio (y) = 0.30685 0.25678
# Poissons Ratio (z) = 0.15106 0.11621
#
# Static dielectric constant tensor:
#      x y z
#    x 3.580410 0.000000 -0.018580 
#    y 0.000000 3.345310 0.000000 
#    z -0.018580 0.000000 3.668930 
# 
# 
# High freq. dielectric constant tensor:
#      x y z
#    x 1.692350 0.000000 0.002040 
#    y 0.000000 1.703600 0.000000 
#    z 0.002040 0.000000 1.753230 
# 
# From -- ./inp_files/146724.got.cif
#   From: 2010.06.25/outbox.cif.g09.slc.cpg/sg15_74_cif.got.tgz:146724.got - 2010.06.28 07:06:18.
