data_PCOD8136298
_publ_section_title
;
Structure prediction by ZEFSAII (Michael W. Deem and Ramdas Pophale) SiO2 
 PCOD8136298
Probable space group: C 2/C
;
_chemical_formula_sum "Si O2"
_cell_formula_units_Z 64
_cell_length_a 31.100691
_cell_length_b 13.719088
_cell_length_c 9.599702
_cell_angle_alpha 90.000000
_cell_angle_beta 58.925991
_cell_angle_gamma 90.000000
_cell_volume 3508.173501
_symmetry_space_group_name_H-M "C 2/C"
_symmetry_group_IT_number 15
_symmetry_cell_setting 'monoclinic'
loop_
_space_group_symop_operation_xyz
x,y,z
-x,y,1/2-z
-x,-y,-z
x,-y,1/2+z
1/2+x,1/2+y,z
1/2-x,1/2+y,1/2-z
1/2-x,1/2-y,-z
1/2+x,1/2-y,1/2+z
loop_
_atom_site_type_symbol
_atom_site_label
_atom_site_fract_x
_atom_site_fract_y
_atom_site_fract_z
Si Si1 0.281134 0.440369 0.767554
Si Si2 0.032176 0.374252 0.333349
Si Si3 0.329973 0.068523 0.136730
Si Si4 0.362840 0.222035 0.874141
Si Si5 0.295630 0.784747 0.224584
Si Si6 0.643994 0.100340 0.090327
Si Si7 0.463672 0.903939 0.683043
Si Si8 0.697060 0.600103 0.965775
O O1 0.225875 0.466095 0.805736
O O2 0.295614 0.330839 0.704504
O O3 0.316046 0.519587 0.629536
O O4 0.285033 0.457190 0.925975
O O5 0.078871 0.299882 0.252371
O O6 0.050220 0.484580 0.338333
O O7 0.000000 0.367080 0.250000
O O8 0.992529 0.342543 0.517524
O O9 0.336056 0.067126 0.292283
O O10 0.343953 0.172481 0.048617
O O11 0.365280 0.990561 0.998951
O O12 0.330528 0.183724 0.796291
O O13 0.353064 0.337422 0.914725
O O14 0.239803 0.823353 0.346261
O O15 0.316996 0.824957 0.043496
O O16 0.589129 0.149899 0.198223
O O17 0.500000 0.906622 0.750000
#
# Coordination Sequence:
#
# PCOD8136298 Si02
#       8
#     8   8   8   8   8   8   8   8
#     4  11  22  38  53  80 115 142 188 225 261 325
#     4  10  20  33  53  77 106 139 180 225 268 322
#     4  12  21  33  52  78 113 146 186 221 260 324
#     4  11  20  38  58  77 110 150 182 222 273 332
#     4  11  22  37  55  82 109 151 185 220 270 326
#     4  12  24  32  53  80 110 154 184 218 274 317
#     4  10  21  33  49  77 108 142 179 222 267 320
#     4  11  22  37  57  81 110 150 184 222 275 320
#
# _framework density 18.243113000000001
#
# number of rings (size 3 to 8) (size 9 to 14) (size 15 to 20)
#    0.000    1.000    5.000    3.750    3.500    1.500 
#    0.000    0.000    0.000    0.000    0.000    8.750 
#    0.000    0.000    0.000    0.000    0.000    0.000 
#
# Total GULP energy -396769.611517 kJ/mol
# GULP energy per Si atom -12399.050360 kJ/mol
# Density = 1.820159 g / cm^3
# Si number density = 18.243113 Si / 1000 Ang^3
#
#
#
# Elastic Constant Matrix: (Units=GPa)
#
#
# Indices 1 2 3 4 5 6 
#
# 1 64.1380 25.4292 40.4172 0.0000 -11.7647 0.0000
# 2 25.4292 77.2638 45.4569 0.0000 2.2999 0.0000
# 3 40.4172 45.4569 136.2581 0.0000 3.3742 0.0000
# 4 0.0000 0.0000 0.0000 33.0804 0.0000 -1.5196
# 5 -11.7647 2.2999 3.3742 0.0000 30.1596 0.0000
# 6 0.0000 0.0000 0.0000 -1.5196 0.0000 21.6142
#
#
#
# Elastic Compliance Matrix: (Units=1/GPa)
#
#
# Indices 1 2 3 4 5 6 
#
# 1 0.022606 -0.004533 -0.005435 0.000000 0.009772 0.000000
# 2 -0.004533 0.017024 -0.004271 0.000000 -0.002589 0.000000
# 3 -0.005435 -0.004271 0.010449 0.000000 -0.002964 0.000000
# 4 0.000000 0.000000 0.000000 0.030327 0.000000 0.002132
# 5 0.009772 -0.002589 -0.002964 0.000000 0.037498 0.000000
# 6 0.000000 0.000000 0.000000 0.002132 0.000000 0.046416
#
#
# Mechanical properties :
#
#
# Convention : Reuss Voigt Hill
#
# Bulk Modulus (GPa) = 46.29306 55.58516 50.93911
# Shear Modulus (GPa) = 25.00006 28.06130 26.53068
#
# Velocity S-wave (km/s) = 3.70589 3.92623 3.81765
# Velocity P-wave (km/s) = 6.61379 7.14765 6.88590
#
# Compressibility (1/GPa) = 0.02160151
#
# Stress axis : x y z
#
# Youngs Moduli (GPa) = 44.23564 58.73943 95.70029
#
# Poissons Ratio (x) = 0.26629 0.52014
# Poissons Ratio (y) = 0.20054 0.40870
# Poissons Ratio (z) = 0.24043 0.25086
#
# Static dielectric constant tensor:
#      x y z
#    x 3.249390 0.000000 0.034540 
#    y 0.000000 3.157770 0.000000 
#    z 0.034540 0.000000 3.603770 
# 
# 
# High freq. dielectric constant tensor:
#      x y z
#    x 1.694030 0.000000 0.009210 
#    y 0.000000 1.669840 0.000000 
#    z 0.009210 0.000000 1.725670 
# 
# From -- ./inp_files/69928.got.cif
#   From: 2010.06.25/outbox.cif.g09.slc.cpg/sg15_35_cif.got.tgz:69928.got - 2010.06.28 07:06:18.
