data_PCOD8136382
_publ_section_title
;
Structure prediction by ZEFSAII (Michael W. Deem and Ramdas Pophale) SiO2 
 PCOD8136382
Probable space group: C 2/C
;
_chemical_formula_sum "Si O2"
_cell_formula_units_Z 64
_cell_length_a 32.279333
_cell_length_b 18.260335
_cell_length_c 16.974144
_cell_angle_alpha 90.000000
_cell_angle_beta 18.835191
_cell_angle_gamma 90.000000
_cell_volume 3230.115249
_symmetry_space_group_name_H-M "C 2/C"
_symmetry_group_IT_number 15
_symmetry_cell_setting 'monoclinic'
loop_
_space_group_symop_operation_xyz
x,y,z
-x,y,1/2-z
-x,-y,-z
x,-y,1/2+z
1/2+x,1/2+y,z
1/2-x,1/2+y,1/2-z
1/2-x,1/2-y,-z
1/2+x,1/2-y,1/2+z
loop_
_atom_site_type_symbol
_atom_site_label
_atom_site_fract_x
_atom_site_fract_y
_atom_site_fract_z
Si Si1 0.948592 0.094507 0.038956
Si Si2 0.066515 0.511035 0.216268
Si Si3 0.863762 0.277390 0.471803
Si Si4 0.882773 0.379118 0.119217
Si Si5 0.868993 0.886375 0.003114
Si Si6 0.588027 0.277600 0.013668
Si Si7 0.147442 0.941626 0.306270
Si Si8 0.681689 0.126501 0.585343
O O1 0.967384 0.161800 0.945982
O O2 0.830591 0.102116 0.313350
O O3 0.919984 0.018115 0.044928
O O4 0.082501 0.089010 0.844263
O O5 0.084258 0.429751 0.218086
O O6 0.000000 0.509745 0.250000
O O7 0.990210 0.559816 0.416397
O O8 0.202554 0.549522 0.972334
O O9 0.881777 0.191311 0.437478
O O10 0.741110 0.297282 0.749896
O O11 0.829482 0.298652 0.443973
O O12 0.000000 0.315214 0.250000
O O13 0.758899 0.420569 0.304220
O O14 0.920385 0.304267 0.006433
O O15 0.861380 0.359785 0.248511
O O16 0.863382 0.880025 0.107207
O O17 0.000000 0.931808 0.750000
O O18 0.500000 0.281064 0.250000
#
# Coordination Sequence:
#
# PCOD8136382 Si02
#       8
#     8   8   8   8   8   8   8   8
#     4   9  21  40  60  85 119 159 199 251 305 355
#     4  11  21  38  60  85 123 157 195 246 312 361
#     4   9  20  38  59  87 120 158 204 248 297 358
#     4  11  22  37  60  89 120 157 203 249 305 365
#     4  10  20  33  59  88 113 154 201 249 287 359
#     4  10  22  39  61  87 125 164 199 251 311 366
#     4  10  20  38  61  85 119 155 200 249 301 362
#     4  10  21  38  61  87 118 157 202 253 299 356
#
# _framework density 19.813535000000002
#
# number of rings (size 3 to 8) (size 9 to 14) (size 15 to 20)
#    0.000    2.000    1.250    1.875    1.750    7.000 
#    2.250    0.625    0.000    0.000    0.000    0.000 
#    0.000    0.000    0.000    0.000    0.000    0.000 
#
# Total GULP energy -396433.812718 kJ/mol
# GULP energy per Si atom -12388.556647 kJ/mol
# Density = 1.976844 g / cm^3
# Si number density = 19.813535 Si / 1000 Ang^3
#
#
#
# Elastic Constant Matrix: (Units=GPa)
#
#
# Indices 1 2 3 4 5 6 
#
# 1 112.6906 28.4445 81.4283 -0.0001 -2.7577 0.0001
# 2 28.4445 67.1412 33.9919 0.0006 4.1591 -0.0006
# 3 81.4283 33.9919 139.1212 0.0002 -2.5000 -0.0001
# 4 -0.0001 0.0006 0.0002 22.0325 0.0001 7.3925
# 5 -2.7577 4.1591 -2.5000 0.0001 44.9073 -0.0001
# 6 0.0001 -0.0006 -0.0001 7.3925 -0.0001 29.7828
#
#
#
# Elastic Compliance Matrix: (Units=1/GPa)
#
#
# Indices 1 2 3 4 5 6 
#
# 1 0.015699 -0.002338 -0.008605 0.000000 0.000702 0.000000
# 2 -0.002338 0.017492 -0.002940 -0.000001 -0.001927 0.000000
# 3 -0.008605 -0.002940 0.012951 0.000000 0.000465 0.000000
# 4 0.000000 -0.000001 0.000000 0.049511 0.000000 -0.012289
# 5 0.000702 -0.001927 0.000465 0.000000 0.022516 0.000000
# 6 0.000000 0.000000 0.000000 -0.012289 0.000000 0.036627
#
#
# Mechanical properties :
#
#
# Convention : Reuss Voigt Hill
#
# Bulk Modulus (GPa) = 54.41714 67.40917 60.91316
# Shear Modulus (GPa) = 26.49895 31.01708 28.75801
#
# Velocity S-wave (km/s) = 3.66104 3.96087 3.81390
# Velocity P-wave (km/s) = 6.73760 7.41712 7.08551
#
# Compressibility (1/GPa) = 0.01837656
#
# Stress axis : x y z
#
# Youngs Moduli (GPa) = 63.69923 57.16771 77.21346
#
# Poissons Ratio (x) = 0.13365 0.66440
# Poissons Ratio (y) = 0.14892 0.22702
# Poissons Ratio (z) = 0.54811 0.16809
#
# Static dielectric constant tensor:
#      x y z
#    x 3.719780 0.000000 -0.397990 
#    y 0.000000 3.565410 0.000000 
#    z -0.397990 0.000000 4.044750 
# 
# 
# High freq. dielectric constant tensor:
#      x y z
#    x 1.766630 0.000000 -0.016010 
#    y 0.000000 1.764300 0.000000 
#    z -0.016010 0.000000 1.782240 
# 
# From -- ./inp_files/183099.got.cif
#   From: 2010.06.25/outbox.cif.g09.slc.cpg/sg15_92_cif.got.tgz:183099.got - 2010.06.28 07:06:18.
