data_PCOD8136015
_publ_section_title
;
Structure prediction by ZEFSAII (Michael W. Deem and Ramdas Pophale) SiO2 
 PCOD8136015
Probable space group: C 2/C
;
_chemical_formula_sum "Si O2"
_cell_formula_units_Z 48
_cell_length_a 29.575876
_cell_length_b 14.977606
_cell_length_c 15.152665
_cell_angle_alpha 90.000000
_cell_angle_beta 159.760354
_cell_angle_gamma 90.000000
_cell_volume 2322.091073
_symmetry_space_group_name_H-M "C 2/C"
_symmetry_group_IT_number 15
_symmetry_cell_setting 'monoclinic'
loop_
_space_group_symop_operation_xyz
x,y,z
-x,y,1/2-z
-x,-y,-z
x,-y,1/2+z
1/2+x,1/2+y,z
1/2-x,1/2+y,1/2-z
1/2-x,1/2-y,-z
1/2+x,1/2-y,1/2+z
loop_
_atom_site_type_symbol
_atom_site_label
_atom_site_fract_x
_atom_site_fract_y
_atom_site_fract_z
Si Si1 0.244614 0.861856 0.306503
Si Si2 0.966556 0.425573 0.008534
Si Si3 0.000000 0.810059 0.750000
Si Si4 0.939779 0.096450 0.885815
Si Si5 0.500000 0.976022 0.750000
Si Si6 0.779516 0.810834 0.968712
Si Si7 0.605484 0.751273 0.268797
O O1 0.198061 0.905634 0.313606
O O2 0.370432 0.914800 0.501576
O O3 0.286761 0.757509 0.399219
O O4 0.118407 0.868533 0.009821
O O5 0.049016 0.341397 0.125765
O O6 0.008179 0.460656 0.180496
O O7 0.000000 0.500000 0.000000
O O8 0.818636 0.391004 0.735199
O O9 0.076466 0.747135 0.820424
O O10 0.911831 0.133775 0.735158
O O11 0.039548 0.162446 0.113771
O O12 0.000000 0.000000 0.000000
O O13 0.750000 0.750000 0.000000
O O14 0.750000 0.750000 0.500000
#
# Coordination Sequence:
#
# PCOD8136015 Si02
#       7
#     8   8   4   8   4   8   8
#     4  10  23  43  68  92 141 183 227 293 357 414
#     4  12  25  42  69 104 141 179 235 291 350 423
#     4  10  21  46  68  95 142 178 237 290 354 415
#     4  10  22  41  68  98 133 176 233 284 349 434
#     4  12  29  42  70 109 138 182 245 298 356 423
#     4  10  19  42  67  89 131 180 222 283 357 412
#     4  11  25  41  70 100 135 187 231 287 356 420
#
# _framework density 20.671023999999999
#
# number of rings (size 3 to 8) (size 9 to 14) (size 15 to 20)
#    0.000    1.333    5.000    2.500    7.000    1.333 
#    0.000    1.667    0.000    0.000    0.000    0.000 
#    0.000    0.000    0.000    0.000    0.000    0.000 
#
# Total GULP energy -297321.283246 kJ/mol
# GULP energy per Si atom -12388.386802 kJ/mol
# Density = 2.062398 g / cm^3
# Si number density = 20.671024 Si / 1000 Ang^3
#
#
#
# Elastic Constant Matrix: (Units=GPa)
#
#
# Indices 1 2 3 4 5 6 
#
# 1 77.0759 37.5322 36.9232 0.0000 4.7689 0.0000
# 2 37.5322 162.0251 51.2227 0.0000 -4.2235 0.0000
# 3 36.9232 51.2227 113.3165 0.0000 -2.1273 0.0000
# 4 0.0000 0.0000 0.0000 46.6207 0.0000 1.4580
# 5 4.7689 -4.2235 -2.1273 0.0000 42.0115 0.0000
# 6 0.0000 0.0000 0.0000 1.4580 0.0000 27.6715
#
#
#
# Elastic Compliance Matrix: (Units=1/GPa)
#
#
# Indices 1 2 3 4 5 6 
#
# 1 0.016374 -0.002512 -0.004244 0.000000 -0.002326 0.000000
# 2 -0.002512 0.007600 -0.002599 0.000000 0.000918 0.000000
# 3 -0.004244 -0.002599 0.011398 0.000000 0.000798 0.000000
# 4 0.000000 0.000000 0.000000 0.021485 0.000000 -0.001132
# 5 -0.002326 0.000918 0.000798 0.000000 0.024200 0.000000
# 6 0.000000 0.000000 0.000000 -0.001132 0.000000 0.036198
#
#
# Mechanical properties :
#
#
# Convention : Reuss Voigt Hill
#
# Bulk Modulus (GPa) = 60.01975 67.08599 63.55287
# Shear Modulus (GPa) = 35.33121 38.37671 36.85396
#
# Velocity S-wave (km/s) = 4.13875 4.31344 4.22700
# Velocity P-wave (km/s) = 7.20678 7.57181 7.39155
#
# Compressibility (1/GPa) = 0.01666118
#
# Stress axis : x y z
#
# Youngs Moduli (GPa) = 61.07136 131.58751 87.73799
#
# Poissons Ratio (x) = 0.33056 0.37232
# Poissons Ratio (y) = 0.15342 0.22807
# Poissons Ratio (z) = 0.25916 0.34206
#
# Static dielectric constant tensor:
#      x y z
#    x 3.756700 0.000000 -0.000220 
#    y 0.000000 3.885380 0.000000 
#    z -0.000220 0.000000 4.219930 
# 
# 
# High freq. dielectric constant tensor:
#      x y z
#    x 1.785480 0.000000 -0.015020 
#    y 0.000000 1.816750 0.000000 
#    z -0.015020 0.000000 1.820430 
# 
# From -- ./inp_files/182573.got.cif
#   From: 2010.06.25/outbox.cif.g09.slc.cpg/sg15_92_cif.got.tgz:182573.got - 2010.06.28 07:06:18.
