data_PCOD8136082
_publ_section_title
;
Structure prediction by ZEFSAII (Michael W. Deem and Ramdas Pophale) SiO2 
 PCOD8136082
Probable space group: C 2/C
;
_chemical_formula_sum "Si O2"
_cell_formula_units_Z 44
_cell_length_a 11.478991
_cell_length_b 16.865459
_cell_length_c 24.948848
_cell_angle_alpha 90.000000
_cell_angle_beta 144.217410
_cell_angle_gamma 90.000000
_cell_volume 2824.189200
_symmetry_space_group_name_H-M "C 2/C"
_symmetry_group_IT_number 15
_symmetry_cell_setting 'monoclinic'
loop_
_space_group_symop_operation_xyz
x,y,z
-x,y,1/2-z
-x,-y,-z
x,-y,1/2+z
1/2+x,1/2+y,z
1/2-x,1/2+y,1/2-z
1/2-x,1/2-y,-z
1/2+x,1/2-y,1/2+z
loop_
_atom_site_type_symbol
_atom_site_label
_atom_site_fract_x
_atom_site_fract_y
_atom_site_fract_z
Si Si1 0.500000 0.581918 0.250000
Si Si2 0.582271 0.479486 0.615004
Si Si3 0.916810 0.166310 0.110614
Si Si4 0.445119 0.158747 0.597407
Si Si5 0.200863 0.510764 0.908760
Si Si6 0.210218 0.478219 0.205128
O O1 0.423460 0.636754 0.173713
O O2 0.314876 0.526552 0.197091
O O3 0.552044 0.388814 0.622837
O O4 0.756588 0.482889 0.635721
O O5 0.380147 0.516683 0.514913
O O6 0.643843 0.531868 0.689279
O O7 0.003473 0.255297 0.141498
O O8 0.686928 0.166554 0.005750
O O9 0.647873 0.109262 0.660087
O O10 0.320775 0.107459 0.595561
O O11 0.990804 0.473985 0.851000
#
# Coordination Sequence:
#
# PCOD8136082 Si02
#       6
#     4   8   8   8   8   8
#     4  10  20  30  48  68 100 122 162 182 240 282
#     4   9  15  28  47  73  91 115 159 197 232 270
#     4   9  17  31  47  74  91 123 151 198 227 288
#     4   8  17  31  49  68  94 118 161 187 244 262
#     4   8  16  28  48  70  91 120 153 200 229 273
#     4   9  18  30  46  70  93 127 155 194 230 283
#
# _framework density 15.579693000000001
#
# number of rings (size 3 to 8) (size 9 to 14) (size 15 to 20)
#    1.091    2.182    0.000    0.545    0.000    2.182 
#    0.000    0.000    8.000    0.000    0.000   10.182 
#    0.000    0.000    0.000    0.000    0.000    0.000 
#
# Total GULP energy -272547.101294 kJ/mol
# GULP energy per Si atom -12388.504604 kJ/mol
# Density = 1.554423 g / cm^3
# Si number density = 15.579693 Si / 1000 Ang^3
#
#
#
# Elastic Constant Matrix: (Units=GPa)
#
#
# Indices 1 2 3 4 5 6 
#
# 1 93.4693 45.1443 33.5833 0.0000 -6.6386 0.0000
# 2 45.1443 99.7132 49.5132 0.0000 -8.3102 0.0000
# 3 33.5833 49.5132 66.1866 0.0001 -6.7874 0.0001
# 4 0.0000 0.0000 0.0001 23.6673 0.0000 0.1139
# 5 -6.6386 -8.3102 -6.7874 0.0000 23.5989 0.0000
# 6 0.0000 0.0000 0.0001 0.1139 0.0000 14.4269
#
#
#
# Elastic Compliance Matrix: (Units=1/GPa)
#
#
# Indices 1 2 3 4 5 6 
#
# 1 0.014321 -0.004505 -0.003757 0.000000 0.001362 0.000000
# 2 -0.004505 0.017490 -0.010609 0.000000 0.001840 0.000000
# 3 -0.003757 -0.010609 0.025204 0.000000 0.002456 0.000000
# 4 0.000000 0.000000 0.000000 0.042254 0.000000 -0.000333
# 5 0.001362 0.001840 0.002456 0.000000 0.044112 0.000000
# 6 0.000000 0.000000 0.000000 -0.000333 0.000000 0.069318
#
#
# Mechanical properties :
#
#
# Convention : Reuss Voigt Hill
#
# Bulk Modulus (GPa) = 51.88796 57.31675 54.60236
# Shear Modulus (GPa) = 19.46550 21.08050 20.27300
#
# Velocity S-wave (km/s) = 3.53854 3.68241 3.61119
# Velocity P-wave (km/s) = 7.07617 7.41279 7.24643
#
# Compressibility (1/GPa) = 0.01927229
#
# Stress axis : x y z
#
# Youngs Moduli (GPa) = 69.82765 57.17647 39.67673
#
# Poissons Ratio (x) = 0.25756 0.14907
# Poissons Ratio (y) = 0.31455 0.42095
# Poissons Ratio (z) = 0.26234 0.60661
#
# Static dielectric constant tensor:
#      x y z
#    x 2.814110 0.000000 0.004080 
#    y 0.000000 2.798710 0.000000 
#    z 0.004080 0.000000 3.082060 
# 
# 
# High freq. dielectric constant tensor:
#      x y z
#    x 1.577710 0.000000 -0.005390 
#    y 0.000000 1.570850 0.000000 
#    z -0.005390 0.000000 1.610220 
# 
# From -- ./inp_files/144610.got.cif
#   From: 2010.06.25/outbox.cif.g09.slc.cpg/sg15_73_cif.got.tgz:144610.got - 2010.06.28 07:06:18.
