data_PCOD8136227
_publ_section_title
;
Structure prediction by ZEFSAII (Michael W. Deem and Ramdas Pophale) SiO2 
 PCOD8136227
Probable space group: C 2/C
;
_chemical_formula_sum "Si O2"
_cell_formula_units_Z 52
_cell_length_a 28.310964
_cell_length_b 10.626950
_cell_length_c 18.616175
_cell_angle_alpha 90.000000
_cell_angle_beta 151.690002
_cell_angle_gamma 90.000000
_cell_volume 2656.156241
_symmetry_space_group_name_H-M "C 2/C"
_symmetry_group_IT_number 15
_symmetry_cell_setting 'monoclinic'
loop_
_space_group_symop_operation_xyz
x,y,z
-x,y,1/2-z
-x,-y,-z
x,-y,1/2+z
1/2+x,1/2+y,z
1/2-x,1/2+y,1/2-z
1/2-x,1/2-y,-z
1/2+x,1/2-y,1/2+z
loop_
_atom_site_type_symbol
_atom_site_label
_atom_site_fract_x
_atom_site_fract_y
_atom_site_fract_z
Si Si1 0.803587 0.239735 0.185369
Si Si2 0.888399 0.469399 0.368980
Si Si3 0.670831 0.602274 0.411444
Si Si4 0.732987 0.871266 0.904047
Si Si5 0.500000 0.247267 0.750000
Si Si6 0.883615 0.662117 0.113025
Si Si7 0.368648 0.072541 0.497515
O O1 0.872504 0.321149 0.330704
O O2 0.855228 0.128650 0.207621
O O3 0.720546 0.173046 0.122819
O O4 0.770714 0.332945 0.076593
O O5 0.811141 0.558932 0.224220
O O6 0.871395 0.489949 0.430157
O O7 0.000000 0.500000 0.500000
O O8 0.686365 0.454209 0.443586
O O9 0.585875 0.657374 0.346867
O O10 0.640520 0.834517 0.833278
O O11 0.801387 0.755593 0.967500
O O12 0.468816 0.156075 0.641842
O O13 0.000000 0.697020 0.250000
O O14 0.859441 0.522067 0.052490
#
# Coordination Sequence:
#
# PCOD8136227 Si02
#       7
#     8   8   8   8   4   8   8
#     4   9  19  34  57  83 114 152 190 251 291 341
#     4  11  23  37  61  86 120 158 200 249 303 359
#     4   9  17  35  58  84 117 145 194 250 290 340
#     4  10  23  40  58  93 120 156 204 250 296 360
#     4  10  20  32  62  90 114 154 204 244 296 356
#     4  11  22  39  65  84 121 163 200 245 303 366
#     4  11  21  36  59  87 119 155 203 245 295 359
#
# _framework density 19.577162000000001
#
# number of rings (size 3 to 8) (size 9 to 14) (size 15 to 20)
#    0.000    1.846    2.308    1.846    5.385    0.000 
#    0.000    0.000    0.000    0.923    0.000    0.000 
#    0.000    0.000    0.000    0.000    0.000    0.000 
#
# Total GULP energy -322113.555294 kJ/mol
# GULP energy per Si atom -12388.982896 kJ/mol
# Density = 1.953260 g / cm^3
# Si number density = 19.577162 Si / 1000 Ang^3
#
#
#
# Elastic Constant Matrix: (Units=GPa)
#
#
# Indices 1 2 3 4 5 6 
#
# 1 77.3201 18.9340 29.7970 0.0000 3.2914 0.0000
# 2 18.9340 72.7860 34.1844 0.0000 17.1302 0.0000
# 3 29.7970 34.1844 76.5972 0.0000 12.2821 0.0000
# 4 0.0000 0.0000 0.0000 39.2905 0.0000 -1.9768
# 5 3.2914 17.1302 12.2821 0.0000 24.2145 0.0000
# 6 0.0000 0.0000 0.0000 -1.9768 0.0000 23.8428
#
#
#
# Elastic Compliance Matrix: (Units=1/GPa)
#
#
# Indices 1 2 3 4 5 6 
#
# 1 0.015425 -0.001924 -0.005469 0.000000 0.002038 0.000000
# 2 -0.001924 0.019684 -0.006363 0.000000 -0.010436 0.000000
# 3 -0.005469 -0.006363 0.018703 0.000000 -0.004242 0.000000
# 4 0.000000 0.000000 0.000000 0.025558 0.000000 0.002119
# 5 0.002038 -0.010436 -0.004242 0.000000 0.050555 0.000000
# 6 0.000000 0.000000 0.000000 0.002119 0.000000 0.042117
#
#
# Mechanical properties :
#
#
# Convention : Reuss Voigt Hill
#
# Bulk Modulus (GPa) = 38.02193 43.61488 40.81841
# Shear Modulus (GPa) = 24.00163 27.05543 25.52853
#
# Velocity S-wave (km/s) = 3.50523 3.72154 3.61501
# Velocity P-wave (km/s) = 5.98715 6.38697 6.19028
#
# Compressibility (1/GPa) = 0.02630061
#
# Stress axis : x y z
#
# Youngs Moduli (GPa) = 64.82948 50.80295 53.46879
#
# Poissons Ratio (x) = 0.09774 0.29241
# Poissons Ratio (y) = 0.12472 0.34022
# Poissons Ratio (z) = 0.35453 0.32325
#
# Static dielectric constant tensor:
#      x y z
#    x 3.521650 0.000000 0.072650 
#    y 0.000000 4.050010 0.000000 
#    z 0.072650 0.000000 3.763540 
# 
# 
# High freq. dielectric constant tensor:
#      x y z
#    x 1.759940 0.000000 0.008780 
#    y 0.000000 1.769010 0.000000 
#    z 0.008780 0.000000 1.736800 
# 
# From -- ./inp_files/222475.got.cif
#   From: 2010.06.25/outbox.cif.g09.slc.cpg/sg15_112_cif.got.tgz:222475.got - 2010.06.28 07:06:18.
