data_PCOD8136766
_publ_section_title
;
Structure prediction by ZEFSAII (Michael W. Deem and Ramdas Pophale) SiO2 
 PCOD8136766
Probable space group: C 2/C
;
_chemical_formula_sum "Si O2"
_cell_formula_units_Z 52
_cell_length_a 14.870634
_cell_length_b 13.213770
_cell_length_c 16.315230
_cell_angle_alpha 90.000000
_cell_angle_beta 128.883427
_cell_angle_gamma 90.000000
_cell_volume 2495.548806
_symmetry_space_group_name_H-M "C 2/C"
_symmetry_group_IT_number 15
_symmetry_cell_setting 'monoclinic'
loop_
_space_group_symop_operation_xyz
x,y,z
-x,y,1/2-z
-x,-y,-z
x,-y,1/2+z
1/2+x,1/2+y,z
1/2-x,1/2+y,1/2-z
1/2-x,1/2-y,-z
1/2+x,1/2-y,1/2+z
loop_
_atom_site_type_symbol
_atom_site_label
_atom_site_fract_x
_atom_site_fract_y
_atom_site_fract_z
Si Si1 0.500000 0.407214 0.250000
Si Si2 0.903370 0.324575 0.436224
Si Si3 0.000000 0.741767 0.750000
Si Si4 0.688651 0.322233 0.741112
Si Si5 0.000000 0.583750 0.250000
Si Si6 0.269462 0.497897 0.135904
Si Si7 0.920322 0.581899 0.582687
Si Si8 0.073341 0.737988 0.171991
O O1 0.393196 0.478838 0.164670
O O2 0.539398 0.344721 0.192356
O O3 0.874870 0.216002 0.377801
O O4 0.787115 0.387347 0.386255
O O5 0.976530 0.402466 0.422866
O O6 0.967053 0.298799 0.556193
O O7 0.099577 0.805624 0.764094
O O8 0.078354 0.676831 0.856672
O O9 0.718422 0.442055 0.769034
O O10 0.808646 0.257375 0.813858
O O11 0.934889 0.518772 0.144563
O O12 0.907901 0.656055 0.244071
O O13 0.199043 0.571719 0.034707
#
# Coordination Sequence:
#
# PCOD8136766 Si02
#       8
#     4   8   4   8   4   8   8   8
#     4  11  27  41  61 102 146 166 218 272 352 386
#     4  11  22  42  69  95 125 178 233 268 326 400
#     4   9  23  41  61 100 128 170 228 274 326 408
#     4  11  23  42  66  94 134 176 223 278 333 394
#     4  10  20  34  64 100 122 162 224 270 322 378
#     4  12  22  41  66  93 132 176 215 277 330 398
#     4  10  20  38  66  96 123 164 229 275 315 388
#     4  11  22  42  65  94 135 176 213 279 333 396
#
# _framework density 20.8371
#
# number of rings (size 3 to 8) (size 9 to 14) (size 15 to 20)
#    0.000    1.231    4.615    1.846    0.000    2.462 
#    2.769    0.769    0.000    0.000    0.000    0.000 
#    0.000    0.000    0.000    0.000    0.000    0.000 
#
# Total GULP energy -322196.838317 kJ/mol
# GULP energy per Si atom -12392.186089 kJ/mol
# Density = 2.078967 g / cm^3
# Si number density = 20.837100 Si / 1000 Ang^3
#
#
#
# Elastic Constant Matrix: (Units=GPa)
#
#
# Indices 1 2 3 4 5 6 
#
# 1 100.9824 18.9842 46.7560 0.0000 23.9290 0.0000
# 2 18.9842 65.7877 42.7237 0.0000 2.5733 0.0000
# 3 46.7560 42.7237 103.4903 0.0000 11.3456 0.0000
# 4 0.0000 0.0000 0.0000 30.8623 0.0000 -1.9134
# 5 23.9290 2.5733 11.3456 0.0000 35.8766 0.0000
# 6 0.0000 0.0000 0.0000 -1.9134 0.0000 30.1827
#
#
#
# Elastic Compliance Matrix: (Units=1/GPa)
#
#
# Indices 1 2 3 4 5 6 
#
# 1 0.014361 -0.000248 -0.005529 0.000000 -0.007812 0.000000
# 2 -0.000248 0.020828 -0.008641 0.000000 0.001404 0.000000
# 3 -0.005529 -0.008641 0.015804 0.000000 -0.000690 0.000000
# 4 0.000000 0.000000 0.000000 0.032530 0.000000 0.002062
# 5 -0.007812 0.001404 -0.000690 0.000000 0.033201 0.000000
# 6 0.000000 0.000000 0.000000 0.002062 0.000000 0.033262
#
#
# Mechanical properties :
#
#
# Convention : Reuss Voigt Hill
#
# Bulk Modulus (GPa) = 45.13154 54.13200 49.63177
# Shear Modulus (GPa) = 26.85194 30.17076 28.51135
#
# Velocity S-wave (km/s) = 3.59369 3.80930 3.70306
# Velocity P-wave (km/s) = 6.23904 6.73667 6.49263
#
# Compressibility (1/GPa) = 0.02215745
#
# Stress axis : x y z
#
# Youngs Moduli (GPa) = 69.63534 48.01171 63.27699
#
# Poissons Ratio (x) = 0.01189 0.34988
# Poissons Ratio (y) = 0.01724 0.54675
# Poissons Ratio (z) = 0.38504 0.41485
#
# Static dielectric constant tensor:
#      x y z
#    x 3.820810 0.000000 0.001230 
#    y 0.000000 3.758490 0.000000 
#    z 0.001230 0.000000 3.780920 
# 
# 
# High freq. dielectric constant tensor:
#      x y z
#    x 1.816150 0.000000 0.006920 
#    y 0.000000 1.813890 0.000000 
#    z 0.006920 0.000000 1.809820 
# 
# From -- ./inp_files/153379.got.cif
#   From: 2010.06.25/outbox.cif.g09.slc.cpg/sg15_77_cif.got.tgz:153379.got - 2010.06.28 07:06:18.
