data_PCOD8136141
_publ_section_title
;
Structure prediction by ZEFSAII (Michael W. Deem and Ramdas Pophale) SiO2 
 PCOD8136141
Probable space group: C 2/C
;
_chemical_formula_sum "Si O2"
_cell_formula_units_Z 56
_cell_length_a 25.856408
_cell_length_b 9.487138
_cell_length_c 13.925125
_cell_angle_alpha 90.000000
_cell_angle_beta 68.964043
_cell_angle_gamma 90.000000
_cell_volume 3188.229163
_symmetry_space_group_name_H-M "C 2/C"
_symmetry_group_IT_number 15
_symmetry_cell_setting 'monoclinic'
loop_
_space_group_symop_operation_xyz
x,y,z
-x,y,1/2-z
-x,-y,-z
x,-y,1/2+z
1/2+x,1/2+y,z
1/2-x,1/2+y,1/2-z
1/2-x,1/2-y,-z
1/2+x,1/2-y,1/2+z
loop_
_atom_site_type_symbol
_atom_site_label
_atom_site_fract_x
_atom_site_fract_y
_atom_site_fract_z
Si Si1 0.856844 0.279977 0.794534
Si Si2 0.271726 0.996081 0.798300
Si Si3 0.855080 0.425158 0.983747
Si Si4 0.747049 0.414720 0.517577
Si Si5 0.064651 0.508821 0.723656
Si Si6 0.130105 0.310991 0.317215
Si Si7 0.169636 0.022375 0.230589
O O1 0.807313 0.352073 0.765990
O O2 0.914308 0.365012 0.737475
O O3 0.865804 0.121114 0.752981
O O4 0.841084 0.296639 0.918809
O O5 0.226132 0.003211 0.748571
O O6 0.312459 0.129857 0.763032
O O7 0.241976 0.004039 0.920648
O O8 0.801089 0.523074 0.038285
O O9 0.877724 0.359645 0.067559
O O10 0.902739 0.521608 0.900425
O O11 0.750000 0.250000 0.500000
O O12 0.689380 0.440375 0.610608
O O13 0.079121 0.638060 0.784993
O O14 0.000000 0.503725 0.750000
O O15 0.132345 0.141363 0.306337
#
# Coordination Sequence:
#
# PCOD8136141 Si02
#       7
#     8   8   8   8   8   8   8
#     4   8  21  36  49  79 107 145 184 219 269 325
#     4  10  20  32  48  76 112 152 179 204 261 329
#     4   9  20  36  55  80 113 140 191 225 266 340
#     4  11  20  31  49  79 117 150 180 214 265 325
#     4   9  20  41  61  76 105 145 182 238 286 320
#     4  11  20  35  55  86 108 142 192 218 268 335
#     4  12  21  31  55  77 117 149 173 223 268 320
#
# _framework density 17.564608
#
# number of rings (size 3 to 8) (size 9 to 14) (size 15 to 20)
#    0.857    1.143    4.286    0.857    2.000    1.714 
#    0.000    0.714    0.000    0.857    0.000    0.000 
#    0.000    0.000    0.000    0.000    0.000    0.000 
#
# Total GULP energy -346959.396115 kJ/mol
# GULP energy per Si atom -12391.407004 kJ/mol
# Density = 1.752463 g / cm^3
# Si number density = 17.564608 Si / 1000 Ang^3
#
#
#
# Elastic Constant Matrix: (Units=GPa)
#
#
# Indices 1 2 3 4 5 6 
#
# 1 88.8912 40.1975 17.2698 0.0000 5.3010 0.0000
# 2 40.1975 121.6620 13.9186 0.0000 7.5155 0.0000
# 3 17.2698 13.9186 56.1042 0.0000 11.0884 0.0000
# 4 0.0000 0.0000 0.0000 20.1278 0.0000 3.2623
# 5 5.3010 7.5155 11.0884 0.0000 17.9593 0.0000
# 6 0.0000 0.0000 0.0000 3.2623 0.0000 4.7689
#
#
#
# Elastic Compliance Matrix: (Units=1/GPa)
#
#
# Indices 1 2 3 4 5 6 
#
# 1 0.013764 -0.004166 -0.003126 0.000000 -0.000389 0.000000
# 2 -0.004166 0.009825 -0.000667 0.000000 -0.002470 0.000000
# 3 -0.003126 -0.000667 0.021315 0.000000 -0.011959 0.000000
# 4 0.000000 0.000000 0.000000 0.055878 0.000000 -0.038224
# 5 -0.000389 -0.002470 -0.011959 0.000000 0.064213 0.000000
# 6 0.000000 0.000000 0.000000 -0.038224 0.000000 0.235838
#
#
# Mechanical properties :
#
#
# Convention : Reuss Voigt Hill
#
# Bulk Modulus (GPa) = 34.49978 45.49215 39.99597
# Shear Modulus (GPa) = 11.72568 21.58930 16.65749
#
# Velocity S-wave (km/s) = 2.58655 3.50971 3.08288
# Velocity P-wave (km/s) = 5.34833 6.51001 5.95755
#
# Compressibility (1/GPa) = 0.02898569
#
# Stress axis : x y z
#
# Youngs Moduli (GPa) = 72.65208 101.78282 46.91480
#
# Poissons Ratio (x) = 0.42403 0.14668
# Poissons Ratio (y) = 0.30267 0.03128
# Poissons Ratio (z) = 0.22714 0.06787
#
# Static dielectric constant tensor:
#      x y z
#    x 2.930530 0.000000 0.136550 
#    y 0.000000 3.178020 0.000000 
#    z 0.136550 0.000000 3.352430 
# 
# 
# High freq. dielectric constant tensor:
#      x y z
#    x 1.641490 0.000000 0.021500 
#    y 0.000000 1.670860 0.000000 
#    z 0.021500 0.000000 1.676980 
# 
# From -- ./inp_files/180350.got.cif
#   From: 2010.06.25/outbox.cif.g09.slc.cpg/sg15_91_cif.got.tgz:180350.got - 2010.06.28 07:06:18.
