data_PCOD8136250
_publ_section_title
;
Structure prediction by ZEFSAII (Michael W. Deem and Ramdas Pophale) SiO2 
 PCOD8136250
Probable space group: C 2/C
;
_chemical_formula_sum "Si O2"
_cell_formula_units_Z 52
_cell_length_a 13.849639
_cell_length_b 27.759232
_cell_length_c 20.120394
_cell_angle_alpha 90.000000
_cell_angle_beta 159.453685
_cell_angle_gamma 90.000000
_cell_volume 2714.847742
_symmetry_space_group_name_H-M "C 2/C"
_symmetry_group_IT_number 15
_symmetry_cell_setting 'monoclinic'
loop_
_space_group_symop_operation_xyz
x,y,z
-x,y,1/2-z
-x,-y,-z
x,-y,1/2+z
1/2+x,1/2+y,z
1/2-x,1/2+y,1/2-z
1/2-x,1/2-y,-z
1/2+x,1/2-y,1/2+z
loop_
_atom_site_type_symbol
_atom_site_label
_atom_site_fract_x
_atom_site_fract_y
_atom_site_fract_z
Si Si1 0.681000 0.621542 0.728596
Si Si2 0.000000 0.897574 0.250000
Si Si3 0.000000 0.609508 0.750000
Si Si4 0.995161 0.312268 0.140670
Si Si5 0.027907 0.461388 0.604502
Si Si6 0.192927 0.442871 0.570104
Si Si7 0.000000 0.766872 0.750000
Si Si8 0.999432 0.942712 0.502769
O O1 0.526727 0.633094 0.698939
O O2 0.505585 0.582643 0.572806
O O3 0.724743 0.671679 0.717288
O O4 0.994045 0.603045 0.940207
O O5 0.259266 0.931357 0.418216
O O6 0.893015 0.643451 0.621163
O O7 0.747524 0.576468 0.610436
O O8 0.080330 0.265961 0.238683
O O9 0.757565 0.300039 0.934827
O O10 0.933646 0.516300 0.561973
O O11 0.208838 0.465393 0.654072
O O12 0.203719 0.432683 0.772881
O O13 0.500000 0.426755 0.750000
O O14 0.000000 0.000000 0.500000
#
# Coordination Sequence:
#
# PCOD8136250 Si02
#       8
#     8   4   4   8   8   8   4   8
#     4  10  22  37  55  82 113 153 195 241 283 339
#     4  10  22  40  51  72 115 157 200 235 262 342
#     4   9  22  36  52  84 127 143 196 248 268 355
#     4   9  19  36  58  90 112 143 175 236 309 357
#     4  10  21  33  50  71 105 156 208 235 277 311
#     4  10  20  33  50  73 106 152 199 248 273 324
#     4   9  18  36  65  88 116 134 172 239 318 377
#     4  11  22  34  51  79 110 159 200 243 292 311
#
# _framework density 19.153928000000001
#
# number of rings (size 3 to 8) (size 9 to 14) (size 15 to 20)
#    0.000    2.154    2.308    0.000    5.385    3.077 
#    0.000    0.000    0.000    0.923    0.000    0.000 
#    0.000    0.000    0.000    0.000    0.000    0.000 
#
# Total GULP energy -322251.084777 kJ/mol
# GULP energy per Si atom -12394.272491 kJ/mol
# Density = 1.911033 g / cm^3
# Si number density = 19.153928 Si / 1000 Ang^3
#
#
#
# Elastic Constant Matrix: (Units=GPa)
#
#
# Indices 1 2 3 4 5 6 
#
# 1 126.9571 33.8484 37.3946 0.0112 -4.7754 0.0013
# 2 33.8484 74.6368 26.1349 0.0131 -5.0558 -0.0007
# 3 37.3946 26.1349 103.8162 0.0558 -11.3554 0.0369
# 4 0.0112 0.0131 0.0558 21.5961 0.0101 3.2039
# 5 -4.7754 -5.0558 -11.3554 0.0101 28.3691 0.0066
# 6 0.0013 -0.0007 0.0369 3.2039 0.0066 20.1760
#
#
#
# Elastic Compliance Matrix: (Units=1/GPa)
#
#
# Indices 1 2 3 4 5 6 
#
# 1 0.009550 -0.003430 -0.002580 0.000003 -0.000037 0.000003
# 2 -0.003430 0.015964 -0.002651 -0.000002 0.001206 0.000006
# 3 -0.002580 -0.002651 0.011640 -0.000026 0.003752 -0.000018
# 4 0.000003 -0.000002 -0.000026 0.047422 -0.000026 -0.007530
# 5 -0.000037 0.001206 0.003752 -0.000026 0.036960 -0.000015
# 6 0.000003 0.000006 -0.000018 -0.007530 -0.000015 0.050760
#
#
# Mechanical properties :
#
#
# Convention : Reuss Voigt Hill
#
# Bulk Modulus (GPa) = 50.42830 55.57397 53.00114
# Shear Modulus (GPa) = 25.48050 27.89707 26.68878
#
# Velocity S-wave (km/s) = 3.65129 3.82051 3.73686
# Velocity P-wave (km/s) = 6.64537 6.96700 6.80808
#
# Compressibility (1/GPa) = 0.01983013
#
# Stress axis : x y z
#
# Youngs Moduli (GPa) = 104.71451 62.64173 85.91238
#
# Poissons Ratio (x) = 0.21485 0.22169
# Poissons Ratio (y) = 0.35915 0.22779
# Poissons Ratio (z) = 0.27021 0.16609
#
# Static dielectric constant tensor:
#      x y z
#    x 3.866950 0.000060 -0.412820 
#    y 0.000060 3.362400 -0.000030 
#    z -0.412820 -0.000030 3.427570 
# 
# 
# High freq. dielectric constant tensor:
#      x y z
#    x 1.743210 0.000000 -0.017530 
#    y 0.000000 1.717600 -0.000010 
#    z -0.017530 -0.000010 1.744150 
# 
# From -- ./inp_files/245794.got.cif
#   From: 2010.06.25/outbox.cif.g09.slc.cpg/sg15_123_cif.got.tgz:245794.got - 2010.06.28 07:06:18.
