data_PCOD8136908
_publ_section_title
;
Structure prediction by ZEFSAII (Michael W. Deem and Ramdas Pophale) SiO2 
 PCOD8136908
Probable space group: C 2/C
;
_chemical_formula_sum "Si O2"
_cell_formula_units_Z 36
_cell_length_a 23.327081
_cell_length_b 16.035963
_cell_length_c 5.173861
_cell_angle_alpha 90.000000
_cell_angle_beta 61.541562
_cell_angle_gamma 90.000000
_cell_volume 1701.529985
_symmetry_space_group_name_H-M "C 2/C"
_symmetry_group_IT_number 15
_symmetry_cell_setting 'monoclinic'
loop_
_space_group_symop_operation_xyz
x,y,z
-x,y,1/2-z
-x,-y,-z
x,-y,1/2+z
1/2+x,1/2+y,z
1/2-x,1/2+y,1/2-z
1/2-x,1/2-y,-z
1/2+x,1/2-y,1/2+z
loop_
_atom_site_type_symbol
_atom_site_label
_atom_site_fract_x
_atom_site_fract_y
_atom_site_fract_z
Si Si1 0.323528 0.774222 0.892916
Si Si2 0.072454 0.963263 0.837424
Si Si3 0.383452 0.054908 0.293737
Si Si4 0.500000 0.152592 0.250000
Si Si5 0.399663 0.726390 0.215293
O O1 0.328836 0.873157 0.934881
O O2 0.367831 0.750314 0.554656
O O3 0.250000 0.750000 0.000000
O O4 0.347024 0.725452 0.097770
O O5 0.068676 0.864208 0.830181
O O6 0.110019 0.002734 0.510380
O O7 0.000000 0.000000 0.000000
O O8 0.455157 0.095313 0.164224
O O9 0.373765 0.987433 0.538292
O O10 0.456998 0.208444 0.534262
#
# Coordination Sequence:
#
# PCOD8136908 Si02
#       5
#     8   8   8   4   8
#     4  11  25  46  66  87 122 171 217 255 297 363
#     4  10  20  35  56  87 128 162 194 250 309 363
#     4  11  23  40  63  95 127 159 199 257 314 367
#     4  10  22  38  64  98 130 162 198 250 322 390
#     4  11  23  40  65  94 124 167 210 252 313 378
#
# _framework density 21.157427999999999
#
# number of rings (size 3 to 8) (size 9 to 14) (size 15 to 20)
#    0.000    1.333    0.000    6.667    0.000   12.444 
#    0.000    6.667    0.000    0.000    0.000    0.000 
#    0.000    0.000    0.000    0.000    0.000    0.000 
#
# Total GULP energy -223209.753883 kJ/mol
# GULP energy per Si atom -12400.541882 kJ/mol
# Density = 2.110927 g / cm^3
# Si number density = 21.157428 Si / 1000 Ang^3
#
#
#
# Elastic Constant Matrix: (Units=GPa)
#
#
# Indices 1 2 3 4 5 6 
#
# 1 80.4499 34.7485 3.1046 0.0000 -5.4730 0.0000
# 2 34.7485 137.0720 23.4805 0.0000 -7.0224 0.0000
# 3 3.1046 23.4805 62.5723 0.0000 23.7496 0.0000
# 4 0.0000 0.0000 0.0000 24.9482 0.0000 8.1815
# 5 -5.4730 -7.0224 23.7496 0.0000 41.2625 0.0000
# 6 0.0000 0.0000 0.0000 8.1815 0.0000 36.0169
#
#
#
# Elastic Compliance Matrix: (Units=1/GPa)
#
#
# Indices 1 2 3 4 5 6 
#
# 1 0.014025 -0.003530 0.000193 0.000000 0.001149 0.000000
# 2 -0.003530 0.009195 -0.004723 0.000000 0.003815 0.000000
# 3 0.000193 -0.004723 0.023082 0.000000 -0.014064 0.000000
# 4 0.000000 0.000000 0.000000 0.043309 0.000000 -0.009838
# 5 0.001149 0.003815 -0.014064 0.000000 0.033132 0.000000
# 6 0.000000 0.000000 0.000000 -0.009838 0.000000 0.030000
#
#
# Mechanical properties :
#
#
# Convention : Reuss Voigt Hill
#
# Bulk Modulus (GPa) = 33.13256 44.75129 38.94192
# Shear Modulus (GPa) = 27.94474 35.02956 31.48715
#
# Velocity S-wave (km/s) = 3.63822 4.07340 3.86195
# Velocity P-wave (km/s) = 5.77433 6.58186 6.19128
#
# Compressibility (1/GPa) = 0.03018179
#
# Stress axis : x y z
#
# Youngs Moduli (GPa) = 71.29945 108.75710 43.32289
#
# Poissons Ratio (x) = 0.38387 -0.00834
# Poissons Ratio (y) = 0.25166 0.20463
# Poissons Ratio (z) = -0.01373 0.51370
#
# Static dielectric constant tensor:
#      x y z
#    x 3.584450 0.000000 -0.245660 
#    y 0.000000 4.057610 0.000000 
#    z -0.245660 0.000000 3.023830 
# 
# 
# High freq. dielectric constant tensor:
#      x y z
#    x 1.815570 0.000000 0.034030 
#    y 0.000000 1.847520 0.000000 
#    z 0.034030 0.000000 1.835290 
# 
# From -- ./inp_files/12600.got.cif
#   From: 2010.06.25/outbox.cif.g09.slc.cpg/sg15_7_cif.got.tgz:12600.got - 2010.06.28 07:06:18.
