data_PCOD8136553
_publ_section_title
;
Structure prediction by ZEFSAII (Michael W. Deem and Ramdas Pophale) SiO2 
 PCOD8136553
Probable space group: C 2/C
;
_chemical_formula_sum "Si O2"
_cell_formula_units_Z 56
_cell_length_a 10.447878
_cell_length_b 21.010140
_cell_length_c 14.310614
_cell_angle_alpha 90.000000
_cell_angle_beta 57.135340
_cell_angle_gamma 90.000000
_cell_volume 2638.585607
_symmetry_space_group_name_H-M "C 2/C"
_symmetry_group_IT_number 15
_symmetry_cell_setting 'monoclinic'
loop_
_space_group_symop_operation_xyz
x,y,z
-x,y,1/2-z
-x,-y,-z
x,-y,1/2+z
1/2+x,1/2+y,z
1/2-x,1/2+y,1/2-z
1/2-x,1/2-y,-z
1/2+x,1/2-y,1/2+z
loop_
_atom_site_type_symbol
_atom_site_label
_atom_site_fract_x
_atom_site_fract_y
_atom_site_fract_z
Si Si1 0.793998 0.678134 0.507291
Si Si2 0.855864 0.666503 0.110210
Si Si3 0.231542 0.381044 0.290303
Si Si4 0.166251 0.716619 0.668654
Si Si5 0.617612 0.094258 0.569141
Si Si6 0.838675 0.018525 0.609816
Si Si7 0.823209 0.606371 0.310878
O O1 0.750000 0.750000 0.500000
O O2 0.715200 0.639988 0.626072
O O3 0.757297 0.635274 0.432133
O O4 0.968635 0.683621 0.463539
O O5 0.772033 0.725608 0.095185
O O6 0.797824 0.657249 0.238469
O O7 0.834371 0.601216 0.058808
O O8 0.230385 0.313682 0.238565
O O9 0.349114 0.428959 0.189635
O O10 0.065131 0.416230 0.348580
O O11 0.162054 0.662236 0.593273
O O12 0.000000 0.746137 0.750000
O O13 0.717455 0.039485 0.577470
O O14 0.771923 0.954932 0.681041
O O15 0.000000 0.000000 0.500000
O O16 0.000000 0.588452 0.250000
#
# Coordination Sequence:
#
# PCOD8136553 Si02
#       7
#     8   8   8   8   8   8   8
#     4  10  21  37  59  87 117 154 197 239 296 362
#     4  10  20  34  56  84 114 149 188 234 289 351
#     4   9  19  38  60  82 115 157 194 236 296 363
#     4   9  17  31  54  83 113 146 185 232 291 354
#     4   9  19  36  58  82 111 152 193 233 291 360
#     4  11  23  39  58  84 112 145 195 250 295 342
#     4  10  22  39  56  78 112 153 193 236 287 350
#
# _framework density 21.223492
#
# number of rings (size 3 to 8) (size 9 to 14) (size 15 to 20)
#    0.000    2.286    0.000    3.429    0.000    4.571 
#    0.000    7.857    0.000    0.000    0.000    0.000 
#    0.000    0.000    0.000    0.000    0.000    0.000 
#
# Total GULP energy -346972.159790 kJ/mol
# GULP energy per Si atom -12391.862850 kJ/mol
# Density = 2.117519 g / cm^3
# Si number density = 21.223492 Si / 1000 Ang^3
#
#
#
# Elastic Constant Matrix: (Units=GPa)
#
#
# Indices 1 2 3 4 5 6 
#
# 1 43.3059 24.4265 27.1060 0.0000 2.8344 0.0000
# 2 24.4265 87.6791 40.3452 0.0000 -10.6678 0.0000
# 3 27.1060 40.3452 125.5733 0.0000 11.6249 0.0000
# 4 0.0000 0.0000 0.0000 28.2669 0.0000 -3.2204
# 5 2.8344 -10.6678 11.6249 0.0000 25.7590 0.0000
# 6 0.0000 0.0000 0.0000 -3.2204 0.0000 33.4181
#
#
#
# Elastic Compliance Matrix: (Units=1/GPa)
#
#
# Indices 1 2 3 4 5 6 
#
# 1 0.029731 -0.007132 -0.003705 0.000000 -0.004553 0.000000
# 2 -0.007132 0.016791 -0.004771 0.000000 0.009892 0.000000
# 3 -0.003705 -0.004771 0.010896 0.000000 -0.006486 0.000000
# 4 0.000000 0.000000 0.000000 0.035770 0.000000 0.003447
# 5 -0.004553 0.009892 -0.006486 0.000000 0.046346 0.000000
# 6 0.000000 0.000000 0.000000 0.003447 0.000000 0.030256
#
#
# Mechanical properties :
#
#
# Convention : Reuss Voigt Hill
#
# Bulk Modulus (GPa) = 38.16339 48.92375 43.54357
# Shear Modulus (GPa) = 23.83898 28.46750 26.15324
#
# Velocity S-wave (km/s) = 3.35511 3.66638 3.51419
# Velocity P-wave (km/s) = 5.74715 6.40506 6.08500
#
# Compressibility (1/GPa) = 0.02620312
#
# Stress axis : x y z
#
# Youngs Moduli (GPa) = 33.63460 59.55576 91.77303
#
# Poissons Ratio (x) = 0.42476 0.34000
# Poissons Ratio (y) = 0.23988 0.43784
# Poissons Ratio (z) = 0.12461 0.28414
#
# Static dielectric constant tensor:
#      x y z
#    x 3.813460 0.000000 0.257660 
#    y 0.000000 3.621970 0.000000 
#    z 0.257660 0.000000 4.221070 
# 
# 
# High freq. dielectric constant tensor:
#      x y z
#    x 1.813030 0.000000 0.013280 
#    y 0.000000 1.823960 0.000000 
#    z 0.013280 0.000000 1.841650 
# 
# From -- ./inp_files/145982.got.cif
#   From: 2010.06.25/outbox.cif.g09.slc.cpg/sg15_73_cif.got.tgz:145982.got - 2010.06.28 07:06:18.
