data_PCOD8136327
_publ_section_title
;
Structure prediction by ZEFSAII (Michael W. Deem and Ramdas Pophale) SiO2 
 PCOD8136327
Probable space group: C 2/C
;
_chemical_formula_sum "Si O2"
_cell_formula_units_Z 48
_cell_length_a 29.061058
_cell_length_b 8.277517
_cell_length_c 16.205548
_cell_angle_alpha 90.000000
_cell_angle_beta 38.074817
_cell_angle_gamma 90.000000
_cell_volume 2404.042194
_symmetry_space_group_name_H-M "C 2/C"
_symmetry_group_IT_number 15
_symmetry_cell_setting 'monoclinic'
loop_
_space_group_symop_operation_xyz
x,y,z
-x,y,1/2-z
-x,-y,-z
x,-y,1/2+z
1/2+x,1/2+y,z
1/2-x,1/2+y,1/2-z
1/2-x,1/2-y,-z
1/2+x,1/2-y,1/2+z
loop_
_atom_site_type_symbol
_atom_site_label
_atom_site_fract_x
_atom_site_fract_y
_atom_site_fract_z
Si Si1 0.166325 0.844947 0.354921
Si Si2 0.082022 0.375054 0.650018
Si Si3 0.660181 0.811877 0.700005
Si Si4 0.279304 0.921998 0.604774
Si Si5 0.582085 0.493788 0.109296
Si Si6 0.785999 0.991370 0.963169
O O1 0.131624 0.727871 0.332935
O O2 0.208137 0.742651 0.365300
O O3 0.226135 0.966870 0.234012
O O4 0.099106 0.943021 0.493162
O O5 0.093129 0.362900 0.733502
O O6 0.142571 0.488129 0.521802
O O7 0.088946 0.198963 0.598976
O O8 0.000000 0.448193 0.750000
O O9 0.720816 0.957637 0.619511
O O10 0.698731 0.651881 0.611335
O O11 0.242597 0.868312 0.568067
O O12 0.500000 0.553111 0.250000
O O13 0.641096 0.571029 0.091445
#
# Coordination Sequence:
#
# PCOD8136327 Si02
#       6
#     8   8   8   8   8   8
#     4  11  20  33  52  78 104 129 172 218 253 293
#     4   9  18  36  56  74 102 140 172 199 250 314
#     4   8  15  30  53  74  99 134 166 205 254 301
#     4  10  20  33  55  78 101 135 171 212 252 298
#     4  10  20  34  52  75 105 136 169 209 255 303
#     4   8  15  32  52  72  99 134 171 202 249 307
#
# _framework density 19.966370999999999
#
# number of rings (size 3 to 8) (size 9 to 14) (size 15 to 20)
#    0.000    2.667    0.000    5.000    0.000    1.333 
#    0.000   15.833    0.000    0.000    0.000    0.000 
#    0.000    0.000    0.000    0.000    0.000    0.000 
#
# Total GULP energy -297482.365520 kJ/mol
# GULP energy per Si atom -12395.098563 kJ/mol
# Density = 1.992093 g / cm^3
# Si number density = 19.966371 Si / 1000 Ang^3
#
#
#
# Elastic Constant Matrix: (Units=GPa)
#
#
# Indices 1 2 3 4 5 6 
#
# 1 116.9237 23.7568 71.0916 0.0019 -5.7157 -0.0008
# 2 23.7568 28.6782 34.5680 -0.0002 8.0098 -0.0006
# 3 71.0916 34.5680 139.4263 0.0010 -1.2336 -0.0011
# 4 0.0019 -0.0002 0.0010 23.7705 -0.0007 7.9521
# 5 -5.7157 8.0098 -1.2336 -0.0007 32.0542 0.0005
# 6 -0.0008 -0.0006 -0.0011 7.9521 0.0005 25.7609
#
#
#
# Elastic Compliance Matrix: (Units=1/GPa)
#
#
# Indices 1 2 3 4 5 6 
#
# 1 0.013025 -0.005407 -0.005270 -0.000001 0.003471 0.000000
# 2 -0.005407 0.057956 -0.011753 0.000001 -0.015899 0.000001
# 3 -0.005270 -0.011753 0.012795 0.000000 0.002490 0.000000
# 4 -0.000001 0.000001 0.000000 0.046913 0.000001 -0.014482
# 5 0.003471 -0.015899 0.002490 0.000001 0.035885 -0.000001
# 6 0.000000 0.000001 0.000000 -0.014482 -0.000001 0.043289
#
#
# Mechanical properties :
#
#
# Convention : Reuss Voigt Hill
#
# Bulk Modulus (GPa) = 25.69594 60.42900 43.06247
# Shear Modulus (GPa) = 18.67799 26.69125 22.68462
#
# Velocity S-wave (km/s) = 3.06187 3.66021 3.37433
# Velocity P-wave (km/s) = 5.03960 6.94218 6.06595
#
# Compressibility (1/GPa) = 0.03891665
#
# Stress axis : x y z
#
# Youngs Moduli (GPa) = 76.77461 17.25458 78.15365
#
# Poissons Ratio (x) = 0.09329 0.41188
# Poissons Ratio (y) = 0.41511 0.91852
# Poissons Ratio (z) = 0.40461 0.20279
#
# Static dielectric constant tensor:
#      x y z
#    x 3.932760 0.000000 0.206620 
#    y 0.000000 3.433880 0.000000 
#    z 0.206620 0.000000 3.634450 
# 
# 
# High freq. dielectric constant tensor:
#      x y z
#    x 1.782650 0.000000 0.012880 
#    y 0.000000 1.764990 0.000000 
#    z 0.012880 0.000000 1.762780 
# 
# From -- ./inp_files/166150.got.cif
#   From: 2010.06.25/outbox.cif.g09.slc.cpg/sg15_84_cif.got.tgz:166150.got - 2010.06.28 07:06:18.
