data_PCOD8136256
_publ_section_title
;
Structure prediction by ZEFSAII (Michael W. Deem and Ramdas Pophale) SiO2 
 PCOD8136256
Probable space group: C 2/C
;
_chemical_formula_sum "Si O2"
_cell_formula_units_Z 64
_cell_length_a 30.516182
_cell_length_b 13.562237
_cell_length_c 8.837372
_cell_angle_alpha 90.000000
_cell_angle_beta 102.567070
_cell_angle_gamma 90.000000
_cell_volume 3569.876219
_symmetry_space_group_name_H-M "C 2/C"
_symmetry_group_IT_number 15
_symmetry_cell_setting 'monoclinic'
loop_
_space_group_symop_operation_xyz
x,y,z
-x,y,1/2-z
-x,-y,-z
x,-y,1/2+z
1/2+x,1/2+y,z
1/2-x,1/2+y,1/2-z
1/2-x,1/2-y,-z
1/2+x,1/2-y,1/2+z
loop_
_atom_site_type_symbol
_atom_site_label
_atom_site_fract_x
_atom_site_fract_y
_atom_site_fract_z
Si Si1 0.675239 0.017232 0.667363
Si Si2 0.172052 0.868858 0.600635
Si Si3 0.469106 0.952155 0.103471
Si Si4 0.772654 0.322995 0.747853
Si Si5 0.411914 0.922560 0.790870
Si Si6 0.310176 0.503558 0.139828
Si Si7 0.257647 0.385058 0.354433
Si Si8 0.344339 0.817244 0.566630
O O1 0.705331 0.087129 0.797695
O O2 0.667304 0.073821 0.503446
O O3 0.698828 0.911487 0.653874
O O4 0.626662 0.003801 0.707709
O O5 0.226379 0.865350 0.647360
O O6 0.156152 0.922945 0.742562
O O7 0.148611 0.762646 0.562343
O O8 0.159572 0.938364 0.448972
O O9 0.500000 0.890558 0.250000
O O10 0.445741 0.035470 0.189985
O O11 0.433897 0.892011 0.971398
O O12 0.500000 0.000000 0.000000
O O13 0.763896 0.233569 0.857612
O O14 0.801609 0.279946 0.629786
O O15 0.389091 0.824259 0.703315
O O16 0.284292 0.433056 0.235519
O O17 0.274666 0.574504 0.027770
#
# Coordination Sequence:
#
# PCOD8136256 Si02
#       8
#     8   8   8   8   8   8   8   8
#     4  11  21  31  50  70 105 135 180 233 257 293
#     4  11  20  34  51  65  89 137 180 236 261 305
#     4   9  18  35  57  75 100 137 168 190 245 327
#     4  11  21  31  49  62  94 136 187 224 277 293
#     4  10  20  33  50  79 104 133 170 207 256 308
#     4  10  21  34  49  63  90 122 198 228 266 294
#     4  11  21  35  46  68  90 137 187 239 265 302
#     4  11  21  34  48  71 104 137 171 222 279 295
#
# _framework density 17.927793000000001
#
# number of rings (size 3 to 8) (size 9 to 14) (size 15 to 20)
#    0.000    1.500    6.250    1.125    1.750    0.500 
#    4.500    0.000    0.000    0.000    0.000    0.000 
#    0.000    0.000    0.000   14.625    2.250    5.250 
#
# Total GULP energy -396462.932545 kJ/mol
# GULP energy per Si atom -12389.466642 kJ/mol
# Density = 1.788699 g / cm^3
# Si number density = 17.927793 Si / 1000 Ang^3
#
#
#
# Elastic Constant Matrix: (Units=GPa)
#
#
# Indices 1 2 3 4 5 6 
#
# 1 52.2380 19.5513 26.1730 0.0000 4.4284 0.0000
# 2 19.5513 98.6801 43.4525 0.0000 11.5759 0.0000
# 3 26.1730 43.4525 130.0461 0.0000 20.3981 0.0000
# 4 0.0000 0.0000 0.0000 33.0228 0.0000 -0.3338
# 5 4.4284 11.5759 20.3981 0.0000 26.1126 0.0000
# 6 0.0000 0.0000 0.0000 -0.3338 0.0000 8.8925
#
#
#
# Elastic Compliance Matrix: (Units=1/GPa)
#
#
# Indices 1 2 3 4 5 6 
#
# 1 0.021940 -0.002833 -0.003513 0.000000 0.000279 0.000000
# 2 -0.002833 0.012389 -0.003172 0.000000 -0.002534 0.000000
# 3 -0.003513 -0.003172 0.010419 0.000000 -0.006137 0.000000
# 4 0.000000 0.000000 0.000000 0.030294 0.000000 0.001137
# 5 0.000279 -0.002534 -0.006137 0.000000 0.044166 0.000000
# 6 0.000000 0.000000 0.000000 0.001137 0.000000 0.112497
#
#
# Mechanical properties :
#
#
# Convention : Reuss Voigt Hill
#
# Bulk Modulus (GPa) = 38.89147 51.03534 44.96340
# Shear Modulus (GPa) = 19.28190 26.39140 22.83665
#
# Velocity S-wave (km/s) = 3.28309 3.84095 3.57292
# Velocity P-wave (km/s) = 6.00933 6.94259 6.49275
#
# Compressibility (1/GPa) = 0.02571258
#
# Stress axis : x y z
#
# Youngs Moduli (GPa) = 45.57928 80.71674 95.97809
#
# Poissons Ratio (x) = 0.22866 0.33716
# Poissons Ratio (y) = 0.12912 0.30444
# Poissons Ratio (z) = 0.16011 0.25603
#
# Static dielectric constant tensor:
#      x y z
#    x 3.114620 0.000000 0.194350 
#    y 0.000000 3.334460 0.000000 
#    z 0.194350 0.000000 3.893180 
# 
# 
# High freq. dielectric constant tensor:
#      x y z
#    x 1.639770 0.000000 -0.004760 
#    y 0.000000 1.672120 0.000000 
#    z -0.004760 0.000000 1.722740 
# 
# From -- ./inp_files/69750.got.cif
#   From: 2010.06.25/outbox.cif.g09.slc.cpg/sg15_35_cif.got.tgz:69750.got - 2010.06.28 07:06:18.
