data_PCOD8136884
_publ_section_title
;
Structure prediction by ZEFSAII (Michael W. Deem and Ramdas Pophale) SiO2 
 PCOD8136884
Probable space group: C 2/C
;
_chemical_formula_sum "Si O2"
_cell_formula_units_Z 48
_cell_length_a 15.317690
_cell_length_b 11.812750
_cell_length_c 14.643829
_cell_angle_alpha 90.000000
_cell_angle_beta 114.161067
_cell_angle_gamma 90.000000
_cell_volume 2417.594603
_symmetry_space_group_name_H-M "C 2/C"
_symmetry_group_IT_number 15
_symmetry_cell_setting 'monoclinic'
loop_
_space_group_symop_operation_xyz
x,y,z
-x,y,1/2-z
-x,-y,-z
x,-y,1/2+z
1/2+x,1/2+y,z
1/2-x,1/2+y,1/2-z
1/2-x,1/2-y,-z
1/2+x,1/2-y,1/2+z
loop_
_atom_site_type_symbol
_atom_site_label
_atom_site_fract_x
_atom_site_fract_y
_atom_site_fract_z
Si Si1 0.356751 0.324785 0.878066
Si Si2 0.203967 0.423165 0.154298
Si Si3 0.153080 0.897986 0.827106
Si Si4 0.933571 0.841069 0.530290
Si Si5 0.657051 0.111051 0.012756
Si Si6 0.751930 0.958228 0.374461
O O1 0.318987 0.201680 0.892295
O O2 0.374196 0.333668 0.776618
O O3 0.460169 0.358441 0.965723
O O4 0.275776 0.408953 0.878391
O O5 0.311249 0.471028 0.174460
O O6 0.129525 0.511966 0.074549
O O7 0.196054 0.419661 0.260118
O O8 0.070144 0.894480 0.868333
O O9 0.243203 0.829338 0.910825
O O10 0.924313 0.704584 0.530587
O O11 0.853206 0.893185 0.429979
O O12 0.676676 0.054822 0.923207
#
# Coordination Sequence:
#
# PCOD8136884 Si02
#       6
#     8   8   8   8   8   8
#     4  11  20  32  54  84 108 131 169 225 266 300
#     4   9  20  34  54  79 104 142 175 209 256 319
#     4   8  18  34  51  78 101 140 175 209 250 315
#     4  11  19  33  57  80 104 132 180 224 256 290
#     4   9  19  35  56  75 103 142 178 209 248 319
#     4  10  20  35  56  79 104 139 181 208 255 315
#
# _framework density 19.854444999999998
#
# number of rings (size 3 to 8) (size 9 to 14) (size 15 to 20)
#    1.000    1.333    0.000    5.000    0.000    1.333 
#    0.000    0.000    0.000    0.000    0.000    0.000 
#    0.000    0.000    0.000    0.000    0.000    0.000 
#
# Total GULP energy -297323.389860 kJ/mol
# GULP energy per Si atom -12388.474577 kJ/mol
# Density = 1.980926 g / cm^3
# Si number density = 19.854445 Si / 1000 Ang^3
#
#
#
# Elastic Constant Matrix: (Units=GPa)
#
#
# Indices 1 2 3 4 5 6 
#
# 1 28.7613 11.1291 2.3646 0.0000 0.6894 0.0000
# 2 11.1291 87.6812 14.9030 0.0000 -1.7785 0.0000
# 3 2.3646 14.9030 82.4100 0.0000 -15.8262 0.0000
# 4 0.0000 0.0000 0.0000 23.0634 0.0000 3.3656
# 5 0.6894 -1.7785 -15.8262 0.0000 12.2051 0.0000
# 6 0.0000 0.0000 0.0000 3.3656 0.0000 15.1708
#
#
#
# Elastic Compliance Matrix: (Units=1/GPa)
#
#
# Indices 1 2 3 4 5 6 
#
# 1 0.036717 -0.004572 -0.001003 0.000000 -0.004040 0.000000
# 2 -0.004572 0.012354 -0.002274 0.000000 -0.000890 0.000000
# 3 -0.001003 -0.002274 0.016674 0.000000 0.021346 0.000000
# 4 0.000000 0.000000 0.000000 0.044809 0.000000 -0.009941
# 5 -0.004040 -0.000890 0.021346 0.000000 0.109710 0.000000
# 6 0.000000 0.000000 0.000000 -0.009941 0.000000 0.068122
#
#
# Mechanical properties :
#
#
# Convention : Reuss Voigt Hill
#
# Bulk Modulus (GPa) = 19.98082 28.40511 24.19296
# Shear Modulus (GPa) = 15.58774 21.45157 18.51966
#
# Velocity S-wave (km/s) = 2.80501 3.29057 3.05744
# Velocity P-wave (km/s) = 4.53610 5.36422 4.96745
#
# Compressibility (1/GPa) = 0.05004800
#
# Stress axis : x y z
#
# Youngs Moduli (GPa) = 27.23515 80.94752 59.97474
#
# Poissons Ratio (x) = 0.37009 0.06013
# Poissons Ratio (y) = 0.12452 0.13637
# Poissons Ratio (z) = 0.02731 0.18406
#
# Static dielectric constant tensor:
#      x y z
#    x 3.125190 0.000000 -0.014010 
#    y 0.000000 3.511110 0.000000 
#    z -0.014010 0.000000 3.610910 
# 
# 
# High freq. dielectric constant tensor:
#      x y z
#    x 1.730090 0.000000 0.001010 
#    y 0.000000 1.771300 0.000000 
#    z 0.001010 0.000000 1.775690 
# 
# From -- ./inp_files/160473.got.cif
#   From: 2010.06.25/outbox.cif.g09.slc.cpg/sg15_81_cif.got.tgz:160473.got - 2010.06.28 07:06:18.
