data_PCOD8136606
_publ_section_title
;
Structure prediction by ZEFSAII (Michael W. Deem and Ramdas Pophale) SiO2 
 PCOD8136606
Probable space group: C 2/C
;
_chemical_formula_sum "Si O2"
_cell_formula_units_Z 56
_cell_length_a 14.791322
_cell_length_b 17.097575
_cell_length_c 13.491147
_cell_angle_alpha 90.000000
_cell_angle_beta 123.270093
_cell_angle_gamma 90.000000
_cell_volume 2852.629696
_symmetry_space_group_name_H-M "C 2/C"
_symmetry_group_IT_number 15
_symmetry_cell_setting 'monoclinic'
loop_
_space_group_symop_operation_xyz
x,y,z
-x,y,1/2-z
-x,-y,-z
x,-y,1/2+z
1/2+x,1/2+y,z
1/2-x,1/2+y,1/2-z
1/2-x,1/2-y,-z
1/2+x,1/2-y,1/2+z
loop_
_atom_site_type_symbol
_atom_site_label
_atom_site_fract_x
_atom_site_fract_y
_atom_site_fract_z
Si Si1 0.265587 0.715427 0.305774
Si Si2 0.483376 0.621515 0.931361
Si Si3 0.716648 0.478287 0.222883
Si Si4 0.072762 0.119663 0.196866
Si Si5 0.797116 0.924784 0.967564
Si Si6 0.978632 0.707000 0.353905
Si Si7 0.164773 0.378308 0.071486
O O1 0.351949 0.697718 0.269681
O O2 0.290569 0.659764 0.412815
O O3 0.146272 0.695211 0.194158
O O4 0.272864 0.802676 0.350949
O O5 0.364496 0.595494 0.829001
O O6 0.512639 0.706910 0.907277
O O7 0.491324 0.616368 0.055159
O O8 0.573453 0.562267 0.938212
O O9 0.656583 0.546807 0.248596
O O10 0.749047 0.508074 0.132929
O O11 0.828450 0.445081 0.338655
O O12 0.000000 0.124850 0.250000
O O13 0.732694 0.923314 0.029090
O O14 0.000000 0.694101 0.250000
O O15 0.046210 0.643338 0.459291
#
# Coordination Sequence:
#
# PCOD8136606 Si02
#       7
#     8   8   8   8   8   8   8
#     4  10  20  38  58  91 123 150 203 250 297 361
#     4  10  20  34  57  90 127 148 202 256 303 360
#     4  10  23  34  57  93 125 157 203 253 300 367
#     4  10  22  40  60  87 125 165 199 249 307 358
#     4  10  20  36  53  88 127 157 193 251 304 357
#     4  12  21  34  63  95 120 159 198 254 310 354
#     4  12  21  36  63  89 122 160 198 249 308 361
#
# _framework density 19.631008999999999
#
# number of rings (size 3 to 8) (size 9 to 14) (size 15 to 20)
#    0.000    1.714    5.714    3.000    4.000    0.000 
#    0.000    3.571    0.000    0.000    7.429    0.000 
#    0.000    0.000    0.000    0.000    0.000    0.000 
#
# Total GULP energy -346950.213214 kJ/mol
# GULP energy per Si atom -12391.079043 kJ/mol
# Density = 1.958633 g / cm^3
# Si number density = 19.631009 Si / 1000 Ang^3
#
#
#
# Elastic Constant Matrix: (Units=GPa)
#
#
# Indices 1 2 3 4 5 6 
#
# 1 77.1643 20.1469 38.0897 0.0000 2.2179 0.0000
# 2 20.1469 75.2495 44.4296 0.0000 -5.9683 0.0000
# 3 38.0897 44.4296 94.0937 0.0000 11.2099 0.0000
# 4 0.0000 0.0000 0.0000 36.0749 0.0000 1.0203
# 5 2.2179 -5.9683 11.2099 0.0000 18.8275 0.0000
# 6 0.0000 0.0000 0.0000 1.0203 0.0000 19.8480
#
#
#
# Elastic Compliance Matrix: (Units=1/GPa)
#
#
# Indices 1 2 3 4 5 6 
#
# 1 0.016279 -0.000231 -0.006720 0.000000 0.002010 0.000000
# 2 -0.000231 0.021271 -0.011578 0.000000 0.013664 0.000000
# 3 -0.006720 -0.011578 0.020621 0.000000 -0.015156 0.000000
# 4 0.000000 0.000000 0.000000 0.027760 0.000000 -0.001427
# 5 0.002010 0.013664 -0.015156 0.000000 0.066232 0.000000
# 6 0.000000 0.000000 0.000000 -0.001427 0.000000 0.050456
#
#
# Mechanical properties :
#
#
# Convention : Reuss Voigt Hill
#
# Bulk Modulus (GPa) = 47.36689 50.20442 48.78566
# Shear Modulus (GPa) = 20.26626 24.53951 22.40288
#
# Velocity S-wave (km/s) = 3.21652 3.53942 3.38183
# Velocity P-wave (km/s) = 6.16244 6.50638 6.33674
#
# Compressibility (1/GPa) = 0.02111179
#
# Stress axis : x y z
#
# Youngs Moduli (GPa) = 61.42811 47.01306 48.49513
#
# Poissons Ratio (x) = 0.01087 0.32590
# Poissons Ratio (y) = 0.01420 0.56147
# Poissons Ratio (z) = 0.41281 0.54431
#
# Static dielectric constant tensor:
#      x y z
#    x 3.552460 0.000000 0.180460 
#    y 0.000000 3.577680 0.000000 
#    z 0.180460 0.000000 3.748120 
# 
# 
# High freq. dielectric constant tensor:
#      x y z
#    x 1.734190 0.000000 0.008670 
#    y 0.000000 1.757200 0.000000 
#    z 0.008670 0.000000 1.771410 
# 
# From -- ./inp_files/155239.got.cif
#   From: 2010.06.25/outbox.cif.g09.slc.cpg/sg15_78_cif.got.tgz:155239.got - 2010.06.28 07:06:18.
