data_PCOD8136283
_publ_section_title
;
Structure prediction by ZEFSAII (Michael W. Deem and Ramdas Pophale) SiO2 
 PCOD8136283
Probable space group: C 2/C
;
_chemical_formula_sum "Si O2"
_cell_formula_units_Z 48
_cell_length_a 14.456008
_cell_length_b 11.519385
_cell_length_c 15.393210
_cell_angle_alpha 90.000000
_cell_angle_beta 102.331146
_cell_angle_gamma 90.000000
_cell_volume 2504.206555
_symmetry_space_group_name_H-M "C 2/C"
_symmetry_group_IT_number 15
_symmetry_cell_setting 'monoclinic'
loop_
_space_group_symop_operation_xyz
x,y,z
-x,y,1/2-z
-x,-y,-z
x,-y,1/2+z
1/2+x,1/2+y,z
1/2-x,1/2+y,1/2-z
1/2-x,1/2-y,-z
1/2+x,1/2-y,1/2+z
loop_
_atom_site_type_symbol
_atom_site_label
_atom_site_fract_x
_atom_site_fract_y
_atom_site_fract_z
Si Si1 0.231804 0.671336 0.368574
Si Si2 0.244976 0.786637 0.827478
Si Si3 0.926894 0.285017 0.982592
Si Si4 0.676663 0.931452 0.411162
Si Si5 0.640919 0.568825 0.433675
Si Si6 0.112119 0.178190 0.966526
O O1 0.242732 0.706103 0.271794
O O2 0.165379 0.556274 0.363128
O O3 0.183822 0.777108 0.408418
O O4 0.336342 0.656849 0.430711
O O5 0.347416 0.794117 0.893036
O O6 0.196569 0.664334 0.841737
O O7 0.174932 0.890437 0.844594
O O8 0.029572 0.275013 0.958544
O O9 0.914519 0.392444 0.048345
O O10 0.923373 0.166446 0.036299
O O11 0.763574 0.943374 0.493232
O O12 0.581192 0.448576 0.422633
#
# Coordination Sequence:
#
# PCOD8136283 Si02
#       6
#     8   8   8   8   8   8
#     4  10  21  33  50  76 107 140 170 211 257 313
#     4   9  18  33  57  75 101 137 177 211 252 310
#     4   9  17  34  58  75 101 135 175 215 253 307
#     4   8  17  34  52  75 101 138 173 203 264 313
#     4   8  16  33  55  78  99 135 168 212 262 312
#     4  10  20  33  52  77 108 134 171 210 265 305
#
# _framework density 19.167746000000001
#
# number of rings (size 3 to 8) (size 9 to 14) (size 15 to 20)
#    0.000    3.000    0.000    2.500    2.333    1.333 
#    0.000    3.333    7.333    0.000    0.000    0.000 
#    0.000    0.000    0.000    0.000    0.000    0.000 
#
# Total GULP energy -297378.155687 kJ/mol
# GULP energy per Si atom -12390.756487 kJ/mol
# Density = 1.912412 g / cm^3
# Si number density = 19.167746 Si / 1000 Ang^3
#
#
#
# Elastic Constant Matrix: (Units=GPa)
#
#
# Indices 1 2 3 4 5 6 
#
# 1 56.2247 2.5338 24.1183 0.0000 -8.1593 0.0000
# 2 2.5338 78.4437 34.1919 0.0000 -5.1229 0.0000
# 3 24.1183 34.1919 120.0784 0.0000 -24.6312 0.0000
# 4 0.0000 0.0000 0.0000 19.8522 0.0000 -3.6117
# 5 -8.1593 -5.1229 -24.6312 0.0000 18.7214 0.0000
# 6 0.0000 0.0000 0.0000 -3.6117 0.0000 24.6721
#
#
#
# Elastic Compliance Matrix: (Units=1/GPa)
#
#
# Indices 1 2 3 4 5 6 
#
# 1 0.019839 0.001127 -0.003382 0.000000 0.004506 0.000000
# 2 0.001127 0.014674 -0.004767 0.000000 -0.001765 0.000000
# 3 -0.003382 -0.004767 0.013415 0.000000 0.014872 0.000000
# 4 0.000000 0.000000 0.000000 0.051750 0.000000 0.007576
# 5 0.004506 -0.001765 0.014872 0.000000 0.074462 0.000000
# 6 0.000000 0.000000 0.000000 0.007576 0.000000 0.041641
#
#
# Mechanical properties :
#
#
# Convention : Reuss Voigt Hill
#
# Bulk Modulus (GPa) = 29.51028 41.82607 35.66817
# Shear Modulus (GPa) = 20.73668 25.57601 23.15634
#
# Velocity S-wave (km/s) = 3.29272 3.65680 3.47953
# Velocity P-wave (km/s) = 5.46674 6.30064 5.89844
#
# Compressibility (1/GPa) = 0.03388650
#
# Stress axis : x y z
#
# Youngs Moduli (GPa) = 50.40466 68.14729 74.54355
#
# Poissons Ratio (x) = -0.07683 0.25207
# Poissons Ratio (y) = -0.05683 0.35534
# Poissons Ratio (z) = 0.17045 0.32485
#
# Static dielectric constant tensor:
#      x y z
#    x 3.300690 0.000000 -0.203000 
#    y 0.000000 4.407790 0.000000 
#    z -0.203000 0.000000 3.248860 
# 
# 
# High freq. dielectric constant tensor:
#      x y z
#    x 1.724680 0.000000 -0.025530 
#    y 0.000000 1.755150 0.000000 
#    z -0.025530 0.000000 1.721290 
# 
# From -- ./inp_files/151861.got.cif
#   From: 2010.06.25/outbox.cif.g09.slc.cpg/sg15_76_cif.got.tgz:151861.got - 2010.06.28 07:06:18.
