data_PCOD8136370
_publ_section_title
;
Structure prediction by ZEFSAII (Michael W. Deem and Ramdas Pophale) SiO2 
 PCOD8136370
Probable space group: C 2/C
;
_chemical_formula_sum "Si O2"
_cell_formula_units_Z 64
_cell_length_a 27.218774
_cell_length_b 18.808992
_cell_length_c 18.191496
_cell_angle_alpha 90.000000
_cell_angle_beta 159.848124
_cell_angle_gamma 90.000000
_cell_volume 3208.515173
_symmetry_space_group_name_H-M "C 2/C"
_symmetry_group_IT_number 15
_symmetry_cell_setting 'monoclinic'
loop_
_space_group_symop_operation_xyz
x,y,z
-x,y,1/2-z
-x,-y,-z
x,-y,1/2+z
1/2+x,1/2+y,z
1/2-x,1/2+y,1/2-z
1/2-x,1/2-y,-z
1/2+x,1/2-y,1/2+z
loop_
_atom_site_type_symbol
_atom_site_label
_atom_site_fract_x
_atom_site_fract_y
_atom_site_fract_z
Si Si1 0.473802 0.105220 0.127265
Si Si2 0.652545 0.222299 0.299889
Si Si3 0.410274 0.302364 0.784200
Si Si4 0.285212 0.846566 0.120279
Si Si5 0.609579 0.312900 0.585835
Si Si6 0.882879 0.498533 0.772631
Si Si7 0.153890 0.113287 0.004926
Si Si8 0.229841 0.172744 0.710338
O O1 0.500000 0.114935 0.250000
O O2 0.542074 0.167181 0.176245
O O3 0.548707 0.033760 0.205034
O O4 0.307897 0.112427 0.870576
O O5 0.750000 0.250000 0.500000
O O6 0.755079 0.184112 0.385235
O O7 0.556066 0.287287 0.134054
O O8 0.401007 0.216020 0.770617
O O9 0.341490 0.335665 0.615319
O O10 0.334897 0.331673 0.753611
O O11 0.570278 0.327533 0.013173
O O12 0.352322 0.922995 0.200930
O O13 0.228069 0.847471 0.122446
O O14 0.623293 0.380614 0.550034
O O15 0.702781 0.249925 0.682012
O O16 0.742118 0.457065 0.605133
O O17 0.000000 0.500000 0.000000
O O18 0.000000 0.112862 0.750000
#
# Coordination Sequence:
#
# PCOD8136370 Si02
#       8
#     8   8   8   8   8   8   8   8
#     4  10  23  38  59  93 120 162 208 248 318 378
#     4  10  20  33  58  87 133 159 191 259 313 374
#     4  10  22  38  66  95 121 154 212 283 308 360
#     4  10  22  44  62  89 122 164 215 256 327 367
#     4  10  21  34  57  97 124 155 204 258 318 372
#     4  11  24  46  64  83 127 175 211 254 313 404
#     4  11  23  37  60  93 123 168 208 246 315 393
#     4  10  20  36  64  89 123 162 200 255 317 380
#
# _framework density 19.946922000000001
#
# number of rings (size 3 to 8) (size 9 to 14) (size 15 to 20)
#    0.000    1.750    2.500    1.125    8.750    1.000 
#    2.250    1.250    0.000    2.250    0.000    0.000 
#    0.000    0.000    0.000    0.000    0.000    0.000 
#
# Total GULP energy -396549.465200 kJ/mol
# GULP energy per Si atom -12392.170787 kJ/mol
# Density = 1.990152 g / cm^3
# Si number density = 19.946922 Si / 1000 Ang^3
#
#
#
# Elastic Constant Matrix: (Units=GPa)
#
#
# Indices 1 2 3 4 5 6 
#
# 1 108.2027 39.8470 59.8555 0.0000 -22.6333 0.0000
# 2 39.8470 83.9808 42.9703 0.0000 -0.4987 0.0000
# 3 59.8555 42.9703 116.0678 0.0000 -1.8069 0.0000
# 4 0.0000 0.0000 0.0000 17.1415 0.0000 -1.9535
# 5 -22.6333 -0.4987 -1.8069 0.0000 37.0290 0.0000
# 6 0.0000 0.0000 0.0000 -1.9535 0.0000 18.6703
#
#
#
# Elastic Compliance Matrix: (Units=1/GPa)
#
#
# Indices 1 2 3 4 5 6 
#
# 1 0.016678 -0.004358 -0.006835 0.000000 0.009802 0.000000
# 2 -0.004358 0.015829 -0.003654 0.000000 -0.002629 0.000000
# 3 -0.006835 -0.003654 0.013437 0.000000 -0.003571 0.000000
# 4 0.000000 0.000000 0.000000 0.059042 0.000000 0.006178
# 5 0.009802 -0.002629 -0.003571 0.000000 0.032787 0.000000
# 6 0.000000 0.000000 0.000000 0.006178 0.000000 0.054207
#
#
# Mechanical properties :
#
#
# Convention : Reuss Voigt Hill
#
# Bulk Modulus (GPa) = 61.53274 65.95523 63.74399
# Shear Modulus (GPa) = 22.01758 25.60673 23.81216
#
# Velocity S-wave (km/s) = 3.32597 3.58682 3.45885
# Velocity P-wave (km/s) = 6.75756 7.09161 6.92660
#
# Compressibility (1/GPa) = 0.01625151
#
# Stress axis : x y z
#
# Youngs Moduli (GPa) = 59.95947 63.17458 74.41933
#
# Poissons Ratio (x) = 0.27531 0.50864
# Poissons Ratio (y) = 0.26130 0.27191
# Poissons Ratio (z) = 0.40981 0.23082
#
# Static dielectric constant tensor:
#      x y z
#    x 3.710920 0.000000 -0.040770 
#    y 0.000000 3.750380 0.000000 
#    z -0.040770 0.000000 3.969640 
# 
# 
# High freq. dielectric constant tensor:
#      x y z
#    x 1.786040 0.000000 -0.008760 
#    y 0.000000 1.749200 0.000000 
#    z -0.008760 0.000000 1.788440 
# 
# From -- ./inp_files/223170.got.cif
#   From: 2010.06.25/outbox.cif.g09.slc.cpg/sg15_112_cif.got.tgz:223170.got - 2010.06.28 07:06:18.
