data_PCOD8136226
_publ_section_title
;
Structure prediction by ZEFSAII (Michael W. Deem and Ramdas Pophale) SiO2 
 PCOD8136226
Probable space group: C 2/C
;
_chemical_formula_sum "Si O2"
_cell_formula_units_Z 64
_cell_length_a 17.837571
_cell_length_b 20.087584
_cell_length_c 9.677828
_cell_angle_alpha 90.000000
_cell_angle_beta 85.613547
_cell_angle_gamma 90.000000
_cell_volume 3457.541054
_symmetry_space_group_name_H-M "C 2/C"
_symmetry_group_IT_number 15
_symmetry_cell_setting 'monoclinic'
loop_
_space_group_symop_operation_xyz
x,y,z
-x,y,1/2-z
-x,-y,-z
x,-y,1/2+z
1/2+x,1/2+y,z
1/2-x,1/2+y,1/2-z
1/2-x,1/2-y,-z
1/2+x,1/2-y,1/2+z
loop_
_atom_site_type_symbol
_atom_site_label
_atom_site_fract_x
_atom_site_fract_y
_atom_site_fract_z
Si Si1 0.202900 0.316242 0.975241
Si Si2 0.917189 0.293409 0.288789
Si Si3 0.175071 0.270800 0.685318
Si Si4 0.296783 0.831313 0.103193
Si Si5 0.677972 0.570081 0.991875
Si Si6 0.811197 0.060104 0.829356
Si Si7 0.460676 0.349151 0.884762
Si Si8 0.938831 0.163980 0.870331
O O1 0.170773 0.313848 0.824641
O O2 0.250000 0.250000 0.000000
O O3 0.129918 0.327300 0.081576
O O4 0.254924 0.379619 0.988534
O O5 0.877139 0.310606 0.150534
O O6 0.920351 0.215087 0.323299
O O7 0.000000 0.323345 0.250000
O O8 0.236802 0.213338 0.695006
O O9 0.201937 0.319598 0.560399
O O10 0.095325 0.235675 0.666752
O O11 0.271162 0.907108 0.134388
O O12 0.676409 0.546327 0.834116
O O13 0.687769 0.508929 0.092143
O O14 0.598319 0.604170 0.031956
O O15 0.874902 0.107701 0.885481
O O16 0.500000 0.387472 0.750000
O O17 0.523945 0.327263 0.985129
O O18 0.000000 0.141881 0.750000
#
# Coordination Sequence:
#
# PCOD8136226 Si02
#       8
#     8   8   8   8   8   8   8   8
#     4  12  20  39  66  89 120 155 206 262 312 358
#     4  11  21  37  62  94 122 152 197 256 325 367
#     4  10  20  32  62  86 117 158 202 249 307 357
#     4  10  20  39  55  88 121 153 198 261 308 350
#     4  12  25  42  62  88 121 168 217 247 301 371
#     4  11  26  41  61  83 122 170 213 249 297 368
#     4  11  23  36  60  92 128 163 202 251 300 370
#     4  11  21  39  57  88 133 163 197 246 303 360
#
# _framework density 18.510265
#
# number of rings (size 3 to 8) (size 9 to 14) (size 15 to 20)
#    0.000    1.000    5.000    3.000    3.500    2.000 
#    0.000    0.000    0.000    0.750    0.000    0.000 
#    0.000    0.000    0.000    0.000    0.000    0.000 
#
# Total GULP energy -396819.513776 kJ/mol
# GULP energy per Si atom -12400.609806 kJ/mol
# Density = 1.846813 g / cm^3
# Si number density = 18.510265 Si / 1000 Ang^3
#
#
#
# Elastic Constant Matrix: (Units=GPa)
#
#
# Indices 1 2 3 4 5 6 
#
# 1 113.1308 46.9938 48.8579 0.0000 0.4084 0.0000
# 2 46.9938 79.8695 41.1066 0.0000 1.6077 0.0000
# 3 48.8579 41.1066 122.8293 0.0000 0.9408 0.0000
# 4 0.0000 0.0000 0.0000 28.4257 0.0000 0.0807
# 5 0.4084 1.6077 0.9408 0.0000 33.6700 0.0000
# 6 0.0000 0.0000 0.0000 0.0807 0.0000 16.4766
#
#
#
# Elastic Compliance Matrix: (Units=1/GPa)
#
#
# Indices 1 2 3 4 5 6 
#
# 1 0.012581 -0.005835 -0.003053 0.000000 0.000211 0.000000
# 2 -0.005835 0.017844 -0.003645 0.000000 -0.000679 0.000000
# 3 -0.003053 -0.003645 0.010576 0.000000 -0.000084 0.000000
# 4 0.000000 0.000000 0.000000 0.035180 0.000000 -0.000172
# 5 0.000211 -0.000679 -0.000084 0.000000 0.029732 0.000000
# 6 0.000000 0.000000 0.000000 -0.000172 0.000000 0.060693
#
#
# Mechanical properties :
#
#
# Convention : Reuss Voigt Hill
#
# Bulk Modulus (GPa) = 62.76051 65.52737 64.14394
# Shear Modulus (GPa) = 25.38264 27.63923 26.51094
#
# Velocity S-wave (km/s) = 3.70709 3.86837 3.78859
# Velocity P-wave (km/s) = 7.23206 7.44512 7.33936
#
# Compressibility (1/GPa) = 0.01593359
#
# Stress axis : x y z
#
# Youngs Moduli (GPa) = 79.48426 56.04226 94.55003
#
# Poissons Ratio (x) = 0.32703 0.28867
# Poissons Ratio (y) = 0.46382 0.34466
# Poissons Ratio (z) = 0.24267 0.20429
#
# Static dielectric constant tensor:
#      x y z
#    x 3.626530 0.000000 -0.081710 
#    y 0.000000 3.147730 0.000000 
#    z -0.081710 0.000000 3.645510 
# 
# 
# High freq. dielectric constant tensor:
#      x y z
#    x 1.721540 0.000000 -0.001490 
#    y 0.000000 1.679420 0.000000 
#    z -0.001490 0.000000 1.743190 
# 
# From -- ./inp_files/50243.got.cif
#   From: 2010.06.25/outbox.cif.g09.slc.cpg/sg15_26_cif.got.tgz:50243.got - 2010.06.28 07:06:18.
