data_PCOD8136704
_publ_section_title
;
Structure prediction by ZEFSAII (Michael W. Deem and Ramdas Pophale) SiO2 
 PCOD8136704
Probable space group: C 2/C
;
_chemical_formula_sum "Si O2"
_cell_formula_units_Z 48
_cell_length_a 19.665877
_cell_length_b 23.211080
_cell_length_c 8.076390
_cell_angle_alpha 90.000000
_cell_angle_beta 144.661641
_cell_angle_gamma 90.000000
_cell_volume 2132.343446
_symmetry_space_group_name_H-M "C 2/C"
_symmetry_group_IT_number 15
_symmetry_cell_setting 'monoclinic'
loop_
_space_group_symop_operation_xyz
x,y,z
-x,y,1/2-z
-x,-y,-z
x,-y,1/2+z
1/2+x,1/2+y,z
1/2-x,1/2+y,1/2-z
1/2-x,1/2-y,-z
1/2+x,1/2-y,1/2+z
loop_
_atom_site_type_symbol
_atom_site_label
_atom_site_fract_x
_atom_site_fract_y
_atom_site_fract_z
Si Si1 0.940776 0.400010 0.309769
Si Si2 0.669060 0.406044 0.455052
Si Si3 0.761791 0.685209 0.580348
Si Si4 0.916609 0.899081 0.857903
Si Si5 0.338928 0.874127 0.542847
Si Si6 0.226443 0.527560 0.833213
O O1 0.837711 0.351650 0.096243
O O2 0.881258 0.460016 0.252547
O O3 0.000000 0.409757 0.250000
O O4 0.028969 0.378509 0.627929
O O5 0.618604 0.382689 0.524721
O O6 0.752823 0.360834 0.526937
O O7 0.755979 0.460294 0.666052
O O8 0.554051 0.413967 0.108843
O O9 0.750000 0.750000 0.500000
O O10 0.630997 0.657091 0.337024
O O11 0.826375 0.678136 0.886580
O O12 0.850425 0.955322 0.661243
O O13 0.297679 0.935474 0.381233
#
# Coordination Sequence:
#
# PCOD8136704 Si02
#       6
#     8   8   8   8   8   8
#     4  10  21  42  64  93 132 159 217 271 310 382
#     4  11  20  36  58  90 129 163 208 249 316 372
#     4  10  22  44  65  87 119 162 218 271 329 377
#     4   9  21  38  56  87 129 161 207 268 297 378
#     4  10  21  38  62  91 126 165 211 260 311 381
#     4  10  20  34  60  88 126 173 204 245 312 380
#
# _framework density 22.510445000000001
#
# number of rings (size 3 to 8) (size 9 to 14) (size 15 to 20)
#    0.000    2.333    0.000    5.500    0.000    4.667 
#    9.000    6.667    0.000    1.000    0.000    0.000 
#    0.000    0.000    0.000    0.000    0.000    0.000 
#
# Total GULP energy -297362.196569 kJ/mol
# GULP energy per Si atom -12390.091524 kJ/mol
# Density = 2.245921 g / cm^3
# Si number density = 22.510445 Si / 1000 Ang^3
#
#
#
# Elastic Constant Matrix: (Units=GPa)
#
#
# Indices 1 2 3 4 5 6 
#
# 1 70.1969 14.0860 1.1282 0.0000 7.4657 0.0000
# 2 14.0860 77.9112 20.0026 0.0000 9.1803 0.0000
# 3 1.1282 20.0026 130.1060 0.0000 8.7252 0.0000
# 4 0.0000 0.0000 0.0000 21.8428 0.0000 -0.5470
# 5 7.4657 9.1803 8.7252 0.0000 33.6543 0.0000
# 6 0.0000 0.0000 0.0000 -0.5470 0.0000 11.9562
#
#
#
# Elastic Compliance Matrix: (Units=1/GPa)
#
#
# Indices 1 2 3 4 5 6 
#
# 1 0.015036 -0.002505 0.000440 0.000000 -0.002766 0.000000
# 2 -0.002505 0.014120 -0.001962 0.000000 -0.002787 0.000000
# 3 0.000440 -0.001962 0.008095 0.000000 -0.001661 0.000000
# 4 0.000000 0.000000 0.000000 0.045834 0.000000 0.002097
# 5 -0.002766 -0.002787 -0.001661 0.000000 0.031518 0.000000
# 6 0.000000 0.000000 0.000000 0.002097 0.000000 0.083735
#
#
# Mechanical properties :
#
#
# Convention : Reuss Voigt Hill
#
# Bulk Modulus (GPa) = 34.25086 38.73863 36.49474
# Shear Modulus (GPa) = 23.13472 29.69048 26.41260
#
# Velocity S-wave (km/s) = 3.20930 3.63570 3.42913
# Velocity P-wave (km/s) = 5.38344 5.90516 5.65032
#
# Compressibility (1/GPa) = 0.02919635
#
# Stress axis : x y z
#
# Youngs Moduli (GPa) = 66.50923 70.82008 123.52852
#
# Poissons Ratio (x) = 0.17744 -0.05439
# Poissons Ratio (y) = 0.16664 0.24239
# Poissons Ratio (z) = -0.02928 0.13896
#
# Static dielectric constant tensor:
#      x y z
#    x 4.089480 0.000000 0.012990 
#    y 0.000000 3.386060 0.000000 
#    z 0.012990 0.000000 4.618600 
# 
# 
# High freq. dielectric constant tensor:
#      x y z
#    x 1.890320 0.000000 -0.001450 
#    y 0.000000 1.820580 0.000000 
#    z -0.001450 0.000000 1.920830 
# 
# From -- ./inp_files/59168.got.cif
#   From: 2010.06.25/outbox.cif.g09.slc.cpg/sg15_30_cif.got.tgz:59168.got - 2010.06.28 07:06:18.
