data_PCOD8136155
_publ_section_title
;
Structure prediction by ZEFSAII (Michael W. Deem and Ramdas Pophale) SiO2 
 PCOD8136155
Probable space group: C 2/C
;
_chemical_formula_sum "Si O2"
_cell_formula_units_Z 32
_cell_length_a 24.480687
_cell_length_b 10.097755
_cell_length_c 9.022517
_cell_angle_alpha 90.000000
_cell_angle_beta 44.784544
_cell_angle_gamma 90.000000
_cell_volume 1571.165220
_symmetry_space_group_name_H-M "C 2/C"
_symmetry_group_IT_number 15
_symmetry_cell_setting 'monoclinic'
loop_
_space_group_symop_operation_xyz
x,y,z
-x,y,1/2-z
-x,-y,-z
x,-y,1/2+z
1/2+x,1/2+y,z
1/2-x,1/2+y,1/2-z
1/2-x,1/2-y,-z
1/2+x,1/2-y,1/2+z
loop_
_atom_site_type_symbol
_atom_site_label
_atom_site_fract_x
_atom_site_fract_y
_atom_site_fract_z
Si Si1 0.514965 0.137469 0.393866
Si Si2 0.817787 0.413313 0.874980
Si Si3 0.242162 0.245748 0.763033
Si Si4 0.640684 0.222006 0.717356
O O1 0.500000 0.120328 0.250000
O O2 0.603944 0.176592 0.254551
O O3 0.452001 0.240991 0.583256
O O4 0.500000 0.000000 0.500000
O O5 0.778297 0.373913 0.796233
O O6 0.835970 0.567383 0.838620
O O7 0.760744 0.378857 0.121326
O O8 0.315270 0.284092 0.726263
O O9 0.169228 0.208322 0.010613
#
# Coordination Sequence:
#
# PCOD8136155 Si02
#       4
#     8   8   8   8
#     4  10  20  32  52  78 107 136 164 218 277 312
#     4  10  20  34  53  78 110 134 170 215 259 313
#     4  10  20  32  50  80 104 142 172 200 266 314
#     4  10  20  34  53  78 110 134 170 215 259 313
#
# _framework density 20.367049000000002
#
# number of rings (size 3 to 8) (size 9 to 14) (size 15 to 20)
#    0.000    2.000    2.500    1.500   10.500    0.000 
#    0.000    0.000    0.000    0.000    0.000  122.500 
#    0.000    0.000    0.000    0.000    0.000    0.000 
#
# Total GULP energy -198278.143414 kJ/mol
# GULP energy per Si atom -12392.383963 kJ/mol
# Density = 2.032069 g / cm^3
# Si number density = 20.367049 Si / 1000 Ang^3
#
#
#
# Elastic Constant Matrix: (Units=GPa)
#
#
# Indices 1 2 3 4 5 6 
#
# 1 115.9825 27.5877 72.5765 0.0000 4.0526 0.0000
# 2 27.5877 28.4229 21.3449 0.0000 -5.2946 0.0000
# 3 72.5765 21.3449 149.4742 0.0000 2.1920 0.0000
# 4 0.0000 0.0000 0.0000 28.8395 0.0000 -1.4921
# 5 4.0526 -5.2946 2.1920 0.0000 42.2964 0.0000
# 6 0.0000 0.0000 0.0000 -1.4921 0.0000 20.7327
#
#
#
# Elastic Compliance Matrix: (Units=1/GPa)
#
#
# Indices 1 2 3 4 5 6 
#
# 1 0.014722 -0.010532 -0.005608 0.000000 -0.002438 0.000000
# 2 -0.010532 0.048134 -0.001864 0.000000 0.007131 0.000000
# 3 -0.005608 -0.001864 0.009682 0.000000 -0.000198 0.000000
# 4 0.000000 0.000000 0.000000 0.034804 0.000000 0.002505
# 5 -0.002438 0.007131 -0.000198 0.000000 0.024779 0.000000
# 6 0.000000 0.000000 0.000000 0.002505 0.000000 0.048413
#
#
# Mechanical properties :
#
#
# Convention : Reuss Voigt Hill
#
# Bulk Modulus (GPa) = 27.37564 59.65531 43.51547
# Shear Modulus (GPa) = 21.86082 29.86508 25.86295
#
# Velocity S-wave (km/s) = 3.27974 3.83344 3.56735
# Velocity P-wave (km/s) = 5.27377 6.99624 6.19516
#
# Compressibility (1/GPa) = 0.03652883
#
# Stress axis : x y z
#
# Youngs Moduli (GPa) = 67.92679 20.77549 103.28014
#
# Poissons Ratio (x) = 0.21880 0.57924
# Poissons Ratio (y) = 0.71538 0.19256
# Poissons Ratio (z) = 0.38096 0.03874
#
# Static dielectric constant tensor:
#      x y z
#    x 4.187540 0.000000 -0.308720 
#    y 0.000000 3.128410 0.000000 
#    z -0.308720 0.000000 4.570620 
# 
# 
# High freq. dielectric constant tensor:
#      x y z
#    x 1.804070 0.000000 0.012020 
#    y 0.000000 1.727050 0.000000 
#    z 0.012020 0.000000 1.822660 
# 
# From -- ./inp_files/36533.got.cif
#   From: 2010.06.25/outbox.cif.g09.slc.cpg/sg15_19_cif.got.tgz:36533.got - 2010.06.28 07:06:18.
