data_PCOD8136560
_publ_section_title
;
Structure prediction by ZEFSAII (Michael W. Deem and Ramdas Pophale) SiO2 
 PCOD8136560
Probable space group: C 2/C
;
_chemical_formula_sum "Si O2"
_cell_formula_units_Z 52
_cell_length_a 18.167420
_cell_length_b 8.665350
_cell_length_c 17.565240
_cell_angle_alpha 90.000000
_cell_angle_beta 117.580337
_cell_angle_gamma 90.000000
_cell_volume 2451.008619
_symmetry_space_group_name_H-M "C 2/C"
_symmetry_group_IT_number 15
_symmetry_cell_setting 'monoclinic'
loop_
_space_group_symop_operation_xyz
x,y,z
-x,y,1/2-z
-x,-y,-z
x,-y,1/2+z
1/2+x,1/2+y,z
1/2-x,1/2+y,1/2-z
1/2-x,1/2-y,-z
1/2+x,1/2-y,1/2+z
loop_
_atom_site_type_symbol
_atom_site_label
_atom_site_fract_x
_atom_site_fract_y
_atom_site_fract_z
Si Si1 0.328672 0.174869 0.867586
Si Si2 0.500000 0.642033 0.750000
Si Si3 0.497692 0.322847 0.979045
Si Si4 0.308858 0.175843 0.677038
Si Si5 0.055641 0.156945 0.341735
Si Si6 0.853230 0.665051 0.381922
Si Si7 0.163439 0.663974 0.299760
O O1 0.402157 0.277048 0.937508
O O2 0.332235 0.193534 0.777459
O O3 0.241872 0.232506 0.862226
O O4 0.342734 0.005912 0.910887
O O5 0.468570 0.526720 0.667453
O O6 0.423113 0.750751 0.730529
O O7 0.538004 0.278292 0.916748
O O8 0.500000 0.500000 0.000000
O O9 0.552944 0.226800 0.065595
O O10 0.352020 0.304322 0.643483
O O11 0.210951 0.207966 0.615835
O O12 0.332004 0.004163 0.657736
O O13 0.000000 0.242153 0.250000
O O14 0.826925 0.632945 0.283790
#
# Coordination Sequence:
#
# PCOD8136560 Si02
#       7
#     8   4   8   8   8   8   8
#     4  10  20  39  59  86 121 155 197 242 295 356
#     4  10  20  34  56  86 112 152 200 248 292 338
#     4  12  23  38  61  89 122 157 198 244 300 350
#     4  10  20  38  62  88 115 157 202 239 293 353
#     4  10  22  38  61  84 119 159 196 242 292 353
#     4  10  22  36  61  89 119 157 195 248 298 348
#     4  10  21  36  62  89 117 153 204 247 288 355
#
# _framework density 21.215755999999999
#
# number of rings (size 3 to 8) (size 9 to 14) (size 15 to 20)
#    0.462    1.231    1.538    3.231    1.077    4.308 
#    0.000    1.538    0.000    6.462    0.000    0.000 
#    0.000    0.000    0.000    0.000    0.000    0.000 
#
# Total GULP energy -322164.477510 kJ/mol
# GULP energy per Si atom -12390.941443 kJ/mol
# Density = 2.116747 g / cm^3
# Si number density = 21.215756 Si / 1000 Ang^3
#
#
#
# Elastic Constant Matrix: (Units=GPa)
#
#
# Indices 1 2 3 4 5 6 
#
# 1 124.9985 59.4502 17.7705 0.0000 38.2377 0.0000
# 2 59.4502 157.8480 30.0170 0.0000 34.1382 0.0000
# 3 17.7705 30.0170 46.9090 0.0000 22.1278 0.0000
# 4 0.0000 0.0000 0.0000 26.5408 0.0000 7.6008
# 5 38.2377 34.1382 22.1278 0.0000 38.9313 0.0000
# 6 0.0000 0.0000 0.0000 7.6008 0.0000 34.1313
#
#
#
# Elastic Compliance Matrix: (Units=1/GPa)
#
#
# Indices 1 2 3 4 5 6 
#
# 1 0.012335 -0.002687 0.002254 0.000000 -0.011040 0.000000
# 2 -0.002687 0.008609 -0.002971 0.000000 -0.003221 0.000000
# 3 0.002254 -0.002971 0.030306 0.000000 -0.016834 0.000000
# 4 0.000000 0.000000 0.000000 0.040244 0.000000 -0.008962
# 5 -0.011040 -0.003221 -0.016834 0.000000 0.048923 0.000000
# 6 0.000000 0.000000 0.000000 -0.008962 0.000000 0.031294
#
#
# Mechanical properties :
#
#
# Convention : Reuss Voigt Hill
#
# Bulk Modulus (GPa) = 22.50106 60.47012 41.48559
# Shear Modulus (GPa) = 25.86212 34.75518 30.30865
#
# Velocity S-wave (km/s) = 3.49521 4.05183 3.78377
# Velocity P-wave (km/s) = 5.18821 7.10311 6.21979
#
# Compressibility (1/GPa) = 0.04444235
#
# Stress axis : x y z
#
# Youngs Moduli (GPa) = 81.07225 116.16034 32.99654
#
# Poissons Ratio (x) = 0.31207 -0.07439
# Poissons Ratio (y) = 0.21780 0.09805
# Poissons Ratio (z) = -0.18277 0.34517
#
# Static dielectric constant tensor:
#      x y z
#    x 3.700290 0.000000 0.180950 
#    y 0.000000 3.878180 0.000000 
#    z 0.180950 0.000000 3.636100 
# 
# 
# High freq. dielectric constant tensor:
#      x y z
#    x 1.826900 0.000000 0.024640 
#    y 0.000000 1.838350 0.000000 
#    z 0.024640 0.000000 1.806180 
# 
# From -- ./inp_files/209693.got.cif
#   From: 2010.06.25/outbox.cif.g09.slc.cpg/sg15_105_cif.got.tgz:209693.got - 2010.06.28 07:06:18.
