data_PCOD8136624
_publ_section_title
;
Structure prediction by ZEFSAII (Michael W. Deem and Ramdas Pophale) SiO2 
 PCOD8136624
Probable space group: C 2/C
;
_chemical_formula_sum "Si O2"
_cell_formula_units_Z 56
_cell_length_a 9.024499
_cell_length_b 32.265425
_cell_length_c 12.704402
_cell_angle_alpha 90.000000
_cell_angle_beta 134.834812
_cell_angle_gamma 90.000000
_cell_volume 2623.301582
_symmetry_space_group_name_H-M "C 2/C"
_symmetry_group_IT_number 15
_symmetry_cell_setting 'monoclinic'
loop_
_space_group_symop_operation_xyz
x,y,z
-x,y,1/2-z
-x,-y,-z
x,-y,1/2+z
1/2+x,1/2+y,z
1/2-x,1/2+y,1/2-z
1/2-x,1/2-y,-z
1/2+x,1/2-y,1/2+z
loop_
_atom_site_type_symbol
_atom_site_label
_atom_site_fract_x
_atom_site_fract_y
_atom_site_fract_z
Si Si1 0.363510 0.958848 0.834576
Si Si2 0.218263 0.993570 0.967127
Si Si3 0.958923 0.702309 0.557528
Si Si4 0.456031 0.132840 0.393728
Si Si5 0.656679 0.354203 0.560230
Si Si6 0.020725 0.942095 0.496744
Si Si7 0.830980 0.784163 0.393614
O O1 0.464750 0.915829 0.925861
O O2 0.240948 0.950324 0.666047
O O3 0.197627 0.975745 0.838220
O O4 0.542395 0.992136 0.900585
O O5 0.048302 0.030473 0.903850
O O6 0.175231 0.957232 0.031704
O O7 0.957938 0.657457 0.503814
O O8 0.902433 0.736682 0.441945
O O9 0.784974 0.700372 0.560202
O O10 0.184448 0.713051 0.718414
O O11 0.658242 0.145390 0.429997
O O12 0.246168 0.143982 0.223674
O O13 0.501246 0.393377 0.462642
O O14 0.532769 0.312284 0.477665
#
# Coordination Sequence:
#
# PCOD8136624 Si02
#       7
#     8   8   8   8   8   8   8
#     4  10  20  37  57  82 114 153 198 245 293 349
#     4  10  20  34  58  82 112 150 198 244 290 344
#     4  10  22  41  64  91 122 153 193 239 291 351
#     4  10  21  38  62  88 119 158 200 243 294 351
#     4  10  21  38  62  88 119 158 200 243 294 351
#     4  10  20  37  57  82 114 153 198 245 293 349
#     4  10  22  41  64  91 122 153 193 239 291 351
#
# _framework density 21.347147
#
# number of rings (size 3 to 8) (size 9 to 14) (size 15 to 20)
#    0.000    2.000    1.429    1.714    2.000    2.857 
#    0.000    8.571    0.000    0.000    0.000    0.000 
#    0.000    0.000    0.000    0.000    0.000    0.000 
#
# Total GULP energy -347263.927685 kJ/mol
# GULP energy per Si atom -12402.283132 kJ/mol
# Density = 2.129856 g / cm^3
# Si number density = 21.347147 Si / 1000 Ang^3
#
#
#
# Elastic Constant Matrix: (Units=GPa)
#
#
# Indices 1 2 3 4 5 6 
#
# 1 83.6968 25.8666 12.0062 0.0000 3.4650 0.0000
# 2 25.8666 93.7739 25.1303 0.0000 3.4797 0.0000
# 3 12.0062 25.1303 58.5238 0.0000 0.0886 0.0000
# 4 0.0000 0.0000 0.0000 34.1810 0.0000 1.2863
# 5 3.4650 3.4797 0.0886 0.0000 30.3513 0.0000
# 6 0.0000 0.0000 0.0000 1.2863 0.0000 37.1051
#
#
#
# Elastic Compliance Matrix: (Units=1/GPa)
#
#
# Indices 1 2 3 4 5 6 
#
# 1 0.013185 -0.003244 -0.001310 0.000000 -0.001130 0.000000
# 2 -0.003244 0.012906 -0.004875 0.000000 -0.001095 0.000000
# 3 -0.001310 -0.004875 0.019448 0.000000 0.000652 0.000000
# 4 0.000000 0.000000 0.000000 0.029294 0.000000 -0.001016
# 5 -0.001130 -0.001095 0.000652 0.000000 0.033200 0.000000
# 6 0.000000 0.000000 0.000000 -0.001016 0.000000 0.026986
#
#
# Mechanical properties :
#
#
# Convention : Reuss Voigt Hill
#
# Bulk Modulus (GPa) = 37.47946 40.22232 38.85089
# Shear Modulus (GPa) = 30.71813 31.86025 31.28919
#
# Velocity S-wave (km/s) = 3.79751 3.86746 3.83264
# Velocity P-wave (km/s) = 6.06822 6.23104 6.15017
#
# Compressibility (1/GPa) = 0.02668128
#
# Stress axis : x y z
#
# Youngs Moduli (GPa) = 75.84291 77.48501 51.41902
#
# Poissons Ratio (x) = 0.25136 0.06737
# Poissons Ratio (y) = 0.24603 0.25065
# Poissons Ratio (z) = 0.09938 0.37771
#
# Static dielectric constant tensor:
#      x y z
#    x 3.834100 0.000000 -0.036400 
#    y 0.000000 3.912230 0.000000 
#    z -0.036400 0.000000 3.665760 
# 
# 
# High freq. dielectric constant tensor:
#      x y z
#    x 1.842860 0.000000 0.003470 
#    y 0.000000 1.838710 0.000000 
#    z 0.003470 0.000000 1.818720 
# 
# From -- ./inp_files/139560.got.cif
#   From: 2010.06.25/outbox.cif.g09.slc.cpg/sg15_70_cif.got.tgz:139560.got - 2010.06.28 07:06:18.
