data_PCOD8136581
_publ_section_title
;
Structure prediction by ZEFSAII (Michael W. Deem and Ramdas Pophale) SiO2 
 PCOD8136581
Probable space group: C 2/C
;
_chemical_formula_sum "Si O2"
_cell_formula_units_Z 64
_cell_length_a 18.404909
_cell_length_b 11.372569
_cell_length_c 17.336906
_cell_angle_alpha 90.000000
_cell_angle_beta 99.282288
_cell_angle_gamma 90.000000
_cell_volume 3581.289870
_symmetry_space_group_name_H-M "C 2/C"
_symmetry_group_IT_number 15
_symmetry_cell_setting 'monoclinic'
loop_
_space_group_symop_operation_xyz
x,y,z
-x,y,1/2-z
-x,-y,-z
x,-y,1/2+z
1/2+x,1/2+y,z
1/2-x,1/2+y,1/2-z
1/2-x,1/2-y,-z
1/2+x,1/2-y,1/2+z
loop_
_atom_site_type_symbol
_atom_site_label
_atom_site_fract_x
_atom_site_fract_y
_atom_site_fract_z
Si Si1 0.659918 0.842452 0.446516
Si Si2 0.854890 0.860438 0.046363
Si Si3 0.442718 0.921177 0.943988
Si Si4 0.336268 0.044666 0.171072
Si Si5 0.188102 0.462278 0.163376
Si Si6 0.705596 0.594206 0.427424
Si Si7 0.464889 0.781827 0.665020
Si Si8 0.278376 0.268111 0.899765
O O1 0.597985 0.834687 0.502597
O O2 0.664383 0.717310 0.402852
O O3 0.737857 0.879888 0.494550
O O4 0.639533 0.942822 0.382672
O O5 0.924208 0.817697 0.107938
O O6 0.775254 0.815925 0.060560
O O7 0.854738 0.001803 0.050514
O O8 0.852859 0.809384 0.958405
O O9 0.384460 0.010661 0.897910
O O10 0.476730 0.843358 0.881302
O O11 0.500000 0.000000 0.000000
O O12 0.319959 0.990469 0.249807
O O13 0.406153 0.127782 0.187959
O O14 0.263546 0.115224 0.134094
O O15 0.255777 0.540644 0.142049
O O16 0.198380 0.320529 0.164433
O O17 0.500000 0.727738 0.750000
#
# Coordination Sequence:
#
# PCOD8136581 Si02
#       8
#     8   8   8   8   8   8   8   8
#     4  10  20  34  57  79 114 139 176 231 275 331
#     4   9  17  34  58  74 108 141 185 225 262 329
#     4  11  20  35  55  79 105 145 187 219 268 320
#     4  11  20  33  53  81 113 142 179 231 276 329
#     4  10  21  32  53  81 113 137 177 230 279 327
#     4   9  19  37  53  83 108 142 178 224 283 330
#     4  11  21  35  54  82 111 144 187 229 269 321
#     4   9  18  32  53  81 102 142 183 221 279 322
#
# _framework density 17.870657000000001
#
# number of rings (size 3 to 8) (size 9 to 14) (size 15 to 20)
#    0.000    2.000    3.750    0.750    5.250    0.000 
#    0.000    0.625    0.000    2.250    0.000    0.000 
#    0.000    0.000    0.000    0.000    0.000    0.000 
#
# Total GULP energy -396586.343690 kJ/mol
# GULP energy per Si atom -12393.323240 kJ/mol
# Density = 1.782998 g / cm^3
# Si number density = 17.870657 Si / 1000 Ang^3
#
#
#
# Elastic Constant Matrix: (Units=GPa)
#
#
# Indices 1 2 3 4 5 6 
#
# 1 62.7317 39.4795 32.9734 0.0000 2.0322 0.0000
# 2 39.4795 94.0817 39.4368 0.0000 0.9900 0.0000
# 3 32.9734 39.4368 99.8032 0.0000 -3.3373 0.0000
# 4 0.0000 0.0000 0.0000 23.8421 0.0000 -2.9450
# 5 2.0322 0.9900 -3.3373 0.0000 28.7713 0.0000
# 6 0.0000 0.0000 0.0000 -2.9450 0.0000 13.2203
#
#
#
# Elastic Compliance Matrix: (Units=1/GPa)
#
#
# Indices 1 2 3 4 5 6 
#
# 1 0.023402 -0.007829 -0.004703 0.000000 -0.001929 0.000000
# 2 -0.007829 0.015388 -0.003507 0.000000 -0.000383 0.000000
# 3 -0.004703 -0.003507 0.013025 0.000000 0.001964 0.000000
# 4 0.000000 0.000000 0.000000 0.043129 0.000000 0.009608
# 5 -0.001929 -0.000383 0.001964 0.000000 0.035134 0.000000
# 6 0.000000 0.000000 0.000000 0.009608 0.000000 0.077782
#
#
# Mechanical properties :
#
#
# Convention : Reuss Voigt Hill
#
# Bulk Modulus (GPa) = 50.66230 53.37732 52.01981
# Shear Modulus (GPa) = 20.28260 22.81518 21.54889
#
# Velocity S-wave (km/s) = 3.37258 3.57695 3.47627
# Velocity P-wave (km/s) = 6.60127 6.85514 6.72940
#
# Compressibility (1/GPa) = 0.01973854
#
# Stress axis : x y z
#
# Youngs Moduli (GPa) = 42.73105 64.98458 76.77625
#
# Poissons Ratio (x) = 0.50874 0.36106
# Poissons Ratio (y) = 0.33453 0.26925
# Poissons Ratio (z) = 0.20095 0.22790
#
# Static dielectric constant tensor:
#      x y z
#    x 3.191480 0.000000 -0.018590 
#    y 0.000000 3.477150 0.000000 
#    z -0.018590 0.000000 3.285300 
# 
# 
# High freq. dielectric constant tensor:
#      x y z
#    x 1.670160 0.000000 0.001540 
#    y 0.000000 1.689820 0.000000 
#    z 0.001540 0.000000 1.690440 
# 
# From -- ./inp_files/210368.got.cif
#   From: 2010.06.25/outbox.cif.g09.slc.cpg/sg15_106_cif.got.tgz:210368.got - 2010.06.28 07:06:18.
