data_PCOD8136335
_publ_section_title
;
Structure prediction by ZEFSAII (Michael W. Deem and Ramdas Pophale) SiO2 
 PCOD8136335
Probable space group: C 2/C
;
_chemical_formula_sum "Si O2"
_cell_formula_units_Z 64
_cell_length_a 15.896672
_cell_length_b 30.002443
_cell_length_c 11.844406
_cell_angle_alpha 90.000000
_cell_angle_beta 140.270712
_cell_angle_gamma 90.000000
_cell_volume 3610.658431
_symmetry_space_group_name_H-M "C 2/C"
_symmetry_group_IT_number 15
_symmetry_cell_setting 'monoclinic'
loop_
_space_group_symop_operation_xyz
x,y,z
-x,y,1/2-z
-x,-y,-z
x,-y,1/2+z
1/2+x,1/2+y,z
1/2-x,1/2+y,1/2-z
1/2-x,1/2-y,-z
1/2+x,1/2-y,1/2+z
loop_
_atom_site_type_symbol
_atom_site_label
_atom_site_fract_x
_atom_site_fract_y
_atom_site_fract_z
Si Si1 0.770287 0.358940 0.328451
Si Si2 0.665593 0.921237 0.294900
Si Si3 0.760159 0.653452 0.211792
Si Si4 0.648293 0.085026 0.032228
Si Si5 0.004297 0.293178 0.621310
Si Si6 0.637946 0.985472 0.696007
Si Si7 0.992325 0.191139 0.875948
Si Si8 0.644593 0.910422 0.877756
O O1 0.762041 0.381372 0.196530
O O2 0.894762 0.325818 0.456839
O O3 0.644188 0.328709 0.221199
O O4 0.781061 0.401340 0.426573
O O5 0.705203 0.920324 0.466394
O O6 0.716381 0.968766 0.298766
O O7 0.508985 0.916196 0.120964
O O8 0.801773 0.633064 0.374701
O O9 0.777859 0.616936 0.134149
O O10 0.851043 0.695439 0.276053
O O11 0.607798 0.665485 0.058877
O O12 0.707686 0.046128 0.174918
O O13 0.000000 0.298040 0.750000
O O14 0.985750 0.242213 0.566034
O O15 0.628371 0.960584 0.809706
O O16 0.500000 0.000000 0.500000
O O17 0.000000 0.184936 0.750000
O O18 0.500000 0.890362 0.750000
#
# Coordination Sequence:
#
# PCOD8136335 Si02
#       8
#     8   8   8   8   8   8   8   8
#     4  12  20  35  55  86 116 149 189 230 284 342
#     4  10  20  33  55  83 112 149 184 236 277 336
#     4  11  18  36  53  78 113 151 180 224 285 336
#     4   9  19  34  53  79 112 148 183 223 288 329
#     4  11  19  34  56  84 116 142 187 239 292 334
#     4   9  19  29  50  84 117 137 176 238 288 326
#     4  11  23  34  54  85 116 150 185 233 287 347
#     4  11  18  29  53  80 112 144 177 227 283 338
#
# _framework density 17.725299
#
# number of rings (size 3 to 8) (size 9 to 14) (size 15 to 20)
#    0.000    1.500    5.000    2.250    5.250    2.000 
#    0.000    0.625    0.000    7.500    6.500    0.000 
#    0.000    0.000    0.000    0.000    0.000    0.000 
#
# Total GULP energy -396549.518234 kJ/mol
# GULP energy per Si atom -12392.172445 kJ/mol
# Density = 1.768496 g / cm^3
# Si number density = 17.725299 Si / 1000 Ang^3
#
#
#
# Elastic Constant Matrix: (Units=GPa)
#
#
# Indices 1 2 3 4 5 6 
#
# 1 77.4804 41.4813 30.0583 0.0000 -16.9231 0.0000
# 2 41.4813 104.7103 33.0159 0.0000 -14.2094 0.0000
# 3 30.0583 33.0159 59.5873 0.0000 -6.6581 0.0000
# 4 0.0000 0.0000 0.0000 12.0137 0.0000 -6.5190
# 5 -16.9231 -14.2094 -6.6581 0.0000 31.4290 0.0000
# 6 0.0000 0.0000 0.0000 -6.5190 0.0000 19.5281
#
#
#
# Elastic Compliance Matrix: (Units=1/GPa)
#
#
# Indices 1 2 3 4 5 6 
#
# 1 0.019453 -0.004740 -0.006408 0.000000 0.006974 0.000000
# 2 -0.004740 0.013231 -0.004667 0.000000 0.002441 0.000000
# 3 -0.006408 -0.004667 0.022512 0.000000 -0.000791 0.000000
# 4 0.000000 0.000000 0.000000 0.101652 0.000000 0.033934
# 5 0.006974 0.002441 -0.000791 0.000000 0.036509 0.000000
# 6 0.000000 0.000000 0.000000 0.033934 0.000000 0.062536
#
#
# Mechanical properties :
#
#
# Convention : Reuss Voigt Hill
#
# Bulk Modulus (GPa) = 42.43236 50.09879 46.26558
# Shear Modulus (GPa) = 16.92753 21.74234 19.33493
#
# Velocity S-wave (km/s) = 3.09365 3.50612 3.30632
# Velocity P-wave (km/s) = 6.06232 6.68699 6.38230
#
# Compressibility (1/GPa) = 0.02356692
#
# Stress axis : x y z
#
# Youngs Moduli (GPa) = 51.40572 75.58237 44.42104
#
# Poissons Ratio (x) = 0.35823 0.28463
# Poissons Ratio (y) = 0.24364 0.20732
# Poissons Ratio (z) = 0.32938 0.35275
#
# Static dielectric constant tensor:
#      x y z
#    x 3.192580 0.000000 -0.216970 
#    y 0.000000 3.629510 0.000000 
#    z -0.216970 0.000000 3.140740 
# 
# 
# High freq. dielectric constant tensor:
#      x y z
#    x 1.664020 0.000000 -0.015120 
#    y 0.000000 1.696890 0.000000 
#    z -0.015120 0.000000 1.655310 
# 
# From -- ./inp_files/101656.got.cif
#   From: 2010.06.25/outbox.cif.g09.slc.cpg/sg15_51_cif.got.tgz:101656.got - 2010.06.28 07:06:18.
