data_PCOD8136824
_publ_section_title
;
Structure prediction by ZEFSAII (Michael W. Deem and Ramdas Pophale) SiO2 
 PCOD8136824
Probable space group: C 2/C
;
_chemical_formula_sum "Si O2"
_cell_formula_units_Z 64
_cell_length_a 8.610846
_cell_length_b 21.155449
_cell_length_c 22.305722
_cell_angle_alpha 90.000000
_cell_angle_beta 127.937219
_cell_angle_gamma 90.000000
_cell_volume 3204.703619
_symmetry_space_group_name_H-M "C 2/C"
_symmetry_group_IT_number 15
_symmetry_cell_setting 'monoclinic'
loop_
_space_group_symop_operation_xyz
x,y,z
-x,y,1/2-z
-x,-y,-z
x,-y,1/2+z
1/2+x,1/2+y,z
1/2-x,1/2+y,1/2-z
1/2-x,1/2-y,-z
1/2+x,1/2-y,1/2+z
loop_
_atom_site_type_symbol
_atom_site_label
_atom_site_fract_x
_atom_site_fract_y
_atom_site_fract_z
Si Si1 0.494237 0.100752 0.179446
Si Si2 0.770161 0.920275 0.439911
Si Si3 0.998715 0.186332 0.935257
Si Si4 0.044518 0.671718 0.442025
Si Si5 0.615543 0.465879 0.597993
Si Si6 0.552357 0.931897 0.042025
Si Si7 0.150436 0.015772 0.235264
Si Si8 0.984263 0.113864 0.680386
O O1 0.500000 0.124172 0.250000
O O2 0.550719 0.154844 0.145394
O O3 0.273900 0.081905 0.107657
O O4 0.628829 0.039181 0.199047
O O5 0.846432 0.850305 0.442328
O O6 0.558360 0.919253 0.421140
O O7 0.906048 0.958567 0.518423
O O8 0.791591 0.962998 0.385143
O O9 0.952970 0.259977 0.934930
O O10 0.967401 0.166138 0.858218
O O11 0.220359 0.173078 0.007794
O O12 0.983759 0.621714 0.478662
O O13 0.580897 0.449159 0.658766
O O14 0.781865 0.923728 0.114671
O O15 0.500000 0.000000 0.000000
O O16 0.000000 0.038574 0.250000
O O17 0.150762 0.940325 0.225702
O O18 0.000000 0.147493 0.750000
#
# Coordination Sequence:
#
# PCOD8136824 Si02
#       8
#     8   8   8   8   8   8   8   8
#     4  10  21  36  57  90 120 157 197 247 311 360
#     4  11  21  34  61  86 122 154 199 252 293 358
#     4  10  21  42  62  85 121 165 207 244 297 373
#     4  10  22  40  63  87 121 162 207 249 300 367
#     4  10  20  35  53  90 119 153 192 247 304 357
#     4  11  24  37  63  95 123 158 203 259 312 359
#     4  10  21  33  56  85 121 152 190 242 308 360
#     4  10  22  39  58  92 120 162 199 247 309 368
#
# _framework density 19.970645999999999
#
# number of rings (size 3 to 8) (size 9 to 14) (size 15 to 20)
#    0.000    1.750    2.500    1.500   12.250    1.000 
#    0.000    0.625    0.000    0.000    0.000    0.000 
#    0.000    0.000    0.000    0.000    0.000    0.000 
#
# Total GULP energy -396520.505153 kJ/mol
# GULP energy per Si atom -12391.265786 kJ/mol
# Density = 1.992519 g / cm^3
# Si number density = 19.970646 Si / 1000 Ang^3
#
#
#
# Elastic Constant Matrix: (Units=GPa)
#
#
# Indices 1 2 3 4 5 6 
#
# 1 83.7645 36.4856 19.5363 0.0000 -18.6262 0.0000
# 2 36.4856 124.0433 29.9426 0.0000 -17.5044 0.0000
# 3 19.5363 29.9426 70.9256 0.0000 -17.6116 0.0000
# 4 0.0000 0.0000 0.0000 22.5717 0.0000 -3.5504
# 5 -18.6262 -17.5044 -17.6116 0.0000 22.4298 0.0000
# 6 0.0000 0.0000 0.0000 -3.5504 0.0000 28.3886
#
#
#
# Elastic Compliance Matrix: (Units=1/GPa)
#
#
# Indices 1 2 3 4 5 6 
#
# 1 0.015654 -0.003042 -0.000484 0.000000 0.010246 0.000000
# 2 -0.003042 0.010044 -0.002588 0.000000 0.003280 0.000000
# 3 -0.000484 -0.002588 0.018290 0.000000 0.011940 0.000000
# 4 0.000000 0.000000 0.000000 0.045192 0.000000 0.005652
# 5 0.010246 0.003280 0.011940 0.000000 0.065027 0.000000
# 6 0.000000 0.000000 0.000000 0.005652 0.000000 0.035932
#
#
# Mechanical properties :
#
#
# Convention : Reuss Voigt Hill
#
# Bulk Modulus (GPa) = 31.48454 50.07359 40.77906
# Shear Modulus (GPa) = 23.47931 27.52930 25.50430
#
# Velocity S-wave (km/s) = 3.43255 3.71683 3.57752
# Velocity P-wave (km/s) = 5.61334 6.59907 6.12606
#
# Compressibility (1/GPa) = 0.03176162
#
# Stress axis : x y z
#
# Youngs Moduli (GPa) = 63.88002 99.56165 54.67543
#
# Poissons Ratio (x) = 0.30286 0.02644
# Poissons Ratio (y) = 0.19432 0.14149
# Poissons Ratio (z) = 0.03089 0.25765
#
# Static dielectric constant tensor:
#      x y z
#    x 3.649550 0.000000 -0.210830 
#    y 0.000000 3.465770 0.000000 
#    z -0.210830 0.000000 3.711360 
# 
# 
# High freq. dielectric constant tensor:
#      x y z
#    x 1.776300 0.000000 -0.018020 
#    y 0.000000 1.752380 0.000000 
#    z -0.018020 0.000000 1.784040 
# 
# From -- ./inp_files/266146.got.cif
#   From: 2010.06.25/outbox.cif.g09.slc.cpg/sg15_134_cif.got.tgz:266146.got - 2010.06.28 07:06:18.
