data_PCOD8136041
_publ_section_title
;
Structure prediction by ZEFSAII (Michael W. Deem and Ramdas Pophale) SiO2 
 PCOD8136041
Probable space group: C 2/C
;
_chemical_formula_sum "Si O2"
_cell_formula_units_Z 64
_cell_length_a 9.512801
_cell_length_b 15.453283
_cell_length_c 28.937928
_cell_angle_alpha 90.000000
_cell_angle_beta 131.346655
_cell_angle_gamma 90.000000
_cell_volume 3193.583844
_symmetry_space_group_name_H-M "C 2/C"
_symmetry_group_IT_number 15
_symmetry_cell_setting 'monoclinic'
loop_
_space_group_symop_operation_xyz
x,y,z
-x,y,1/2-z
-x,-y,-z
x,-y,1/2+z
1/2+x,1/2+y,z
1/2-x,1/2+y,1/2-z
1/2-x,1/2-y,-z
1/2+x,1/2-y,1/2+z
loop_
_atom_site_type_symbol
_atom_site_label
_atom_site_fract_x
_atom_site_fract_y
_atom_site_fract_z
Si Si1 0.711428 0.982131 0.060949
Si Si2 0.180251 0.246530 0.688632
Si Si3 0.418308 0.777620 0.326144
Si Si4 0.632317 0.084914 0.818213
Si Si5 0.477970 0.456792 0.445693
Si Si6 0.242798 0.794671 0.385742
Si Si7 0.567540 0.266875 0.489964
Si Si8 0.251529 0.656437 0.114534
O O1 0.737814 0.891168 0.091237
O O2 0.843870 0.986913 0.044868
O O3 0.777901 0.054517 0.112130
O O4 0.500000 0.000000 0.000000
O O5 0.289965 0.265682 0.759226
O O6 0.245214 0.156381 0.681312
O O7 0.230228 0.324420 0.664484
O O8 0.962499 0.242852 0.651775
O O9 0.501782 0.869924 0.328297
O O10 0.292852 0.794036 0.343303
O O11 0.578339 0.708379 0.371818
O O12 0.500000 0.038654 0.750000
O O13 0.780581 0.020441 0.876199
O O14 0.500000 0.500000 0.500000
O O15 0.468880 0.353877 0.451709
O O16 0.381065 0.731491 0.444563
O O17 0.750000 0.250000 0.500000
O O18 0.433571 0.185870 0.452551
#
# Coordination Sequence:
#
# PCOD8136041 Si02
#       8
#     8   8   8   8   8   8   8   8
#     4  12  25  40  60 100 134 163 212 277 328 386
#     4  10  19  43  67  87 123 173 216 256 324 393
#     4  10  23  38  67  97 118 163 226 265 309 393
#     4   9  18  40  67  88 121 170 213 259 321 394
#     4  12  25  40  66  96 131 168 217 270 330 387
#     4  12  23  39  67  95 133 164 218 269 323 386
#     4  12  20  41  64  88 122 177 203 252 329 393
#     4  11  21  40  67  89 129 165 213 260 325 386
#
# _framework density 20.040181
#
# number of rings (size 3 to 8) (size 9 to 14) (size 15 to 20)
#    0.000    1.000    7.500    1.500    3.500    0.500 
#    0.000    2.500    2.750    0.000    0.000    0.000 
#    0.000    0.000    0.000    0.000    0.000    0.000 
#
# Total GULP energy -396775.943502 kJ/mol
# GULP energy per Si atom -12399.248234 kJ/mol
# Density = 1.999457 g / cm^3
# Si number density = 20.040181 Si / 1000 Ang^3
#
#
#
# Elastic Constant Matrix: (Units=GPa)
#
#
# Indices 1 2 3 4 5 6 
#
# 1 129.3955 30.5611 56.5727 0.0000 -20.0017 0.0000
# 2 30.5611 58.7101 26.3732 0.0000 2.2589 0.0000
# 3 56.5727 26.3732 135.1003 0.0000 -5.3224 0.0000
# 4 0.0000 0.0000 0.0000 29.7031 0.0000 -3.1453
# 5 -20.0017 2.2589 -5.3224 0.0000 32.2215 0.0000
# 6 0.0000 0.0000 0.0000 -3.1453 0.0000 19.7579
#
#
#
# Elastic Compliance Matrix: (Units=1/GPa)
#
#
# Indices 1 2 3 4 5 6 
#
# 1 0.011458 -0.004596 -0.003632 0.000000 0.006835 0.000000
# 2 -0.004596 0.020633 -0.002287 0.000000 -0.004677 0.000000
# 3 -0.003632 -0.002287 0.009347 0.000000 -0.000550 0.000000
# 4 0.000000 0.000000 0.000000 0.034244 0.000000 0.005451
# 5 0.006835 -0.004677 -0.000550 0.000000 0.035515 0.000000
# 6 0.000000 0.000000 0.000000 0.005451 0.000000 0.051481
#
#
# Mechanical properties :
#
#
# Convention : Reuss Voigt Hill
#
# Bulk Modulus (GPa) = 48.99986 61.13552 55.06769
# Shear Modulus (GPa) = 26.24526 30.31642 28.28084
#
# Velocity S-wave (km/s) = 3.62281 3.89367 3.76068
# Velocity P-wave (km/s) = 6.48101 7.12649 6.81140
#
# Compressibility (1/GPa) = 0.02040822
#
# Stress axis : x y z
#
# Youngs Moduli (GPa) = 87.27505 48.46660 106.98085
#
# Poissons Ratio (x) = 0.22275 0.38850
# Poissons Ratio (y) = 0.40112 0.24471
# Poissons Ratio (z) = 0.31694 0.11087
#
# Static dielectric constant tensor:
#      x y z
#    x 4.083180 0.000000 0.496380 
#    y 0.000000 0.856600 0.000000 
#    z 0.496380 0.000000 4.606910 
# 
# 
# High freq. dielectric constant tensor:
#      x y z
#    x 1.788180 0.000000 0.006060 
#    y 0.000000 1.749220 0.000000 
#    z 0.006060 0.000000 1.802360 
# 
# From -- ./inp_files/308305.got.cif
#   From: 2010.06.25/outbox.cif.g09.slc.cpg/sg15_155_cif.got.tgz:308305.got - 2010.06.28 07:06:18.
