data_PCOD8136419
_publ_section_title
;
Structure prediction by ZEFSAII (Michael W. Deem and Ramdas Pophale) SiO2 
 PCOD8136419
Probable space group: C 2/C
;
_chemical_formula_sum "Si O2"
_cell_formula_units_Z 64
_cell_length_a 19.859729
_cell_length_b 25.863318
_cell_length_c 9.327158
_cell_angle_alpha 90.000000
_cell_angle_beta 47.709454
_cell_angle_gamma 90.000000
_cell_volume 3543.947236
_symmetry_space_group_name_H-M "C 2/C"
_symmetry_group_IT_number 15
_symmetry_cell_setting 'monoclinic'
loop_
_space_group_symop_operation_xyz
x,y,z
-x,y,1/2-z
-x,-y,-z
x,-y,1/2+z
1/2+x,1/2+y,z
1/2-x,1/2+y,1/2-z
1/2-x,1/2-y,-z
1/2+x,1/2-y,1/2+z
loop_
_atom_site_type_symbol
_atom_site_label
_atom_site_fract_x
_atom_site_fract_y
_atom_site_fract_z
Si Si1 0.108225 0.550035 0.086275
Si Si2 0.075209 0.537836 0.831738
Si Si3 0.756152 0.361972 0.092119
Si Si4 0.400357 0.686191 0.849221
Si Si5 0.732997 0.293503 0.718652
Si Si6 0.528939 0.152577 0.862741
Si Si7 0.268518 0.179033 0.869571
Si Si8 0.121238 0.705022 0.255571
O O1 0.124192 0.493204 0.132711
O O2 0.000000 0.567127 0.250000
O O3 0.140576 0.548678 0.873550
O O4 0.181350 0.589667 0.050217
O O5 0.030125 0.590618 0.842906
O O6 0.000000 0.500000 0.000000
O O7 0.661291 0.358498 0.138533
O O8 0.733885 0.360459 0.294901
O O9 0.820241 0.312128 0.967383
O O10 0.500000 0.665005 0.750000
O O11 0.404967 0.735146 0.733708
O O12 0.359478 0.702665 0.060247
O O13 0.758106 0.236259 0.635539
O O14 0.725039 0.331362 0.589964
O O15 0.817871 0.308934 0.694566
O O16 0.500000 0.176169 0.750000
O O17 0.624583 0.175070 0.768329
O O18 0.467700 0.170866 0.085013
#
# Coordination Sequence:
#
# PCOD8136419 Si02
#       8
#     8   8   8   8   8   8   8   8
#     4  10  20  35  53  80 112 150 177 225 276 334
#     4  10  20  34  50  75 115 144 179 217 268 327
#     4  11  21  35  55  80 106 149 196 231 272 333
#     4  11  22  38  54  77 107 145 191 242 279 320
#     4  10  20  37  50  73 112 144 186 234 276 318
#     4  12  22  32  51  82 113 153 187 216 272 338
#     4  11  20  34  52  74 111 145 183 234 266 324
#     4  11  20  33  52  77 110 151 190 224 267 332
#
# _framework density 18.058961
#
# number of rings (size 3 to 8) (size 9 to 14) (size 15 to 20)
#    0.000    1.250    5.000    4.125    0.000    0.000 
#    0.000    0.625    0.000    0.000    0.000    0.875 
#    0.000    0.000    0.000    0.000    0.000    0.000 
#
# Total GULP energy -396428.185486 kJ/mol
# GULP energy per Si atom -12388.380796 kJ/mol
# Density = 1.801786 g / cm^3
# Si number density = 18.058961 Si / 1000 Ang^3
#
#
#
# Elastic Constant Matrix: (Units=GPa)
#
#
# Indices 1 2 3 4 5 6 
#
# 1 96.9528 24.7768 40.5042 0.0000 -0.7575 0.0000
# 2 24.7768 66.0088 18.2243 0.0000 -8.4498 0.0000
# 3 40.5042 18.2243 88.9816 0.0000 12.0444 0.0000
# 4 0.0000 0.0000 0.0000 23.1008 0.0000 2.2513
# 5 -0.7575 -8.4498 12.0444 0.0000 29.8543 0.0000
# 6 0.0000 0.0000 0.0000 2.2513 0.0000 21.0593
#
#
#
# Elastic Compliance Matrix: (Units=1/GPa)
#
#
# Indices 1 2 3 4 5 6 
#
# 1 0.013564 -0.003287 -0.005735 0.000000 0.001728 0.000000
# 2 -0.003287 0.018022 -0.003040 0.000000 0.006244 0.000000
# 3 -0.005735 -0.003040 0.015451 0.000000 -0.007240 0.000000
# 4 0.000000 0.000000 0.000000 0.043744 0.000000 -0.004676
# 5 0.001728 0.006244 -0.007240 0.000000 0.038228 0.000000
# 6 0.000000 0.000000 0.000000 -0.004676 0.000000 0.047985
#
#
# Mechanical properties :
#
#
# Convention : Reuss Voigt Hill
#
# Bulk Modulus (GPa) = 43.64242 46.55043 45.09642
# Shear Modulus (GPa) = 23.95153 26.03206 24.99179
#
# Velocity S-wave (km/s) = 3.64579 3.80083 3.72412
# Velocity P-wave (km/s) = 6.47622 6.71526 6.59682
#
# Compressibility (1/GPa) = 0.02291349
#
# Stress axis : x y z
#
# Youngs Moduli (GPa) = 73.72686 55.48836 64.71933
#
# Poissons Ratio (x) = 0.18237 0.37115
# Poissons Ratio (y) = 0.24232 0.19675
# Poissons Ratio (z) = 0.42281 0.16869
#
# Static dielectric constant tensor:
#      x y z
#    x 3.560710 0.000000 0.521520 
#    y 0.000000 3.342340 0.000000 
#    z 0.521520 0.000000 3.764050 
# 
# 
# High freq. dielectric constant tensor:
#      x y z
#    x 1.695150 0.000000 0.032840 
#    y 0.000000 1.665640 0.000000 
#    z 0.032840 0.000000 1.694260 
# 
# From -- ./inp_files/59024.got.cif
#   From: 2010.06.25/outbox.cif.g09.slc.cpg/sg15_30_cif.got.tgz:59024.got - 2010.06.28 07:06:18.
