data_PCOD8136944
_publ_section_title
;
Structure prediction by ZEFSAII (Michael W. Deem and Ramdas Pophale) SiO2 
 PCOD8136944
Probable space group: C 2/C
;
_chemical_formula_sum "Si O2"
_cell_formula_units_Z 48
_cell_length_a 14.886596
_cell_length_b 27.893748
_cell_length_c 8.743866
_cell_angle_alpha 90.000000
_cell_angle_beta 136.924612
_cell_angle_gamma 90.000000
_cell_volume 2479.711046
_symmetry_space_group_name_H-M "C 2/C"
_symmetry_group_IT_number 15
_symmetry_cell_setting 'monoclinic'
loop_
_space_group_symop_operation_xyz
x,y,z
-x,y,1/2-z
-x,-y,-z
x,-y,1/2+z
1/2+x,1/2+y,z
1/2-x,1/2+y,1/2-z
1/2-x,1/2-y,-z
1/2+x,1/2-y,1/2+z
loop_
_atom_site_type_symbol
_atom_site_label
_atom_site_fract_x
_atom_site_fract_y
_atom_site_fract_z
Si Si1 0.954979 0.159724 0.528531
Si Si2 0.368394 0.972445 0.179488
Si Si3 0.222900 0.843636 0.215955
Si Si4 0.868754 0.567441 0.018702
Si Si5 0.138309 0.902637 0.843079
Si Si6 0.142404 0.744409 0.496262
O O1 0.885056 0.115605 0.357731
O O2 0.858425 0.205597 0.412144
O O3 0.000000 0.141572 0.750000
O O4 0.084433 0.176655 0.599941
O O5 0.500000 0.957368 0.250000
O O6 0.392643 0.961276 0.388754
O O7 0.238834 0.946006 0.956754
O O8 0.331269 0.028016 0.100940
O O9 0.262742 0.890402 0.366896
O O10 0.327108 0.800527 0.355564
O O11 0.208492 0.859520 0.022896
O O12 0.000000 0.592293 0.250000
O O13 0.000000 0.918257 0.750000
O O14 0.250000 0.750000 0.500000
O O15 0.000000 0.735036 0.250000
#
# Coordination Sequence:
#
# PCOD8136944 Si02
#       6
#     8   8   8   8   8   8
#     4  10  20  36  58  82 108 149 187 232 279 331
#     4  10  20  37  57  86 116 146 189 235 277 331
#     4  10  20  38  57  82 113 151 188 228 284 331
#     4  10  20  35  57  85 116 151 184 232 284 330
#     4   9  21  40  58  79 119 150 186 231 281 335
#     4  11  20  37  58  85 115 144 192 233 277 332
#
# _framework density 19.357094
#
# number of rings (size 3 to 8) (size 9 to 14) (size 15 to 20)
#    0.000    2.000    3.333    2.500    0.000    3.333 
#    6.000    8.333    0.000    0.000    0.000    0.000 
#    0.000    0.000    0.000    0.000    0.000    0.000 
#
# Total GULP energy -297455.989490 kJ/mol
# GULP energy per Si atom -12393.999562 kJ/mol
# Density = 1.931304 g / cm^3
# Si number density = 19.357094 Si / 1000 Ang^3
#
#
#
# Elastic Constant Matrix: (Units=GPa)
#
#
# Indices 1 2 3 4 5 6 
#
# 1 59.1237 41.0400 23.1304 0.0000 11.6137 0.0000
# 2 41.0400 79.9390 40.8654 0.0000 6.9059 0.0000
# 3 23.1304 40.8654 103.0462 0.0000 1.6347 0.0000
# 4 0.0000 0.0000 0.0000 24.1506 0.0000 -0.2580
# 5 11.6137 6.9059 1.6347 0.0000 35.9612 0.0000
# 6 0.0000 0.0000 0.0000 -0.2580 0.0000 22.8320
#
#
#
# Elastic Compliance Matrix: (Units=1/GPa)
#
#
# Indices 1 2 3 4 5 6 
#
# 1 0.027676 -0.013214 -0.000871 0.000000 -0.006361 0.000000
# 2 -0.013214 0.022272 -0.005871 0.000000 0.000257 0.000000
# 3 -0.000871 -0.005871 0.012215 0.000000 0.000854 0.000000
# 4 0.000000 0.000000 0.000000 0.041412 0.000000 0.000468
# 5 -0.006361 0.000257 0.000854 0.000000 0.029774 0.000000
# 6 0.000000 0.000000 0.000000 0.000468 0.000000 0.043803
#
#
# Mechanical properties :
#
#
# Convention : Reuss Voigt Hill
#
# Bulk Modulus (GPa) = 44.94038 50.24229 47.59133
# Shear Modulus (GPa) = 22.27362 25.72697 24.00030
#
# Velocity S-wave (km/s) = 3.39583 3.64960 3.52500
# Velocity P-wave (km/s) = 6.21631 6.61599 6.41926
#
# Compressibility (1/GPa) = 0.02225170
#
# Stress axis : x y z
#
# Youngs Moduli (GPa) = 36.13208 44.89882 81.86958
#
# Poissons Ratio (x) = 0.59329 0.07133
# Poissons Ratio (y) = 0.47744 0.48063
# Poissons Ratio (z) = 0.03148 0.26358
#
# Static dielectric constant tensor:
#      x y z
#    x 3.521940 0.000000 -0.054060 
#    y 0.000000 3.553340 0.000000 
#    z -0.054060 0.000000 3.774270 
# 
# 
# High freq. dielectric constant tensor:
#      x y z
#    x 1.737650 0.000000 0.003080 
#    y 0.000000 1.746480 0.000000 
#    z 0.003080 0.000000 1.769940 
# 
# From -- ./inp_files/44654.got.cif
#   From: 2010.06.25/outbox.cif.g09.slc.cpg/sg15_23_cif.got.tgz:44654.got - 2010.06.28 07:06:18.
