data_PCOD8136060
_publ_section_title
;
Structure prediction by ZEFSAII (Michael W. Deem and Ramdas Pophale) SiO2 
 PCOD8136060
Probable space group: C 2/C
;
_chemical_formula_sum "Si O2"
_cell_formula_units_Z 64
_cell_length_a 8.669104
_cell_length_b 16.445861
_cell_length_c 28.511729
_cell_angle_alpha 90.000000
_cell_angle_beta 130.643044
_cell_angle_gamma 90.000000
_cell_volume 3084.405814
_symmetry_space_group_name_H-M "C 2/C"
_symmetry_group_IT_number 15
_symmetry_cell_setting 'monoclinic'
loop_
_space_group_symop_operation_xyz
x,y,z
-x,y,1/2-z
-x,-y,-z
x,-y,1/2+z
1/2+x,1/2+y,z
1/2-x,1/2+y,1/2-z
1/2-x,1/2-y,-z
1/2+x,1/2-y,1/2+z
loop_
_atom_site_type_symbol
_atom_site_label
_atom_site_fract_x
_atom_site_fract_y
_atom_site_fract_z
Si Si1 0.029369 0.967299 0.558331
Si Si2 0.129994 0.670272 0.491743
Si Si3 0.668735 0.737047 0.687850
Si Si4 0.354629 0.534938 0.182736
Si Si5 0.299926 0.313805 0.549695
Si Si6 0.063296 0.392934 0.882069
Si Si7 0.009901 0.210950 0.320432
Si Si8 0.918457 0.087001 0.615250
O O1 0.251633 0.928587 0.611166
O O2 0.859735 0.899423 0.537672
O O3 0.000000 0.000000 0.500000
O O4 0.023773 0.042806 0.592389
O O5 0.250000 0.750000 0.500000
O O6 0.141688 0.606887 0.451371
O O7 0.226382 0.636564 0.558215
O O8 0.892510 0.681566 0.454144
O O9 0.487136 0.801948 0.645368
O O10 0.815592 0.738626 0.671725
O O11 0.576295 0.646923 0.672155
O O12 0.790496 0.756518 0.759970
O O13 0.500000 0.492909 0.250000
O O14 0.466461 0.616928 0.188765
O O15 0.327613 0.476718 0.133481
O O16 0.134694 0.550553 0.161978
O O17 0.250000 0.250000 0.500000
O O18 0.475430 0.280868 0.620037
#
# Coordination Sequence:
#
# PCOD8136060 Si02
#       8
#     8   8   8   8   8   8   8   8
#     4  12  27  41  62 107 145 171 224 290 346 400
#     4  12  22  41  72  97 135 183 225 273 346 417
#     4  10  21  42  73  92 124 182 230 267 333 423
#     4  11  22  46  70  93 130 180 232 283 343 406
#     4  12  26  43  69 101 139 178 228 283 342 413
#     4  11  21  42  71  92 129 187 222 267 343 417
#     4  10  19  45  70  92 125 182 226 266 340 417
#     4  12  25  42  67 102 137 171 230 288 343 393
#
# _framework density 20.749538000000001
#
# number of rings (size 3 to 8) (size 9 to 14) (size 15 to 20)
#    0.000    0.750    8.750    0.750    3.500    1.000 
#    6.750    1.875    0.000    0.000    0.000    0.000 
#    0.000    0.000    0.000    0.000    0.000    0.000 
#
# Total GULP energy -396832.953570 kJ/mol
# GULP energy per Si atom -12401.029799 kJ/mol
# Density = 2.070231 g / cm^3
# Si number density = 20.749538 Si / 1000 Ang^3
#
#
#
# Elastic Constant Matrix: (Units=GPa)
#
#
# Indices 1 2 3 4 5 6 
#
# 1 81.2547 38.8664 29.7788 0.0000 8.1478 0.0000
# 2 38.8664 95.6826 39.1817 0.0000 7.4968 0.0000
# 3 29.7788 39.1817 133.5064 0.0000 -4.4373 0.0000
# 4 0.0000 0.0000 0.0000 35.0734 0.0000 -8.2873
# 5 8.1478 7.4968 -4.4373 0.0000 35.4966 0.0000
# 6 0.0000 0.0000 0.0000 -8.2873 0.0000 30.6623
#
#
#
# Elastic Compliance Matrix: (Units=1/GPa)
#
#
# Indices 1 2 3 4 5 6 
#
# 1 0.015926 -0.005410 -0.002057 0.000000 -0.002770 0.000000
# 2 -0.005410 0.014034 -0.002982 0.000000 -0.002095 0.000000
# 3 -0.002057 -0.002982 0.008898 0.000000 0.002214 0.000000
# 4 0.000000 0.000000 0.000000 0.030457 0.000000 0.008232
# 5 -0.002770 -0.002095 0.002214 0.000000 0.029527 0.000000
# 6 0.000000 0.000000 0.000000 0.008232 0.000000 0.034838
#
#
# Mechanical properties :
#
#
# Convention : Reuss Voigt Hill
#
# Bulk Modulus (GPa) = 55.67571 58.45529 57.06550
# Shear Modulus (GPa) = 31.14042 33.75426 32.44734
#
# Velocity S-wave (km/s) = 3.87819 4.03767 3.95873
# Velocity P-wave (km/s) = 6.85159 7.06895 6.96112
#
# Compressibility (1/GPa) = 0.01796115
#
# Stress axis : x y z
#
# Youngs Moduli (GPa) = 62.78934 71.25624 112.38910
#
# Poissons Ratio (x) = 0.38550 0.23115
# Poissons Ratio (y) = 0.33969 0.33510
# Poissons Ratio (z) = 0.12914 0.21246
#
# Static dielectric constant tensor:
#      x y z
#    x 3.415920 0.000000 0.030830 
#    y 0.000000 3.694220 0.000000 
#    z 0.030830 0.000000 4.144020 
# 
# 
# High freq. dielectric constant tensor:
#      x y z
#    x 1.796950 0.000000 0.003500 
#    y 0.000000 1.803310 0.000000 
#    z 0.003500 0.000000 1.829120 
# 
# From -- ./inp_files/308290.got.cif
#   From: 2010.06.25/outbox.cif.g09.slc.cpg/sg15_155_cif.got.tgz:308290.got - 2010.06.28 07:06:18.
