data_PCOD8136014
_publ_section_title
;
Structure prediction by ZEFSAII (Michael W. Deem and Ramdas Pophale) SiO2 
 PCOD8136014
Probable space group: C 2/C
;
_chemical_formula_sum "Si O2"
_cell_formula_units_Z 64
_cell_length_a 18.631475
_cell_length_b 13.381253
_cell_length_c 24.506122
_cell_angle_alpha 90.000000
_cell_angle_beta 30.120276
_cell_angle_gamma 90.000000
_cell_volume 3065.941521
_symmetry_space_group_name_H-M "C 2/C"
_symmetry_group_IT_number 15
_symmetry_cell_setting 'monoclinic'
loop_
_space_group_symop_operation_xyz
x,y,z
-x,y,1/2-z
-x,-y,-z
x,-y,1/2+z
1/2+x,1/2+y,z
1/2-x,1/2+y,1/2-z
1/2-x,1/2-y,-z
1/2+x,1/2-y,1/2+z
loop_
_atom_site_type_symbol
_atom_site_label
_atom_site_fract_x
_atom_site_fract_y
_atom_site_fract_z
Si Si1 0.839109 0.961694 0.487953
Si Si2 0.521264 0.835687 0.463825
Si Si3 0.578092 0.904709 0.590932
Si Si4 0.156519 0.274540 0.270918
Si Si5 0.619942 0.047422 0.713426
Si Si6 0.813020 0.497018 0.090908
Si Si7 0.534518 0.591915 0.286546
Si Si8 0.025990 0.217680 0.901601
O O1 0.717429 0.897049 0.537629
O O2 0.968496 0.892047 0.423847
O O3 0.765729 0.014167 0.588038
O O4 0.898105 0.047168 0.408082
O O5 0.529981 0.792570 0.397408
O O6 0.647756 0.916014 0.389200
O O7 0.534034 0.746818 0.499266
O O8 0.370591 0.893098 0.570231
O O9 0.615256 0.968907 0.513417
O O10 0.530946 0.793339 0.606956
O O11 0.445233 0.956443 0.708815
O O12 0.164683 0.360761 0.221161
O O13 0.117584 0.170618 0.268819
O O14 0.302976 0.274585 0.208992
O O15 0.500000 0.085384 0.750000
O O16 0.641845 0.500322 0.201949
O O17 0.500000 0.640412 0.250000
#
# Coordination Sequence:
#
# PCOD8136014 Si02
#       8
#     8   8   8   8   8   8   8   8
#     4  11  25  44  66  97 133 166 215 273 321 376
#     4  10  22  40  64  92 126 168 214 258 315 390
#     4  10  21  45  70  91 128 170 217 261 322 386
#     4  12  25  41  64  96 131 170 215 263 327 381
#     4  10  24  45  66  95 130 172 212 268 327 380
#     4  10  19  42  67  89 122 170 216 258 313 381
#     4  12  25  42  65  95 125 167 219 271 317 380
#     4  11  25  40  66 100 128 170 211 262 323 388
#
# _framework density 20.874502
#
# number of rings (size 3 to 8) (size 9 to 14) (size 15 to 20)
#    0.000    1.250    3.750    1.500    3.500    1.500 
#    0.000    3.125    0.000    0.000    0.000    0.000 
#    0.000    0.000    0.000    0.000    0.000    0.000 
#
# Total GULP energy -396835.467953 kJ/mol
# GULP energy per Si atom -12401.108374 kJ/mol
# Density = 2.082699 g / cm^3
# Si number density = 20.874502 Si / 1000 Ang^3
#
#
#
# Elastic Constant Matrix: (Units=GPa)
#
#
# Indices 1 2 3 4 5 6 
#
# 1 80.8903 33.9498 29.4951 -0.0013 9.5515 -0.0004
# 2 33.9498 76.8683 33.8429 0.0004 6.5663 -0.0008
# 3 29.4951 33.8429 109.3475 0.0031 13.3325 -0.0023
# 4 -0.0013 0.0004 0.0031 14.6966 0.0002 0.8955
# 5 9.5515 6.5663 13.3325 0.0002 39.3815 0.0004
# 6 -0.0004 -0.0008 -0.0023 0.8955 0.0004 28.2564
#
#
#
# Elastic Compliance Matrix: (Units=1/GPa)
#
#
# Indices 1 2 3 4 5 6 
#
# 1 0.015878 -0.005858 -0.002211 0.000002 -0.002126 0.000000
# 2 -0.005858 0.017259 -0.003738 0.000000 -0.000191 0.000000
# 3 -0.002211 -0.003738 0.011220 -0.000002 -0.002639 0.000001
# 4 0.000002 0.000000 -0.000002 0.068175 0.000000 -0.002161
# 5 -0.002126 -0.000191 -0.002639 0.000000 0.026834 -0.000001
# 6 0.000000 0.000000 0.000001 -0.002161 -0.000001 0.035459
#
#
# Mechanical properties :
#
#
# Convention : Reuss Voigt Hill
#
# Bulk Modulus (GPa) = 48.20776 51.29797 49.75286
# Shear Modulus (GPa) = 24.34848 27.78811 26.06830
#
# Velocity S-wave (km/s) = 3.41900 3.65252 3.53769
# Velocity P-wave (km/s) = 6.22337 6.51273 6.36969
#
# Compressibility (1/GPa) = 0.02074355
#
# Stress axis : x y z
#
# Youngs Moduli (GPa) = 62.97980 57.94218 89.12504
#
# Poissons Ratio (x) = 0.33942 0.19703
# Poissons Ratio (y) = 0.36893 0.33316
# Poissons Ratio (z) = 0.13923 0.21659
#
# Static dielectric constant tensor:
#      x y z
#    x 3.908220 0.000000 0.047400 
#    y 0.000000 3.557240 0.000000 
#    z 0.047400 0.000000 3.736050 
# 
# 
# High freq. dielectric constant tensor:
#      x y z
#    x 1.827720 0.000000 0.004010 
#    y 0.000000 1.804990 0.000000 
#    z 0.004010 0.000000 1.823230 
# 
# From -- ./inp_files/277647.got.cif
#   From: 2010.06.25/outbox.cif.g09.slc.cpg/sg15_139_cif.got.tgz:277647.got - 2010.06.28 07:06:18.
