data_PCOD8136144
_publ_section_title
;
Structure prediction by ZEFSAII (Michael W. Deem and Ramdas Pophale) SiO2 
 PCOD8136144
Probable space group: C 2/C
;
_chemical_formula_sum "Si O2"
_cell_formula_units_Z 64
_cell_length_a 19.521764
_cell_length_b 22.290451
_cell_length_c 12.310053
_cell_angle_alpha 90.000000
_cell_angle_beta 137.936743
_cell_angle_gamma 90.000000
_cell_volume 3588.728943
_symmetry_space_group_name_H-M "C 2/C"
_symmetry_group_IT_number 15
_symmetry_cell_setting 'monoclinic'
loop_
_space_group_symop_operation_xyz
x,y,z
-x,y,1/2-z
-x,-y,-z
x,-y,1/2+z
1/2+x,1/2+y,z
1/2-x,1/2+y,1/2-z
1/2-x,1/2-y,-z
1/2+x,1/2-y,1/2+z
loop_
_atom_site_type_symbol
_atom_site_label
_atom_site_fract_x
_atom_site_fract_y
_atom_site_fract_z
Si Si1 0.209480 0.485438 0.898782
Si Si2 0.929485 0.969370 0.072392
Si Si3 0.468221 0.586863 0.393183
Si Si4 0.907628 0.323678 0.055957
Si Si5 0.548880 0.924841 0.545195
Si Si6 0.914342 0.811859 0.558204
Si Si7 0.921737 0.468744 0.566946
Si Si8 0.768568 0.886332 0.520844
O O1 0.317515 0.462322 0.988197
O O2 0.206930 0.558276 0.893945
O O3 0.129515 0.456018 0.721630
O O4 0.188201 0.465869 0.001060
O O5 0.000000 0.943733 0.250000
O O6 0.938580 0.926690 0.980526
O O7 0.957818 0.037413 0.074254
O O8 0.533531 0.648450 0.475264
O O9 0.364453 0.588370 0.201691
O O10 0.889927 0.255804 0.994211
O O11 0.000000 0.329592 0.250000
O O12 0.929275 0.357611 0.967379
O O13 0.804365 0.348093 0.987332
O O14 0.438763 0.926801 0.479702
O O15 0.549966 0.963336 0.435566
O O16 0.809110 0.842019 0.474887
O O17 0.000000 0.811127 0.750000
O O18 0.000000 0.447372 0.750000
#
# Coordination Sequence:
#
# PCOD8136144 Si02
#       8
#     8   8   8   8   8   8   8   8
#     4  11  20  31  52  78 109 140 166 217 273 316
#     4  11  20  33  52  82 108 135 176 217 273 322
#     4  10  20  35  55  77 110 142 173 222 266 316
#     4  11  22  34  54  80 109 146 182 214 260 322
#     4  10  20  32  49  76 107 142 173 216 262 316
#     4   9  19  37  55  77 109 142 178 220 262 315
#     4   9  19  32  47  70 107 136 172 212 259 307
#     4  11  19  34  53  81 113 139 172 217 269 319
#
# _framework density 17.833611999999999
#
# number of rings (size 3 to 8) (size 9 to 14) (size 15 to 20)
#    0.000    1.750    3.750    1.875    3.500    0.000 
#    0.000    0.000    0.000    2.250    0.000    2.625 
#    0.000    0.000    0.000    0.000    0.000    0.000 
#
# Total GULP energy -396488.321663 kJ/mol
# GULP energy per Si atom -12390.260052 kJ/mol
# Density = 1.779302 g / cm^3
# Si number density = 17.833612 Si / 1000 Ang^3
#
#
#
# Elastic Constant Matrix: (Units=GPa)
#
#
# Indices 1 2 3 4 5 6 
#
# 1 170.1320 69.0792 28.4114 0.0000 -3.7325 0.0000
# 2 69.0792 129.9544 34.0268 0.0000 -7.0406 0.0000
# 3 28.4114 34.0268 38.0594 0.0000 -7.0316 0.0000
# 4 0.0000 0.0000 0.0000 20.2496 0.0000 -3.9194
# 5 -3.7325 -7.0406 -7.0316 0.0000 23.0683 0.0000
# 6 0.0000 0.0000 0.0000 -3.9194 0.0000 26.7874
#
#
#
# Elastic Compliance Matrix: (Units=1/GPa)
#
#
# Indices 1 2 3 4 5 6 
#
# 1 0.007716 -0.003391 -0.002849 0.000000 -0.000655 0.000000
# 2 -0.003391 0.011540 -0.007668 0.000000 0.000636 0.000000
# 3 -0.002849 -0.007668 0.036813 0.000000 0.008420 0.000000
# 4 0.000000 0.000000 0.000000 0.050823 0.000000 0.007436
# 5 -0.000655 0.000636 0.008420 0.000000 0.046004 0.000000
# 6 0.000000 0.000000 0.000000 0.007436 0.000000 0.038419
#
#
# Mechanical properties :
#
#
# Convention : Reuss Voigt Hill
#
# Bulk Modulus (GPa) = 35.39599 66.79785 51.09692
# Shear Modulus (GPa) = 21.87709 27.79630 24.83669
#
# Velocity S-wave (km/s) = 3.50627 3.95225 3.73592
# Velocity P-wave (km/s) = 6.02353 7.63967 6.87923
#
# Compressibility (1/GPa) = 0.02825178
#
# Stress axis : x y z
#
# Youngs Moduli (GPa) = 129.59874 86.65642 27.16428
#
# Poissons Ratio (x) = 0.29385 0.07740
# Poissons Ratio (y) = 0.43947 0.20830
# Poissons Ratio (z) = 0.36928 0.66450
#
# Static dielectric constant tensor:
#      x y z
#    x 4.173380 0.000000 0.293650 
#    y 0.000000 3.388890 0.000000 
#    z 0.293650 0.000000 3.274690 
# 
# 
# High freq. dielectric constant tensor:
#      x y z
#    x 1.715560 0.000000 0.008660 
#    y 0.000000 1.662950 0.000000 
#    z 0.008660 0.000000 1.667650 
# 
# From -- ./inp_files/114280.got.cif
#   From: 2010.06.25/outbox.cif.g09.slc.cpg/sg15_58_cif.got.tgz:114280.got - 2010.06.28 07:06:18.
