data_PCOD8136579
_publ_section_title
;
Structure prediction by ZEFSAII (Michael W. Deem and Ramdas Pophale) SiO2 
 PCOD8136579
Probable space group: C 2/C
;
_chemical_formula_sum "Si O2"
_cell_formula_units_Z 48
_cell_length_a 19.706177
_cell_length_b 14.644556
_cell_length_c 19.406790
_cell_angle_alpha 90.000000
_cell_angle_beta 151.399733
_cell_angle_gamma 90.000000
_cell_volume 2680.970575
_symmetry_space_group_name_H-M "C 2/C"
_symmetry_group_IT_number 15
_symmetry_cell_setting 'monoclinic'
loop_
_space_group_symop_operation_xyz
x,y,z
-x,y,1/2-z
-x,-y,-z
x,-y,1/2+z
1/2+x,1/2+y,z
1/2-x,1/2+y,1/2-z
1/2-x,1/2-y,-z
1/2+x,1/2-y,1/2+z
loop_
_atom_site_type_symbol
_atom_site_label
_atom_site_fract_x
_atom_site_fract_y
_atom_site_fract_z
Si Si1 0.477670 0.856620 0.503598
Si Si2 0.131375 0.370298 0.407405
Si Si3 0.149841 0.805210 0.006557
Si Si4 0.075166 0.066896 0.121777
Si Si5 0.657587 0.023456 0.061390
Si Si6 0.754980 0.262719 0.763520
O O1 0.565086 0.899742 0.517897
O O2 0.325448 0.819948 0.344197
O O3 0.585780 0.777269 0.626661
O O4 0.437744 0.931735 0.524887
O O5 0.080739 0.278065 0.401886
O O6 0.250808 0.356972 0.457534
O O7 0.186664 0.445955 0.509776
O O8 0.000000 0.412526 0.250000
O O9 0.235876 0.761253 0.147108
O O10 0.037361 0.880672 0.930633
O O11 0.188089 0.007582 0.266380
O O12 0.165588 0.146435 0.166074
O O13 0.000000 0.000000 0.000000
#
# Coordination Sequence:
#
# PCOD8136579 Si02
#       6
#     8   8   8   8   8   8
#     4  10  20  34  57  75 117 147 187 233 279 326
#     4  11  22  33  54  78 116 154 179 220 278 344
#     4  11  21  34  54  82 117 147 185 221 280 341
#     4  11  21  34  54  82 115 147 186 232 279 330
#     4  10  21  36  50  81 114 153 186 230 274 329
#     4  11  19  36  55  84 113 151 184 232 279 338
#
# _framework density 17.903963000000001
#
# number of rings (size 3 to 8) (size 9 to 14) (size 15 to 20)
#    0.000    1.333    5.000    3.000    2.333    2.667 
#    0.000    0.000    0.000    0.000    0.000    4.667 
#    0.000    0.000    0.000    0.000    0.000    0.000 
#
# Total GULP energy -297370.120827 kJ/mol
# GULP energy per Si atom -12390.421701 kJ/mol
# Density = 1.786321 g / cm^3
# Si number density = 17.903963 Si / 1000 Ang^3
#
#
#
# Elastic Constant Matrix: (Units=GPa)
#
#
# Indices 1 2 3 4 5 6 
#
# 1 75.2832 47.8928 43.1318 0.0001 10.3471 0.0000
# 2 47.8928 64.8964 51.1945 0.0002 5.4263 0.0001
# 3 43.1318 51.1945 126.0396 0.0011 5.9661 0.0002
# 4 0.0001 0.0002 0.0011 43.6336 0.0002 1.6205
# 5 10.3471 5.4263 5.9661 0.0002 17.7132 0.0001
# 6 0.0000 0.0001 0.0002 1.6205 0.0001 52.3807
#
#
#
# Elastic Compliance Matrix: (Units=1/GPa)
#
#
# Indices 1 2 3 4 5 6 
#
# 1 0.026776 -0.017781 -0.001482 0.000000 -0.009695 0.000000
# 2 -0.017781 0.034751 -0.008148 0.000000 0.002485 0.000000
# 3 -0.001482 -0.008148 0.011779 0.000000 -0.000606 0.000000
# 4 0.000000 0.000000 0.000000 0.022944 0.000000 -0.000710
# 5 -0.009695 0.002485 -0.000606 0.000000 0.061561 0.000000
# 6 0.000000 0.000000 0.000000 -0.000710 0.000000 0.019113
#
#
# Mechanical properties :
#
#
# Convention : Reuss Voigt Hill
#
# Bulk Modulus (GPa) = 54.09762 61.18415 57.64089
# Shear Modulus (GPa) = 21.01644 31.01219 26.01432
#
# Velocity S-wave (km/s) = 3.42986 4.16641 3.81595
# Velocity P-wave (km/s) = 6.77984 7.57582 7.18886
#
# Compressibility (1/GPa) = 0.01848510
#
# Stress axis : x y z
#
# Youngs Moduli (GPa) = 37.34626 28.77601 84.89429
#
# Poissons Ratio (x) = 0.51167 0.12581
# Poissons Ratio (y) = 0.66405 0.69172
# Poissons Ratio (z) = 0.05535 0.23447
#
# Static dielectric constant tensor:
#      x y z
#    x 3.109640 0.000000 0.194290 
#    y 0.000000 3.326950 0.000000 
#    z 0.194290 0.000000 3.643640 
# 
# 
# High freq. dielectric constant tensor:
#      x y z
#    x 1.656900 0.000000 0.018280 
#    y 0.000000 1.681410 0.000000 
#    z 0.018280 0.000000 1.708270 
# 
# From -- ./inp_files/48370.got.cif
#   From: 2010.06.25/outbox.cif.g09.slc.cpg/sg15_25_cif.got.tgz:48370.got - 2010.06.28 07:06:18.
