data_PCOD8136655
_publ_section_title
;
Structure prediction by ZEFSAII (Michael W. Deem and Ramdas Pophale) SiO2 
 PCOD8136655
Probable space group: C 2/C
;
_chemical_formula_sum "Si O2"
_cell_formula_units_Z 64
_cell_length_a 17.586057
_cell_length_b 25.154556
_cell_length_c 13.983273
_cell_angle_alpha 90.000000
_cell_angle_beta 149.725356
_cell_angle_gamma 90.000000
_cell_volume 3118.529445
_symmetry_space_group_name_H-M "C 2/C"
_symmetry_group_IT_number 15
_symmetry_cell_setting 'monoclinic'
loop_
_space_group_symop_operation_xyz
x,y,z
-x,y,1/2-z
-x,-y,-z
x,-y,1/2+z
1/2+x,1/2+y,z
1/2-x,1/2+y,1/2-z
1/2-x,1/2-y,-z
1/2+x,1/2-y,1/2+z
loop_
_atom_site_type_symbol
_atom_site_label
_atom_site_fract_x
_atom_site_fract_y
_atom_site_fract_z
Si Si1 0.127503 0.102832 0.827201
Si Si2 0.646103 0.083825 0.852281
Si Si3 0.416871 0.548101 0.456527
Si Si4 0.294876 0.370591 0.687623
Si Si5 0.106976 0.764366 0.783877
Si Si6 0.652847 0.037442 0.299981
Si Si7 0.574594 0.128720 0.429615
Si Si8 0.977612 0.340668 0.420679
O O1 0.000000 0.137040 0.750000
O O2 0.021212 0.061085 0.659377
O O3 0.245809 0.071795 0.020251
O O4 0.241651 0.133614 0.880191
O O5 0.500000 0.104488 0.750000
O O6 0.650571 0.118421 0.759147
O O7 0.631126 0.021500 0.816309
O O8 0.783686 0.099944 0.071810
O O9 0.500000 0.500000 0.500000
O O10 0.413317 0.596540 0.378805
O O11 0.244122 0.533527 0.299020
O O12 0.362134 0.311862 0.755076
O O13 0.138426 0.366915 0.574366
O O14 0.039183 0.716000 0.648869
O O15 0.000000 0.785534 0.750000
O O16 0.250000 0.750000 0.000000
O O17 0.491344 0.068654 0.118732
O O18 0.500000 0.151042 0.250000
O O19 0.536979 0.165591 0.480222
#
# Coordination Sequence:
#
# PCOD8136655 Si02
#       8
#     8   8   8   8   8   8   8   8
#     4   9  20  37  55  82 123 162 214 261 322 379
#     4  10  20  34  58  92 130 165 213 265 320 388
#     4  11  23  36  56  90 133 171 210 271 326 388
#     4  11  23  42  63  94 137 172 213 272 335 391
#     4  12  23  43  70  97 130 170 219 274 335 390
#     4  10  20  37  59  87 126 177 218 265 314 397
#     4  10  21  39  66  89 121 173 220 262 326 387
#     4  11  22  40  66  96 127 168 223 275 326 392
#
# _framework density 20.522493999999998
#
# number of rings (size 3 to 8) (size 9 to 14) (size 15 to 20)
#    0.000    1.500    3.750    2.250    1.750    3.500 
#    0.000    0.000    0.000    3.000    0.000    0.000 
#    0.000    0.000    0.000    0.000    0.000    0.000 
#
# Total GULP energy -396443.234307 kJ/mol
# GULP energy per Si atom -12388.851072 kJ/mol
# Density = 2.047578 g / cm^3
# Si number density = 20.522494 Si / 1000 Ang^3
#
#
#
# Elastic Constant Matrix: (Units=GPa)
#
#
# Indices 1 2 3 4 5 6 
#
# 1 125.0851 21.1573 35.3384 0.0000 6.2519 0.0000
# 2 21.1573 77.8568 14.4578 0.0000 -2.4416 0.0000
# 3 35.3384 14.4578 57.5316 0.0000 15.2833 0.0000
# 4 0.0000 0.0000 0.0000 20.9702 0.0000 -2.8548
# 5 6.2519 -2.4416 15.2833 0.0000 35.1036 0.0000
# 6 0.0000 0.0000 0.0000 -2.8548 0.0000 27.1151
#
#
#
# Elastic Compliance Matrix: (Units=1/GPa)
#
#
# Indices 1 2 3 4 5 6 
#
# 1 0.009881 -0.001577 -0.005853 0.000000 0.000679 0.000000
# 2 -0.001577 0.013959 -0.003248 0.000000 0.002666 0.000000
# 3 -0.005853 -0.003248 0.024398 0.000000 -0.009806 0.000000
# 4 0.000000 0.000000 0.000000 0.048380 0.000000 0.005094
# 5 0.000679 0.002666 -0.009806 0.000000 0.032821 0.000000
# 6 0.000000 0.000000 0.000000 0.005094 0.000000 0.037416
#
#
# Mechanical properties :
#
#
# Convention : Reuss Voigt Hill
#
# Bulk Modulus (GPa) = 37.19854 44.70895 40.95375
# Shear Modulus (GPa) = 25.35854 29.27245 27.31550
#
# Velocity S-wave (km/s) = 3.51899 3.78081 3.65225
# Velocity P-wave (km/s) = 5.88865 6.39469 6.14688
#
# Compressibility (1/GPa) = 0.02688277
#
# Stress axis : x y z
#
# Youngs Moduli (GPa) = 101.20405 71.63703 40.98659
#
# Poissons Ratio (x) = 0.11296 0.23991
# Poissons Ratio (y) = 0.15959 0.13311
# Poissons Ratio (z) = 0.59239 0.23264
#
# Static dielectric constant tensor:
#      x y z
#    x 2.182340 0.000000 1.358260 
#    y 0.000000 3.401620 0.000000 
#    z 1.358260 0.000000 3.141580 
# 
# 
# High freq. dielectric constant tensor:
#      x y z
#    x 1.817240 0.000000 0.000500 
#    y 0.000000 1.765350 0.000000 
#    z 0.000500 0.000000 1.803830 
# 
# From -- ./inp_files/164247.got.cif
#   From: 2010.06.25/outbox.cif.g09.slc.cpg/sg15_83_cif.got.tgz:164247.got - 2010.06.28 07:06:18.
