data_PCOD8136885
_publ_section_title
;
Structure prediction by ZEFSAII (Michael W. Deem and Ramdas Pophale) SiO2 
 PCOD8136885
Probable space group: C 2/C
;
_chemical_formula_sum "Si O2"
_cell_formula_units_Z 48
_cell_length_a 18.631566
_cell_length_b 8.678521
_cell_length_c 18.097712
_cell_angle_alpha 90.000000
_cell_angle_beta 118.624259
_cell_angle_gamma 90.000000
_cell_volume 2568.647683
_symmetry_space_group_name_H-M "C 2/C"
_symmetry_group_IT_number 15
_symmetry_cell_setting 'monoclinic'
loop_
_space_group_symop_operation_xyz
x,y,z
-x,y,1/2-z
-x,-y,-z
x,-y,1/2+z
1/2+x,1/2+y,z
1/2-x,1/2+y,1/2-z
1/2-x,1/2-y,-z
1/2+x,1/2-y,1/2+z
loop_
_atom_site_type_symbol
_atom_site_label
_atom_site_fract_x
_atom_site_fract_y
_atom_site_fract_z
Si Si1 0.582808 0.552836 0.003871
Si Si2 0.170683 0.642334 0.380998
Si Si3 0.232526 0.931232 0.818011
Si Si4 0.732260 0.424260 0.161477
Si Si5 0.416562 0.559524 0.670346
Si Si6 0.169382 0.649974 0.542745
O O1 0.656577 0.446072 0.068894
O O2 0.596386 0.734222 0.030919
O O3 0.500000 0.500000 0.000000
O O4 0.577713 0.530904 0.913794
O O5 0.184955 0.502203 0.331040
O O6 0.099336 0.759037 0.319384
O O7 0.150937 0.575891 0.453074
O O8 0.252078 0.742559 0.424823
O O9 0.251534 0.753532 0.817561
O O10 0.208749 0.999675 0.727357
O O11 0.156649 0.953430 0.835571
O O12 0.314379 0.015205 0.890002
O O13 0.500000 0.507511 0.750000
#
# Coordination Sequence:
#
# PCOD8136885 Si02
#       6
#     8   8   8   8   8   8
#     4  10  20  35  56  80 109 145 183 222 269 322
#     4   8  16  32  52  74 101 136 176 215 262 316
#     4  11  21  34  55  81 109 142 184 227 268 321
#     4  11  21  34  55  80 107 141 183 227 270 322
#     4  10  20  35  56  80 109 144 178 218 270 325
#     4   8  16  32  52  75 104 138 175 216 261 314
#
# _framework density 18.686876000000002
#
# number of rings (size 3 to 8) (size 9 to 14) (size 15 to 20)
#    0.000    2.333    0.000    7.000    0.000    2.667 
#    0.000    1.667    0.000    6.000    0.000    0.000 
#    0.000    0.000    0.000    0.000    0.000    0.000 
#
# Total GULP energy -297513.179990 kJ/mol
# GULP energy per Si atom -12396.382500 kJ/mol
# Density = 1.864434 g / cm^3
# Si number density = 18.686876 Si / 1000 Ang^3
#
#
#
# Elastic Constant Matrix: (Units=GPa)
#
#
# Indices 1 2 3 4 5 6 
#
# 1 99.7614 47.3464 43.7009 0.0000 -9.3153 0.0000
# 2 47.3464 122.8237 47.9943 0.0000 -11.0974 0.0000
# 3 43.7009 47.9943 97.9182 0.0000 -14.6156 0.0000
# 4 0.0000 0.0000 0.0000 28.8395 0.0000 -7.1932
# 5 -9.3153 -11.0974 -14.6156 0.0000 22.9079 0.0000
# 6 0.0000 0.0000 0.0000 -7.1932 0.0000 22.3878
#
#
#
# Elastic Compliance Matrix: (Units=1/GPa)
#
#
# Indices 1 2 3 4 5 6 
#
# 1 0.013636 -0.003514 -0.004189 0.000000 0.001170 0.000000
# 2 -0.003514 0.011052 -0.003607 0.000000 0.001624 0.000000
# 3 -0.004189 -0.003607 0.014738 0.000000 0.005953 0.000000
# 4 0.000000 0.000000 0.000000 0.037696 0.000000 0.012112
# 5 0.001170 0.001624 0.005953 0.000000 0.048714 0.000000
# 6 0.000000 0.000000 0.000000 0.012112 0.000000 0.048559
#
#
# Mechanical properties :
#
#
# Convention : Reuss Voigt Hill
#
# Bulk Modulus (GPa) = 59.49498 66.50961 63.00229
# Shear Modulus (GPa) = 24.67732 26.92448 25.80090
#
# Velocity S-wave (km/s) = 3.63791 3.79994 3.71980
# Velocity P-wave (km/s) = 7.03937 7.41091 7.22753
#
# Compressibility (1/GPa) = 0.01680814
#
# Stress axis : x y z
#
# Youngs Moduli (GPa) = 73.33691 90.47858 67.85048
#
# Poissons Ratio (x) = 0.31793 0.28420
# Poissons Ratio (y) = 0.25770 0.24471
# Poissons Ratio (z) = 0.30718 0.32632
#
# Static dielectric constant tensor:
#      x y z
#    x 3.487700 0.000000 -0.059220 
#    y 0.000000 3.481020 0.000000 
#    z -0.059220 0.000000 3.590210 
# 
# 
# High freq. dielectric constant tensor:
#      x y z
#    x 1.705730 0.000000 -0.016530 
#    y 0.000000 1.709870 0.000000 
#    z -0.016530 0.000000 1.734080 
# 
# From -- ./inp_files/209316.got.cif
#   From: 2010.06.25/outbox.cif.g09.slc.cpg/sg15_105_cif.got.tgz:209316.got - 2010.06.28 07:06:18.
