data_PCOD8136181
_publ_section_title
;
Structure prediction by ZEFSAII (Michael W. Deem and Ramdas Pophale) SiO2 
 PCOD8136181
Probable space group: C 2/C
;
_chemical_formula_sum "Si O2"
_cell_formula_units_Z 64
_cell_length_a 17.961716
_cell_length_b 29.156282
_cell_length_c 9.464971
_cell_angle_alpha 90.000000
_cell_angle_beta 41.864260
_cell_angle_gamma 90.000000
_cell_volume 3307.994080
_symmetry_space_group_name_H-M "C 2/C"
_symmetry_group_IT_number 15
_symmetry_cell_setting 'monoclinic'
loop_
_space_group_symop_operation_xyz
x,y,z
-x,y,1/2-z
-x,-y,-z
x,-y,1/2+z
1/2+x,1/2+y,z
1/2-x,1/2+y,1/2-z
1/2-x,1/2-y,-z
1/2+x,1/2-y,1/2+z
loop_
_atom_site_type_symbol
_atom_site_label
_atom_site_fract_x
_atom_site_fract_y
_atom_site_fract_z
Si Si1 0.798813 0.600667 0.584123
Si Si2 0.370705 0.631458 0.448899
Si Si3 0.285497 0.899227 0.571758
Si Si4 0.077057 0.308984 0.525947
Si Si5 0.216447 0.767328 0.394951
Si Si6 0.090962 0.448687 0.333934
Si Si7 0.167242 0.545734 0.243236
Si Si8 0.419274 0.183169 0.993719
O O1 0.858665 0.649526 0.488342
O O2 0.880487 0.566437 0.548879
O O3 0.787620 0.579245 0.443883
O O4 0.683265 0.605413 0.838249
O O5 0.500000 0.620108 0.250000
O O6 0.321801 0.614125 0.368512
O O7 0.350554 0.685378 0.497030
O O8 0.381469 0.911307 0.323437
O O9 0.260043 0.940336 0.720285
O O10 0.327977 0.856491 0.604722
O O11 0.165551 0.272334 0.349000
O O12 0.000000 0.283814 0.750000
O O13 0.996650 0.328115 0.517475
O O14 0.250000 0.750000 0.500000
O O15 0.144390 0.731839 0.404710
O O16 0.170513 0.493017 0.187712
O O17 0.958860 0.452365 0.518978
O O18 0.500000 0.187773 0.750000
#
# Coordination Sequence:
#
# PCOD8136181 Si02
#       8
#     8   8   8   8   8   8   8   8
#     4  10  20  37  56  81 118 153 189 230 286 344
#     4  10  22  40  61  79 111 149 195 245 285 332
#     4  11  21  34  56  85 111 147 196 229 276 345
#     4  11  23  37  55  84 120 152 182 228 288 341
#     4  11  21  37  59  87 108 143 195 233 283 333
#     4  10  20  32  54  89 121 153 183 222 288 346
#     4  11  20  33  56  86 123 152 180 231 287 347
#     4  12  20  33  60  81 109 148 190 233 272 337
#
# _framework density 19.347072000000001
#
# number of rings (size 3 to 8) (size 9 to 14) (size 15 to 20)
#    0.000    1.250    2.500    6.375    0.000    2.500 
#    0.000    0.625    0.000   12.000    0.000    0.000 
#    0.000    0.000    0.000    0.000    0.000    0.000 
#
# Total GULP energy -396580.981311 kJ/mol
# GULP energy per Si atom -12393.155666 kJ/mol
# Density = 1.930304 g / cm^3
# Si number density = 19.347072 Si / 1000 Ang^3
#
#
#
# Elastic Constant Matrix: (Units=GPa)
#
#
# Indices 1 2 3 4 5 6 
#
# 1 54.5466 5.8059 33.6360 0.0000 0.2885 0.0000
# 2 5.8059 67.1561 16.9255 0.0000 -2.4473 0.0000
# 3 33.6360 16.9255 98.8959 0.0000 0.4555 0.0000
# 4 0.0000 0.0000 0.0000 23.6927 0.0000 1.3911
# 5 0.2885 -2.4473 0.4555 0.0000 31.9440 0.0000
# 6 0.0000 0.0000 0.0000 1.3911 0.0000 24.8318
#
#
#
# Elastic Compliance Matrix: (Units=1/GPa)
#
#
# Indices 1 2 3 4 5 6 
#
# 1 0.023199 -0.000022 -0.007886 0.000000 -0.000099 0.000000
# 2 -0.000022 0.015610 -0.002670 0.000000 0.001234 0.000000
# 3 -0.007886 -0.002670 0.013252 0.000000 -0.000322 0.000000
# 4 0.000000 0.000000 0.000000 0.042346 0.000000 -0.002372
# 5 -0.000099 0.001234 -0.000322 0.000000 0.031405 0.000000
# 6 0.000000 0.000000 0.000000 -0.002372 0.000000 0.040404
#
#
# Mechanical properties :
#
#
# Convention : Reuss Voigt Hill
#
# Bulk Modulus (GPa) = 32.35617 37.03704 34.69661
# Shear Modulus (GPa) = 25.29419 27.04244 26.16831
#
# Velocity S-wave (km/s) = 3.61971 3.74271 3.68172
# Velocity P-wave (km/s) = 5.85065 6.15323 6.00385
#
# Compressibility (1/GPa) = 0.03090600
#
# Stress axis : x y z
#
# Youngs Moduli (GPa) = 43.10585 64.05969 75.45890
#
# Poissons Ratio (x) = 0.00139 0.59507
# Poissons Ratio (y) = 0.00093 0.20147
# Poissons Ratio (z) = 0.33994 0.17104
#
# Static dielectric constant tensor:
#      x y z
#    x 3.370990 0.000000 0.034620 
#    y 0.000000 3.865030 0.000000 
#    z 0.034620 0.000000 3.273760 
# 
# 
# High freq. dielectric constant tensor:
#      x y z
#    x 1.739890 0.000000 0.020820 
#    y 0.000000 1.756350 0.000000 
#    z 0.020820 0.000000 1.743170 
# 
# From -- ./inp_files/52803.got.cif
#   From: 2010.06.25/outbox.cif.g09.slc.cpg/sg15_27_cif.got.tgz:52803.got - 2010.06.28 07:06:18.
