data_PCOD8136897
_publ_section_title
;
Structure prediction by ZEFSAII (Michael W. Deem and Ramdas Pophale) SiO2 
 PCOD8136897
Probable space group: C 2/C
;
_chemical_formula_sum "Si O2"
_cell_formula_units_Z 56
_cell_length_a 13.535776
_cell_length_b 8.786185
_cell_length_c 27.297308
_cell_angle_alpha 90.000000
_cell_angle_beta 123.009487
_cell_angle_gamma 90.000000
_cell_volume 2722.375433
_symmetry_space_group_name_H-M "C 2/C"
_symmetry_group_IT_number 15
_symmetry_cell_setting 'monoclinic'
loop_
_space_group_symop_operation_xyz
x,y,z
-x,y,1/2-z
-x,-y,-z
x,-y,1/2+z
1/2+x,1/2+y,z
1/2-x,1/2+y,1/2-z
1/2-x,1/2-y,-z
1/2+x,1/2-y,1/2+z
loop_
_atom_site_type_symbol
_atom_site_label
_atom_site_fract_x
_atom_site_fract_y
_atom_site_fract_z
Si Si1 0.169722 0.287840 0.083416
Si Si2 0.007572 0.157292 0.530380
Si Si3 0.767034 0.946220 0.372860
Si Si4 0.083733 0.151580 0.885608
Si Si5 0.520368 0.952460 0.811084
Si Si6 0.824507 0.646629 0.805799
Si Si7 0.864836 0.990282 0.796451
O O1 0.277972 0.378870 0.087566
O O2 0.138846 0.359080 0.127520
O O3 0.205480 0.113506 0.099427
O O4 0.051604 0.292934 0.017616
O O5 0.935643 0.147279 0.561517
O O6 0.149027 0.180413 0.577809
O O7 0.000000 0.000000 0.500000
O O8 0.627367 0.923079 0.342966
O O9 0.797727 0.936246 0.324316
O O10 0.044672 0.311628 0.852744
O O11 0.005032 0.019629 0.838691
O O12 0.500000 0.895117 0.750000
O O13 0.403237 0.030817 0.797216
O O14 0.690298 0.583490 0.764469
O O15 0.839093 0.811944 0.785734
#
# Coordination Sequence:
#
# PCOD8136897 Si02
#       7
#     8   8   8   8   8   8   8
#     4   9  19  34  57  84 115 150 195 251 286 343
#     4   9  17  36  62  87 115 151 204 251 292 356
#     4   8  17  34  57  81 107 156 196 235 297 349
#     4  10  21  35  62  89 112 155 202 242 304 355
#     4  11  21  38  58  84 120 158 198 247 302 356
#     4  11  22  38  57  85 122 157 197 244 305 356
#     4  10  20  35  56  84 117 152 194 244 295 360
#
# _framework density 20.570270000000001
#
# number of rings (size 3 to 8) (size 9 to 14) (size 15 to 20)
#    0.000    2.286    1.429    2.143    4.000    0.000 
#    2.571    1.429    0.000    0.000    0.000    0.000 
#    0.000    0.000    0.000    0.000    0.000    0.000 
#
# Total GULP energy -346978.564928 kJ/mol
# GULP energy per Si atom -12392.091605 kJ/mol
# Density = 2.052345 g / cm^3
# Si number density = 20.570270 Si / 1000 Ang^3
#
#
#
# Elastic Constant Matrix: (Units=GPa)
#
#
# Indices 1 2 3 4 5 6 
#
# 1 78.5399 20.3551 31.9434 0.0000 -0.8205 0.0000
# 2 20.3551 56.0197 30.6736 0.0000 -7.8268 0.0000
# 3 31.9434 30.6736 99.7127 0.0000 -4.8142 0.0000
# 4 0.0000 0.0000 0.0000 14.4415 0.0000 -3.1897
# 5 -0.8205 -7.8268 -4.8142 0.0000 31.0720 0.0000
# 6 0.0000 0.0000 0.0000 -3.1897 0.0000 24.0174
#
#
#
# Elastic Compliance Matrix: (Units=1/GPa)
#
#
# Indices 1 2 3 4 5 6 
#
# 1 0.015204 -0.003585 -0.003821 0.000000 -0.001094 0.000000
# 2 -0.003585 0.022931 -0.005674 0.000000 0.004802 0.000000
# 3 -0.003821 -0.005674 0.013022 0.000000 0.000487 0.000000
# 4 0.000000 0.000000 0.000000 0.071337 0.000000 0.009474
# 5 -0.001094 0.004802 0.000487 0.000000 0.033440 0.000000
# 6 0.000000 0.000000 0.000000 0.009474 0.000000 0.042895
#
#
# Mechanical properties :
#
#
# Convention : Reuss Voigt Hill
#
# Bulk Modulus (GPa) = 40.00356 44.46851 42.23604
# Shear Modulus (GPa) = 21.42977 23.99287 22.71132
#
# Velocity S-wave (km/s) = 3.23117 3.41894 3.32638
# Velocity P-wave (km/s) = 5.78015 6.10331 5.94392
#
# Compressibility (1/GPa) = 0.02499777
#
# Stress axis : x y z
#
# Youngs Moduli (GPa) = 65.77198 43.60863 76.79537
#
# Poissons Ratio (x) = 0.15635 0.29340
# Poissons Ratio (y) = 0.23581 0.43571
# Poissons Ratio (z) = 0.25129 0.24742
#
# Static dielectric constant tensor:
#      x y z
#    x 3.963960 0.000000 0.393600 
#    y 0.000000 3.385760 0.000000 
#    z 0.393600 0.000000 4.313060 
# 
# 
# High freq. dielectric constant tensor:
#      x y z
#    x 1.800800 0.000000 0.011760 
#    y 0.000000 1.762380 0.000000 
#    z 0.011760 0.000000 1.823220 
# 
# From -- ./inp_files/295247.got.cif
#   From: 2010.06.25/outbox.cif.g09.slc.cpg/sg15_148_cif.got.tgz:295247.got - 2010.06.28 07:06:18.
