data_PCOD8136847
_publ_section_title
;
Structure prediction by ZEFSAII (Michael W. Deem and Ramdas Pophale) SiO2 
 PCOD8136847
Probable space group: C 2/C
;
_chemical_formula_sum "Si O2"
_cell_formula_units_Z 48
_cell_length_a 14.098788
_cell_length_b 13.141066
_cell_length_c 23.321441
_cell_angle_alpha 90.000000
_cell_angle_beta 33.202599
_cell_angle_gamma 90.000000
_cell_volume 2366.094756
_symmetry_space_group_name_H-M "C 2/C"
_symmetry_group_IT_number 15
_symmetry_cell_setting 'monoclinic'
loop_
_space_group_symop_operation_xyz
x,y,z
-x,y,1/2-z
-x,-y,-z
x,-y,1/2+z
1/2+x,1/2+y,z
1/2-x,1/2+y,1/2-z
1/2-x,1/2-y,-z
1/2+x,1/2-y,1/2+z
loop_
_atom_site_type_symbol
_atom_site_label
_atom_site_fract_x
_atom_site_fract_y
_atom_site_fract_z
Si Si1 0.164295 0.782508 0.799523
Si Si2 0.357572 0.156337 0.971967
Si Si3 0.872919 0.924826 0.995735
Si Si4 0.018215 0.764311 0.177075
Si Si5 0.140767 0.149954 0.503141
Si Si6 0.659391 0.246909 0.405032
O O1 0.335142 0.782852 0.751421
O O2 0.204727 0.787854 0.711557
O O3 0.047942 0.876627 0.880301
O O4 0.061514 0.675501 0.858242
O O5 0.275686 0.060859 0.979500
O O6 0.334742 0.154021 0.052431
O O7 0.250000 0.250000 0.000000
O O8 0.906751 0.039878 0.999921
O O9 0.796434 0.854234 0.085485
O O10 0.083520 0.849685 0.099177
O O11 0.000000 0.811664 0.250000
O O12 0.156824 0.672254 0.107148
O O13 0.031695 0.237489 0.525457
#
# Coordination Sequence:
#
# PCOD8136847 Si02
#       6
#     8   8   8   8   8   8
#     4   9  18  34  57  78 108 147 184 218 284 345
#     4   8  17  31  50  76 113 139 171 225 279 327
#     4  10  20  35  54  87 117 136 191 242 272 327
#     4  10  20  38  58  75 110 153 186 219 290 339
#     4  10  21  37  56  82 115 145 187 241 273 331
#     4   9  17  33  58  78 108 154 176 222 289 332
#
# _framework density 20.286593
#
# number of rings (size 3 to 8) (size 9 to 14) (size 15 to 20)
#    0.000    3.000    0.000    2.500    0.000    6.000 
#   12.000    0.000    0.000    4.000    0.000    0.000 
#    0.000    0.000    0.000    0.000    0.000    0.000 
#
# Total GULP energy -297315.510543 kJ/mol
# GULP energy per Si atom -12388.146273 kJ/mol
# Density = 2.024042 g / cm^3
# Si number density = 20.286593 Si / 1000 Ang^3
#
#
#
# Elastic Constant Matrix: (Units=GPa)
#
#
# Indices 1 2 3 4 5 6 
#
# 1 98.1195 -8.1612 31.1083 -0.0002 5.4892 0.0000
# 2 -8.1612 27.5957 -7.6116 -0.0004 -13.9247 0.0001
# 3 31.1083 -7.6116 83.9380 -0.0011 -7.0572 0.0002
# 4 -0.0002 -0.0004 -0.0011 15.5020 0.0003 -0.9247
# 5 5.4892 -13.9247 -7.0572 0.0003 42.5831 0.0000
# 6 0.0000 0.0001 0.0002 -0.9247 0.0000 20.1298
#
#
#
# Elastic Compliance Matrix: (Units=1/GPa)
#
#
# Indices 1 2 3 4 5 6 
#
# 1 0.011802 0.001366 -0.004402 0.000000 -0.001804 0.000000
# 2 0.001366 0.045917 0.004975 0.000001 0.015663 0.000000
# 3 -0.004402 0.004975 0.014381 0.000001 0.004577 0.000000
# 4 0.000000 0.000001 0.000001 0.064685 0.000000 0.002971
# 5 -0.001804 0.015663 0.004577 0.000000 0.029596 0.000000
# 6 0.000000 0.000000 0.000000 0.002971 0.000000 0.049814
#
#
# Mechanical properties :
#
#
# Convention : Reuss Voigt Hill
#
# Bulk Modulus (GPa) = 13.16190 26.70270 19.93230
# Shear Modulus (GPa) = 21.03991 28.59750 24.81871
#
# Velocity S-wave (km/s) = 3.22395 3.75864 3.50151
# Velocity P-wave (km/s) = 4.51227 5.65931 5.11802
#
# Compressibility (1/GPa) = 0.07597685
#
# Stress axis : x y z
#
# Youngs Moduli (GPa) = 84.73343 21.77840 69.53720
#
# Poissons Ratio (x) = -0.02974 0.30608
# Poissons Ratio (y) = -0.11573 -0.34591
# Poissons Ratio (z) = 0.37297 -0.10834
#
# Static dielectric constant tensor:
#      x y z
#    x 4.417420 0.000000 -0.011010 
#    y 0.000000 3.288650 0.000000 
#    z -0.011010 0.000000 3.747100 
# 
# 
# High freq. dielectric constant tensor:
#      x y z
#    x 1.821420 0.000000 0.003210 
#    y 0.000000 1.729210 0.000000 
#    z 0.003210 0.000000 1.795440 
# 
# From -- ./inp_files/274276.got.cif
#   From: 2010.06.25/outbox.cif.g09.slc.cpg/sg15_138_cif.got.tgz:274276.got - 2010.06.28 07:06:18.
