data_PCOD8136190
_publ_section_title
;
Structure prediction by ZEFSAII (Michael W. Deem and Ramdas Pophale) SiO2 
 PCOD8136190
Probable space group: C 2/C
;
_chemical_formula_sum "Si O2"
_cell_formula_units_Z 60
_cell_length_a 16.463553
_cell_length_b 20.165712
_cell_length_c 8.960806
_cell_angle_alpha 90.000000
_cell_angle_beta 63.830093
_cell_angle_gamma 90.000000
_cell_volume 2670.016129
_symmetry_space_group_name_H-M "C 2/C"
_symmetry_group_IT_number 15
_symmetry_cell_setting 'monoclinic'
loop_
_space_group_symop_operation_xyz
x,y,z
-x,y,1/2-z
-x,-y,-z
x,-y,1/2+z
1/2+x,1/2+y,z
1/2-x,1/2+y,1/2-z
1/2-x,1/2-y,-z
1/2+x,1/2-y,1/2+z
loop_
_atom_site_type_symbol
_atom_site_label
_atom_site_fract_x
_atom_site_fract_y
_atom_site_fract_z
Si Si1 0.954125 0.700620 0.459974
Si Si2 0.788060 0.703905 0.822013
Si Si3 0.810145 0.431704 0.827935
Si Si4 0.421845 0.271041 0.926620
Si Si5 0.155249 0.906128 0.476818
Si Si6 0.797675 0.007379 0.824663
Si Si7 0.177771 0.276538 0.674766
Si Si8 0.500000 0.079905 0.250000
O O1 0.047026 0.734944 0.444587
O O2 0.079219 0.731618 0.173318
O O3 0.870570 0.703608 0.640936
O O4 0.976976 0.623996 0.414943
O O5 0.824661 0.746759 0.934878
O O6 0.755383 0.629676 0.893531
O O7 0.696357 0.734853 0.813510
O O8 0.778412 0.470287 0.708584
O O9 0.807639 0.353641 0.799091
O O10 0.910395 0.461539 0.781995
O O11 0.746691 0.443220 0.021368
O O12 0.500000 0.250680 0.750000
O O13 0.422053 0.350417 0.949238
O O14 0.144972 0.952544 0.631007
O O15 0.140318 0.949335 0.338183
O O16 0.250000 0.250000 0.500000
#
# Coordination Sequence:
#
# PCOD8136190 Si02
#       8
#     8   8   8   8   8   8   8   4
#     4   9  20  34  53  91 131 148 181 241 318 367
#     4  10  20  36  63  93 116 153 200 250 303 362
#     4  10  21  37  55  81 119 156 202 252 283 355
#     4  10  22  38  60  96 125 147 187 254 318 368
#     4  11  22  39  65  84 118 159 208 245 297 350
#     4  10  23  40  57  83 113 164 220 244 270 347
#     4   9  17  33  58  86 115 148 190 242 302 354
#     4  10  20  32  56  80 126 156 188 238 308 364
#
# _framework density 22.471775999999998
#
# number of rings (size 3 to 8) (size 9 to 14) (size 15 to 20)
#    0.000    2.133    0.000    3.600    5.600    0.533 
#    0.000    0.667    1.467    0.000    0.000    0.000 
#    0.000    0.000    0.000    0.000    0.000    0.000 
#
# Total GULP energy -371884.692075 kJ/mol
# GULP energy per Si atom -12396.156402 kJ/mol
# Density = 2.242063 g / cm^3
# Si number density = 22.471776 Si / 1000 Ang^3
#
#
#
# Elastic Constant Matrix: (Units=GPa)
#
#
# Indices 1 2 3 4 5 6 
#
# 1 113.6937 19.5370 38.2429 0.0000 8.0863 0.0000
# 2 19.5370 87.1273 24.2985 0.0000 21.1439 0.0000
# 3 38.2429 24.2985 96.9954 0.0000 36.4778 0.0000
# 4 0.0000 0.0000 0.0000 32.6780 0.0000 2.6971
# 5 8.0863 21.1439 36.4778 0.0000 33.6240 0.0000
# 6 0.0000 0.0000 0.0000 2.6971 0.0000 35.3863
#
#
#
# Elastic Compliance Matrix: (Units=1/GPa)
#
#
# Indices 1 2 3 4 5 6 
#
# 1 0.010631 -0.001981 -0.005409 0.000000 0.004558 0.000000
# 2 -0.001981 0.013920 0.000687 0.000000 -0.009022 0.000000
# 3 -0.005409 0.000687 0.020175 0.000000 -0.021019 0.000000
# 4 0.000000 0.000000 0.000000 0.030795 0.000000 -0.002347
# 5 0.004558 -0.009022 -0.021019 0.000000 0.057121 0.000000
# 6 0.000000 0.000000 0.000000 -0.002347 0.000000 0.028438
#
#
# Mechanical properties :
#
#
# Convention : Reuss Voigt Hill
#
# Bulk Modulus (GPa) = 31.92961 51.33037 41.62999
# Shear Modulus (GPa) = 27.03767 34.72019 30.87893
#
# Velocity S-wave (km/s) = 3.47246 3.93499 3.71093
# Velocity P-wave (km/s) = 5.50608 6.59827 6.07676
#
# Compressibility (1/GPa) = 0.03131889
#
# Stress axis : x y z
#
# Youngs Moduli (GPa) = 94.06068 71.84128 49.56617
#
# Poissons Ratio (x) = 0.14235 0.26812
# Poissons Ratio (y) = 0.18637 -0.03406
# Poissons Ratio (z) = 0.50881 -0.04937
#
# Static dielectric constant tensor:
#      x y z
#    x 4.500920 0.000000 0.196210 
#    y 0.000000 3.838310 0.000000 
#    z 0.196210 0.000000 4.608830 
# 
# 
# High freq. dielectric constant tensor:
#      x y z
#    x 1.890960 0.000000 0.002610 
#    y 0.000000 1.859640 0.000000 
#    z 0.002610 0.000000 1.936620 
# 
# From -- ./inp_files/50657.got.cif
#   From: 2010.06.25/outbox.cif.g09.slc.cpg/sg15_26_cif.got.tgz:50657.got - 2010.06.28 07:06:18.
