data_PCOD8136520
_publ_section_title
;
Structure prediction by ZEFSAII (Michael W. Deem and Ramdas Pophale) SiO2 
 PCOD8136520
Probable space group: C 2/C
;
_chemical_formula_sum "Si O2"
_cell_formula_units_Z 52
_cell_length_a 18.321034
_cell_length_b 16.671437
_cell_length_c 17.531970
_cell_angle_alpha 90.000000
_cell_angle_beta 29.249684
_cell_angle_gamma 90.000000
_cell_volume 2616.506397
_symmetry_space_group_name_H-M "C 2/C"
_symmetry_group_IT_number 15
_symmetry_cell_setting 'monoclinic'
loop_
_space_group_symop_operation_xyz
x,y,z
-x,y,1/2-z
-x,-y,-z
x,-y,1/2+z
1/2+x,1/2+y,z
1/2-x,1/2+y,1/2-z
1/2-x,1/2-y,-z
1/2+x,1/2-y,1/2+z
loop_
_atom_site_type_symbol
_atom_site_label
_atom_site_fract_x
_atom_site_fract_y
_atom_site_fract_z
Si Si1 0.178318 0.834831 0.585756
Si Si2 0.213708 0.288155 0.434076
Si Si3 0.825284 0.918914 0.758131
Si Si4 0.205023 0.907266 0.257540
Si Si5 0.854289 0.882282 0.565332
Si Si6 0.000000 0.254418 0.750000
Si Si7 0.324712 0.556406 0.549385
O O1 0.250000 0.750000 0.500000
O O2 0.238049 0.866659 0.613427
O O3 0.236580 0.899186 0.469873
O O4 0.000000 0.825978 0.750000
O O5 0.194608 0.340173 0.375382
O O6 0.203432 0.193653 0.427665
O O7 0.080218 0.310888 0.613909
O O8 0.375344 0.303642 0.325349
O O9 0.787370 0.876861 0.712150
O O10 0.000966 0.927479 0.605674
O O11 0.757146 0.008528 0.818252
O O12 0.251260 0.908318 0.304397
O O13 0.032348 0.884590 0.407200
O O14 0.794452 0.960973 0.575147
#
# Coordination Sequence:
#
# PCOD8136520 Si02
#       7
#     8   8   8   8   8   4   8
#     4  10  20  34  55  82 108 140 176 225 264 310
#     4  11  20  36  54  79 108 142 174 223 276 316
#     4   8  17  33  54  83 106 137 186 222 256 312
#     4   9  17  33  57  81 106 140 181 221 263 317
#     4   9  17  33  57  81 106 140 181 221 263 317
#     4  10  24  34  46  80 108 132 182 214 262 332
#     4   8  17  33  54  83 106 137 186 222 256 312
#
# _framework density 19.873829000000001
#
# number of rings (size 3 to 8) (size 9 to 14) (size 15 to 20)
#    0.000    2.769    1.538    1.846    2.154    2.462 
#    2.769    0.000    6.769    1.846    0.000    0.000 
#    0.000    0.000    0.000    0.000    0.000    0.000 
#
# Total GULP energy -322219.309211 kJ/mol
# GULP energy per Si atom -12393.050354 kJ/mol
# Density = 1.982859 g / cm^3
# Si number density = 19.873829 Si / 1000 Ang^3
#
#
#
# Elastic Constant Matrix: (Units=GPa)
#
#
# Indices 1 2 3 4 5 6 
#
# 1 83.1662 54.3454 40.8893 0.0004 36.7591 -0.0001
# 2 54.3454 125.0149 48.1828 -0.0129 36.1743 0.0052
# 3 40.8893 48.1828 87.7899 -0.0198 32.7874 0.0104
# 4 0.0004 -0.0129 -0.0198 30.9440 0.0041 12.0416
# 5 36.7591 36.1743 32.7874 0.0041 39.0039 -0.0008
# 6 -0.0001 0.0052 0.0104 12.0416 -0.0008 26.8248
#
#
#
# Elastic Compliance Matrix: (Units=1/GPa)
#
#
# Indices 1 2 3 4 5 6 
#
# 1 0.023045 -0.004625 -0.002457 -0.000003 -0.015364 0.000003
# 2 -0.004625 0.012527 -0.002930 0.000006 -0.004796 -0.000004
# 3 -0.002457 -0.002930 0.017876 0.000017 -0.009994 -0.000014
# 4 -0.000003 0.000006 0.000017 0.039157 -0.000021 -0.017577
# 5 -0.015364 -0.004796 -0.009994 -0.000021 0.052967 0.000016
# 6 0.000003 -0.000004 -0.000014 -0.017577 0.000016 0.045169
#
#
# Mechanical properties :
#
#
# Convention : Reuss Voigt Hill
#
# Bulk Modulus (GPa) = 29.91920 64.75622 47.33771
# Shear Modulus (GPa) = 22.53207 29.52478 26.02843
#
# Velocity S-wave (km/s) = 3.37078 3.85854 3.62288
# Velocity P-wave (km/s) = 5.49880 7.24607 6.43204
#
# Compressibility (1/GPa) = 0.03342335
#
# Stress axis : x y z
#
# Youngs Moduli (GPa) = 43.39261 79.82965 55.94215
#
# Poissons Ratio (x) = 0.36925 0.13745
# Poissons Ratio (y) = 0.20071 0.16389
# Poissons Ratio (z) = 0.10662 0.23387
#
# Static dielectric constant tensor:
#      x y z
#    x 3.828610 -0.000010 0.543090 
#    y -0.000010 3.536620 0.000010 
#    z 0.543090 0.000010 3.533100 
# 
# 
# High freq. dielectric constant tensor:
#      x y z
#    x 1.767660 0.000000 0.037070 
#    y 0.000000 1.763330 0.000000 
#    z 0.037070 0.000000 1.751760 
# 
# From -- ./inp_files/211674.got.cif
#   From: 2010.06.25/outbox.cif.g09.slc.cpg/sg15_106_cif.got.tgz:211674.got - 2010.06.28 07:06:18.
