data_PCOD8136003
_publ_section_title
;
Structure prediction by ZEFSAII (Michael W. Deem and Ramdas Pophale) SiO2 
 PCOD8136003
Probable space group: C 2/C
;
_chemical_formula_sum "Si O2"
_cell_formula_units_Z 64
_cell_length_a 10.695387
_cell_length_b 8.711982
_cell_length_c 28.741584
_cell_angle_alpha 90.000000
_cell_angle_beta 77.238918
_cell_angle_gamma 90.000000
_cell_volume 2611.934160
_symmetry_space_group_name_H-M "C 2/C"
_symmetry_group_IT_number 15
_symmetry_cell_setting 'monoclinic'
loop_
_space_group_symop_operation_xyz
x,y,z
-x,y,1/2-z
-x,-y,-z
x,-y,1/2+z
1/2+x,1/2+y,z
1/2-x,1/2+y,1/2-z
1/2-x,1/2-y,-z
1/2+x,1/2-y,1/2+z
loop_
_atom_site_type_symbol
_atom_site_label
_atom_site_fract_x
_atom_site_fract_y
_atom_site_fract_z
Si Si1 0.430572 0.543348 0.097401
Si Si2 0.122390 0.751476 0.625383
Si Si3 0.751227 0.329678 0.704887
Si Si4 0.728182 0.004247 0.982133
Si Si5 0.726819 0.481638 0.798473
Si Si6 0.146426 0.800800 0.455688
Si Si7 0.464140 0.065861 0.337495
Si Si8 0.690067 0.202353 0.070310
O O1 0.558686 0.643040 0.091227
O O2 0.385010 0.518662 0.154101
O O3 0.466038 0.384721 0.065508
O O4 0.326124 0.637876 0.076841
O O5 0.176655 0.859306 0.662552
O O6 0.235779 0.663683 0.589340
O O7 0.030345 0.616245 0.651274
O O8 0.678870 0.405255 0.754658
O O9 0.896434 0.388976 0.691160
O O10 0.742363 0.153225 0.717312
O O11 0.628705 0.882337 0.965735
O O12 0.793177 0.113713 0.938066
O O13 0.833862 0.893103 0.997823
O O14 0.655743 0.115943 0.024505
O O15 0.857120 0.401826 0.806727
O O16 0.426280 0.170254 0.384910
#
# Coordination Sequence:
#
# PCOD8136003 Si02
#       8
#     8   8   8   8   8   8   8   8
#     4  10  21  42  66  93 140 175 220 279 335 403
#     4  11  23  43  69  96 132 189 220 272 345 400
#     4  11  24  44  70  97 134 178 225 279 338 404
#     4   9  18  35  72  98 136 171 227 283 331 400
#     4  10  23  46  65 103 133 170 229 281 334 398
#     4  10  19  42  64  96 142 174 221 280 337 405
#     4  10  21  44  72  96 139 176 221 283 342 398
#     4   9  18  40  69 102 134 175 228 279 333 407
#
# _framework density 24.502915000000002
#
# number of rings (size 3 to 8) (size 9 to 14) (size 15 to 20)
#    0.000    2.000    5.000    0.375    1.750    2.500 
#    6.750    6.250    5.500    0.000    0.000    0.000 
#    0.000    0.000    0.000    0.000    0.000    0.000 
#
# Total GULP energy -396673.724570 kJ/mol
# GULP energy per Si atom -12396.053893 kJ/mol
# Density = 2.444715 g / cm^3
# Si number density = 24.502915 Si / 1000 Ang^3
#
#
#
# Elastic Constant Matrix: (Units=GPa)
#
#
# Indices 1 2 3 4 5 6 
#
# 1 41.2230 16.1190 16.7544 0.0000 18.2273 0.0000
# 2 16.1190 129.2522 53.3003 0.0000 11.9413 0.0000
# 3 16.7544 53.3003 127.2910 0.0000 10.4218 0.0000
# 4 0.0000 0.0000 0.0000 49.8995 0.0000 5.6738
# 5 18.2273 11.9413 10.4218 0.0000 23.6334 0.0000
# 6 0.0000 0.0000 0.0000 5.6738 0.0000 24.4845
#
#
#
# Elastic Compliance Matrix: (Units=1/GPa)
#
#
# Indices 1 2 3 4 5 6 
#
# 1 0.037837 -0.001267 -0.002192 0.000000 -0.027575 0.000000
# 2 -0.001267 0.009620 -0.003676 0.000000 -0.002262 0.000000
# 3 -0.002192 -0.003676 0.009745 0.000000 -0.000749 0.000000
# 4 0.000000 0.000000 0.000000 0.020583 0.000000 -0.004770
# 5 -0.027575 -0.002262 -0.000749 0.000000 0.065054 0.000000
# 6 0.000000 0.000000 0.000000 -0.004770 0.000000 0.041947
#
#
# Mechanical properties :
#
#
# Convention : Reuss Voigt Hill
#
# Bulk Modulus (GPa) = 23.29271 52.23485 37.76378
# Shear Modulus (GPa) = 23.43377 33.70964 28.57171
#
# Velocity S-wave (km/s) = 3.09587 3.71312 3.41846
# Velocity P-wave (km/s) = 4.72292 6.30453 5.57015
#
# Compressibility (1/GPa) = 0.04293189
#
# Stress axis : x y z
#
# Youngs Moduli (GPa) = 26.42889 103.95280 102.61512
#
# Poissons Ratio (x) = 0.13172 0.22493
# Poissons Ratio (y) = 0.03349 0.37722
# Poissons Ratio (z) = 0.05793 0.38214
#
# Static dielectric constant tensor:
#      x y z
#    x 3.997300 0.000000 0.257460 
#    y 0.000000 4.503710 0.000000 
#    z 0.257460 0.000000 4.616580 
# 
# 
# High freq. dielectric constant tensor:
#      x y z
#    x 1.947360 0.000000 0.002640 
#    y 0.000000 1.982190 0.000000 
#    z 0.002640 0.000000 1.985410 
# 
# From -- ./inp_files/310305.got.cif
#   From: 2010.06.25/outbox.cif.g09.slc.cpg/sg15_156_cif.got.tgz:310305.got - 2010.06.28 07:06:18.
