data_PCOD8136587
_publ_section_title
;
Structure prediction by ZEFSAII (Michael W. Deem and Ramdas Pophale) SiO2 
 PCOD8136587
Probable space group: C 2/C
;
_chemical_formula_sum "Si O2"
_cell_formula_units_Z 40
_cell_length_a 16.832014
_cell_length_b 14.923586
_cell_length_c 13.293056
_cell_angle_alpha 90.000000
_cell_angle_beta 146.369521
_cell_angle_gamma 90.000000
_cell_volume 1849.328899
_symmetry_space_group_name_H-M "C 2/C"
_symmetry_group_IT_number 15
_symmetry_cell_setting 'monoclinic'
loop_
_space_group_symop_operation_xyz
x,y,z
-x,y,1/2-z
-x,-y,-z
x,-y,1/2+z
1/2+x,1/2+y,z
1/2-x,1/2+y,1/2-z
1/2-x,1/2-y,-z
1/2+x,1/2-y,1/2+z
loop_
_atom_site_type_symbol
_atom_site_label
_atom_site_fract_x
_atom_site_fract_y
_atom_site_fract_z
Si Si1 0.576114 0.821664 0.150270
Si Si2 0.340425 0.972639 0.121372
Si Si3 0.205293 0.136050 0.087929
Si Si4 0.758507 0.350299 0.863068
Si Si5 0.983655 0.276728 0.841861
O O1 0.651185 0.910982 0.270363
O O2 0.656294 0.733865 0.274860
O O3 0.419247 0.812743 0.032211
O O4 0.570605 0.828342 0.022338
O O5 0.500000 0.996684 0.250000
O O6 0.251703 0.060497 0.058405
O O7 0.244407 0.923496 0.936013
O O8 0.216729 0.100613 0.214321
O O9 0.315030 0.221381 0.191978
O O10 0.046052 0.175022 0.899081
O O11 0.000000 0.324512 0.750000
#
# Coordination Sequence:
#
# PCOD8136587 Si02
#       5
#     8   8   8   8   8
#     4   9  19  35  56  81 107 141 180 218 268 320
#     4  10  20  34  57  83 107 138 182 226 261 313
#     4  10  21  36  56  81 106 141 183 220 265 320
#     4   9  19  36  57  80 109 142 176 220 270 316
#     4  10  20  35  55  77 108 143 176 217 268 320
#
# _framework density 21.629470000000001
#
# number of rings (size 3 to 8) (size 9 to 14) (size 15 to 20)
#    0.000    2.400    0.000    1.800    0.000    8.800 
#    0.000    2.000    0.000   14.400    0.000    0.000 
#    0.000    0.000    0.000    0.000    0.000    0.000 
#
# Total GULP energy -247851.408168 kJ/mol
# GULP energy per Si atom -12392.570408 kJ/mol
# Density = 2.158024 g / cm^3
# Si number density = 21.629470 Si / 1000 Ang^3
#
#
#
# Elastic Constant Matrix: (Units=GPa)
#
#
# Indices 1 2 3 4 5 6 
#
# 1 97.0277 60.2364 41.1411 0.0000 -28.9510 0.0000
# 2 60.2364 121.1153 50.9226 0.0000 -3.6814 0.0000
# 3 41.1411 50.9226 80.9530 0.0001 -20.3994 0.0001
# 4 0.0000 0.0000 0.0001 14.1471 0.0000 4.5123
# 5 -28.9510 -3.6814 -20.3994 0.0000 32.1378 0.0000
# 6 0.0000 0.0000 0.0001 4.5123 0.0000 46.2986
#
#
#
# Elastic Compliance Matrix: (Units=1/GPa)
#
#
# Indices 1 2 3 4 5 6 
#
# 1 0.022674 -0.010721 0.000070 0.000000 0.019242 0.000000
# 2 -0.010721 0.016700 -0.008342 0.000000 -0.013041 0.000000
# 3 0.000070 -0.008342 0.020642 0.000000 0.012209 0.000000
# 4 0.000000 0.000000 0.000000 0.072954 0.000000 -0.007110
# 5 0.019242 -0.013041 0.012209 0.000000 0.054706 0.000000
# 6 0.000000 0.000000 0.000000 -0.007110 0.000000 0.022292
#
#
# Mechanical properties :
#
#
# Convention : Reuss Voigt Hill
#
# Bulk Modulus (GPa) = 45.39703 67.07738 56.23720
# Shear Modulus (GPa) = 19.58497 28.30310 23.94404
#
# Velocity S-wave (km/s) = 3.01238 3.62130 3.33079
# Velocity P-wave (km/s) = 5.75615 6.96882 6.39131
#
# Compressibility (1/GPa) = 0.02202787
#
# Stress axis : x y z
#
# Youngs Moduli (GPa) = 44.10306 59.88032 48.44557
#
# Poissons Ratio (x) = 0.64200 -0.00338
# Poissons Ratio (y) = 0.47285 0.40415
# Poissons Ratio (z) = -0.00307 0.49954
#
# Static dielectric constant tensor:
#      x y z
#    x 4.069260 0.000000 -0.255730 
#    y 0.000000 3.549730 0.000000 
#    z -0.255730 0.000000 4.017510 
# 
# 
# High freq. dielectric constant tensor:
#      x y z
#    x 1.856210 0.000000 -0.021050 
#    y 0.000000 1.818480 0.000000 
#    z -0.021050 0.000000 1.849080 
# 
# From -- ./inp_files/46906.got.cif
#   From: 2010.06.25/outbox.cif.g09.slc.cpg/sg15_24_cif.got.tgz:46906.got - 2010.06.28 07:06:18.
