data_PCOD8136891
_publ_section_title
;
Structure prediction by ZEFSAII (Michael W. Deem and Ramdas Pophale) SiO2 
 PCOD8136891
Probable space group: C 2/C
;
_chemical_formula_sum "Si O2"
_cell_formula_units_Z 32
_cell_length_a 7.682275
_cell_length_b 14.857798
_cell_length_c 13.634952
_cell_angle_alpha 90.000000
_cell_angle_beta 76.007267
_cell_angle_gamma 90.000000
_cell_volume 1510.134957
_symmetry_space_group_name_H-M "C 2/C"
_symmetry_group_IT_number 15
_symmetry_cell_setting 'monoclinic'
loop_
_space_group_symop_operation_xyz
x,y,z
-x,y,1/2-z
-x,-y,-z
x,-y,1/2+z
1/2+x,1/2+y,z
1/2-x,1/2+y,1/2-z
1/2-x,1/2-y,-z
1/2+x,1/2-y,1/2+z
loop_
_atom_site_type_symbol
_atom_site_label
_atom_site_fract_x
_atom_site_fract_y
_atom_site_fract_z
Si Si1 0.257887 0.549392 0.519810
Si Si2 0.577454 0.561672 0.342981
Si Si3 0.894319 0.366668 0.036726
Si Si4 0.833066 0.720539 0.340332
O O1 0.422338 0.595454 0.439014
O O2 0.318584 0.522303 0.621361
O O3 0.203773 0.461458 0.464872
O O4 0.094559 0.618762 0.550813
O O5 0.500000 0.528934 0.250000
O O6 0.713000 0.643744 0.305791
O O7 0.783972 0.310609 0.131853
O O8 0.908943 0.312324 0.933852
O O9 0.000000 0.744645 0.250000
#
# Coordination Sequence:
#
# PCOD8136891 Si02
#       4
#     8   8   8   8
#     4   9  19  37  59  82 112 150 191 239 286 331
#     4  10  20  35  56  82 115 153 191 232 283 340
#     4   9  19  37  58  81 114 151 189 238 287 334
#     4  10  20  35  57  84 117 152 187 232 286 345
#
# _framework density 21.190159000000001
#
# number of rings (size 3 to 8) (size 9 to 14) (size 15 to 20)
#    0.000    2.500    0.000    1.500    0.000    2.000 
#    0.000    7.500    0.000    0.000    0.000    0.000 
#    0.000    0.000    0.000    0.000    0.000    0.000 
#
# Total GULP energy -198457.699006 kJ/mol
# GULP energy per Si atom -12403.606188 kJ/mol
# Density = 2.114193 g / cm^3
# Si number density = 21.190159 Si / 1000 Ang^3
#
#
#
# Elastic Constant Matrix: (Units=GPa)
#
#
# Indices 1 2 3 4 5 6 
#
# 1 165.2401 53.7217 69.0407 0.0000 -4.0828 0.0000
# 2 53.7217 70.2524 43.7841 0.0000 -11.9865 0.0000
# 3 69.0407 43.7841 103.6274 0.0000 -7.7928 0.0000
# 4 0.0000 0.0000 0.0000 20.1219 0.0000 -11.0789
# 5 -4.0828 -11.9865 -7.7928 0.0000 49.9138 0.0000
# 6 0.0000 0.0000 0.0000 -11.0789 0.0000 42.4820
#
#
#
# Elastic Compliance Matrix: (Units=1/GPa)
#
#
# Indices 1 2 3 4 5 6 
#
# 1 0.009344 -0.004604 -0.004357 0.000000 -0.001022 0.000000
# 2 -0.004604 0.022181 -0.006002 0.000000 0.004013 0.000000
# 3 -0.004357 -0.006002 0.015131 0.000000 0.000565 0.000000
# 4 0.000000 0.000000 0.000000 0.058029 0.000000 0.015134
# 5 -0.001022 0.004013 0.000565 0.000000 0.021003 0.000000
# 6 0.000000 0.000000 0.000000 0.015134 0.000000 0.027486
#
#
# Mechanical properties :
#
#
# Convention : Reuss Voigt Hill
#
# Bulk Modulus (GPa) = 59.77619 74.69034 67.23327
# Shear Modulus (GPa) = 26.50031 34.00842 30.25437
#
# Velocity S-wave (km/s) = 3.54021 4.01049 3.78266
# Velocity P-wave (km/s) = 6.70682 7.53455 7.13271
#
# Compressibility (1/GPa) = 0.01672907
#
# Stress axis : x y z
#
# Youngs Moduli (GPa) = 107.02356 45.08397 66.08893
#
# Poissons Ratio (x) = 0.20757 0.28793
# Poissons Ratio (y) = 0.49275 0.39670
# Poissons Ratio (z) = 0.46627 0.27062
#
# Static dielectric constant tensor:
#      x y z
#    x 4.103120 0.000000 0.015330 
#    y 0.000000 3.637100 0.000000 
#    z 0.015330 0.000000 3.553670 
# 
# 
# High freq. dielectric constant tensor:
#      x y z
#    x 1.848090 0.000000 -0.004610 
#    y 0.000000 1.812220 0.000000 
#    z -0.004610 0.000000 1.815810 
# 
# From -- ./inp_files/75509.got.cif
#   From: 2010.06.25/outbox.cif.g09.slc.cpg/sg15_38_cif.got.tgz:75509.got - 2010.06.28 07:06:18.
