data_PCOD8136506
_publ_section_title
;
Structure prediction by ZEFSAII (Michael W. Deem and Ramdas Pophale) SiO2 
 PCOD8136506
Probable space group: C 2/C
;
_chemical_formula_sum "Si O2"
_cell_formula_units_Z 52
_cell_length_a 24.075093
_cell_length_b 18.987826
_cell_length_c 14.443984
_cell_angle_alpha 90.000000
_cell_angle_beta 154.139240
_cell_angle_gamma 90.000000
_cell_volume 2880.060081
_symmetry_space_group_name_H-M "C 2/C"
_symmetry_group_IT_number 15
_symmetry_cell_setting 'monoclinic'
loop_
_space_group_symop_operation_xyz
x,y,z
-x,y,1/2-z
-x,-y,-z
x,-y,1/2+z
1/2+x,1/2+y,z
1/2-x,1/2+y,1/2-z
1/2-x,1/2-y,-z
1/2+x,1/2-y,1/2+z
loop_
_atom_site_type_symbol
_atom_site_label
_atom_site_fract_x
_atom_site_fract_y
_atom_site_fract_z
Si Si1 0.154202 0.688258 0.329244
Si Si2 0.149901 0.578832 0.469416
Si Si3 0.152083 0.578163 0.973651
Si Si4 0.131816 0.310589 0.089798
Si Si5 0.748189 0.173106 0.953494
Si Si6 0.000000 0.785305 0.750000
Si Si7 0.669241 0.194108 0.137692
O O1 0.250000 0.750000 0.500000
O O2 0.196514 0.616085 0.443948
O O3 0.138674 0.676308 0.197294
O O4 0.013423 0.705585 0.156331
O O5 0.209790 0.500690 0.564289
O O6 0.193450 0.626542 0.621343
O O7 0.000000 0.568718 0.250000
O O8 0.208528 0.613720 0.966091
O O9 0.000000 0.579244 0.750000
O O10 0.201976 0.620741 0.137051
O O11 0.144947 0.331513 0.216820
O O12 0.203863 0.239313 0.175106
O O13 0.750000 0.250000 0.000000
O O14 0.890721 0.163100 0.125932
O O15 0.946412 0.734552 0.587945
#
# Coordination Sequence:
#
# PCOD8136506 Si02
#       7
#     8   8   8   8   8   4   8
#     4  11  21  35  58  81 111 148 191 229 279 332
#     4   9  21  37  52  81 118 145 184 235 282 333
#     4  11  20  35  57  86 118 144 183 236 294 332
#     4  10  20  35  55  84 109 147 186 234 278 325
#     4  11  19  33  58  85 114 145 188 237 278 341
#     4  10  20  34  54  90 114 142 196 234 284 318
#     4  11  20  33  59  83 114 143 188 233 274 344
#
# _framework density 18.055178000000002
#
# number of rings (size 3 to 8) (size 9 to 14) (size 15 to 20)
#    0.000    1.538    5.385    1.846    0.000    1.231 
#    0.000    4.615    0.000   10.154    0.000    0.000 
#    0.000    0.000    0.000    0.000    0.000    0.000 
#
# Total GULP energy -322307.348241 kJ/mol
# GULP energy per Si atom -12396.436471 kJ/mol
# Density = 1.801408 g / cm^3
# Si number density = 18.055178 Si / 1000 Ang^3
#
#
#
# Elastic Constant Matrix: (Units=GPa)
#
#
# Indices 1 2 3 4 5 6 
#
# 1 127.1732 65.4287 36.5981 0.0000 -18.8915 0.0000
# 2 65.4287 158.5711 46.2641 0.0000 -7.2010 0.0000
# 3 36.5981 46.2641 71.1422 0.0000 -2.3732 0.0000
# 4 0.0000 0.0000 0.0000 22.1997 0.0000 -1.8317
# 5 -18.8915 -7.2010 -2.3732 0.0000 34.7834 0.0000
# 6 0.0000 0.0000 0.0000 -1.8317 0.0000 27.7030
#
#
#
# Elastic Compliance Matrix: (Units=1/GPa)
#
#
# Indices 1 2 3 4 5 6 
#
# 1 0.011418 -0.003468 -0.003443 0.000000 0.005249 0.000000
# 2 -0.003468 0.008893 -0.004009 0.000000 -0.000316 0.000000
# 3 -0.003443 -0.004009 0.018387 0.000000 -0.001446 0.000000
# 4 0.000000 0.000000 0.000000 0.045293 0.000000 0.002995
# 5 0.005249 -0.000316 -0.001446 0.000000 0.031436 0.000000
# 6 0.000000 0.000000 0.000000 0.002995 0.000000 0.036295
#
#
# Mechanical properties :
#
#
# Convention : Reuss Voigt Hill
#
# Bulk Modulus (GPa) = 59.32700 72.60758 65.96729
# Shear Modulus (GPa) = 27.90452 30.84361 29.37407
#
# Velocity S-wave (km/s) = 3.93557 4.13764 4.03787
# Velocity P-wave (km/s) = 7.31995 7.94533 7.63904
#
# Compressibility (1/GPa) = 0.01685573
#
# Stress axis : x y z
#
# Youngs Moduli (GPa) = 87.57848 112.45044 54.38681
#
# Poissons Ratio (x) = 0.39002 0.18728
# Poissons Ratio (y) = 0.30376 0.21805
# Poissons Ratio (z) = 0.30157 0.45085
#
# Static dielectric constant tensor:
#      x y z
#    x 2.221750 0.000000 -0.013920 
#    y 0.000000 3.447220 0.000000 
#    z -0.013920 0.000000 3.382510 
# 
# 
# High freq. dielectric constant tensor:
#      x y z
#    x 1.714630 0.000000 -0.010360 
#    y 0.000000 1.682860 0.000000 
#    z -0.010360 0.000000 1.685580 
# 
# From -- ./inp_files/147827.got.cif
#   From: 2010.06.25/outbox.cif.g09.slc.cpg/sg15_74_cif.got.tgz:147827.got - 2010.06.28 07:06:18.
