data_PCOD8136345
_publ_section_title
;
Structure prediction by ZEFSAII (Michael W. Deem and Ramdas Pophale) SiO2 
 PCOD8136345
Probable space group: C 2/C
;
_chemical_formula_sum "Si O2"
_cell_formula_units_Z 48
_cell_length_a 12.010886
_cell_length_b 31.160110
_cell_length_c 15.925381
_cell_angle_alpha 90.000000
_cell_angle_beta 154.679993
_cell_angle_gamma 90.000000
_cell_volume 2549.037542
_symmetry_space_group_name_H-M "C 2/C"
_symmetry_group_IT_number 15
_symmetry_cell_setting 'monoclinic'
loop_
_space_group_symop_operation_xyz
x,y,z
-x,y,1/2-z
-x,-y,-z
x,-y,1/2+z
1/2+x,1/2+y,z
1/2-x,1/2+y,1/2-z
1/2-x,1/2-y,-z
1/2+x,1/2-y,1/2+z
loop_
_atom_site_type_symbol
_atom_site_label
_atom_site_fract_x
_atom_site_fract_y
_atom_site_fract_z
Si Si1 0.352177 0.648591 0.844872
Si Si2 0.779465 0.624844 0.920804
Si Si3 0.500000 0.990357 0.750000
Si Si4 0.252923 0.799078 0.527480
Si Si5 0.726058 0.576879 0.171298
Si Si6 0.348802 0.440274 0.560170
Si Si7 0.500000 0.131356 0.750000
O O1 0.176235 0.629897 0.648982
O O2 0.173277 0.660056 0.803985
O O3 0.498204 0.690987 0.910748
O O4 0.567675 0.613392 0.015154
O O5 0.500000 0.602345 0.750000
O O6 0.766965 0.672044 0.953957
O O7 0.005295 0.595759 0.111131
O O8 0.714750 0.961369 0.851687
O O9 0.349839 0.019778 0.579470
O O10 0.500000 0.811049 0.750000
O O11 0.250000 0.750000 0.500000
O O12 0.561124 0.555594 0.132315
O O13 0.500000 0.439167 0.750000
O O14 0.184620 0.396862 0.435560
#
# Coordination Sequence:
#
# PCOD8136345 Si02
#       7
#     8   8   4   8   8   8   4
#     4  10  20  36  58  84 111 147 190 228 277 332
#     4  10  20  33  56  84 108 142 187 228 280 336
#     4  11  22  34  52  80 112 142 188 240 292 322
#     4  11  20  35  57  87 118 142 175 228 283 329
#     4  11  21  37  56  77 112 148 188 236 277 338
#     4  10  22  37  54  78 108 150 191 232 284 330
#     4   9  20  38  58  80 110 150 194 232 266 338
#
# _framework density 18.830636999999999
#
# number of rings (size 3 to 8) (size 9 to 14) (size 15 to 20)
#    0.000    1.667    1.667    5.000    0.000    2.667 
#    0.000    0.000    0.000    4.000    0.000    0.000 
#    0.000    0.000    0.000    0.000    0.000    0.000 
#
# Total GULP energy -297573.854915 kJ/mol
# GULP energy per Si atom -12398.910621 kJ/mol
# Density = 1.878778 g / cm^3
# Si number density = 18.830637 Si / 1000 Ang^3
#
#
#
# Elastic Constant Matrix: (Units=GPa)
#
#
# Indices 1 2 3 4 5 6 
#
# 1 125.3280 37.6600 31.0011 0.0009 2.5968 -0.0024
# 2 37.6600 64.6054 20.2528 -0.0005 4.1923 0.0010
# 3 31.0011 20.2528 113.4605 -0.0044 -14.8140 0.0098
# 4 0.0009 -0.0005 -0.0044 40.6090 0.0004 -60.6960
# 5 2.5968 4.1923 -14.8140 0.0004 32.1026 -0.0008
# 6 -0.0024 0.0010 0.0098 -60.6960 -0.0008 147.2520
#
#
#
# Elastic Compliance Matrix: (Units=1/GPa)
#
#
# Indices 1 2 3 4 5 6 
#
# 1 0.010038 -0.005171 -0.001955 0.000000 -0.001039 0.000000
# 2 -0.005171 0.019487 -0.002493 0.000000 -0.003277 0.000000
# 3 -0.001955 -0.002493 0.010488 0.000000 0.005324 -0.000001
# 4 0.000000 0.000000 0.000000 0.064141 0.000000 0.026438
# 5 -0.001039 -0.003277 0.005324 0.000000 0.034119 0.000000
# 6 0.000000 0.000000 -0.000001 0.026438 0.000000 0.017689
#
#
# Mechanical properties :
#
#
# Convention : Reuss Voigt Hill
#
# Bulk Modulus (GPa) = 48.13792 53.46908 50.80350
# Shear Modulus (GPa) = 27.45342 58.29137 42.87240
#
# Velocity S-wave (km/s) = 3.82240 5.56981 4.77669
# Velocity P-wave (km/s) = 6.71566 8.35584 7.58025
#
# Compressibility (1/GPa) = 0.02077364
#
# Stress axis : x y z
#
# Youngs Moduli (GPa) = 99.62019 51.31563 95.34633
#
# Poissons Ratio (x) = 0.26536 0.18644
# Poissons Ratio (y) = 0.51514 0.23774
# Poissons Ratio (z) = 0.19479 0.12795
#
# Static dielectric constant tensor:
#      x y z
#    x 3.769730 0.000000 0.079620 
#    y 0.000000 3.234850 0.000000 
#    z 0.079620 0.000000 4.150950 
# 
# 
# High freq. dielectric constant tensor:
#      x y z
#    x 1.735600 0.000000 -0.002590 
#    y 0.000000 1.702560 0.000000 
#    z -0.002590 0.000000 1.753430 
# 
# From -- ./inp_files/149131.got.cif
#   From: 2010.06.25/outbox.cif.g09.slc.cpg/sg15_75_cif.got.tgz:149131.got - 2010.06.28 07:06:18.
