data_PCOD8136983
_publ_section_title
;
Structure prediction by ZEFSAII (Michael W. Deem and Ramdas Pophale) SiO2 
 PCOD8136983
Probable space group: C 2/C
;
_chemical_formula_sum "Si O2"
_cell_formula_units_Z 36
_cell_length_a 26.110857
_cell_length_b 18.103148
_cell_length_c 11.904302
_cell_angle_alpha 90.000000
_cell_angle_beta 19.774620
_cell_angle_gamma 90.000000
_cell_volume 1903.742746
_symmetry_space_group_name_H-M "C 2/C"
_symmetry_group_IT_number 15
_symmetry_cell_setting 'monoclinic'
loop_
_space_group_symop_operation_xyz
x,y,z
-x,y,1/2-z
-x,-y,-z
x,-y,1/2+z
1/2+x,1/2+y,z
1/2-x,1/2+y,1/2-z
1/2-x,1/2-y,-z
1/2+x,1/2-y,1/2+z
loop_
_atom_site_type_symbol
_atom_site_label
_atom_site_fract_x
_atom_site_fract_y
_atom_site_fract_z
Si Si1 0.362838 0.604072 0.118546
Si Si2 0.051235 0.885281 0.799087
Si Si3 0.752670 0.741682 0.864468
Si Si4 0.000000 0.358592 0.750000
Si Si5 0.227644 0.052871 0.741847
O O1 0.425464 0.609132 0.116077
O O2 0.264746 0.676526 0.285540
O O3 0.256839 0.532268 0.327254
O O4 0.500000 0.595753 0.750000
O O5 0.101259 0.804566 0.645352
O O6 0.156135 0.944464 0.515503
O O7 0.877186 0.901158 0.129019
O O8 0.901016 0.693655 0.532836
O O9 0.750000 0.750000 0.000000
O O10 0.106748 0.410783 0.605784
#
# Coordination Sequence:
#
# PCOD8136983 Si02
#       5
#     8   8   8   4   8
#     4  11  19  33  61  85 108 145 189 233 270 332
#     4   9  19  36  57  80 112 147 181 228 285 328
#     4   9  19  36  57  79 110 146 183 229 280 326
#     4  10  20  38  56  78 114 154 182 226 290 324
#     4  10  20  35  58  80 111 147 188 226 278 334
#
# _framework density 18.910118000000001
#
# number of rings (size 3 to 8) (size 9 to 14) (size 15 to 20)
#    0.000    2.222    3.333    0.667    0.000    0.000 
#    0.000   18.889    4.889    0.000    0.000    0.000 
#    0.000    0.000    0.000    0.000    0.000    0.000 
#
# Total GULP energy -223019.666033 kJ/mol
# GULP energy per Si atom -12389.981446 kJ/mol
# Density = 1.886708 g / cm^3
# Si number density = 18.910118 Si / 1000 Ang^3
#
#
#
# Elastic Constant Matrix: (Units=GPa)
#
#
# Indices 1 2 3 4 5 6 
#
# 1 80.0211 50.6757 38.0663 -0.0003 3.6417 -0.0001
# 2 50.6757 192.2756 66.6064 0.0006 -25.1254 -0.0001
# 3 38.0663 66.6064 76.1447 0.0015 -11.8360 -0.0001
# 4 -0.0003 0.0006 0.0015 17.1287 0.0001 1.5621
# 5 3.6417 -25.1254 -11.8360 0.0001 34.8258 0.0000
# 6 -0.0001 -0.0001 -0.0001 1.5621 0.0000 24.3290
#
#
#
# Elastic Compliance Matrix: (Units=1/GPa)
#
#
# Indices 1 2 3 4 5 6 
#
# 1 0.018336 -0.003117 -0.007483 0.000001 -0.006709 0.000000
# 2 -0.003117 0.008379 -0.005048 0.000000 0.004656 0.000000
# 3 -0.007483 -0.005048 0.022007 -0.000002 0.004620 0.000000
# 4 0.000001 0.000000 -0.000002 0.058725 -0.000001 -0.003771
# 5 -0.006709 0.004656 0.004620 -0.000001 0.034345 0.000000
# 6 0.000000 0.000000 0.000000 -0.003771 0.000000 0.041345
#
#
# Mechanical properties :
#
#
# Convention : Reuss Voigt Hill
#
# Bulk Modulus (GPa) = 57.38131 73.23757 65.30944
# Shear Modulus (GPa) = 22.70234 28.12957 25.41595
#
# Velocity S-wave (km/s) = 3.46864 3.86105 3.67009
# Velocity P-wave (km/s) = 6.81557 7.66096 7.25060
#
# Compressibility (1/GPa) = 0.01742728
#
# Stress axis : x y z
#
# Youngs Moduli (GPa) = 54.53895 119.34030 45.43984
#
# Poissons Ratio (x) = 0.37200 0.34000
# Poissons Ratio (y) = 0.17001 0.22937
# Poissons Ratio (z) = 0.40809 0.60240
#
# Static dielectric constant tensor:
#      x y z
#    x 3.529110 -0.000010 -0.102580 
#    y -0.000010 4.996220 0.000010 
#    z -0.102580 0.000010 3.578020 
# 
# 
# High freq. dielectric constant tensor:
#      x y z
#    x 1.716660 0.000000 0.014170 
#    y 0.000000 1.752410 0.000000 
#    z 0.014170 0.000000 1.721290 
# 
# From -- ./inp_files/76349.got.cif
#   From: 2010.06.25/outbox.cif.g09.slc.cpg/sg15_39_cif.got.tgz:76349.got - 2010.06.28 07:06:18.
