data_PCOD8136812
_publ_section_title
;
Structure prediction by ZEFSAII (Michael W. Deem and Ramdas Pophale) SiO2 
 PCOD8136812
Probable space group: C 2/C
;
_chemical_formula_sum "Si O2"
_cell_formula_units_Z 64
_cell_length_a 16.634110
_cell_length_b 30.555517
_cell_length_c 9.452226
_cell_angle_alpha 90.000000
_cell_angle_beta 43.204406
_cell_angle_gamma 90.000000
_cell_volume 3288.987345
_symmetry_space_group_name_H-M "C 2/C"
_symmetry_group_IT_number 15
_symmetry_cell_setting 'monoclinic'
loop_
_space_group_symop_operation_xyz
x,y,z
-x,y,1/2-z
-x,-y,-z
x,-y,1/2+z
1/2+x,1/2+y,z
1/2-x,1/2+y,1/2-z
1/2-x,1/2-y,-z
1/2+x,1/2-y,1/2+z
loop_
_atom_site_type_symbol
_atom_site_label
_atom_site_fract_x
_atom_site_fract_y
_atom_site_fract_z
Si Si1 0.947953 0.374894 0.460187
Si Si2 0.533971 0.322029 0.873888
Si Si3 0.994469 0.956774 0.417211
Si Si4 0.813400 0.113780 0.156992
Si Si5 0.099959 0.648945 0.008448
Si Si6 0.649341 0.374784 0.213050
Si Si7 0.664735 0.235061 0.784478
Si Si8 0.118820 0.280946 0.047819
O O1 0.825439 0.396579 0.661541
O O2 0.922691 0.323189 0.481851
O O3 0.000000 0.395423 0.250000
O O4 0.052149 0.379487 0.438650
O O5 0.500000 0.326020 0.750000
O O6 0.646724 0.352632 0.769935
O O7 0.569173 0.273444 0.883024
O O8 0.423398 0.337532 0.110706
O O9 0.099052 0.922586 0.316783
O O10 0.000000 0.972639 0.250000
O O11 0.871675 0.933105 0.608704
O O12 0.000000 0.000000 0.500000
O O13 0.856235 0.132944 0.949770
O O14 0.000000 0.646066 0.250000
O O15 0.216768 0.625512 0.910204
O O16 0.121073 0.700532 0.954628
O O17 0.794514 0.252824 0.663785
O O18 0.688563 0.208955 0.604960
O O19 0.000000 0.254844 0.250000
#
# Coordination Sequence:
#
# PCOD8136812 Si02
#       8
#     8   8   8   8   8   8   8   8
#     4  11  21  39  59  80 120 161 212 254 303 359
#     4  11  24  35  60  87 115 160 218 268 313 354
#     4   9  20  42  71  99 125 152 183 240 306 372
#     4  10  21  44  62  88 128 164 187 251 319 363
#     4  12  25  39  58  86 113 170 221 252 303 370
#     4  10  24  42  63  87 131 161 198 248 316 372
#     4  11  23  35  52  80 117 157 213 273 313 343
#     4  10  20  35  53  72 110 159 203 262 324 343
#
# _framework density 19.458877000000001
#
# number of rings (size 3 to 8) (size 9 to 14) (size 15 to 20)
#    0.000    1.500    5.000    1.500    7.000    3.000 
#    0.000    1.875    0.000    1.500    0.000    0.000 
#    0.000    0.000    0.000    0.000    0.000    0.000 
#
# Total GULP energy -396523.229880 kJ/mol
# GULP energy per Si atom -12391.350934 kJ/mol
# Density = 1.941459 g / cm^3
# Si number density = 19.458877 Si / 1000 Ang^3
#
#
#
# Elastic Constant Matrix: (Units=GPa)
#
#
# Indices 1 2 3 4 5 6 
#
# 1 115.7952 49.7531 48.1205 0.0000 -12.7006 0.0000
# 2 49.7531 95.4646 45.7647 0.0000 1.5629 0.0000
# 3 48.1205 45.7647 126.0495 0.0000 -14.7159 0.0000
# 4 0.0000 0.0000 0.0000 20.8266 0.0000 4.9211
# 5 -12.7006 1.5629 -14.7159 0.0000 41.6319 0.0000
# 6 0.0000 0.0000 0.0000 4.9211 0.0000 24.2166
#
#
#
# Elastic Compliance Matrix: (Units=1/GPa)
#
#
# Indices 1 2 3 4 5 6 
#
# 1 0.012238 -0.005281 -0.002395 0.000000 0.003085 0.000000
# 2 -0.005281 0.015156 -0.003902 0.000000 -0.003559 0.000000
# 3 -0.002395 -0.003902 0.010635 0.000000 0.003175 0.000000
# 4 0.000000 0.000000 0.000000 0.050437 0.000000 -0.010249
# 5 0.003085 -0.003559 0.003175 0.000000 0.026217 0.000000
# 6 0.000000 0.000000 0.000000 -0.010249 0.000000 0.043377
#
#
# Mechanical properties :
#
#
# Convention : Reuss Voigt Hill
#
# Bulk Modulus (GPa) = 67.23029 69.39842 68.31435
# Shear Modulus (GPa) = 26.85648 30.24643 28.55145
#
# Velocity S-wave (km/s) = 3.71909 3.94684 3.83465
# Velocity P-wave (km/s) = 7.28472 7.51742 7.40198
#
# Compressibility (1/GPa) = 0.01487425
#
# Stress axis : x y z
#
# Youngs Moduli (GPa) = 81.70965 65.97918 94.02852
#
# Poissons Ratio (x) = 0.34843 0.22516
# Poissons Ratio (y) = 0.43150 0.36693
# Poissons Ratio (z) = 0.19566 0.25747
#
# Static dielectric constant tensor:
#      x y z
#    x 3.611950 0.000000 -0.348080 
#    y 0.000000 3.117170 0.000000 
#    z -0.348080 0.000000 3.786570 
# 
# 
# High freq. dielectric constant tensor:
#      x y z
#    x 1.774310 0.000000 -0.012370 
#    y 0.000000 1.708580 0.000000 
#    z -0.012370 0.000000 1.766530 
# 
# From -- ./inp_files/44815.got.cif
#   From: 2010.06.25/outbox.cif.g09.slc.cpg/sg15_23_cif.got.tgz:44815.got - 2010.06.28 07:06:18.
