data_PCOD8136852
_publ_section_title
;
Structure prediction by ZEFSAII (Michael W. Deem and Ramdas Pophale) SiO2 
 PCOD8136852
Probable space group: C 2/C
;
_chemical_formula_sum "Si O2"
_cell_formula_units_Z 52
_cell_length_a 17.284696
_cell_length_b 8.627829
_cell_length_c 17.914568
_cell_angle_alpha 90.000000
_cell_angle_beta 72.664092
_cell_angle_gamma 90.000000
_cell_volume 2550.229860
_symmetry_space_group_name_H-M "C 2/C"
_symmetry_group_IT_number 15
_symmetry_cell_setting 'monoclinic'
loop_
_space_group_symop_operation_xyz
x,y,z
-x,y,1/2-z
-x,-y,-z
x,-y,1/2+z
1/2+x,1/2+y,z
1/2-x,1/2+y,1/2-z
1/2-x,1/2-y,-z
1/2+x,1/2-y,1/2+z
loop_
_atom_site_type_symbol
_atom_site_label
_atom_site_fract_x
_atom_site_fract_y
_atom_site_fract_z
Si Si1 0.603670 0.688932 0.431126
Si Si2 0.784331 0.761249 0.155588
Si Si3 0.203506 0.956909 0.488532
Si Si4 0.500000 0.637292 0.250000
Si Si5 0.439726 0.743338 0.418709
Si Si6 0.340214 0.540012 0.230972
Si Si7 0.638046 0.026628 0.465407
O O1 0.644162 0.602308 0.489388
O O2 0.508154 0.650087 0.447153
O O3 0.655242 0.641157 0.344632
O O4 0.606926 0.872273 0.437014
O O5 0.717130 0.634961 0.196645
O O6 0.858109 0.659953 0.100044
O O7 0.757270 0.879193 0.097131
O O8 0.810089 0.865466 0.219898
O O9 0.148264 0.834517 0.548457
O O10 0.274427 0.008400 0.523109
O O11 0.468512 0.750442 0.324669
O O12 0.428174 0.523998 0.243919
O O13 0.427151 0.917834 0.453634
#
# Coordination Sequence:
#
# PCOD8136852 Si02
#       7
#     8   8   8   4   8   8   8
#     4  10  21  34  54  82 110 139 174 219 268 309
#     4  10  20  35  56  81 107 141 178 216 264 313
#     4  10  20  35  57  80 105 141 181 216 258 316
#     4  10  20  36  56  78 102 140 180 218 264 314
#     4  10  20  35  55  77 106 141 177 218 266 318
#     4  10  20  35  56  79 107 140 178 219 262 316
#     4  11  20  35  56  80 108 140 177 220 261 312
#
# _framework density 20.390319999999999
#
# number of rings (size 3 to 8) (size 9 to 14) (size 15 to 20)
#    0.000    1.846    0.000    6.000    0.000    1.231 
#    0.000    0.000    0.000   11.077    0.000    0.000 
#    0.000    0.000    0.000    0.000    0.000    0.000 
#
# Total GULP energy -322256.831775 kJ/mol
# GULP energy per Si atom -12394.493530 kJ/mol
# Density = 2.034391 g / cm^3
# Si number density = 20.390320 Si / 1000 Ang^3
#
#
#
# Elastic Constant Matrix: (Units=GPa)
#
#
# Indices 1 2 3 4 5 6 
#
# 1 87.7630 20.3200 38.8297 0.0000 3.2360 0.0000
# 2 20.3200 81.8976 27.0921 0.0000 10.1151 0.0000
# 3 38.8297 27.0921 80.7795 0.0000 -4.8606 0.0000
# 4 0.0000 0.0000 0.0000 20.7649 0.0000 2.6580
# 5 3.2360 10.1151 -4.8606 0.0000 21.5615 0.0000
# 6 0.0000 0.0000 0.0000 2.6580 0.0000 21.1635
#
#
#
# Elastic Compliance Matrix: (Units=1/GPa)
#
#
# Indices 1 2 3 4 5 6 
#
# 1 0.014843 -0.000944 -0.007021 0.000000 -0.003367 0.000000
# 2 -0.000944 0.015137 -0.005111 0.000000 -0.008112 0.000000
# 3 -0.007021 -0.005111 0.017919 0.000000 0.007491 0.000000
# 4 0.000000 0.000000 0.000000 0.048945 0.000000 -0.006147
# 5 -0.003367 -0.008112 0.007491 0.000000 0.052378 0.000000
# 6 0.000000 0.000000 0.000000 -0.006147 0.000000 0.048023
#
#
# Mechanical properties :
#
#
# Convention : Reuss Voigt Hill
#
# Bulk Modulus (GPa) = 45.98271 46.99154 46.48712
# Shear Modulus (GPa) = 21.67802 23.64453 22.66127
#
# Velocity S-wave (km/s) = 3.26414 3.40898 3.33734
# Velocity P-wave (km/s) = 6.06682 6.21216 6.13992
#
# Compressibility (1/GPa) = 0.02174730
#
# Stress axis : x y z
#
# Youngs Moduli (GPa) = 67.36960 66.06204 55.80630
#
# Poissons Ratio (x) = 0.06239 0.39181
# Poissons Ratio (y) = 0.06362 0.28522
# Poissons Ratio (z) = 0.47300 0.33764
#
# Static dielectric constant tensor:
#      x y z
#    x 3.741940 0.000000 0.006310 
#    y 0.000000 3.598110 0.000000 
#    z 0.006310 0.000000 3.788950 
# 
# 
# High freq. dielectric constant tensor:
#      x y z
#    x 1.800480 0.000000 -0.001970 
#    y 0.000000 1.776720 0.000000 
#    z -0.001970 0.000000 1.796540 
# 
# From -- ./inp_files/209022.got.cif
#   From: 2010.06.25/outbox.cif.g09.slc.cpg/sg15_105_cif.got.tgz:209022.got - 2010.06.28 07:06:18.
