data_PCOD8136167
_publ_section_title
;
Structure prediction by ZEFSAII (Michael W. Deem and Ramdas Pophale) SiO2 
 PCOD8136167
Probable space group: C 2/C
;
_chemical_formula_sum "Si O2"
_cell_formula_units_Z 64
_cell_length_a 22.318031
_cell_length_b 24.663825
_cell_length_c 8.080733
_cell_angle_alpha 90.000000
_cell_angle_beta 119.110655
_cell_angle_gamma 90.000000
_cell_volume 3886.156948
_symmetry_space_group_name_H-M "C 2/C"
_symmetry_group_IT_number 15
_symmetry_cell_setting 'monoclinic'
loop_
_space_group_symop_operation_xyz
x,y,z
-x,y,1/2-z
-x,-y,-z
x,-y,1/2+z
1/2+x,1/2+y,z
1/2-x,1/2+y,1/2-z
1/2-x,1/2-y,-z
1/2+x,1/2-y,1/2+z
loop_
_atom_site_type_symbol
_atom_site_label
_atom_site_fract_x
_atom_site_fract_y
_atom_site_fract_z
Si Si1 0.164843 0.004390 0.238232
Si Si2 0.924198 0.943732 0.126339
Si Si3 0.423456 0.661111 0.195973
Si Si4 0.796672 0.916604 0.466390
Si Si5 0.172875 0.267101 0.918074
Si Si6 0.342107 0.241864 0.465266
Si Si7 0.071609 0.179062 0.908551
Si Si8 0.292157 0.815356 0.208112
O O1 0.134442 0.968953 0.342439
O O2 0.216463 0.050365 0.380363
O O3 0.203928 0.962750 0.173883
O O4 0.099797 0.039085 0.087170
O O5 0.923376 0.880216 0.164048
O O6 0.000000 0.967902 0.250000
O O7 0.500000 0.642053 0.250000
O O8 0.370034 0.614238 0.072156
O O9 0.420413 0.675046 0.384707
O O10 0.404705 0.716345 0.073953
O O11 0.733773 0.876531 0.349574
O O12 0.147321 0.287458 0.700920
O O13 0.132814 0.213493 0.916668
O O14 0.250000 0.250000 0.000000
O O15 0.166483 0.310843 0.060404
O O16 0.340392 0.198835 0.614718
O O17 0.270790 0.274071 0.370197
O O18 0.000000 0.205306 0.750000
#
# Coordination Sequence:
#
# PCOD8136167 Si02
#       8
#     8   8   8   8   8   8   8   8
#     4  10  21  35  44  63  91 123 176 225 268 289
#     4  10  21  31  46  61  87 129 173 217 255 298
#     4  11  21  33  50  70 102 141 176 213 257 305
#     4  10  22  35  50  67  95 132 174 221 264 300
#     4  10  20  32  53  76  96 129 170 212 259 321
#     4   9  18  32  50  73  97 123 165 209 253 307
#     4  11  22  34  48  74 103 135 176 218 259 311
#     4   9  18  34  51  71  94 125 166 209 256 316
#
# _framework density 16.468713000000001
#
# number of rings (size 3 to 8) (size 9 to 14) (size 15 to 20)
#    0.000    2.000    2.500    1.125   10.500    2.000 
#    2.250    0.000    0.000    0.000    0.000    0.000 
#    0.000    0.000    0.000    3.375    0.500    0.000 
#
# Total GULP energy -396494.074085 kJ/mol
# GULP energy per Si atom -12390.439815 kJ/mol
# Density = 1.643123 g / cm^3
# Si number density = 16.468713 Si / 1000 Ang^3
#
#
#
# Elastic Constant Matrix: (Units=GPa)
#
#
# Indices 1 2 3 4 5 6 
#
# 1 46.0247 31.1450 18.3858 0.0000 -9.8479 0.0000
# 2 31.1450 87.7083 45.1516 0.0000 -2.0856 0.0000
# 3 18.3858 45.1516 97.9587 0.0000 -22.3887 0.0000
# 4 0.0000 0.0000 0.0000 26.0593 0.0000 5.4671
# 5 -9.8479 -2.0856 -22.3887 0.0000 25.3581 0.0000
# 6 0.0000 0.0000 0.0000 5.4671 0.0000 17.9791
#
#
#
# Elastic Compliance Matrix: (Units=1/GPa)
#
#
# Indices 1 2 3 4 5 6 
#
# 1 0.032062 -0.012597 0.003004 0.000000 0.014067 0.000000
# 2 -0.012597 0.020685 -0.009896 0.000000 -0.011928 0.000000
# 3 0.003004 -0.009896 0.017898 0.000000 0.016155 0.000000
# 4 0.000000 0.000000 0.000000 0.040989 0.000000 -0.012464
# 5 0.014067 -0.011928 0.016155 0.000000 0.058180 0.000000
# 6 0.000000 0.000000 0.000000 -0.012464 0.000000 0.059410
#
#
# Mechanical properties :
#
#
# Convention : Reuss Voigt Hill
#
# Bulk Modulus (GPa) = 31.57911 46.78406 39.18158
# Shear Modulus (GPa) = 17.93659 23.01326 20.47492
#
# Velocity S-wave (km/s) = 3.30378 3.74223 3.52982
# Velocity P-wave (km/s) = 5.81121 6.86599 6.36050
#
# Compressibility (1/GPa) = 0.03166650
#
# Stress axis : x y z
#
# Youngs Moduli (GPa) = 31.18974 48.34308 55.87090
#
# Poissons Ratio (x) = 0.60897 -0.16781
# Poissons Ratio (y) = 0.39289 0.55292
# Poissons Ratio (z) = -0.09368 0.47842
#
# Static dielectric constant tensor:
#      x y z
#    x 2.880700 0.000000 -0.308290 
#    y 0.000000 3.076730 0.000000 
#    z -0.308290 0.000000 3.715330 
# 
# 
# High freq. dielectric constant tensor:
#      x y z
#    x 1.598800 0.000000 -0.027580 
#    y 0.000000 1.608470 0.000000 
#    z -0.027580 0.000000 1.651530 
# 
# From -- ./inp_files/58330.got.cif
#   From: 2010.06.25/outbox.cif.g09.slc.cpg/sg15_30_cif.got.tgz:58330.got - 2010.06.28 07:06:18.
