data_PCOD8136486
_publ_section_title
;
Structure prediction by ZEFSAII (Michael W. Deem and Ramdas Pophale) SiO2 
 PCOD8136486
Probable space group: C 2/C
;
_chemical_formula_sum "Si O2"
_cell_formula_units_Z 56
_cell_length_a 11.894335
_cell_length_b 21.888495
_cell_length_c 18.020993
_cell_angle_alpha 90.000000
_cell_angle_beta 142.518378
_cell_angle_gamma 90.000000
_cell_volume 2854.961856
_symmetry_space_group_name_H-M "C 2/C"
_symmetry_group_IT_number 15
_symmetry_cell_setting 'monoclinic'
loop_
_space_group_symop_operation_xyz
x,y,z
-x,y,1/2-z
-x,-y,-z
x,-y,1/2+z
1/2+x,1/2+y,z
1/2-x,1/2+y,1/2-z
1/2-x,1/2-y,-z
1/2+x,1/2-y,1/2+z
loop_
_atom_site_type_symbol
_atom_site_label
_atom_site_fract_x
_atom_site_fract_y
_atom_site_fract_z
Si Si1 0.695633 0.348925 0.387937
Si Si2 0.667711 0.435051 0.788711
Si Si3 0.163698 0.729139 0.657279
Si Si4 0.558948 0.640222 0.623325
Si Si5 0.996921 0.141709 0.419966
Si Si6 0.168702 0.559777 0.649216
Si Si7 0.345251 0.138002 0.503378
O O1 0.500000 0.364509 0.250000
O O2 0.769221 0.284268 0.392795
O O3 0.649629 0.348816 0.451681
O O4 0.831442 0.402795 0.429739
O O5 0.500000 0.462918 0.750000
O O6 0.603205 0.414594 0.673232
O O7 0.823026 0.487453 0.860884
O O8 0.743863 0.375761 0.872088
O O9 0.311633 0.699657 0.792398
O O10 0.139323 0.800331 0.659928
O O11 0.962801 0.699449 0.561319
O O12 0.529260 0.627061 0.522220
O O13 0.657938 0.580365 0.709225
O O14 0.198175 0.150658 0.490416
O O15 0.977635 0.579142 0.590288
#
# Coordination Sequence:
#
# PCOD8136486 Si02
#       7
#     8   8   8   8   8   8   8
#     4   7  14  32  55  77  95 136 186 214 260 320
#     4  10  20  34  54  81 107 141 185 233 261 324
#     4   9  19  34  54  75 108 149 179 220 261 326
#     4   9  19  34  55  80 104 143 180 223 273 319
#     4  11  22  32  51  84 113 142 176 224 277 313
#     4   9  17  35  60  75 100 143 184 224 270 321
#     4   9  20  36  53  78 106 144 186 216 269 326
#
# _framework density 19.614974
#
# number of rings (size 3 to 8) (size 9 to 14) (size 15 to 20)
#    0.000    3.429    0.000    2.143    2.000    3.429 
#    2.571    0.000    0.000    3.429    0.000    0.000 
#    0.000    0.000    0.000    0.000    0.000    0.000 
#
# Total GULP energy -346868.614702 kJ/mol
# GULP energy per Si atom -12388.164811 kJ/mol
# Density = 1.957033 g / cm^3
# Si number density = 19.614974 Si / 1000 Ang^3
#
#
#
# Elastic Constant Matrix: (Units=GPa)
#
#
# Indices 1 2 3 4 5 6 
#
# 1 122.7791 23.8894 44.5408 0.0058 -16.1722 0.0025
# 2 23.8894 62.2652 12.4623 -0.0025 -3.9456 -0.0022
# 3 44.5408 12.4623 55.5033 -0.0339 -16.6640 -0.0152
# 4 0.0058 -0.0025 -0.0339 21.8022 -0.0056 9.2097
# 5 -16.1722 -3.9456 -16.6640 -0.0056 31.8738 -0.0004
# 6 0.0025 -0.0022 -0.0152 9.2097 -0.0004 23.2289
#
#
#
# Elastic Compliance Matrix: (Units=1/GPa)
#
#
# Indices 1 2 3 4 5 6 
#
# 1 0.011975 -0.002792 -0.008614 -0.000016 0.001226 -0.000001
# 2 -0.002792 0.017468 -0.001729 0.000000 -0.000158 0.000001
# 3 -0.008614 -0.001729 0.028399 0.000049 0.010263 0.000000
# 4 -0.000016 0.000000 0.000049 0.055094 0.000027 -0.021843
# 5 0.001226 -0.000158 0.010263 0.000027 0.037342 -0.000003
# 6 -0.000001 0.000001 0.000000 -0.021843 -0.000003 0.051710
#
#
# Mechanical properties :
#
#
# Convention : Reuss Voigt Hill
#
# Bulk Modulus (GPa) = 31.67499 44.70361 38.18930
# Shear Modulus (GPa) = 20.93961 26.02466 23.48213
#
# Velocity S-wave (km/s) = 3.27086 3.64644 3.46374
# Velocity P-wave (km/s) = 5.51798 6.36936 5.95889
#
# Compressibility (1/GPa) = 0.03157065
#
# Stress axis : x y z
#
# Youngs Moduli (GPa) = 83.51009 57.24853 35.21227
#
# Poissons Ratio (x) = 0.15986 0.30333
# Poissons Ratio (y) = 0.23320 0.06087
# Poissons Ratio (z) = 0.71938 0.09896
#
# Static dielectric constant tensor:
#      x y z
#    x 4.267690 0.000000 0.196550 
#    y 0.000000 3.248780 0.000000 
#    z 0.196550 0.000000 3.337700 
# 
# 
# High freq. dielectric constant tensor:
#      x y z
#    x 1.767720 0.000000 0.017390 
#    y 0.000000 1.742800 0.000000 
#    z 0.017390 0.000000 1.742830 
# 
# From -- ./inp_files/200802.got.cif
#   From: 2010.06.25/outbox.cif.g09.slc.cpg/sg15_101_cif.got.tgz:200802.got - 2010.06.28 07:06:18.
