data_PCOD8136218
_publ_section_title
;
Structure prediction by ZEFSAII (Michael W. Deem and Ramdas Pophale) SiO2 
 PCOD8136218
Probable space group: C 2/C
;
_chemical_formula_sum "Si O2"
_cell_formula_units_Z 64
_cell_length_a 13.557133
_cell_length_b 9.309375
_cell_length_c 30.813635
_cell_angle_alpha 90.000000
_cell_angle_beta 129.181544
_cell_angle_gamma 90.000000
_cell_volume 3014.504709
_symmetry_space_group_name_H-M "C 2/C"
_symmetry_group_IT_number 15
_symmetry_cell_setting 'monoclinic'
loop_
_space_group_symop_operation_xyz
x,y,z
-x,y,1/2-z
-x,-y,-z
x,-y,1/2+z
1/2+x,1/2+y,z
1/2-x,1/2+y,1/2-z
1/2-x,1/2-y,-z
1/2+x,1/2-y,1/2+z
loop_
_atom_site_type_symbol
_atom_site_label
_atom_site_fract_x
_atom_site_fract_y
_atom_site_fract_z
Si Si1 0.440910 0.938997 0.917483
Si Si2 0.523244 0.395724 0.368441
Si Si3 0.512577 0.031108 0.803998
Si Si4 0.676968 0.852818 0.694616
Si Si5 0.837226 0.368117 0.587913
Si Si6 0.841315 0.968593 0.519825
Si Si7 0.965927 0.853505 0.788149
Si Si8 0.603168 0.833256 0.501436
O O1 0.317233 0.928354 0.851753
O O2 0.552015 0.877506 0.917568
O O3 0.479356 0.099532 0.942945
O O4 0.414699 0.842087 0.952063
O O5 0.395119 0.301595 0.327542
O O6 0.651458 0.299335 0.394453
O O7 0.541423 0.461408 0.421671
O O8 0.520453 0.528894 0.335473
O O9 0.500000 0.992486 0.750000
O O10 0.529928 0.200708 0.816404
O O11 0.387877 0.964842 0.790929
O O12 0.636832 0.964906 0.862228
O O13 0.816157 0.826481 0.751416
O O14 0.706010 0.413888 0.528838
O O15 0.728818 0.919264 0.521124
O O16 0.893661 0.833026 0.508610
O O17 0.000000 0.908284 0.750000
#
# Coordination Sequence:
#
# PCOD8136218 Si02
#       8
#     8   8   8   8   8   8   8   8
#     4   8  17  34  56  79 123 156 196 244 306 352
#     4  10  22  37  59  89 123 156 196 255 307 361
#     4   9  20  38  63  85 117 162 205 241 302 371
#     4  10  22  41  60  81 125 162 191 255 312 353
#     4   9  20  39  58  84 124 164 191 249 309 360
#     4  10  20  32  60  89 120 157 206 245 301 369
#     4  11  24  38  63  91 113 152 215 255 301 364
#     4   9  18  31  56  93 115 156 200 252 296 352
#
# _framework density 21.230684
#
# number of rings (size 3 to 8) (size 9 to 14) (size 15 to 20)
#    0.000    2.750    0.000    1.125    8.750    3.000 
#    0.000    2.500    0.000   15.000    0.000    0.000 
#    0.000    0.000    0.000    0.000    0.000    0.000 
#
# Total GULP energy -396562.050359 kJ/mol
# GULP energy per Si atom -12392.564074 kJ/mol
# Density = 2.118236 g / cm^3
# Si number density = 21.230684 Si / 1000 Ang^3
#
#
#
# Elastic Constant Matrix: (Units=GPa)
#
#
# Indices 1 2 3 4 5 6 
#
# 1 33.0046 28.9923 36.5577 0.0000 -17.0554 0.0000
# 2 28.9923 126.8088 82.0487 0.0000 -9.3106 0.0000
# 3 36.5577 82.0487 150.0958 0.0000 -23.6209 0.0000
# 4 0.0000 0.0000 0.0000 38.6238 0.0000 -1.6961
# 5 -17.0554 -9.3106 -23.6209 0.0000 29.6916 0.0000
# 6 0.0000 0.0000 0.0000 -1.6961 0.0000 12.6172
#
#
#
# Elastic Compliance Matrix: (Units=1/GPa)
#
#
# Indices 1 2 3 4 5 6 
#
# 1 0.056149 -0.007290 -0.005687 0.000000 0.025443 0.000000
# 2 -0.007290 0.013223 -0.006240 0.000000 -0.005005 0.000000
# 3 -0.005687 -0.006240 0.012159 0.000000 0.004449 0.000000
# 4 0.000000 0.000000 0.000000 0.026045 0.000000 0.003501
# 5 0.025443 -0.005005 0.004449 0.000000 0.050265 0.000000
# 6 0.000000 0.000000 0.000000 0.003501 0.000000 0.079727
#
#
# Mechanical properties :
#
#
# Convention : Reuss Voigt Hill
#
# Bulk Modulus (GPa) = 23.20345 67.23409 45.21877
# Shear Modulus (GPa) = 17.21957 27.00722 22.11340
#
# Velocity S-wave (km/s) = 2.85102 3.57050 3.23085
# Velocity P-wave (km/s) = 4.66805 6.98105 5.93825
#
# Compressibility (1/GPa) = 0.04309705
#
# Stress axis : x y z
#
# Youngs Moduli (GPa) = 17.80962 75.62772 82.24380
#
# Poissons Ratio (x) = 0.55131 0.46772
# Poissons Ratio (y) = 0.12983 0.51322
# Poissons Ratio (z) = 0.10128 0.47194
#
# Static dielectric constant tensor:
#      x y z
#    x 3.517610 0.000000 -0.022390 
#    y 0.000000 3.922590 0.000000 
#    z -0.022390 0.000000 4.137620 
# 
# 
# High freq. dielectric constant tensor:
#      x y z
#    x 1.796600 0.000000 -0.006860 
#    y 0.000000 1.839330 0.000000 
#    z -0.006860 0.000000 1.847450 
# 
# From -- ./inp_files/312910.got.cif
#   From: 2010.06.25/outbox.cif.g09.slc.cpg/sg15_157_cif.got.tgz:312910.got - 2010.06.28 07:06:18.
