data_PCOD8136727
_publ_section_title
;
Structure prediction by ZEFSAII (Michael W. Deem and Ramdas Pophale) SiO2 
 PCOD8136727
Probable space group: C 2/C
;
_chemical_formula_sum "Si O2"
_cell_formula_units_Z 40
_cell_length_a 29.698142
_cell_length_b 13.458280
_cell_length_c 18.650489
_cell_angle_alpha 90.000000
_cell_angle_beta 18.882637
_cell_angle_gamma 90.000000
_cell_volume 2412.452522
_symmetry_space_group_name_H-M "C 2/C"
_symmetry_group_IT_number 15
_symmetry_cell_setting 'monoclinic'
loop_
_space_group_symop_operation_xyz
x,y,z
-x,y,1/2-z
-x,-y,-z
x,-y,1/2+z
1/2+x,1/2+y,z
1/2-x,1/2+y,1/2-z
1/2-x,1/2-y,-z
1/2+x,1/2-y,1/2+z
loop_
_atom_site_type_symbol
_atom_site_label
_atom_site_fract_x
_atom_site_fract_y
_atom_site_fract_z
Si Si1 0.398059 0.386242 0.466370
Si Si2 0.354753 0.612054 0.506228
Si Si3 0.358129 0.260534 0.142447
Si Si4 0.990667 0.888636 0.486397
Si Si5 0.342332 0.231222 0.792333
O O1 0.500000 0.350890 0.250000
O O2 0.339146 0.495026 0.540164
O O3 0.270559 0.311620 0.659503
O O4 0.483117 0.384730 0.412237
O O5 0.500000 0.640710 0.250000
O O6 0.342331 0.664968 0.600519
O O7 0.226104 0.644437 0.650948
O O8 0.371418 0.328654 0.194544
O O9 0.502250 0.197545 0.917199
O O10 0.855801 0.833793 0.725423
O O11 0.000000 0.000000 0.500000
O O12 0.250000 0.250000 0.000000
#
# Coordination Sequence:
#
# PCOD8136727 Si02
#       5
#     8   8   8   8   8
#     4  11  23  37  58  82 114 154 190 226 280 343
#     4  11  19  35  60  84 111 149 189 228 282 341
#     4  10  20  36  59  79 114 147 184 236 276 328
#     4  10  20  37  59  83 110 151 186 228 282 339
#     4  10  20  34  61  87 109 141 189 239 284 330
#
# _framework density 16.580636999999999
#
# number of rings (size 3 to 8) (size 9 to 14) (size 15 to 20)
#    1.200    0.400    6.000    0.000    2.800    1.600 
#    0.000    0.000    4.400    0.000    0.000    0.000 
#    0.000    0.000    0.000    0.000    0.000    0.000 
#
# Total GULP energy -247857.051781 kJ/mol
# GULP energy per Si atom -12392.852589 kJ/mol
# Density = 1.654290 g / cm^3
# Si number density = 16.580637 Si / 1000 Ang^3
#
#
#
# Elastic Constant Matrix: (Units=GPa)
#
#
# Indices 1 2 3 4 5 6 
#
# 1 118.4683 38.7421 38.2226 0.0007 8.8404 -0.0007
# 2 38.7421 90.6423 48.1842 0.0011 -0.1605 -0.0015
# 3 38.2226 48.1842 89.7084 0.0005 7.1296 -0.0007
# 4 0.0007 0.0011 0.0005 30.6843 -0.0006 -3.2725
# 5 8.8404 -0.1605 7.1296 -0.0006 30.6519 0.0008
# 6 -0.0007 -0.0015 -0.0007 -3.2725 0.0008 34.0716
#
#
#
# Elastic Compliance Matrix: (Units=1/GPa)
#
#
# Indices 1 2 3 4 5 6 
#
# 1 0.010476 -0.003096 -0.002608 0.000000 -0.002431 0.000000
# 2 -0.003096 0.016483 -0.007756 0.000000 0.002783 0.000000
# 3 -0.002608 -0.007756 0.016676 0.000000 -0.003167 0.000000
# 4 0.000000 0.000000 0.000000 0.032927 0.000001 0.003163
# 5 -0.002431 0.002783 -0.003167 0.000001 0.034077 -0.000001
# 6 0.000000 0.000000 0.000000 0.003163 -0.000001 0.029654
#
#
# Mechanical properties :
#
#
# Convention : Reuss Voigt Hill
#
# Bulk Modulus (GPa) = 59.81921 61.01297 60.41609
# Shear Modulus (GPa) = 28.93792 30.65957 29.79875
#
# Velocity S-wave (km/s) = 4.18219 4.30480 4.24394
# Velocity P-wave (km/s) = 7.71214 7.84768 7.78020
#
# Compressibility (1/GPa) = 0.01671704
#
# Stress axis : x y z
#
# Youngs Moduli (GPa) = 95.45411 60.66730 59.96741
#
# Poissons Ratio (x) = 0.18782 0.15637
# Poissons Ratio (y) = 0.29551 0.46509
# Poissons Ratio (z) = 0.24891 0.47052
#
# Static dielectric constant tensor:
#      x y z
#    x 3.408100 0.000000 -0.401380 
#    y 0.000000 2.501530 0.000090 
#    z -0.401380 0.000090 1.533450 
# 
# 
# High freq. dielectric constant tensor:
#      x y z
#    x 1.659990 0.000000 0.002690 
#    y 0.000000 1.633280 0.000000 
#    z 0.002690 0.000000 1.620400 
# 
# From -- ./inp_files/85705.got.cif
#   From: 2010.06.25/outbox.cif.g09.slc.cpg/sg15_43_cif.got.tgz:85705.got - 2010.06.28 07:06:18.
