data_PCOD8136528
_publ_section_title
;
Structure prediction by ZEFSAII (Michael W. Deem and Ramdas Pophale) SiO2 
 PCOD8136528
Probable space group: C 2/C
;
_chemical_formula_sum "Si O2"
_cell_formula_units_Z 56
_cell_length_a 16.078888
_cell_length_b 9.300641
_cell_length_c 20.162603
_cell_angle_alpha 90.000000
_cell_angle_beta 104.647274
_cell_angle_gamma 90.000000
_cell_volume 2917.204339
_symmetry_space_group_name_H-M "C 2/C"
_symmetry_group_IT_number 15
_symmetry_cell_setting 'monoclinic'
loop_
_space_group_symop_operation_xyz
x,y,z
-x,y,1/2-z
-x,-y,-z
x,-y,1/2+z
1/2+x,1/2+y,z
1/2-x,1/2+y,1/2-z
1/2-x,1/2-y,-z
1/2+x,1/2-y,1/2+z
loop_
_atom_site_type_symbol
_atom_site_label
_atom_site_fract_x
_atom_site_fract_y
_atom_site_fract_z
Si Si1 0.272739 0.099381 0.169495
Si Si2 0.900547 0.864535 0.939872
Si Si3 0.963447 0.356914 0.668924
Si Si4 0.071630 0.849340 0.813131
Si Si5 0.203154 0.307856 0.256751
Si Si6 0.958289 0.372175 0.360746
Si Si7 0.536453 0.572245 0.907383
O O1 0.198085 0.131504 0.101688
O O2 0.361845 0.112576 0.148635
O O3 0.273003 0.220351 0.227617
O O4 0.255017 0.939209 0.194472
O O5 0.945532 0.714028 0.927047
O O6 0.905322 0.874096 0.019972
O O7 0.948887 0.998452 0.915056
O O8 0.987360 0.201416 0.646175
O O9 0.000000 0.379303 0.750000
O O10 0.008704 0.465087 0.625294
O O11 0.161030 0.812822 0.795837
O O12 0.000000 0.921390 0.750000
O O13 0.031215 0.701906 0.831091
O O14 0.092692 0.958551 0.876882
O O15 0.131544 0.375844 0.195303
#
# Coordination Sequence:
#
# PCOD8136528 Si02
#       7
#     8   8   8   8   8   8   8
#     4  11  23  35  59  84 118 141 188 235 287 336
#     4   9  22  42  57  79 111 161 189 218 282 344
#     4  12  22  35  59  92 113 137 189 243 278 330
#     4   9  16  34  58  81 109 151 181 224 291 335
#     4  10  20  34  55  85 115 146 178 238 294 332
#     4   9  17  37  59  78 112 148 181 223 287 343
#     4  10  22  37  61  80 114 149 198 229 267 339
#
# _framework density 19.196462
#
# number of rings (size 3 to 8) (size 9 to 14) (size 15 to 20)
#    0.000    2.000    2.857    1.714    4.000    1.143 
#    0.000    0.714    0.000    0.000    0.000    0.000 
#    0.000    0.000    0.000    0.000    0.000    0.000 
#
# Total GULP energy -347168.656001 kJ/mol
# GULP energy per Si atom -12398.880571 kJ/mol
# Density = 1.915277 g / cm^3
# Si number density = 19.196462 Si / 1000 Ang^3
#
#
#
# Elastic Constant Matrix: (Units=GPa)
#
#
# Indices 1 2 3 4 5 6 
#
# 1 71.6793 25.9465 15.6498 0.0000 0.4109 0.0000
# 2 25.9465 103.1108 25.5243 0.0000 -4.4474 0.0000
# 3 15.6498 25.5243 55.3391 0.0000 -0.9688 0.0000
# 4 0.0000 0.0000 0.0000 23.6350 0.0000 -1.8518
# 5 0.4109 -4.4474 -0.9688 0.0000 17.4086 0.0000
# 6 0.0000 0.0000 0.0000 -1.8518 0.0000 19.6343
#
#
#
# Elastic Compliance Matrix: (Units=1/GPa)
#
#
# Indices 1 2 3 4 5 6 
#
# 1 0.015802 -0.003301 -0.002971 0.000000 -0.001381 0.000000
# 2 -0.003301 0.011749 -0.004436 0.000000 0.002833 0.000000
# 3 -0.002971 -0.004436 0.020958 0.000000 0.000103 0.000000
# 4 0.000000 0.000000 0.000000 0.042625 0.000000 0.004020
# 5 -0.001381 0.002833 0.000103 0.000000 0.058205 0.000000
# 6 0.000000 0.000000 0.000000 0.004020 0.000000 0.051310
#
#
# Mechanical properties :
#
#
# Convention : Reuss Voigt Hill
#
# Bulk Modulus (GPa) = 36.90722 40.48562 38.69642
# Shear Modulus (GPa) = 21.63598 23.00284 22.31941
#
# Velocity S-wave (km/s) = 3.36085 3.46538 3.41351
# Velocity P-wave (km/s) = 5.85902 6.09490 5.97812
#
# Compressibility (1/GPa) = 0.02709497
#
# Stress axis : x y z
#
# Youngs Moduli (GPa) = 63.28185 85.11226 47.71358
#
# Poissons Ratio (x) = 0.28093 0.14174
# Poissons Ratio (y) = 0.20887 0.21166
# Poissons Ratio (z) = 0.18799 0.37757
#
# Static dielectric constant tensor:
#      x y z
#    x 3.304810 0.000000 -0.105430 
#    y 0.000000 3.551120 0.000000 
#    z -0.105430 0.000000 3.419820 
# 
# 
# High freq. dielectric constant tensor:
#      x y z
#    x 1.733200 0.000000 -0.009580 
#    y 0.000000 1.753880 0.000000 
#    z -0.009580 0.000000 1.728860 
# 
# From -- ./inp_files/242793.got.cif
#   From: 2010.06.25/outbox.cif.g09.slc.cpg/sg15_122_cif.got.tgz:242793.got - 2010.06.28 07:06:18.
