data_PCOD8136564
_publ_section_title
;
Structure prediction by ZEFSAII (Michael W. Deem and Ramdas Pophale) SiO2 
 PCOD8136564
Probable space group: C 2/C
;
_chemical_formula_sum "Si O2"
_cell_formula_units_Z 56
_cell_length_a 10.340659
_cell_length_b 20.164940
_cell_length_c 18.616346
_cell_angle_alpha 90.000000
_cell_angle_beta 131.130486
_cell_angle_gamma 90.000000
_cell_volume 2923.867537
_symmetry_space_group_name_H-M "C 2/C"
_symmetry_group_IT_number 15
_symmetry_cell_setting 'monoclinic'
loop_
_space_group_symop_operation_xyz
x,y,z
-x,y,1/2-z
-x,-y,-z
x,-y,1/2+z
1/2+x,1/2+y,z
1/2-x,1/2+y,1/2-z
1/2-x,1/2-y,-z
1/2+x,1/2-y,1/2+z
loop_
_atom_site_type_symbol
_atom_site_label
_atom_site_fract_x
_atom_site_fract_y
_atom_site_fract_z
Si Si1 0.649720 0.201519 0.857715
Si Si2 0.644848 0.936554 0.749722
Si Si3 0.331558 0.821059 0.976071
Si Si4 0.863941 0.978217 0.045943
Si Si5 0.715182 0.442001 0.117571
Si Si6 0.024188 0.566381 0.464684
Si Si7 0.503657 0.399993 0.834881
O O1 0.500000 0.227582 0.750000
O O2 0.803863 0.255778 0.916169
O O3 0.711483 0.131402 0.849495
O O4 0.583363 0.195751 0.915894
O O5 0.500000 0.904406 0.750000
O O6 0.579529 0.941314 0.645831
O O7 0.820900 0.892774 0.810280
O O8 0.683857 0.011251 0.789974
O O9 0.142671 0.852297 0.923107
O O10 0.459595 0.869779 0.982831
O O11 0.727339 0.924676 0.024757
O O12 0.013163 0.937619 0.061452
O O13 0.935538 0.023504 0.136712
O O14 0.764380 0.027030 0.954115
O O15 0.000000 0.500000 0.500000
O O16 0.500000 0.381341 0.750000
#
# Coordination Sequence:
#
# PCOD8136564 Si02
#       7
#     8   8   8   8   8   8   8
#     4  11  24  41  63  87 121 164 215 249 293 378
#     4  11  22  32  59  92 122 158 202 255 315 369
#     4  11  24  40  62  91 121 166 202 258 309 358
#     4  10  20  34  56  87 121 153 196 256 315 359
#     4  10  20  36  57  86 120 158 199 253 310 357
#     4  12  21  36  59  91 127 153 207 263 317 365
#     4  11  19  36  56  87 126 157 198 252 308 365
#
# _framework density 19.152716000000002
#
# number of rings (size 3 to 8) (size 9 to 14) (size 15 to 20)
#    0.000    1.143    5.714    0.857    2.000    0.000 
#    0.000    0.714    0.000    0.000    0.000    0.000 
#    0.000    0.000    0.000    0.000    0.000    0.000 
#
# Total GULP energy -347115.976323 kJ/mol
# GULP energy per Si atom -12396.999154 kJ/mol
# Density = 1.910912 g / cm^3
# Si number density = 19.152716 Si / 1000 Ang^3
#
#
#
# Elastic Constant Matrix: (Units=GPa)
#
#
# Indices 1 2 3 4 5 6 
#
# 1 114.8807 34.8066 33.8269 0.0000 14.4420 0.0000
# 2 34.8066 70.9851 11.2530 0.0000 -2.7924 0.0000
# 3 33.8269 11.2530 97.5707 0.0000 -12.4383 0.0000
# 4 0.0000 0.0000 0.0000 22.0132 0.0000 2.2975
# 5 14.4420 -2.7924 -12.4383 0.0000 35.2911 0.0000
# 6 0.0000 0.0000 0.0000 2.2975 0.0000 30.2479
#
#
#
# Elastic Compliance Matrix: (Units=1/GPa)
#
#
# Indices 1 2 3 4 5 6 
#
# 1 0.012768 -0.005805 -0.004692 0.000000 -0.007338 0.000000
# 2 -0.005805 0.017001 0.000551 0.000000 0.003915 0.000000
# 3 -0.004692 0.000551 0.012630 0.000000 0.006415 0.000000
# 4 0.000000 0.000000 0.000000 0.045790 0.000000 -0.003478
# 5 -0.007338 0.003915 0.006415 0.000000 0.033910 0.000000
# 6 0.000000 0.000000 0.000000 -0.003478 0.000000 0.033324
#
#
# Mechanical properties :
#
#
# Convention : Reuss Voigt Hill
#
# Bulk Modulus (GPa) = 44.43427 49.24551 46.83989
# Shear Modulus (GPa) = 27.34966 31.08044 29.21505
#
# Velocity S-wave (km/s) = 3.78296 4.03273 3.90984
# Velocity P-wave (km/s) = 6.50626 6.88852 6.70012
#
# Compressibility (1/GPa) = 0.02250515
#
# Stress axis : x y z
#
# Youngs Moduli (GPa) = 78.32239 58.82117 79.17619
#
# Poissons Ratio (x) = 0.34147 0.37153
# Poissons Ratio (y) = 0.45468 -0.04363
# Poissons Ratio (z) = 0.36752 -0.03241
#
# Static dielectric constant tensor:
#      x y z
#    x 3.724280 0.000000 0.106280 
#    y 0.000000 3.407090 0.000000 
#    z 0.106280 0.000000 3.725850 
# 
# 
# High freq. dielectric constant tensor:
#      x y z
#    x 1.737570 0.000000 -0.002380 
#    y 0.000000 1.717310 0.000000 
#    z -0.002380 0.000000 1.761790 
# 
# From -- ./inp_files/240289.got.cif
#   From: 2010.06.25/outbox.cif.g09.slc.cpg/sg15_121_cif.got.tgz:240289.got - 2010.06.28 07:06:18.
