data_PCOD8136784
_publ_section_title
;
Structure prediction by ZEFSAII (Michael W. Deem and Ramdas Pophale) SiO2 
 PCOD8136784
Probable space group: C 2/C
;
_chemical_formula_sum "Si O2"
_cell_formula_units_Z 44
_cell_length_a 25.195703
_cell_length_b 17.462600
_cell_length_c 15.727504
_cell_angle_alpha 90.000000
_cell_angle_beta 19.211684
_cell_angle_gamma 90.000000
_cell_volume 2277.032641
_symmetry_space_group_name_H-M "C 2/C"
_symmetry_group_IT_number 15
_symmetry_cell_setting 'monoclinic'
loop_
_space_group_symop_operation_xyz
x,y,z
-x,y,1/2-z
-x,-y,-z
x,-y,1/2+z
1/2+x,1/2+y,z
1/2-x,1/2+y,1/2-z
1/2-x,1/2-y,-z
1/2+x,1/2-y,1/2+z
loop_
_atom_site_type_symbol
_atom_site_label
_atom_site_fract_x
_atom_site_fract_y
_atom_site_fract_z
Si Si1 0.450457 0.070446 0.512148
Si Si2 0.596000 0.528449 0.020758
Si Si3 0.962122 0.677327 0.636943
Si Si4 0.500000 0.023451 0.250000
Si Si5 0.233485 0.405434 0.834079
Si Si6 0.119688 0.155086 0.232083
O O1 0.258839 0.073066 0.794477
O O2 0.503507 0.149514 0.478118
O O3 0.521261 0.069102 0.308133
O O4 0.500000 0.000000 0.500000
O O5 0.633748 0.444072 0.927208
O O6 0.500000 0.511128 0.250000
O O7 0.490666 0.581582 0.117830
O O8 0.985550 0.767576 0.617791
O O9 0.083616 0.633684 0.514749
O O10 0.776284 0.654380 0.935016
O O11 0.338022 0.973478 0.499614
O O12 0.322338 0.344040 0.758037
#
# Coordination Sequence:
#
# PCOD8136784 Si02
#       6
#     8   8   8   4   8   8
#     4  11  20  40  61  90 122 160 206 248 299 370
#     4  11  23  36  61  89 120 157 203 255 303 353
#     4  11  22  37  63  87 127 159 191 259 319 360
#     4  10  20  34  66  86 112 164 212 236 294 364
#     4  11  21  40  60  88 121 161 203 247 304 367
#     4  11  23  37  60  94 125 150 203 258 310 365
#
# _framework density 19.323395000000001
#
# number of rings (size 3 to 8) (size 9 to 14) (size 15 to 20)
#    0.000    1.091    7.273    0.545    2.545    0.000 
#    0.000    0.000    2.000    5.455    0.000    0.000 
#    0.000    0.000    0.000    0.000    0.000    0.000 
#
# Total GULP energy -272613.911798 kJ/mol
# GULP energy per Si atom -12391.541445 kJ/mol
# Density = 1.927941 g / cm^3
# Si number density = 19.323395 Si / 1000 Ang^3
#
#
#
# Elastic Constant Matrix: (Units=GPa)
#
#
# Indices 1 2 3 4 5 6 
#
# 1 126.2110 43.2791 42.0446 -0.0023 18.3024 0.0015
# 2 43.2791 90.8563 35.4940 -0.0076 6.1087 0.0032
# 3 42.0446 35.4940 83.8774 -0.0064 8.5645 0.0050
# 4 -0.0023 -0.0076 -0.0064 25.9986 0.0044 -5.5531
# 5 18.3024 6.1087 8.5645 0.0044 34.7635 -0.0019
# 6 0.0015 0.0032 0.0050 -5.5531 -0.0019 23.3161
#
#
#
# Elastic Compliance Matrix: (Units=1/GPa)
#
#
# Indices 1 2 3 4 5 6 
#
# 1 0.010937 -0.003536 -0.003551 0.000000 -0.004262 0.000000
# 2 -0.003536 0.014361 -0.004346 0.000003 0.000409 0.000000
# 3 -0.003551 -0.004346 0.015666 0.000002 -0.001227 -0.000002
# 4 0.000000 0.000003 0.000002 0.040525 -0.000005 0.009652
# 5 -0.004262 0.000409 -0.001227 -0.000005 0.031240 0.000002
# 6 0.000000 0.000000 -0.000002 0.009652 0.000002 0.045188
#
#
# Mechanical properties :
#
#
# Convention : Reuss Voigt Hill
#
# Bulk Modulus (GPa) = 55.25426 60.28667 57.77047
# Shear Modulus (GPa) = 26.76433 28.82411 27.79422
#
# Velocity S-wave (km/s) = 3.72570 3.86640 3.79670
# Velocity P-wave (km/s) = 6.86763 7.15532 7.01295
#
# Compressibility (1/GPa) = 0.01809815
#
# Stress axis : x y z
#
# Youngs Moduli (GPa) = 91.43593 69.63181 63.83055
#
# Poissons Ratio (x) = 0.24622 0.22664
# Poissons Ratio (y) = 0.32332 0.27744
# Poissons Ratio (z) = 0.32466 0.30265
#
# Static dielectric constant tensor:
#      x y z
#    x 3.775980 0.000000 0.069430 
#    y 0.000000 3.426810 0.000020 
#    z 0.069430 0.000020 3.574940 
# 
# 
# High freq. dielectric constant tensor:
#      x y z
#    x 1.769260 0.000000 -0.005320 
#    y 0.000000 1.730410 0.000000 
#    z -0.005320 0.000000 1.738690 
# 
# From -- ./inp_files/86807.got.cif
#   From: 2010.06.25/outbox.cif.g09.slc.cpg/sg15_44_cif.got.tgz:86807.got - 2010.06.28 07:06:18.
