data_PCOD8136598
_publ_section_title
;
Structure prediction by ZEFSAII (Michael W. Deem and Ramdas Pophale) SiO2 
 PCOD8136598
Probable space group: C 2/C
;
_chemical_formula_sum "Si O2"
_cell_formula_units_Z 40
_cell_length_a 19.419020
_cell_length_b 4.802066
_cell_length_c 21.405120
_cell_angle_alpha 90.000000
_cell_angle_beta 108.130968
_cell_angle_gamma 90.000000
_cell_volume 1896.948834
_symmetry_space_group_name_H-M "C 2/C"
_symmetry_group_IT_number 15
_symmetry_cell_setting 'monoclinic'
loop_
_space_group_symop_operation_xyz
x,y,z
-x,y,1/2-z
-x,-y,-z
x,-y,1/2+z
1/2+x,1/2+y,z
1/2-x,1/2+y,1/2-z
1/2-x,1/2-y,-z
1/2+x,1/2-y,1/2+z
loop_
_atom_site_type_symbol
_atom_site_label
_atom_site_fract_x
_atom_site_fract_y
_atom_site_fract_z
Si Si1 0.797872 0.955462 0.753228
Si Si2 0.135345 0.163428 0.610321
Si Si3 0.199767 0.688764 0.874772
Si Si4 0.325858 0.296571 0.054408
Si Si5 0.926350 0.665452 0.970092
O O1 0.755738 0.711479 0.779518
O O2 0.860835 0.084035 0.815033
O O3 0.828418 0.816660 0.698610
O O4 0.072456 0.973727 0.560425
O O5 0.214244 0.126771 0.601565
O O6 0.118362 0.485659 0.593301
O O7 0.164398 0.391251 0.880340
O O8 0.173073 0.883840 0.924017
O O9 0.250000 0.250000 0.000000
O O10 0.390491 0.209206 0.027131
O O11 0.000000 0.500000 0.000000
#
# Coordination Sequence:
#
# PCOD8136598 Si02
#       5
#     8   8   8   8   8
#     4  10  20  34  57  89 118 147 187 244 302 347
#     4  11  20  38  59  83 119 151 193 243 293 354
#     4  11  20  35  60  90 114 145 192 249 302 345
#     4  12  21  36  59  85 120 149 190 249 299 342
#     4  12  25  38  57  84 119 161 195 234 294 362
#
# _framework density 21.086492
#
# number of rings (size 3 to 8) (size 9 to 14) (size 15 to 20)
#    0.000    0.800    4.000    7.200    0.000    0.000 
#    0.000    0.000    0.000    7.200    0.000    0.000 
#    0.000    0.000    0.000    0.000    0.000    0.000 
#
# Total GULP energy -247816.941711 kJ/mol
# GULP energy per Si atom -12390.847086 kJ/mol
# Density = 2.103850 g / cm^3
# Si number density = 21.086492 Si / 1000 Ang^3
#
#
#
# Elastic Constant Matrix: (Units=GPa)
#
#
# Indices 1 2 3 4 5 6 
#
# 1 69.7748 1.3601 17.3956 -0.0001 -3.5251 0.0002
# 2 1.3601 86.4187 8.6963 -0.0007 -3.3462 0.0010
# 3 17.3956 8.6963 86.8206 -0.0001 -10.3878 0.0005
# 4 -0.0001 -0.0007 -0.0001 46.3006 0.0001 -7.6088
# 5 -3.5251 -3.3462 -10.3878 0.0001 16.8499 -0.0002
# 6 0.0002 0.0010 0.0005 -7.6088 -0.0002 32.4023
#
#
#
# Elastic Compliance Matrix: (Units=1/GPa)
#
#
# Indices 1 2 3 4 5 6 
#
# 1 0.015117 0.000106 -0.002870 0.000000 0.001414 0.000000
# 2 0.000106 0.011737 -0.000988 0.000000 0.001744 0.000000
# 3 -0.002870 -0.000988 0.013060 0.000000 0.007255 0.000000
# 4 0.000000 0.000000 0.000000 0.022465 0.000000 0.005275
# 5 0.001414 0.001744 0.007255 0.000000 0.064462 0.000000
# 6 0.000000 0.000000 0.000000 0.005275 0.000000 0.032101
#
#
# Mechanical properties :
#
#
# Convention : Reuss Voigt Hill
#
# Bulk Modulus (GPa) = 30.85631 33.10201 31.97916
# Shear Modulus (GPa) = 28.20878 33.48137 30.84508
#
# Velocity S-wave (km/s) = 3.66152 3.98906 3.82879
# Velocity P-wave (km/s) = 5.70443 6.07857 5.89447
#
# Compressibility (1/GPa) = 0.03240828
#
# Stress axis : x y z
#
# Youngs Moduli (GPa) = 66.15165 85.20162 76.56925
#
# Poissons Ratio (x) = -0.00900 0.21977
# Poissons Ratio (y) = -0.00699 0.07566
# Poissons Ratio (z) = 0.18987 0.08419
#
# Static dielectric constant tensor:
#      x y z
#    x 3.457680 0.000000 -0.288090 
#    y 0.000000 4.425020 0.000000 
#    z -0.288090 0.000000 3.881480 
# 
# 
# High freq. dielectric constant tensor:
#      x y z
#    x 1.763070 0.000000 -0.020450 
#    y 0.000000 1.863920 0.000000 
#    z -0.020450 0.000000 1.826110 
# 
# From -- ./inp_files/275508.got.cif
#   From: 2010.06.25/outbox.cif.g09.slc.cpg/sg15_138_cif.got.tgz:275508.got - 2010.06.28 07:06:18.
