data_PCOD8136963
_publ_section_title
;
Structure prediction by ZEFSAII (Michael W. Deem and Ramdas Pophale) SiO2 
 PCOD8136963
Probable space group: C 2/C
;
_chemical_formula_sum "Si O2"
_cell_formula_units_Z 64
_cell_length_a 25.805025
_cell_length_b 8.281728
_cell_length_c 15.388464
_cell_angle_alpha 90.000000
_cell_angle_beta 73.057567
_cell_angle_gamma 90.000000
_cell_volume 3145.936856
_symmetry_space_group_name_H-M "C 2/C"
_symmetry_group_IT_number 15
_symmetry_cell_setting 'monoclinic'
loop_
_space_group_symop_operation_xyz
x,y,z
-x,y,1/2-z
-x,-y,-z
x,-y,1/2+z
1/2+x,1/2+y,z
1/2-x,1/2+y,1/2-z
1/2-x,1/2-y,-z
1/2+x,1/2-y,1/2+z
loop_
_atom_site_type_symbol
_atom_site_label
_atom_site_fract_x
_atom_site_fract_y
_atom_site_fract_z
Si Si1 0.377090 0.956379 0.647784
Si Si2 0.122394 0.571242 0.029819
Si Si3 0.841769 0.104769 0.651731
Si Si4 0.717397 0.874775 0.211753
Si Si5 0.865804 0.881298 0.790238
Si Si6 0.158026 0.066957 0.532850
Si Si7 0.768648 0.435995 0.482702
Si Si8 0.436233 0.074383 0.777378
O O1 0.370722 0.773084 0.621178
O O2 0.403802 0.055422 0.553560
O O3 0.319030 0.036621 0.699006
O O4 0.417836 0.954993 0.709470
O O5 0.134273 0.754567 0.049872
O O6 0.178353 0.471337 0.987068
O O7 0.084984 0.489102 0.119946
O O8 0.779593 0.137213 0.711888
O O9 0.874528 0.015112 0.711980
O O10 0.846988 0.002785 0.561259
O O11 0.693342 0.697032 0.200915
O O12 0.714201 0.977196 0.124539
O O13 0.912216 0.747299 0.762672
O O14 0.873090 0.957476 0.882060
O O15 0.220958 0.059883 0.531787
O O16 0.750000 0.250000 0.500000
O O17 0.500000 0.086569 0.750000
#
# Coordination Sequence:
#
# PCOD8136963 Si02
#       8
#     8   8   8   8   8   8   8   8
#     4  11  23  40  64  91 127 169 211 261 315 377
#     4  12  23  41  64  92 130 166 213 261 312 380
#     4  11  23  36  59  94 134 166 206 253 309 380
#     4  10  20  35  57  89 131 174 206 242 302 374
#     4  11  21  40  62  88 127 165 214 260 310 375
#     4  11  23  36  60  96 134 172 202 249 309 382
#     4  11  19  36  58  90 131 175 204 243 299 370
#     4  11  25  48  69  88 117 163 219 273 324 374
#
# _framework density 20.343700999999999
#
# number of rings (size 3 to 8) (size 9 to 14) (size 15 to 20)
#    0.000    1.000    3.750    5.625    1.750    1.500 
#    0.000    2.500    0.000    3.000    0.000    0.000 
#    0.000    0.000    0.000    0.000    0.000    0.000 
#
# Total GULP energy -396754.014479 kJ/mol
# GULP energy per Si atom -12398.562952 kJ/mol
# Density = 2.029740 g / cm^3
# Si number density = 20.343701 Si / 1000 Ang^3
#
#
#
# Elastic Constant Matrix: (Units=GPa)
#
#
# Indices 1 2 3 4 5 6 
#
# 1 89.7543 33.9343 42.2288 0.0000 -6.7928 0.0000
# 2 33.9343 110.5850 31.4175 0.0000 -5.7976 0.0000
# 3 42.2288 31.4175 117.7581 0.0000 10.5624 0.0000
# 4 0.0000 0.0000 0.0000 34.1109 0.0000 10.5580
# 5 -6.7928 -5.7976 10.5624 0.0000 17.6070 0.0000
# 6 0.0000 0.0000 0.0000 10.5580 0.0000 14.9951
#
#
#
# Elastic Compliance Matrix: (Units=1/GPa)
#
#
# Indices 1 2 3 4 5 6 
#
# 1 0.015416 -0.002712 -0.005557 0.000000 0.008388 0.000000
# 2 -0.002712 0.010708 -0.002226 0.000000 0.003815 0.000000
# 3 -0.005557 -0.002226 0.011982 0.000000 -0.010065 0.000000
# 4 0.000000 0.000000 0.000000 0.037485 0.000000 -0.026393
# 5 0.008388 0.003815 -0.010065 0.000000 0.067326 0.000000
# 6 0.000000 0.000000 0.000000 -0.026393 0.000000 0.085272
#
#
# Mechanical properties :
#
#
# Convention : Reuss Voigt Hill
#
# Bulk Modulus (GPa) = 58.43108 59.25095 58.84102
# Shear Modulus (GPa) = 19.61670 27.37705 23.49688
#
# Velocity S-wave (km/s) = 3.10863 3.67239 3.40221
# Velocity P-wave (km/s) = 6.45516 6.86805 6.66480
#
# Compressibility (1/GPa) = 0.01711418
#
# Stress axis : x y z
#
# Youngs Moduli (GPa) = 64.86593 93.39172 83.46127
#
# Poissons Ratio (x) = 0.25329 0.46381
# Poissons Ratio (y) = 0.17592 0.18582
# Poissons Ratio (z) = 0.36048 0.20792
#
# Static dielectric constant tensor:
#      x y z
#    x 3.404130 0.000000 0.208000 
#    y 0.000000 3.650280 0.000000 
#    z 0.208000 0.000000 3.868770 
# 
# 
# High freq. dielectric constant tensor:
#      x y z
#    x 1.750110 0.000000 0.021210 
#    y 0.000000 1.798210 0.000000 
#    z 0.021210 0.000000 1.811310 
# 
# From -- ./inp_files/176571.got.cif
#   From: 2010.06.25/outbox.cif.g09.slc.cpg/sg15_89_cif.got.tgz:176571.got - 2010.06.28 07:06:18.
