data_PCOD8136903
_publ_section_title
;
Structure prediction by ZEFSAII (Michael W. Deem and Ramdas Pophale) SiO2 
 PCOD8136903
Probable space group: C 2/C
;
_chemical_formula_sum "Si O2"
_cell_formula_units_Z 64
_cell_length_a 30.187933
_cell_length_b 18.730107
_cell_length_c 19.462146
_cell_angle_alpha 90.000000
_cell_angle_beta 161.609752
_cell_angle_gamma 90.000000
_cell_volume 3471.734931
_symmetry_space_group_name_H-M "C 2/C"
_symmetry_group_IT_number 15
_symmetry_cell_setting 'monoclinic'
loop_
_space_group_symop_operation_xyz
x,y,z
-x,y,1/2-z
-x,-y,-z
x,-y,1/2+z
1/2+x,1/2+y,z
1/2-x,1/2+y,1/2-z
1/2-x,1/2-y,-z
1/2+x,1/2-y,1/2+z
loop_
_atom_site_type_symbol
_atom_site_label
_atom_site_fract_x
_atom_site_fract_y
_atom_site_fract_z
Si Si1 0.849617 0.456372 0.502315
Si Si2 0.873851 0.052452 0.705655
Si Si3 0.772397 0.314233 0.720508
Si Si4 0.862481 0.794813 0.124902
Si Si5 0.484070 0.118010 0.986861
Si Si6 0.185526 0.042895 0.151484
Si Si7 0.388715 0.189691 0.983687
Si Si8 0.288279 0.000185 0.657607
O O1 0.730517 0.456889 0.384629
O O2 0.803534 0.507860 0.373060
O O3 0.871905 0.375923 0.509948
O O4 0.000000 0.485322 0.750000
O O5 0.891315 0.134411 0.710523
O O6 0.817443 0.003009 0.561268
O O7 0.031267 0.025494 0.954877
O O8 0.690299 0.319579 0.527114
O O9 0.937134 0.329350 0.950074
O O10 0.710856 0.372322 0.683116
O O11 0.756245 0.235438 0.729814
O O12 0.999425 0.745602 0.320881
O O13 0.750000 0.750000 0.000000
O O14 0.593939 0.060838 0.179462
O O15 0.423020 0.165122 0.958066
O O16 0.360709 0.077902 0.764667
O O17 0.201612 0.009147 0.099845
#
# Coordination Sequence:
#
# PCOD8136903 Si02
#       8
#     8   8   8   8   8   8   8   8
#     4  12  26  40  59  90 126 165 203 252 304 369
#     4  12  23  38  60  90 122 162 199 257 311 354
#     4  11  22  33  58  83 125 161 195 240 305 371
#     4  12  20  33  52  87 128 156 186 237 309 382
#     4  10  20  35  56  85 120 164 204 243 286 369
#     4  11  23  41  58  89 124 162 208 249 306 364
#     4  12  22  36  55  91 127 160 189 244 317 378
#     4  10  20  37  63  84 120 158 216 246 293 369
#
# _framework density 18.434585999999999
#
# number of rings (size 3 to 8) (size 9 to 14) (size 15 to 20)
#    0.000    0.750    6.250    4.125    3.500    0.000 
#    0.000    0.000    0.000    0.000    3.250    1.750 
#    0.000    0.000    0.000    0.000    0.000    0.000 
#
# Total GULP energy -396796.372027 kJ/mol
# GULP energy per Si atom -12399.886626 kJ/mol
# Density = 1.839263 g / cm^3
# Si number density = 18.434586 Si / 1000 Ang^3
#
#
#
# Elastic Constant Matrix: (Units=GPa)
#
#
# Indices 1 2 3 4 5 6 
#
# 1 107.9856 30.4591 29.0669 0.0000 12.1845 0.0000
# 2 30.4591 77.8324 39.6623 0.0000 -2.8783 0.0000
# 3 29.0669 39.6623 75.5483 0.0000 6.1440 0.0000
# 4 0.0000 0.0000 0.0000 30.9113 0.0000 3.2924
# 5 12.1845 -2.8783 6.1440 0.0000 27.3394 0.0000
# 6 0.0000 0.0000 0.0000 3.2924 0.0000 32.4096
#
#
#
# Elastic Compliance Matrix: (Units=1/GPa)
#
#
# Indices 1 2 3 4 5 6 
#
# 1 0.011397 -0.003572 -0.002104 0.000000 -0.004982 0.000000
# 2 -0.003572 0.019098 -0.009112 0.000000 0.005650 0.000000
# 3 -0.002104 -0.009112 0.019182 0.000000 -0.004332 0.000000
# 4 0.000000 0.000000 0.000000 0.032705 0.000000 -0.003322
# 5 -0.004982 0.005650 -0.004332 0.000000 0.040366 0.000000
# 6 0.000000 0.000000 0.000000 -0.003322 0.000000 0.031193
#
#
# Mechanical properties :
#
#
# Convention : Reuss Voigt Hill
#
# Bulk Modulus (GPa) = 49.74872 51.08254 50.41563
# Shear Modulus (GPa) = 26.28589 28.94391 27.61490
#
# Velocity S-wave (km/s) = 3.78021 3.96673 3.87459
# Velocity P-wave (km/s) = 6.78959 6.98214 6.88654
#
# Compressibility (1/GPa) = 0.02010102
#
# Stress axis : x y z
#
# Youngs Moduli (GPa) = 87.74525 52.36141 52.13198
#
# Poissons Ratio (x) = 0.18703 0.10971
# Poissons Ratio (y) = 0.31341 0.47501
# Poissons Ratio (z) = 0.18465 0.47710
#
# Static dielectric constant tensor:
#      x y z
#    x 3.630300 0.000000 0.390780 
#    y 0.000000 3.468690 0.000000 
#    z 0.390780 0.000000 3.493600 
# 
# 
# High freq. dielectric constant tensor:
#      x y z
#    x 1.730580 0.000000 0.025200 
#    y 0.000000 1.707130 0.000000 
#    z 0.025200 0.000000 1.689200 
# 
# From -- ./inp_files/225889.got.cif
#   From: 2010.06.25/outbox.cif.g09.slc.cpg/sg15_113_cif.got.tgz:225889.got - 2010.06.28 07:06:18.
