data_PCOD8136309
_publ_section_title
;
Structure prediction by ZEFSAII (Michael W. Deem and Ramdas Pophale) SiO2 
 PCOD8136309
Probable space group: C 2/C
;
_chemical_formula_sum "Si O2"
_cell_formula_units_Z 60
_cell_length_a 20.446632
_cell_length_b 16.206150
_cell_length_c 9.472135
_cell_angle_alpha 90.000000
_cell_angle_beta 99.102200
_cell_angle_gamma 90.000000
_cell_volume 3099.174559
_symmetry_space_group_name_H-M "C 2/C"
_symmetry_group_IT_number 15
_symmetry_cell_setting 'monoclinic'
loop_
_space_group_symop_operation_xyz
x,y,z
-x,y,1/2-z
-x,-y,-z
x,-y,1/2+z
1/2+x,1/2+y,z
1/2-x,1/2+y,1/2-z
1/2-x,1/2-y,-z
1/2+x,1/2-y,1/2+z
loop_
_atom_site_type_symbol
_atom_site_label
_atom_site_fract_x
_atom_site_fract_y
_atom_site_fract_z
Si Si1 0.575693 0.953728 0.286489
Si Si2 0.000000 0.304693 0.750000
Si Si3 0.452987 0.325432 0.037489
Si Si4 0.824617 0.745476 0.476236
Si Si5 0.396496 0.097252 0.388388
Si Si6 0.600015 0.605835 0.552128
Si Si7 0.575273 0.484800 0.311671
Si Si8 0.924227 0.728004 0.765113
O O1 0.500000 0.983013 0.250000
O O2 0.592323 0.944361 0.456279
O O3 0.587560 0.868806 0.203767
O O4 0.621251 0.024953 0.229862
O O5 0.052483 0.246276 0.847356
O O6 0.037037 0.357644 0.642730
O O7 0.417392 0.406743 0.081926
O O8 0.529749 0.347202 0.035130
O O9 0.412161 0.290406 0.890249
O O10 0.750000 0.750000 0.500000
O O11 0.837202 0.664027 0.384975
O O12 0.841328 0.829012 0.397264
O O13 0.875154 0.751524 0.623756
O O14 0.607875 0.562848 0.401131
O O15 0.609548 0.535554 0.674580
O O16 0.500000 0.507582 0.250000
O O17 0.000000 0.739475 0.750000
#
# Coordination Sequence:
#
# PCOD8136309 Si02
#       8
#     8   4   8   8   8   8   8   8
#     4  10  20  33  53  92 124 148 196 257 311 358
#     4  12  18  32  58  92 132 158 194 250 312 364
#     4  11  18  32  56  91 124 154 190 249 302 355
#     4  11  24  43  62  84 124 168 204 246 308 373
#     4  11  22  36  58  87 119 164 195 249 310 365
#     4  11  21  37  55  90 119 162 199 242 301 359
#     4  10  21  32  56  93 128 148 192 256 307 354
#     4  10  20  34  61  91 117 152 209 251 303 361
#
# _framework density 19.359995000000001
#
# number of rings (size 3 to 8) (size 9 to 14) (size 15 to 20)
#    0.000    1.333    5.333    3.600    5.600    0.000 
#    0.000    2.667    0.000    3.200    0.000    0.000 
#    0.000    0.000    0.000    0.000    0.000    0.000 
#
# Total GULP energy -371817.751700 kJ/mol
# GULP energy per Si atom -12393.925057 kJ/mol
# Density = 1.931593 g / cm^3
# Si number density = 19.359995 Si / 1000 Ang^3
#
#
#
# Elastic Constant Matrix: (Units=GPa)
#
#
# Indices 1 2 3 4 5 6 
#
# 1 66.7166 23.7264 21.8772 0.0000 -10.4985 0.0000
# 2 23.7264 103.2534 48.3391 0.0000 -7.7201 0.0000
# 3 21.8772 48.3391 99.3568 0.0000 -4.2441 0.0000
# 4 0.0000 0.0000 0.0000 45.2585 0.0000 -6.0465
# 5 -10.4985 -7.7201 -4.2441 0.0000 16.0122 0.0000
# 6 0.0000 0.0000 0.0000 -6.0465 0.0000 8.9371
#
#
#
# Elastic Compliance Matrix: (Units=1/GPa)
#
#
# Indices 1 2 3 4 5 6 
#
# 1 0.018209 -0.002265 -0.002472 0.000000 0.010191 0.000000
# 2 -0.002265 0.013149 -0.005756 0.000000 0.003329 0.000000
# 3 -0.002472 -0.005756 0.013373 0.000000 -0.000852 0.000000
# 4 0.000000 0.000000 0.000000 0.024291 0.000000 0.016434
# 5 0.010191 0.003329 -0.000852 0.000000 0.070514 0.000000
# 6 0.000000 0.000000 0.000000 0.016434 0.000000 0.123012
#
#
# Mechanical properties :
#
#
# Convention : Reuss Voigt Hill
#
# Bulk Modulus (GPa) = 42.11529 50.80137 46.45833
# Shear Modulus (GPa) = 17.15564 25.73382 21.44473
#
# Velocity S-wave (km/s) = 2.98004 3.64981 3.33180
# Velocity P-wave (km/s) = 5.80016 6.63768 6.23300
#
# Compressibility (1/GPa) = 0.02374435
#
# Stress axis : x y z
#
# Youngs Moduli (GPa) = 54.91927 76.05033 74.77569
#
# Poissons Ratio (x) = 0.17224 0.18485
# Poissons Ratio (y) = 0.12438 0.43044
# Poissons Ratio (z) = 0.13577 0.43778
#
# Static dielectric constant tensor:
#      x y z
#    x 2.750480 0.000000 -0.156010 
#    y 0.000000 3.976640 0.000000 
#    z -0.156010 0.000000 3.691590 
# 
# 
# High freq. dielectric constant tensor:
#      x y z
#    x 1.666590 0.000000 -0.004200 
#    y 0.000000 1.783620 0.000000 
#    z -0.004200 0.000000 1.762730 
# 
# From -- ./inp_files/56603.got.cif
#   From: 2010.06.25/outbox.cif.g09.slc.cpg/sg15_29_cif.got.tgz:56603.got - 2010.06.28 07:06:18.
