data_PCOD8136690
_publ_section_title
;
Structure prediction by ZEFSAII (Michael W. Deem and Ramdas Pophale) SiO2 
 PCOD8136690
Probable space group: C 2/C
;
_chemical_formula_sum "Si O2"
_cell_formula_units_Z 48
_cell_length_a 18.405710
_cell_length_b 14.932390
_cell_length_c 8.757518
_cell_angle_alpha 90.000000
_cell_angle_beta 64.530439
_cell_angle_gamma 90.000000
_cell_volume 2173.007177
_symmetry_space_group_name_H-M "C 2/C"
_symmetry_group_IT_number 15
_symmetry_cell_setting 'monoclinic'
loop_
_space_group_symop_operation_xyz
x,y,z
-x,y,1/2-z
-x,-y,-z
x,-y,1/2+z
1/2+x,1/2+y,z
1/2-x,1/2+y,1/2-z
1/2-x,1/2-y,-z
1/2+x,1/2-y,1/2+z
loop_
_atom_site_type_symbol
_atom_site_label
_atom_site_fract_x
_atom_site_fract_y
_atom_site_fract_z
Si Si1 0.102214 0.196999 0.505954
Si Si2 0.147468 0.384018 0.400112
Si Si3 0.330420 0.319017 0.225358
Si Si4 0.259535 0.871733 0.730420
Si Si5 0.818878 0.521299 0.906999
Si Si6 0.474536 0.405991 0.950256
O O1 0.093711 0.303523 0.505254
O O2 0.122349 0.167219 0.658614
O O3 0.169892 0.164503 0.327354
O O4 0.017606 0.165053 0.520410
O O5 0.243202 0.363477 0.324264
O O6 0.124246 0.467082 0.529486
O O7 0.126845 0.413322 0.246199
O O8 0.321147 0.212829 0.194237
O O9 0.380358 0.377007 0.053836
O O10 0.261942 0.913588 0.558863
O O11 0.271844 0.949609 0.844478
O O12 0.500000 0.401832 0.750000
O O13 0.500000 0.500000 0.000000
#
# Coordination Sequence:
#
# PCOD8136690 Si02
#       6
#     8   8   8   8   8   8
#     4  11  22  42  61  91 127 168 202 251 315 361
#     4  10  21  36  65  94 129 157 207 255 310 358
#     4  11  22  42  61  91 127 168 202 251 315 361
#     4  10  21  36  65  94 129 157 207 255 310 358
#     4  10  20  34  60 100 122 158 200 268 298 364
#     4  12  30  44  64  89 124 167 207 249 304 371
#
# _framework density 22.089203000000001
#
# number of rings (size 3 to 8) (size 9 to 14) (size 15 to 20)
#    0.000    1.333    3.333    2.500    9.333    1.333 
#    0.000    0.000    0.000    6.000    0.000    0.000 
#    0.000    0.000    0.000    0.000    0.000    0.000 
#
# Total GULP energy -297414.206808 kJ/mol
# GULP energy per Si atom -12392.258617 kJ/mol
# Density = 2.203893 g / cm^3
# Si number density = 22.089203 Si / 1000 Ang^3
#
#
#
# Elastic Constant Matrix: (Units=GPa)
#
#
# Indices 1 2 3 4 5 6 
#
# 1 52.4863 21.5758 17.8111 0.0000 2.9093 0.0000
# 2 21.5758 98.7228 46.1908 0.0000 2.8349 0.0000
# 3 17.8111 46.1908 122.7223 0.0000 21.3183 0.0000
# 4 0.0000 0.0000 0.0000 39.7264 0.0000 -5.9359
# 5 2.9093 2.8349 21.3183 0.0000 28.5287 0.0000
# 6 0.0000 0.0000 0.0000 -5.9359 0.0000 9.7696
#
#
#
# Elastic Compliance Matrix: (Units=1/GPa)
#
#
# Indices 1 2 3 4 5 6 
#
# 1 0.021205 -0.003919 -0.001487 0.000000 -0.000661 0.000000
# 2 -0.003919 0.013185 -0.004867 0.000000 0.002727 0.000000
# 3 -0.001487 -0.004867 0.011591 0.000000 -0.008026 0.000000
# 4 0.000000 0.000000 0.000000 0.027686 0.000000 0.016821
# 5 -0.000661 0.002727 -0.008026 0.000000 0.040846 0.000000
# 6 0.000000 0.000000 0.000000 0.016821 0.000000 0.112578
#
#
# Mechanical properties :
#
#
# Convention : Reuss Voigt Hill
#
# Bulk Modulus (GPa) = 39.32040 49.45408 44.38724
# Shear Modulus (GPa) = 19.52231 28.16185 23.84208
#
# Velocity S-wave (km/s) = 2.97609 3.57447 3.28892
# Velocity P-wave (km/s) = 5.44508 6.28273 5.87884
#
# Compressibility (1/GPa) = 0.02543209
#
# Stress axis : x y z
#
# Youngs Moduli (GPa) = 47.15826 75.84331 86.27693
#
# Poissons Ratio (x) = 0.29726 0.12833
# Poissons Ratio (y) = 0.18483 0.41995
# Poissons Ratio (z) = 0.07015 0.36917
#
# Static dielectric constant tensor:
#      x y z
#    x 3.609490 0.000000 0.148710 
#    y 0.000000 4.542610 0.000000 
#    z 0.148710 0.000000 4.254110 
# 
# 
# High freq. dielectric constant tensor:
#      x y z
#    x 1.822570 0.000000 0.017320 
#    y 0.000000 1.891200 0.000000 
#    z 0.017320 0.000000 1.884490 
# 
# From -- ./inp_files/55244.got.cif
#   From: 2010.06.25/outbox.cif.g09.slc.cpg/sg15_28_cif.got.tgz:55244.got - 2010.06.28 07:06:18.
