data_PCOD8136541
_publ_section_title
;
Structure prediction by ZEFSAII (Michael W. Deem and Ramdas Pophale) SiO2 
 PCOD8136541
Probable space group: C 2/C
;
_chemical_formula_sum "Si O2"
_cell_formula_units_Z 64
_cell_length_a 16.018770
_cell_length_b 24.774447
_cell_length_c 14.147183
_cell_angle_alpha 90.000000
_cell_angle_beta 145.636848
_cell_angle_gamma 90.000000
_cell_volume 3168.969044
_symmetry_space_group_name_H-M "C 2/C"
_symmetry_group_IT_number 15
_symmetry_cell_setting 'monoclinic'
loop_
_space_group_symop_operation_xyz
x,y,z
-x,y,1/2-z
-x,-y,-z
x,-y,1/2+z
1/2+x,1/2+y,z
1/2-x,1/2+y,1/2-z
1/2-x,1/2-y,-z
1/2+x,1/2-y,1/2+z
loop_
_atom_site_type_symbol
_atom_site_label
_atom_site_fract_x
_atom_site_fract_y
_atom_site_fract_z
Si Si1 0.261534 0.088345 0.276982
Si Si2 0.877268 0.803191 0.922588
Si Si3 0.724972 0.003443 0.867278
Si Si4 0.779632 0.803345 0.236818
Si Si5 0.546851 0.490232 0.651482
Si Si6 0.593675 0.909140 0.108758
Si Si7 0.667060 0.338578 0.415137
Si Si8 0.211187 0.445489 0.031115
O O1 0.181213 0.143782 0.181478
O O2 0.163646 0.059194 0.266501
O O3 0.422714 0.103526 0.468338
O O4 0.270403 0.049227 0.194763
O O5 0.807447 0.749766 0.809908
O O6 0.820729 0.804128 0.978059
O O7 0.052828 0.801991 0.069839
O O8 0.648976 0.053663 0.745796
O O9 0.891366 0.020031 0.058338
O O10 0.648601 0.988820 0.896660
O O11 0.694900 0.855905 0.197676
O O12 0.782977 0.802027 0.126213
O O13 0.500000 0.500000 0.500000
O O14 0.628870 0.542135 0.772058
O O15 0.597087 0.941412 0.011741
O O16 0.500000 0.359471 0.250000
O O17 0.774003 0.390380 0.514675
#
# Coordination Sequence:
#
# PCOD8136541 Si02
#       8
#     8   8   8   8   8   8   8   8
#     4  11  22  36  55  78 116 150 191 244 284 336
#     4  11  20  37  54  80 105 148 199 232 287 340
#     4  11  21  36  58  81 113 154 194 241 285 344
#     4  10  22  35  56  75 110 149 189 241 284 339
#     4  10  20  34  56  80 113 149 194 236 289 336
#     4  11  23  39  52  83 120 153 195 237 290 341
#     4   9  18  30  50  77 108 146 190 231 274 332
#     4  11  20  34  58  83 115 157 195 232 289 340
#
# _framework density 20.195843
#
# number of rings (size 3 to 8) (size 9 to 14) (size 15 to 20)
#    0.000    1.500    3.750    3.375    7.000    0.500 
#    0.000    1.250    0.000    0.000    0.000    0.875 
#    0.000    0.000    0.000    0.000    0.000    0.000 
#
# Total GULP energy -396614.179972 kJ/mol
# GULP energy per Si atom -12394.193124 kJ/mol
# Density = 2.014988 g / cm^3
# Si number density = 20.195843 Si / 1000 Ang^3
#
#
#
# Elastic Constant Matrix: (Units=GPa)
#
#
# Indices 1 2 3 4 5 6 
#
# 1 32.2938 33.5761 32.9531 0.0000 16.2596 0.0000
# 2 33.5761 122.9521 60.4734 0.0000 12.7295 0.0000
# 3 32.9531 60.4734 91.3297 0.0000 31.6773 0.0000
# 4 0.0000 0.0000 0.0000 35.8484 0.0000 3.9722
# 5 16.2596 12.7295 31.6773 0.0000 32.7207 0.0000
# 6 0.0000 0.0000 0.0000 3.9722 0.0000 24.8106
#
#
#
# Elastic Compliance Matrix: (Units=1/GPa)
#
#
# Indices 1 2 3 4 5 6 
#
# 1 0.058768 -0.010010 -0.008729 0.000000 -0.016858 0.000000
# 2 -0.010010 0.014239 -0.008462 0.000000 0.007627 0.000000
# 3 -0.008729 -0.008462 0.025678 0.000000 -0.017229 0.000000
# 4 0.000000 0.000000 0.000000 0.028399 0.000000 -0.004547
# 5 -0.016858 0.007627 -0.017229 0.000000 0.052652 0.000000
# 6 0.000000 0.000000 0.000000 -0.004547 0.000000 0.041033
#
#
# Mechanical properties :
#
#
# Convention : Reuss Voigt Hill
#
# Bulk Modulus (GPa) = 22.58193 55.62009 39.10101
# Shear Modulus (GPa) = 17.24536 26.64745 21.94641
#
# Velocity S-wave (km/s) = 2.92534 3.63637 3.30006
# Velocity P-wave (km/s) = 4.75562 6.72540 5.82439
#
# Compressibility (1/GPa) = 0.04428319
#
# Stress axis : x y z
#
# Youngs Moduli (GPa) = 17.01597 70.22916 38.94382
#
# Poissons Ratio (x) = 0.70297 0.33996
# Poissons Ratio (y) = 0.17032 0.32954
# Poissons Ratio (z) = 0.14854 0.59428
#
# Static dielectric constant tensor:
#      x y z
#    x 3.760010 0.000000 0.287860 
#    y 0.000000 3.506790 0.000000 
#    z 0.287860 0.000000 3.676530 
# 
# 
# High freq. dielectric constant tensor:
#      x y z
#    x 1.765210 0.000000 0.024060 
#    y 0.000000 1.775330 0.000000 
#    z 0.024060 0.000000 1.788520 
# 
# From -- ./inp_files/164280.got.cif
#   From: 2010.06.25/outbox.cif.g09.slc.cpg/sg15_83_cif.got.tgz:164280.got - 2010.06.28 07:06:18.
