data_PCOD8136626
_publ_section_title
;
Structure prediction by ZEFSAII (Michael W. Deem and Ramdas Pophale) SiO2 
 PCOD8136626
Probable space group: C 2/C
;
_chemical_formula_sum "Si O2"
_cell_formula_units_Z 56
_cell_length_a 9.417683
_cell_length_b 16.220568
_cell_length_c 18.137373
_cell_angle_alpha 90.000000
_cell_angle_beta 100.461697
_cell_angle_gamma 90.000000
_cell_volume 2724.609977
_symmetry_space_group_name_H-M "C 2/C"
_symmetry_group_IT_number 15
_symmetry_cell_setting 'monoclinic'
loop_
_space_group_symop_operation_xyz
x,y,z
-x,y,1/2-z
-x,-y,-z
x,-y,1/2+z
1/2+x,1/2+y,z
1/2-x,1/2+y,1/2-z
1/2-x,1/2-y,-z
1/2+x,1/2-y,1/2+z
loop_
_atom_site_type_symbol
_atom_site_label
_atom_site_fract_x
_atom_site_fract_y
_atom_site_fract_z
Si Si1 0.016375 0.519342 0.587508
Si Si2 0.284108 0.837997 0.360908
Si Si3 0.726318 0.520886 0.126513
Si Si4 0.834938 0.811214 0.952551
Si Si5 0.645919 0.728332 0.716939
Si Si6 0.649630 0.088108 0.221182
Si Si7 0.513230 0.623638 0.586877
O O1 0.863349 0.530530 0.612744
O O2 0.000000 0.500000 0.500000
O O3 0.081428 0.608889 0.603015
O O4 0.123835 0.455775 0.639891
O O5 0.339307 0.744467 0.380640
O O6 0.252551 0.833871 0.270607
O O7 0.145029 0.874241 0.390910
O O8 0.742321 0.604226 0.079306
O O9 0.735068 0.540327 0.215379
O O10 0.580426 0.468729 0.095483
O O11 0.750000 0.750000 0.000000
O O12 0.988459 0.840578 0.001787
O O13 0.500000 0.735249 0.750000
O O14 0.708469 0.819964 0.710406
O O15 0.621258 0.686963 0.635904
O O16 0.500000 0.091758 0.250000
#
# Coordination Sequence:
#
# PCOD8136626 Si02
#       7
#     8   8   8   8   8   8   8
#     4  11  23  35  59  88 123 150 192 243 298 347
#     4  10  20  37  56  86 114 148 192 242 290 342
#     4  11  21  40  59  88 117 156 195 240 297 350
#     4  10  20  34  58  84 112 148 194 237 281 345
#     4   9  17  33  59  86 109 149 202 243 280 344
#     4   9  19  34  59  86 113 152 202 241 283 351
#     4  10  21  33  62  84 113 146 197 242 288 342
#
# _framework density 20.553401000000001
#
# number of rings (size 3 to 8) (size 9 to 14) (size 15 to 20)
#    0.000    2.000    1.429    3.000    8.000    0.000 
#    0.000    0.714    3.143    1.714    0.000    0.000 
#    0.000    0.000    0.000    0.000    0.000    0.000 
#
# Total GULP energy -346872.585291 kJ/mol
# GULP energy per Si atom -12388.306618 kJ/mol
# Density = 2.050662 g / cm^3
# Si number density = 20.553401 Si / 1000 Ang^3
#
#
#
# Elastic Constant Matrix: (Units=GPa)
#
#
# Indices 1 2 3 4 5 6 
#
# 1 52.8689 51.6926 32.8585 0.0000 17.7034 0.0000
# 2 51.6926 128.1741 37.5196 0.0000 18.3567 0.0000
# 3 32.8585 37.5196 134.5674 0.0000 28.3253 0.0000
# 4 0.0000 0.0000 0.0000 41.6608 0.0000 15.9122
# 5 17.7034 18.3567 28.3253 0.0000 26.7652 0.0000
# 6 0.0000 0.0000 0.0000 15.9122 0.0000 27.0581
#
#
#
# Elastic Compliance Matrix: (Units=1/GPa)
#
#
# Indices 1 2 3 4 5 6 
#
# 1 0.037027 -0.012218 -0.002886 0.000000 -0.013057 0.000000
# 2 -0.012218 0.012924 -0.000586 0.000000 -0.000162 0.000000
# 3 -0.002886 -0.000586 0.010052 0.000000 -0.008327 0.000000
# 4 0.000000 0.000000 0.000000 0.030957 0.000000 -0.018205
# 5 -0.013057 -0.000162 -0.008327 0.000000 0.054922 0.000000
# 6 0.000000 0.000000 0.000000 -0.018205 0.000000 0.047663
#
#
# Mechanical properties :
#
#
# Convention : Reuss Voigt Hill
#
# Bulk Modulus (GPa) = 34.93725 62.19465 48.56595
# Shear Modulus (GPa) = 21.32497 31.99948 26.66222
#
# Velocity S-wave (km/s) = 3.22458 3.95003 3.60560
# Velocity P-wave (km/s) = 5.55869 7.15048 6.40423
#
# Compressibility (1/GPa) = 0.02862275
#
# Stress axis : x y z
#
# Youngs Moduli (GPa) = 27.00733 77.37391 99.48137
#
# Poissons Ratio (x) = 0.94537 0.28713
# Poissons Ratio (y) = 0.32998 0.05828
# Poissons Ratio (z) = 0.07795 0.04533
#
# Static dielectric constant tensor:
#      x y z
#    x 3.218400 0.000000 0.344610 
#    y 0.000000 3.918040 0.000000 
#    z 0.344610 0.000000 4.307560 
# 
# 
# High freq. dielectric constant tensor:
#      x y z
#    x 1.740430 0.000000 0.031560 
#    y 0.000000 1.816410 0.000000 
#    z 0.031560 0.000000 1.826970 
# 
# From -- ./inp_files/191067.got.cif
#   From: 2010.06.25/outbox.cif.g09.slc.cpg/sg15_96_cif.got.tgz:191067.got - 2010.06.28 07:06:18.
