data_PCOD8136480
_publ_section_title
;
Structure prediction by ZEFSAII (Michael W. Deem and Ramdas Pophale) SiO2 
 PCOD8136480
Probable space group: C 2/C
;
_chemical_formula_sum "Si O2"
_cell_formula_units_Z 60
_cell_length_a 8.749843
_cell_length_b 11.449439
_cell_length_c 32.103041
_cell_angle_alpha 90.000000
_cell_angle_beta 101.175800
_cell_angle_gamma 90.000000
_cell_volume 3155.121411
_symmetry_space_group_name_H-M "C 2/C"
_symmetry_group_IT_number 15
_symmetry_cell_setting 'monoclinic'
loop_
_space_group_symop_operation_xyz
x,y,z
-x,y,1/2-z
-x,-y,-z
x,-y,1/2+z
1/2+x,1/2+y,z
1/2-x,1/2+y,1/2-z
1/2-x,1/2-y,-z
1/2+x,1/2-y,1/2+z
loop_
_atom_site_type_symbol
_atom_site_label
_atom_site_fract_x
_atom_site_fract_y
_atom_site_fract_z
Si Si1 0.667145 0.786870 0.183385
Si Si2 0.872899 0.562700 0.187102
Si Si3 0.366892 0.056633 0.440613
Si Si4 0.049183 0.422310 0.385340
Si Si5 0.348293 0.255298 0.547325
Si Si6 0.500000 0.676633 0.250000
Si Si7 0.783541 0.517359 0.271793
Si Si8 0.887917 0.323909 0.488784
O O1 0.791519 0.688509 0.177279
O O2 0.562136 0.820003 0.138238
O O3 0.549471 0.754420 0.213894
O O4 0.758033 0.899234 0.205912
O O5 0.845882 0.483695 0.144669
O O6 0.797250 0.496425 0.222674
O O7 0.058111 0.578007 0.203235
O O8 0.206745 0.132470 0.428488
O O9 0.493153 0.140276 0.468814
O O10 0.436785 0.020538 0.399750
O O11 0.323381 0.942323 0.464836
O O12 0.165870 0.362982 0.425252
O O13 0.250000 0.250000 0.500000
O O14 0.528425 0.257699 0.541752
O O15 0.642149 0.601282 0.274752
O O16 0.750000 0.250000 0.500000
#
# Coordination Sequence:
#
# PCOD8136480 Si02
#       8
#     8   8   8   8   8   4   8   8
#     4  10  20  36  55  79 112 146 182 225 270 317
#     4   9  19  36  56  78 109 145 179 219 269 320
#     4   9  19  35  52  75 106 135 171 219 267 320
#     4  10  20  34  54  79 111 142 179 226 273 322
#     4   9  19  37  57  77 104 141 180 224 275 323
#     4  10  20  34  58  84 110 146 184 220 264 318
#     4   9  19  36  56  80 106 140 182 220 261 315
#     4   9  18  34  57  78  99 132 174 220 270 322
#
# _framework density 19.016701000000001
#
# number of rings (size 3 to 8) (size 9 to 14) (size 15 to 20)
#    0.000    2.667    0.000    2.400    0.000    6.933 
#    0.000    6.667    0.000    3.200    0.000    0.000 
#    0.000    0.000    0.000    0.000    0.000    0.000 
#
# Total GULP energy -371806.856284 kJ/mol
# GULP energy per Si atom -12393.561876 kJ/mol
# Density = 1.897342 g / cm^3
# Si number density = 19.016701 Si / 1000 Ang^3
#
#
#
# Elastic Constant Matrix: (Units=GPa)
#
#
# Indices 1 2 3 4 5 6 
#
# 1 76.5540 50.4745 20.0435 0.0000 -11.2220 0.0000
# 2 50.4745 102.2841 40.9093 0.0000 -4.5683 0.0000
# 3 20.0435 40.9093 91.4527 0.0000 -8.0362 0.0000
# 4 0.0000 0.0000 0.0000 26.8715 0.0000 4.6696
# 5 -11.2220 -4.5683 -8.0362 0.0000 20.0160 0.0000
# 6 0.0000 0.0000 0.0000 4.6696 0.0000 31.5623
#
#
#
# Elastic Compliance Matrix: (Units=1/GPa)
#
#
# Indices 1 2 3 4 5 6 
#
# 1 0.021067 -0.010299 0.000851 0.000000 0.009802 0.000000
# 2 -0.010299 0.016948 -0.005693 0.000000 -0.004191 0.000000
# 3 0.000851 -0.005693 0.013706 0.000000 0.004681 0.000000
# 4 0.000000 0.000000 0.000000 0.038196 0.000000 -0.005651
# 5 0.009802 -0.004191 0.004681 0.000000 0.056379 0.000000
# 6 0.000000 0.000000 0.000000 -0.005651 0.000000 0.032519
#
#
# Mechanical properties :
#
#
# Convention : Reuss Voigt Hill
#
# Bulk Modulus (GPa) = 46.64008 54.79393 50.71700
# Shear Modulus (GPa) = 23.12216 26.28085 24.70150
#
# Velocity S-wave (km/s) = 3.49074 3.72154 3.60799
# Velocity P-wave (km/s) = 6.38953 6.88060 6.63961
#
# Compressibility (1/GPa) = 0.02144079
#
# Stress axis : x y z
#
# Youngs Moduli (GPa) = 47.46770 59.00269 72.96130
#
# Poissons Ratio (x) = 0.60764 -0.06209
# Poissons Ratio (y) = 0.48885 0.41534
# Poissons Ratio (z) = -0.04039 0.33588
#
# Static dielectric constant tensor:
#      x y z
#    x 3.492740 0.000000 -0.187670 
#    y 0.000000 3.582810 0.000000 
#    z -0.187670 0.000000 3.620410 
# 
# 
# High freq. dielectric constant tensor:
#      x y z
#    x 1.723140 0.000000 -0.014350 
#    y 0.000000 1.736380 0.000000 
#    z -0.014350 0.000000 1.742250 
# 
# From -- ./inp_files/307219.got.cif
#   From: 2010.06.25/outbox.cif.g09.slc.cpg/sg15_154_cif.got.tgz:307219.got - 2010.06.28 07:06:18.
