data_PCOD8136575
_publ_section_title
;
Structure prediction by ZEFSAII (Michael W. Deem and Ramdas Pophale) SiO2 
 PCOD8136575
Probable space group: C 2/C
;
_chemical_formula_sum "Si O2"
_cell_formula_units_Z 56
_cell_length_a 10.776114
_cell_length_b 19.002269
_cell_length_c 14.408215
_cell_angle_alpha 90.000000
_cell_angle_beta 102.613265
_cell_angle_gamma 90.000000
_cell_volume 2879.175310
_symmetry_space_group_name_H-M "C 2/C"
_symmetry_group_IT_number 15
_symmetry_cell_setting 'monoclinic'
loop_
_space_group_symop_operation_xyz
x,y,z
-x,y,1/2-z
-x,-y,-z
x,-y,1/2+z
1/2+x,1/2+y,z
1/2-x,1/2+y,1/2-z
1/2-x,1/2-y,-z
1/2+x,1/2-y,1/2+z
loop_
_atom_site_type_symbol
_atom_site_label
_atom_site_fract_x
_atom_site_fract_y
_atom_site_fract_z
Si Si1 0.187153 0.557802 0.220031
Si Si2 0.799040 0.266596 0.608468
Si Si3 0.248888 0.979076 0.435546
Si Si4 0.441214 0.424431 0.512018
Si Si5 0.420108 0.917403 0.610683
Si Si6 0.543965 0.369455 0.356363
Si Si7 0.901248 0.161854 0.309867
O O1 0.226006 0.487996 0.170138
O O2 0.139416 0.536293 0.314660
O O3 0.304701 0.610959 0.240258
O O4 0.071377 0.590054 0.140240
O O5 0.750000 0.250000 0.500000
O O6 0.869252 0.339971 0.618793
O O7 0.900877 0.207893 0.656015
O O8 0.677608 0.272911 0.658154
O O9 0.197205 0.053801 0.469232
O O10 0.376618 0.954060 0.508543
O O11 0.150816 0.915113 0.425865
O O12 0.500000 0.500000 0.500000
O O13 0.431131 0.375989 0.415910
O O14 0.525592 0.382490 0.600020
O O15 0.500000 0.401039 0.250000
O O16 0.000000 0.192361 0.250000
#
# Coordination Sequence:
#
# PCOD8136575 Si02
#       7
#     8   8   8   8   8   8   8
#     4  10  21  35  60  85 116 154 191 236 288 362
#     4  11  20  41  61  81 117 157 203 241 285 347
#     4  11  21  36  60  86 122 148 183 245 304 342
#     4  10  20  34  56  91 121 145 186 246 300 347
#     4  10  22  38  58  87 114 156 199 230 288 356
#     4  11  24  34  60  91 116 151 196 246 285 346
#     4  11  21  37  61  87 116 157 200 248 298 348
#
# _framework density 19.450013999999999
#
# number of rings (size 3 to 8) (size 9 to 14) (size 15 to 20)
#    0.000    1.429    4.286    3.000   10.000    0.000 
#    0.000    0.000    6.286    2.571    0.000    0.000 
#    0.000    0.000    0.000    0.000    0.000    0.000 
#
# Total GULP energy -346954.870370 kJ/mol
# GULP energy per Si atom -12391.245370 kJ/mol
# Density = 1.940575 g / cm^3
# Si number density = 19.450014 Si / 1000 Ang^3
#
#
#
# Elastic Constant Matrix: (Units=GPa)
#
#
# Indices 1 2 3 4 5 6 
#
# 1 62.7441 26.0426 26.4643 0.0000 -3.1490 0.0000
# 2 26.0426 67.3432 31.2655 0.0000 -13.7874 0.0000
# 3 26.4643 31.2655 117.6479 0.0000 -0.8780 0.0000
# 4 0.0000 0.0000 0.0000 29.1889 0.0000 -3.7695
# 5 -3.1490 -13.7874 -0.8780 0.0000 35.6470 0.0000
# 6 0.0000 0.0000 0.0000 -3.7695 0.0000 25.8547
#
#
#
# Elastic Compliance Matrix: (Units=1/GPa)
#
#
# Indices 1 2 3 4 5 6 
#
# 1 0.019760 -0.006560 -0.002708 0.000000 -0.000858 0.000000
# 2 -0.006560 0.020738 -0.003981 0.000000 0.007343 0.000000
# 3 -0.002708 -0.003981 0.010156 0.000000 -0.001529 0.000000
# 4 0.000000 0.000000 0.000000 0.034917 0.000000 0.005091
# 5 -0.000858 0.007343 -0.001529 0.000000 0.030780 0.000000
# 6 0.000000 0.000000 0.000000 0.005091 0.000000 0.039420
#
#
# Mechanical properties :
#
#
# Convention : Reuss Voigt Hill
#
# Bulk Modulus (GPa) = 41.39789 46.14220 43.77004
# Shear Modulus (GPa) = 26.27179 29.06896 27.67038
#
# Velocity S-wave (km/s) = 3.67922 3.87013 3.77588
# Velocity P-wave (km/s) = 6.27530 6.61404 6.44689
#
# Compressibility (1/GPa) = 0.02415582
#
# Stress axis : x y z
#
# Youngs Moduli (GPa) = 50.60850 48.22143 98.46824
#
# Poissons Ratio (x) = 0.31632 0.26664
# Poissons Ratio (y) = 0.33198 0.39198
# Poissons Ratio (z) = 0.13704 0.19196
#
# Static dielectric constant tensor:
#      x y z
#    x 3.994630 0.000000 -0.278520 
#    y 0.000000 3.204670 0.000000 
#    z -0.278520 0.000000 3.727450 
# 
# 
# High freq. dielectric constant tensor:
#      x y z
#    x 1.756310 0.000000 -0.003960 
#    y 0.000000 1.722840 0.000000 
#    z -0.003960 0.000000 1.773780 
# 
# From -- ./inp_files/145761.got.cif
#   From: 2010.06.25/outbox.cif.g09.slc.cpg/sg15_73_cif.got.tgz:145761.got - 2010.06.28 07:06:18.
