data_PCOD8136304
_publ_section_title
;
Structure prediction by ZEFSAII (Michael W. Deem and Ramdas Pophale) SiO2 
 PCOD8136304
Probable space group: C 2/C
;
_chemical_formula_sum "Si O2"
_cell_formula_units_Z 40
_cell_length_a 20.938243
_cell_length_b 5.349158
_cell_length_c 17.956325
_cell_angle_alpha 90.000000
_cell_angle_beta 129.720294
_cell_angle_gamma 90.000000
_cell_volume 1546.918008
_symmetry_space_group_name_H-M "C 2/C"
_symmetry_group_IT_number 15
_symmetry_cell_setting 'monoclinic'
loop_
_space_group_symop_operation_xyz
x,y,z
-x,y,1/2-z
-x,-y,-z
x,-y,1/2+z
1/2+x,1/2+y,z
1/2-x,1/2+y,1/2-z
1/2-x,1/2-y,-z
1/2+x,1/2-y,1/2+z
loop_
_atom_site_type_symbol
_atom_site_label
_atom_site_fract_x
_atom_site_fract_y
_atom_site_fract_z
Si Si1 0.166224 0.660151 0.249444
Si Si2 0.656396 0.800154 0.913228
Si Si3 0.856892 0.160997 0.353191
Si Si4 0.532478 0.375953 0.422253
Si Si5 0.519526 0.123802 0.850034
O O1 0.137640 0.689767 0.312709
O O2 0.136241 0.387220 0.200181
O O3 0.266281 0.675569 0.322712
O O4 0.127250 0.888755 0.172276
O O5 0.604010 0.576112 0.912349
O O6 0.618804 0.052056 0.925980
O O7 0.750000 0.750000 0.000000
O O8 0.928603 0.179626 0.468739
O O9 0.489832 0.651500 0.383490
O O10 0.476701 0.134846 0.352698
O O11 0.500000 0.178771 0.750000
#
# Coordination Sequence:
#
# PCOD8136304 Si02
#       5
#     8   8   8   8   8
#     4  10  20  33  53  81 124 148 183 231 298 342
#     4  10  22  37  61  93 116 146 195 251 285 335
#     4  10  20  34  52  83 118 156 179 230 295 354
#     4  10  21  37  61  83 113 153 196 235 283 342
#     4  10  22  38  61  85 114 153 196 241 287 342
#
# _framework density 25.857866999999999
#
# number of rings (size 3 to 8) (size 9 to 14) (size 15 to 20)
#    1.200    0.800    2.000    1.800    2.800    2.400 
#    0.000    0.000    0.000    7.200    0.000    0.000 
#    0.000    0.000    0.000    0.000    0.000    0.000 
#
# Total GULP energy -247853.970544 kJ/mol
# GULP energy per Si atom -12392.698527 kJ/mol
# Density = 2.579901 g / cm^3
# Si number density = 25.857867 Si / 1000 Ang^3
#
#
#
# Elastic Constant Matrix: (Units=GPa)
#
#
# Indices 1 2 3 4 5 6 
#
# 1 77.7132 29.6912 18.9960 0.0003 -11.5250 0.0011
# 2 29.6912 149.1459 58.4944 0.0049 2.3846 0.0091
# 3 18.9960 58.4944 164.6593 0.0002 -11.9982 0.0003
# 4 0.0003 0.0049 0.0002 38.3087 0.0000 -5.0371
# 5 -11.5250 2.3846 -11.9982 0.0000 48.8710 -0.0002
# 6 0.0011 0.0091 0.0003 -5.0371 -0.0002 54.1218
#
#
#
# Elastic Compliance Matrix: (Units=1/GPa)
#
#
# Indices 1 2 3 4 5 6 
#
# 1 0.014550 -0.002780 -0.000439 0.000000 0.003459 0.000000
# 2 -0.002780 0.008378 -0.002783 -0.000001 -0.001747 -0.000001
# 3 -0.000439 -0.002783 0.007244 0.000000 0.001811 0.000000
# 4 0.000000 -0.000001 0.000000 0.026427 0.000000 0.002460
# 5 0.003459 -0.001747 0.001811 0.000000 0.021808 0.000000
# 6 0.000000 -0.000001 0.000000 0.002460 0.000000 0.018706
#
#
# Mechanical properties :
#
#
# Convention : Reuss Voigt Hill
#
# Bulk Modulus (GPa) = 55.03868 67.32015 61.17941
# Shear Modulus (GPa) = 43.41346 47.21611 45.31479
#
# Velocity S-wave (km/s) = 4.10192 4.27779 4.19078
# Velocity P-wave (km/s) = 6.61556 7.10567 6.86499
#
# Compressibility (1/GPa) = 0.01816904
#
# Stress axis : x y z
#
# Youngs Moduli (GPa) = 68.72781 119.36711 138.03969
#
# Poissons Ratio (x) = 0.33180 0.06061
# Poissons Ratio (y) = 0.19104 0.38413
# Poissons Ratio (z) = 0.03018 0.33217
#
# Static dielectric constant tensor:
#      x y z
#    x 5.786690 -0.000010 -0.032400 
#    y -0.000010 4.979790 0.000000 
#    z -0.032400 0.000000 4.382970 
# 
# 
# High freq. dielectric constant tensor:
#      x y z
#    x 2.104660 0.000000 0.006370 
#    y 0.000000 2.040950 0.000000 
#    z 0.006370 0.000000 2.026500 
# 
# From -- ./inp_files/223460.got.cif
#   From: 2010.06.25/outbox.cif.g09.slc.cpg/sg15_112_cif.got.tgz:223460.got - 2010.06.28 07:06:18.
