data_PCOD8136714
_publ_section_title
;
Structure prediction by ZEFSAII (Michael W. Deem and Ramdas Pophale) SiO2 
 PCOD8136714
Probable space group: C 2/C
;
_chemical_formula_sum "Si O2"
_cell_formula_units_Z 60
_cell_length_a 23.744755
_cell_length_b 12.384306
_cell_length_c 20.852183
_cell_angle_alpha 90.000000
_cell_angle_beta 148.615242
_cell_angle_gamma 90.000000
_cell_volume 3193.355860
_symmetry_space_group_name_H-M "C 2/C"
_symmetry_group_IT_number 15
_symmetry_cell_setting 'monoclinic'
loop_
_space_group_symop_operation_xyz
x,y,z
-x,y,1/2-z
-x,-y,-z
x,-y,1/2+z
1/2+x,1/2+y,z
1/2-x,1/2+y,1/2-z
1/2-x,1/2-y,-z
1/2+x,1/2-y,1/2+z
loop_
_atom_site_type_symbol
_atom_site_label
_atom_site_fract_x
_atom_site_fract_y
_atom_site_fract_z
Si Si1 0.876049 0.057271 0.629616
Si Si2 0.314083 0.830776 0.764696
Si Si3 0.125689 0.104211 0.730249
Si Si4 0.284001 0.132970 0.511150
Si Si5 0.026057 0.593294 0.408210
Si Si6 0.295859 0.931501 0.880110
Si Si7 0.500000 0.023458 0.750000
Si Si8 0.391335 0.664996 0.514685
O O1 0.845458 0.118919 0.666011
O O2 0.852648 0.139562 0.549205
O O3 0.000000 0.019323 0.750000
O O4 0.805610 0.950733 0.552195
O O5 0.330152 0.705115 0.766276
O O6 0.410539 0.903164 0.830390
O O7 0.308531 0.845940 0.835560
O O8 0.202211 0.869843 0.624855
O O9 0.996305 0.094465 0.596765
O O10 0.183524 0.996497 0.760811
O O11 0.250000 0.250000 0.500000
O O12 0.294223 0.135005 0.444279
O O13 0.396484 0.101086 0.654006
O O14 0.103195 0.513272 0.522405
O O15 0.082675 0.709018 0.463183
O O16 0.009065 0.554832 0.319398
#
# Coordination Sequence:
#
# PCOD8136714 Si02
#       8
#     8   8   8   8   8   8   4   8
#     4   9  19  36  60  86 117 145 184 242 300 343
#     4  11  21  35  58  83 114 156 192 226 289 350
#     4   9  20  37  55  83 114 147 185 238 291 340
#     4  10  22  41  61  83 116 155 199 240 289 347
#     4  10  21  37  61  88 120 147 191 244 297 347
#     4  10  21  42  56  79 119 155 188 243 287 343
#     4  10  22  38  60  92 114 150 192 250 294 348
#     4  10  20  34  60  92 114 146 190 240 294 354
#
# _framework density 18.789012
#
# number of rings (size 3 to 8) (size 9 to 14) (size 15 to 20)
#    0.000    2.133    1.333    1.200    5.600    1.067 
#    4.800    2.667    0.000    0.000    0.000    0.000 
#    0.000    0.000    0.000    0.000    0.000    0.000 
#
# Total GULP energy -372064.059661 kJ/mol
# GULP energy per Si atom -12402.135322 kJ/mol
# Density = 1.874625 g / cm^3
# Si number density = 18.789012 Si / 1000 Ang^3
#
#
#
# Elastic Constant Matrix: (Units=GPa)
#
#
# Indices 1 2 3 4 5 6 
#
# 1 96.4016 50.2003 54.2191 0.0000 -1.5486 0.0000
# 2 50.2003 94.6469 52.6909 0.0000 1.4889 0.0000
# 3 54.2191 52.6909 120.6731 0.0000 5.6609 0.0000
# 4 0.0000 0.0000 0.0000 19.1834 0.0000 -8.6997
# 5 -1.5486 1.4889 5.6609 0.0000 24.9506 0.0000
# 6 0.0000 0.0000 0.0000 -8.6997 0.0000 23.1745
#
#
#
# Elastic Compliance Matrix: (Units=1/GPa)
#
#
# Indices 1 2 3 4 5 6 
#
# 1 0.016219 -0.005972 -0.004795 0.000000 0.002451 0.000000
# 2 -0.005972 0.016165 -0.004359 0.000000 -0.000346 0.000000
# 3 -0.004795 -0.004359 0.012479 0.000000 -0.002869 0.000000
# 4 0.000000 0.000000 0.000000 0.062824 0.000000 0.023584
# 5 0.002451 -0.000346 -0.002869 0.000000 0.040903 0.000000
# 6 0.000000 0.000000 0.000000 0.023584 0.000000 0.052004
#
#
# Mechanical properties :
#
#
# Convention : Reuss Voigt Hill
#
# Bulk Modulus (GPa) = 68.43586 69.54914 68.99250
# Shear Modulus (GPa) = 21.21194 23.76910 22.49052
#
# Velocity S-wave (km/s) = 3.36364 3.56062 3.46353
# Velocity P-wave (km/s) = 7.18247 7.34848 7.26595
#
# Compressibility (1/GPa) = 0.01461222
#
# Stress axis : x y z
#
# Youngs Moduli (GPa) = 61.65557 61.86156 80.13424
#
# Poissons Ratio (x) = 0.36943 0.38423
# Poissons Ratio (y) = 0.36820 0.34930
# Poissons Ratio (z) = 0.29563 0.26965
#
# Static dielectric constant tensor:
#      x y z
#    x 3.549350 0.000000 0.260650 
#    y 0.000000 3.174420 0.000000 
#    z 0.260650 0.000000 3.734810 
# 
# 
# High freq. dielectric constant tensor:
#      x y z
#    x 1.732910 0.000000 0.012370 
#    y 0.000000 1.710760 0.000000 
#    z 0.012370 0.000000 1.742600 
# 
# From -- ./inp_files/215189.got.cif
#   From: 2010.06.25/outbox.cif.g09.slc.cpg/sg15_108_cif.got.tgz:215189.got - 2010.06.28 07:06:18.
