data_PCOD8136539
_publ_section_title
;
Structure prediction by ZEFSAII (Michael W. Deem and Ramdas Pophale) SiO2 
 PCOD8136539
Probable space group: C 2/C
;
_chemical_formula_sum "Si O2"
_cell_formula_units_Z 64
_cell_length_a 7.756028
_cell_length_b 24.237490
_cell_length_c 17.490965
_cell_angle_alpha 90.000000
_cell_angle_beta 90.000623
_cell_angle_gamma 90.000000
_cell_volume 3288.067934
_symmetry_space_group_name_H-M "C 2/C"
_symmetry_group_IT_number 15
_symmetry_cell_setting 'monoclinic'
loop_
_space_group_symop_operation_xyz
x,y,z
-x,y,1/2-z
-x,-y,-z
x,-y,1/2+z
1/2+x,1/2+y,z
1/2-x,1/2+y,1/2-z
1/2-x,1/2-y,-z
1/2+x,1/2-y,1/2+z
loop_
_atom_site_type_symbol
_atom_site_label
_atom_site_fract_x
_atom_site_fract_y
_atom_site_fract_z
Si Si1 0.694612 0.190703 0.841056
Si Si2 0.692207 0.072433 0.339155
Si Si3 0.000004 0.994382 0.910256
Si Si4 0.500002 0.385364 0.341067
Si Si5 0.307469 0.311733 0.659673
Si Si6 0.192200 0.427567 0.660842
Si Si7 0.805391 0.309297 0.341056
Si Si8 0.807474 0.811733 0.840327
O O1 0.829767 0.145926 0.872837
O O2 0.752494 0.251687 0.871667
O O3 0.698353 0.190219 0.750000
O O4 0.500002 0.176707 0.869383
O O5 0.500003 0.048888 0.353021
O O6 0.743569 0.068910 0.249999
O O7 0.692159 0.136509 0.367222
O O8 0.827360 0.037108 0.386375
O O9 0.000007 0.053526 0.871751
O O10 0.172651 0.962891 0.886380
O O11 0.000000 0.000000 0.000000
O O12 0.500000 0.386758 0.250000
O O13 0.670237 0.354073 0.372837
O O14 0.192150 0.363490 0.632777
O O15 0.302727 0.307417 0.750000
O O16 0.499997 0.324215 0.630782
O O17 0.747511 0.248312 0.371667
#
# Coordination Sequence:
#
# PCOD8136539 Si02
#       8
#     8   8   8   8   8   8   8   8
#     4   8  15  27  47  82 116 139 165 214 282 340
#     4  10  20  35  60  90 112 139 186 243 293 334
#     4  12  26  42  56  74 114 162 203 238 277 334
#     4  10  20  34  56  80 108 144 186 228 276 338
#     4   8  13  25  49  83 119 138 161 218 286 341
#     4  10  20  35  60  90 112 139 186 243 293 334
#     4   8  15  27  47  82 116 139 165 214 282 340
#     4   8  13  25  49  83 119 138 161 218 286 341
#
# _framework density 19.464319
#
# number of rings (size 3 to 8) (size 9 to 14) (size 15 to 20)
#    0.000    2.750    1.250    2.625    1.750    1.500 
#    0.000    2.500    0.000    1.500    0.000    0.000 
#    0.000    0.000    0.000    0.000    0.000    0.000 
#
# Total GULP energy -396497.323201 kJ/mol
# GULP energy per Si atom -12390.541350 kJ/mol
# Density = 1.942002 g / cm^3
# Si number density = 19.464319 Si / 1000 Ang^3
#
#
#
# Elastic Constant Matrix: (Units=GPa)
#
#
# Indices 1 2 3 4 5 6 
#
# 1 116.1309 59.6844 14.0143 0.0000 -6.7845 0.0000
# 2 59.6844 125.1145 8.0680 0.0000 -4.2707 0.0000
# 3 14.0143 8.0680 15.5456 0.0000 -1.5400 0.0000
# 4 0.0000 0.0000 0.0000 -5.5734 0.0000 -0.0239
# 5 -6.7845 -4.2707 -1.5400 0.0000 10.5083 0.0000
# 6 0.0000 0.0000 0.0000 -0.0239 0.0000 -5.2126
#
#
#
# Elastic Compliance Matrix: (Units=1/GPa)
#
#
# Indices 1 2 3 4 5 6 
#
# 1 0.012610 -0.005328 -0.008128 0.000000 0.004785 0.000000
# 2 -0.005328 0.010601 -0.000622 0.000000 0.000777 0.000000
# 3 -0.008128 -0.000622 0.072485 0.000000 0.005122 0.000000
# 4 0.000000 0.000000 0.000000 -0.179426 0.000000 0.000823
# 5 0.004785 0.000777 0.005122 0.000000 0.099319 0.000000
# 6 0.000000 0.000000 0.000000 0.000823 0.000000 -0.191847
#
#
# Mechanical properties :
#
#
# Convention : Reuss Voigt Hill
#
# Bulk Modulus (GPa) = 14.80623 46.70272 30.75447
# Shear Modulus (GPa) = -39.81198 11.61274 -14.09962
#
# Velocity S-wave (km/s) = -4.52750 2.44522 -2.69436
# Velocity P-wave (km/s) = 4.43932 5.65847 2.48099
#
# Compressibility (1/GPa) = 0.06753915
#
# Stress axis : x y z
#
# Youngs Moduli (GPa) = 79.30480 94.33199 13.79603
#
# Poissons Ratio (x) = 0.50258 0.11214
# Poissons Ratio (y) = 0.42252 0.00858
# Poissons Ratio (z) = 0.64462 0.05865
#
# Static dielectric constant tensor:
#      x y z
#    x 3.775540 0.000000 -0.074750 
#    y 0.000000 3.812320 0.000000 
#    z -0.074750 0.000000 2.872700 
# 
# 
# High freq. dielectric constant tensor:
#      x y z
#    x 1.765610 0.000000 -0.006810 
#    y 0.000000 1.769500 0.000000 
#    z -0.006810 0.000000 1.683350 
# 
# From -- ./inp_files/192953.got.cif
#   From: 2010.06.25/outbox.cif.g09.slc.cpg/sg15_97_cif.got.tgz:192953.got - 2010.06.28 07:06:18.
