data_PCOD8136383
_publ_section_title
;
Structure prediction by ZEFSAII (Michael W. Deem and Ramdas Pophale) SiO2 
 PCOD8136383
Probable space group: C 2/C
;
_chemical_formula_sum "Si O2"
_cell_formula_units_Z 64
_cell_length_a 9.013769
_cell_length_b 20.045990
_cell_length_c 23.173545
_cell_angle_alpha 90.000000
_cell_angle_beta 46.860221
_cell_angle_gamma 90.000000
_cell_volume 3055.367447
_symmetry_space_group_name_H-M "C 2/C"
_symmetry_group_IT_number 15
_symmetry_cell_setting 'monoclinic'
loop_
_space_group_symop_operation_xyz
x,y,z
-x,y,1/2-z
-x,-y,-z
x,-y,1/2+z
1/2+x,1/2+y,z
1/2-x,1/2+y,1/2-z
1/2-x,1/2-y,-z
1/2+x,1/2-y,1/2+z
loop_
_atom_site_type_symbol
_atom_site_label
_atom_site_fract_x
_atom_site_fract_y
_atom_site_fract_z
Si Si1 0.549613 0.557390 0.410851
Si Si2 0.912696 0.021726 0.332734
Si Si3 0.154630 0.210919 0.660129
Si Si4 0.603239 0.914635 0.410646
Si Si5 0.314918 0.984813 0.936107
Si Si6 0.942762 0.205351 0.471130
Si Si7 0.917703 0.378981 0.576704
Si Si8 0.979966 0.235744 0.925805
O O1 0.584775 0.537855 0.334338
O O2 0.388744 0.504854 0.477623
O O3 0.762976 0.542059 0.385569
O O4 0.455037 0.631783 0.440677
O O5 0.799371 0.090883 0.349565
O O6 0.000000 0.992409 0.250000
O O7 0.744625 0.970744 0.403168
O O8 0.250316 0.140935 0.656062
O O9 0.341510 0.261225 0.601797
O O10 0.019914 0.200279 0.637042
O O11 0.000000 0.237607 0.750000
O O12 0.471594 0.952298 0.395967
O O13 0.457722 0.879346 0.496725
O O14 0.398830 0.919434 0.944444
O O15 0.750000 0.250000 0.500000
O O16 0.923731 0.194458 0.546035
O O17 0.902871 0.305771 0.607155
O O18 0.750000 0.250000 0.000000
#
# Coordination Sequence:
#
# PCOD8136383 Si02
#       8
#     8   8   8   8   8   8   8   8
#     4  11  21  34  56  91 120 152 194 251 308 358
#     4  11  23  37  57  87 121 156 192 243 311 373
#     4  11  24  40  63  91 123 161 209 259 317 374
#     4  11  19  39  62  84 112 156 210 246 297 369
#     4  10  20  33  59  90 114 144 202 255 297 350
#     4  11  22  38  62  90 123 164 212 256 307 373
#     4  11  18  38  62  84 109 156 209 246 289 360
#     4  10  20  37  63  88 113 161 212 253 297 368
#
# _framework density 20.946743999999999
#
# number of rings (size 3 to 8) (size 9 to 14) (size 15 to 20)
#    0.000    1.250    5.000    4.125    0.000    1.000 
#    0.000    3.125    0.000    1.500    0.000    0.000 
#    0.000    0.000    0.000    0.000    0.000    0.000 
#
# Total GULP energy -396486.709355 kJ/mol
# GULP energy per Si atom -12390.209667 kJ/mol
# Density = 2.089907 g / cm^3
# Si number density = 20.946744 Si / 1000 Ang^3
#
#
#
# Elastic Constant Matrix: (Units=GPa)
#
#
# Indices 1 2 3 4 5 6 
#
# 1 134.6086 29.0644 38.6671 0.0006 21.9409 0.0000
# 2 29.0644 65.6918 5.6452 0.0001 5.7646 0.0003
# 3 38.6671 5.6452 75.6839 0.0014 14.8266 0.0002
# 4 0.0006 0.0001 0.0014 22.0369 -0.0006 -5.0940
# 5 21.9409 5.7646 14.8266 -0.0006 29.9334 -0.0003
# 6 0.0000 0.0003 0.0002 -5.0940 -0.0003 33.3584
#
#
#
# Elastic Compliance Matrix: (Units=1/GPa)
#
#
# Indices 1 2 3 4 5 6 
#
# 1 0.010152 -0.003733 -0.003977 0.000000 -0.004753 0.000000
# 2 -0.003733 0.016884 0.000829 0.000000 -0.000926 0.000000
# 3 -0.003977 0.000829 0.016217 -0.000001 -0.005277 0.000000
# 4 0.000000 0.000000 -0.000001 0.047039 0.000002 0.007183
# 5 -0.004753 -0.000926 -0.005277 0.000002 0.039683 0.000001
# 6 0.000000 0.000000 0.000000 0.007183 0.000001 0.031074
#
#
# Mechanical properties :
#
#
# Convention : Reuss Voigt Hill
#
# Bulk Modulus (GPa) = 33.90855 46.97086 40.43970
# Shear Modulus (GPa) = 27.07949 30.57289 28.82619
#
# Velocity S-wave (km/s) = 3.59942 3.82455 3.71370
# Velocity P-wave (km/s) = 5.78771 6.47886 6.14301
#
# Compressibility (1/GPa) = 0.02949109
#
# Stress axis : x y z
#
# Youngs Moduli (GPa) = 98.50201 59.22715 61.66463
#
# Poissons Ratio (x) = 0.22108 0.24526
# Poissons Ratio (y) = 0.36769 -0.05113
# Poissons Ratio (z) = 0.39177 -0.04911
#
# Static dielectric constant tensor:
#      x y z
#    x 4.302760 0.000010 0.174630 
#    y 0.000010 3.640150 0.000000 
#    z 0.174630 0.000000 3.438220 
# 
# 
# High freq. dielectric constant tensor:
#      x y z
#    x 1.835220 0.000000 0.003620 
#    y 0.000000 1.823860 0.000000 
#    z 0.003620 0.000000 1.773050 
# 
# From -- ./inp_files/266080.got.cif
#   From: 2010.06.25/outbox.cif.g09.slc.cpg/sg15_134_cif.got.tgz:266080.got - 2010.06.28 07:06:18.
