data_PCOD8136975
_publ_section_title
;
Structure prediction by ZEFSAII (Michael W. Deem and Ramdas Pophale) SiO2 
 PCOD8136975
Probable space group: C 2/C
;
_chemical_formula_sum "Si O2"
_cell_formula_units_Z 52
_cell_length_a 12.102058
_cell_length_b 28.314849
_cell_length_c 8.718648
_cell_angle_alpha 90.000000
_cell_angle_beta 56.052172
_cell_angle_gamma 90.000000
_cell_volume 2478.353858
_symmetry_space_group_name_H-M "C 2/C"
_symmetry_group_IT_number 15
_symmetry_cell_setting 'monoclinic'
loop_
_space_group_symop_operation_xyz
x,y,z
-x,y,1/2-z
-x,-y,-z
x,-y,1/2+z
1/2+x,1/2+y,z
1/2-x,1/2+y,1/2-z
1/2-x,1/2-y,-z
1/2+x,1/2-y,1/2+z
loop_
_atom_site_type_symbol
_atom_site_label
_atom_site_fract_x
_atom_site_fract_y
_atom_site_fract_z
Si Si1 0.146753 0.531183 0.604184
Si Si2 0.346390 0.189281 0.557153
Si Si3 0.380742 0.631027 0.229625
Si Si4 0.156394 0.363101 0.144903
Si Si5 0.395946 0.705811 0.966749
Si Si6 0.500000 0.879376 0.750000
Si Si7 0.278524 0.054708 0.288878
O O1 0.170310 0.581096 0.672478
O O2 0.153198 0.536935 0.418482
O O3 0.251436 0.491835 0.584931
O O4 0.000000 0.510964 0.750000
O O5 0.283669 0.168866 0.763614
O O6 0.398709 0.242299 0.539734
O O7 0.245152 0.190330 0.493092
O O8 0.466663 0.154141 0.420574
O O9 0.500000 0.617981 0.250000
O O10 0.245467 0.647056 0.424154
O O11 0.354851 0.583639 0.149630
O O12 0.432099 0.671915 0.078715
O O13 0.000000 0.349445 0.250000
O O14 0.500000 0.702087 0.750000
O O15 0.626291 0.910653 0.691728
#
# Coordination Sequence:
#
# PCOD8136975 Si02
#       7
#     8   8   8   8   8   4   8
#     4  10  20  35  57  96 127 154 208 256 318 382
#     4  11  23  38  63  91 127 158 213 264 317 369
#     4  11  24  45  62  89 133 173 217 257 315 382
#     4  10  23  40  65  96 129 163 209 263 320 380
#     4  11  24  41  62  92 122 168 219 259 313 378
#     4  12  20  38  64  92 130 156 206 270 320 366
#     4  11  23  36  62  92 124 165 204 262 318 373
#
# _framework density 20.981667999999999
#
# number of rings (size 3 to 8) (size 9 to 14) (size 15 to 20)
#    0.000    1.231    3.077    4.154    2.154    1.231 
#    0.000    3.077    0.000    1.846    0.000    0.000 
#    0.000    0.000    0.000    0.000    0.000    0.000 
#
# Total GULP energy -322389.285015 kJ/mol
# GULP energy per Si atom -12399.587885 kJ/mol
# Density = 2.093391 g / cm^3
# Si number density = 20.981668 Si / 1000 Ang^3
#
#
#
# Elastic Constant Matrix: (Units=GPa)
#
#
# Indices 1 2 3 4 5 6 
#
# 1 87.6279 47.4778 7.5787 0.0000 9.3423 0.0000
# 2 47.4778 146.5197 44.6217 0.0000 20.7179 0.0000
# 3 7.5787 44.6217 63.7629 0.0000 7.3851 0.0000
# 4 0.0000 0.0000 0.0000 30.2516 0.0000 3.6675
# 5 9.3423 20.7179 7.3851 0.0000 30.3044 0.0000
# 6 0.0000 0.0000 0.0000 3.6675 0.0000 14.2013
#
#
#
# Elastic Compliance Matrix: (Units=1/GPa)
#
#
# Indices 1 2 3 4 5 6 
#
# 1 0.014081 -0.004958 0.001962 0.000000 -0.001429 0.000000
# 2 -0.004958 0.011084 -0.006655 0.000000 -0.004428 0.000000
# 3 0.001962 -0.006655 0.020221 0.000000 -0.000983 0.000000
# 4 0.000000 0.000000 0.000000 0.034125 0.000000 -0.008813
# 5 -0.001429 -0.004428 -0.000983 0.000000 0.036706 0.000000
# 6 0.000000 0.000000 0.000000 -0.008813 0.000000 0.072692
#
#
# Mechanical properties :
#
#
# Convention : Reuss Voigt Hill
#
# Bulk Modulus (GPa) = 38.33815 55.25188 46.79501
# Shear Modulus (GPa) = 23.05156 28.16696 25.60926
#
# Velocity S-wave (km/s) = 3.31819 3.66793 3.49743
# Velocity P-wave (km/s) = 5.74390 6.65799 6.21777
#
# Compressibility (1/GPa) = 0.02608368
#
# Stress axis : x y z
#
# Youngs Moduli (GPa) = 71.01800 90.21734 49.45394
#
# Poissons Ratio (x) = 0.44730 -0.09701
# Poissons Ratio (y) = 0.35211 0.32910
# Poissons Ratio (z) = -0.13931 0.60038
#
# Static dielectric constant tensor:
#      x y z
#    x 3.695460 0.000000 0.099060 
#    y 0.000000 4.018840 0.000000 
#    z 0.099060 0.000000 3.681740 
# 
# 
# High freq. dielectric constant tensor:
#      x y z
#    x 1.806490 0.000000 0.016530 
#    y 0.000000 1.832790 0.000000 
#    z 0.016530 0.000000 1.813960 
# 
# From -- ./inp_files/34114.got.cif
#   From: 2010.06.25/outbox.cif.g09.slc.cpg/sg15_18_cif.got.tgz:34114.got - 2010.06.28 07:06:18.
