data_PCOD8136300
_publ_section_title
;
Structure prediction by ZEFSAII (Michael W. Deem and Ramdas Pophale) SiO2 
 PCOD8136300
Probable space group: C 2/C
;
_chemical_formula_sum "Si O2"
_cell_formula_units_Z 48
_cell_length_a 17.918464
_cell_length_b 8.713822
_cell_length_c 15.718116
_cell_angle_alpha 90.000000
_cell_angle_beta 91.874990
_cell_angle_gamma 90.000000
_cell_volume 2452.886007
_symmetry_space_group_name_H-M "C 2/C"
_symmetry_group_IT_number 15
_symmetry_cell_setting 'monoclinic'
loop_
_space_group_symop_operation_xyz
x,y,z
-x,y,1/2-z
-x,-y,-z
x,-y,1/2+z
1/2+x,1/2+y,z
1/2-x,1/2+y,1/2-z
1/2-x,1/2-y,-z
1/2+x,1/2-y,1/2+z
loop_
_atom_site_type_symbol
_atom_site_label
_atom_site_fract_x
_atom_site_fract_y
_atom_site_fract_z
Si Si1 0.139974 0.803276 0.999425
Si Si2 0.182240 0.989081 0.748958
Si Si3 0.735513 0.788115 0.359294
Si Si4 0.095352 0.913302 0.401022
Si Si5 0.483393 0.178995 0.995905
Si Si6 0.464639 0.629930 0.336143
O O1 0.163002 0.698550 0.917810
O O2 0.141119 0.983011 0.971498
O O3 0.193166 0.760744 0.078732
O O4 0.058458 0.762087 0.027201
O O5 0.223947 0.852003 0.796036
O O6 0.118251 0.934681 0.681319
O O7 0.249166 0.065248 0.698351
O O8 0.144708 0.103792 0.817254
O O9 0.079100 0.744577 0.440263
O O10 0.017285 0.998042 0.377021
O O11 0.459516 0.225992 0.899678
O O12 0.500000 0.000000 0.000000
O O13 0.500000 0.692647 0.250000
#
# Coordination Sequence:
#
# PCOD8136300 Si02
#       6
#     8   8   8   8   8   8
#     4   9  19  37  54  72 101 144 179 202 254 322
#     4  10  20  33  53  80 105 140 177 214 262 307
#     4  10  20  34  54  75 104 139 175 214 252 313
#     4   9  18  35  57  75 100 139 180 213 255 317
#     4  11  21  33  55  83 107 131 168 226 273 303
#     4   9  18  36  57  75 101 139 180 216 259 315
#
# _framework density 19.568784000000001
#
# number of rings (size 3 to 8) (size 9 to 14) (size 15 to 20)
#    0.000    2.333    0.000    5.000    0.000    2.667 
#    0.000    4.167    0.000    8.000    0.000    0.000 
#    0.000    0.000    0.000    0.000    0.000    0.000 
#
# Total GULP energy -297434.921156 kJ/mol
# GULP energy per Si atom -12393.121715 kJ/mol
# Density = 1.952424 g / cm^3
# Si number density = 19.568784 Si / 1000 Ang^3
#
#
#
# Elastic Constant Matrix: (Units=GPa)
#
#
# Indices 1 2 3 4 5 6 
#
# 1 55.5145 10.6935 13.1007 0.0000 5.6684 0.0000
# 2 10.6935 66.6676 23.9420 0.0000 1.4805 0.0000
# 3 13.1007 23.9420 73.6796 0.0000 13.7276 0.0000
# 4 0.0000 0.0000 0.0000 21.6913 0.0000 -7.4383
# 5 5.6684 1.4805 13.7276 0.0000 25.4276 0.0000
# 6 0.0000 0.0000 0.0000 -7.4383 0.0000 27.0399
#
#
#
# Elastic Compliance Matrix: (Units=1/GPa)
#
#
# Indices 1 2 3 4 5 6 
#
# 1 0.019258 -0.002257 -0.002130 0.000000 -0.003012 0.000000
# 2 -0.002257 0.017359 -0.005720 0.000000 0.002581 0.000000
# 3 -0.002130 -0.005720 0.017410 0.000000 -0.008592 0.000000
# 4 0.000000 0.000000 0.000000 0.050903 0.000000 0.014003
# 5 -0.003012 0.002581 -0.008592 0.000000 0.044487 0.000000
# 6 0.000000 0.000000 0.000000 0.014003 0.000000 0.040834
#
#
# Mechanical properties :
#
#
# Convention : Reuss Voigt Hill
#
# Bulk Modulus (GPa) = 29.57411 32.37045 30.97228
# Shear Modulus (GPa) = 22.54925 24.70680 23.62802
#
# Velocity S-wave (km/s) = 3.39825 3.55711 3.47859
# Velocity P-wave (km/s) = 5.52659 5.78347 5.65649
#
# Compressibility (1/GPa) = 0.03381336
#
# Stress axis : x y z
#
# Youngs Moduli (GPa) = 51.92587 57.60766 57.43694
#
# Poissons Ratio (x) = 0.13004 0.12231
# Poissons Ratio (y) = 0.11722 0.32855
# Poissons Ratio (z) = 0.11058 0.32952
#
# Static dielectric constant tensor:
#      x y z
#    x 3.648920 0.000000 -0.100460 
#    y 0.000000 3.309370 0.000000 
#    z -0.100460 0.000000 3.869070 
# 
# 
# High freq. dielectric constant tensor:
#      x y z
#    x 1.760240 0.000000 -0.002270 
#    y 0.000000 1.722860 0.000000 
#    z -0.002270 0.000000 1.781720 
# 
# From -- ./inp_files/159717.got.cif
#   From: 2010.06.25/outbox.cif.g09.slc.cpg/sg15_80_cif.got.tgz:159717.got - 2010.06.28 07:06:18.
