data_PCOD8136026
_publ_section_title
;
Structure prediction by ZEFSAII (Michael W. Deem and Ramdas Pophale) SiO2 
 PCOD8136026
Probable space group: C 2/C
;
_chemical_formula_sum "Si O2"
_cell_formula_units_Z 36
_cell_length_a 8.102592
_cell_length_b 12.686883
_cell_length_c 13.254844
_cell_angle_alpha 90.000000
_cell_angle_beta 77.385517
_cell_angle_gamma 90.000000
_cell_volume 1329.663510
_symmetry_space_group_name_H-M "C 2/C"
_symmetry_group_IT_number 15
_symmetry_cell_setting 'monoclinic'
loop_
_space_group_symop_operation_xyz
x,y,z
-x,y,1/2-z
-x,-y,-z
x,-y,1/2+z
1/2+x,1/2+y,z
1/2-x,1/2+y,1/2-z
1/2-x,1/2-y,-z
1/2+x,1/2-y,1/2+z
loop_
_atom_site_type_symbol
_atom_site_label
_atom_site_fract_x
_atom_site_fract_y
_atom_site_fract_z
Si Si1 0.641692 0.351923 0.506445
Si Si2 0.131950 0.185644 0.314163
Si Si3 0.882966 0.527849 0.107041
Si Si4 0.167861 0.061150 0.779533
Si Si5 0.500000 0.185148 0.250000
O O1 0.750000 0.250000 0.500000
O O2 0.448900 0.319413 0.562189
O O3 0.703800 0.433612 0.583181
O O4 0.669068 0.396985 0.391984
O O5 0.316007 0.248852 0.282265
O O6 0.000000 0.234400 0.250000
O O7 0.177773 0.066495 0.277427
O O8 0.836323 0.425067 0.184911
O O9 0.991168 0.616760 0.149888
O O10 0.000000 0.500000 0.000000
O O11 0.000000 0.107972 0.750000
#
# Coordination Sequence:
#
# PCOD8136026 Si02
#       5
#     8   8   8   8   4
#     4  12  25  44  68 107 148 181 227 314 375 397
#     4  10  19  42  71 100 136 186 240 289 342 433
#     4  11  22  41  66 103 137 185 242 288 340 436
#     4  10  21  41  72 100 132 194 245 281 346 440
#     4  10  20  36  68  98 126 186 238 282 338 414
#
# _framework density 27.074518000000001
#
# number of rings (size 3 to 8) (size 9 to 14) (size 15 to 20)
#    0.000    1.333    6.667    3.333    3.111    0.000 
#    6.000    1.111    0.000    0.000    0.000    0.000 
#    0.000    0.000    0.000    0.000    0.000    0.000 
#
# Total GULP energy -222989.777457 kJ/mol
# GULP energy per Si atom -12388.320970 kJ/mol
# Density = 2.701290 g / cm^3
# Si number density = 27.074518 Si / 1000 Ang^3
#
#
#
# Elastic Constant Matrix: (Units=GPa)
#
#
# Indices 1 2 3 4 5 6 
#
# 1 200.1446 32.3526 87.8063 0.0000 -26.9309 0.0000
# 2 32.3526 17.7624 28.0161 0.0000 -3.5183 0.0000
# 3 87.8063 28.0161 247.5547 0.0000 -28.4336 0.0000
# 4 0.0000 0.0000 0.0000 -11.2840 0.0000 22.5132
# 5 -26.9309 -3.5183 -28.4336 0.0000 71.6193 0.0000
# 6 0.0000 0.0000 0.0000 22.5132 0.0000 17.0834
#
#
#
# Elastic Compliance Matrix: (Units=1/GPa)
#
#
# Indices 1 2 3 4 5 6 
#
# 1 0.007655 -0.011721 -0.001178 0.000000 0.001835 0.000000
# 2 -0.011721 0.086486 -0.005918 0.000000 -0.002509 0.000000
# 3 -0.001178 -0.005918 0.005284 0.000000 0.001364 0.000000
# 4 0.000000 0.000000 0.000000 -0.024418 0.000000 0.032179
# 5 0.001835 -0.002509 0.001364 0.000000 0.015071 0.000000
# 6 0.000000 0.000000 0.000000 0.032179 0.000000 0.016129
#
#
# Mechanical properties :
#
#
# Convention : Reuss Voigt Hill
#
# Bulk Modulus (GPa) = 16.18399 84.64575 50.41487
# Shear Modulus (GPa) = 30.40675 36.63618 33.52147
#
# Velocity S-wave (km/s) = 3.35487 3.68252 3.52251
# Velocity P-wave (km/s) = 4.58229 7.02945 5.93340
#
# Compressibility (1/GPa) = 0.06178947
#
# Stress axis : x y z
#
# Youngs Moduli (GPa) = 130.63862 11.56259 189.25959
#
# Poissons Ratio (x) = 0.13553 0.22291
# Poissons Ratio (y) = 1.53124 1.12012
# Poissons Ratio (z) = 0.15387 0.06843
#
# Static dielectric constant tensor:
#      x y z
#    x 5.731970 0.000000 -0.346050 
#    y 0.000000 6.546960 0.000000 
#    z -0.346050 0.000000 1.185790 
# 
# 
# High freq. dielectric constant tensor:
#      x y z
#    x 2.101620 0.000000 -0.023570 
#    y 0.000000 2.082330 0.000000 
#    z -0.023570 0.000000 2.116620 
# 
# From -- ./inp_files/76343.got.cif
#   From: 2010.06.25/outbox.cif.g09.slc.cpg/sg15_39_cif.got.tgz:76343.got - 2010.06.28 07:06:18.
