data_PCOD8136775
_publ_section_title
;
Structure prediction by ZEFSAII (Michael W. Deem and Ramdas Pophale) SiO2 
 PCOD8136775
Probable space group: C 2/C
;
_chemical_formula_sum "Si O2"
_cell_formula_units_Z 52
_cell_length_a 10.293356
_cell_length_b 18.231832
_cell_length_c 14.435050
_cell_angle_alpha 90.000000
_cell_angle_beta 114.738346
_cell_angle_gamma 90.000000
_cell_volume 2460.371181
_symmetry_space_group_name_H-M "C 2/C"
_symmetry_group_IT_number 15
_symmetry_cell_setting 'monoclinic'
loop_
_space_group_symop_operation_xyz
x,y,z
-x,y,1/2-z
-x,-y,-z
x,-y,1/2+z
1/2+x,1/2+y,z
1/2-x,1/2+y,1/2-z
1/2-x,1/2-y,-z
1/2+x,1/2-y,1/2+z
loop_
_atom_site_type_symbol
_atom_site_label
_atom_site_fract_x
_atom_site_fract_y
_atom_site_fract_z
Si Si1 0.893630 0.506715 0.831459
Si Si2 0.313898 0.680934 0.966741
Si Si3 0.218160 0.964689 0.947178
Si Si4 0.638134 0.172567 0.736682
Si Si5 0.799960 0.441793 0.627509
Si Si6 0.500000 0.403839 0.750000
Si Si7 0.628029 0.686536 0.131691
O O1 0.849359 0.491706 0.923230
O O2 0.902538 0.593625 0.817179
O O3 0.777103 0.474967 0.723857
O O4 0.040908 0.462767 0.858293
O O5 0.273809 0.675161 0.846300
O O6 0.250000 0.750000 0.000000
O O7 0.239195 0.612904 0.995988
O O8 0.485423 0.679621 0.026802
O O9 0.076187 0.958202 0.844414
O O10 0.189886 0.021882 0.021888
O O11 0.500000 0.202514 0.750000
O O12 0.669591 0.228516 0.661109
O O13 0.760022 0.355150 0.619366
O O14 0.392122 0.351427 0.773896
#
# Coordination Sequence:
#
# PCOD8136775 Si02
#       7
#     8   8   8   8   8   4   8
#     4  11  23  41  67  96 129 175 228 270 327 402
#     4  11  22  37  68 101 124 171 218 276 337 390
#     4  11  22  40  63  95 132 169 223 271 332 400
#     4  12  20  40  65  96 130 170 226 274 316 400
#     4  11  23  40  64  99 127 174 217 276 328 395
#     4  10  20  34  64  92 124 166 206 278 332 376
#     4  11  23  40  62  99 135 161 218 280 337 385
#
# _framework density 21.135021999999999
#
# number of rings (size 3 to 8) (size 9 to 14) (size 15 to 20)
#    0.000    0.923    6.923    1.385    0.000    3.692 
#    0.000    0.769    0.000    1.846    0.000    0.000 
#    0.000    0.000    0.000    0.000    0.000    0.000 
#
# Total GULP energy -322293.756418 kJ/mol
# GULP energy per Si atom -12395.913708 kJ/mol
# Density = 2.108692 g / cm^3
# Si number density = 21.135022 Si / 1000 Ang^3
#
#
#
# Elastic Constant Matrix: (Units=GPa)
#
#
# Indices 1 2 3 4 5 6 
#
# 1 60.2677 65.8736 35.6665 0.0000 2.6290 0.0000
# 2 65.8736 151.6473 43.4291 0.0000 2.8373 0.0000
# 3 35.6665 43.4291 112.9729 0.0000 17.1163 0.0000
# 4 0.0000 0.0000 0.0000 32.9612 0.0000 -0.6222
# 5 2.6290 2.8373 17.1163 0.0000 23.3505 0.0000
# 6 0.0000 0.0000 0.0000 -0.6222 0.0000 32.7117
#
#
#
# Elastic Compliance Matrix: (Units=1/GPa)
#
#
# Indices 1 2 3 4 5 6 
#
# 1 0.034771 -0.013378 -0.006173 0.000000 0.002236 0.000000
# 2 -0.013378 0.012594 -0.000691 0.000000 0.000482 0.000000
# 3 -0.006173 -0.000691 0.012316 0.000000 -0.008249 0.000000
# 4 0.000000 0.000000 0.000000 0.030350 0.000000 0.000577
# 5 0.002236 0.000482 -0.008249 0.000000 0.048562 0.000000
# 6 0.000000 0.000000 0.000000 0.000577 0.000000 0.030581
#
#
# Mechanical properties :
#
#
# Convention : Reuss Voigt Hill
#
# Bulk Modulus (GPa) = 52.09313 68.31403 60.20358
# Shear Modulus (GPa) = 23.14199 29.79926 26.47062
#
# Velocity S-wave (km/s) = 3.31261 3.75900 3.54284
# Velocity P-wave (km/s) = 6.27156 7.15772 6.72924
#
# Compressibility (1/GPa) = 0.01919639
#
# Stress axis : x y z
#
# Youngs Moduli (GPa) = 28.75976 79.40097 81.19411
#
# Poissons Ratio (x) = 1.06221 0.50125
# Poissons Ratio (y) = 0.38474 0.05611
# Poissons Ratio (z) = 0.17755 0.05488
#
# Static dielectric constant tensor:
#      x y z
#    x 3.433930 0.000000 0.039510 
#    y 0.000000 3.876070 0.000000 
#    z 0.039510 0.000000 4.307440 
# 
# 
# High freq. dielectric constant tensor:
#      x y z
#    x 1.788370 0.000000 0.009930 
#    y 0.000000 1.828800 0.000000 
#    z 0.009930 0.000000 1.849580 
# 
# From -- ./inp_files/145797.got.cif
#   From: 2010.06.25/outbox.cif.g09.slc.cpg/sg15_73_cif.got.tgz:145797.got - 2010.06.28 07:06:18.
