data_PCOD8136859
_publ_section_title
;
Structure prediction by ZEFSAII (Michael W. Deem and Ramdas Pophale) SiO2 
 PCOD8136859
Probable space group: C 2/C
;
_chemical_formula_sum "Si O2"
_cell_formula_units_Z 56
_cell_length_a 8.578224
_cell_length_b 14.651289
_cell_length_c 27.753419
_cell_angle_alpha 90.000000
_cell_angle_beta 56.366156
_cell_angle_gamma 90.000000
_cell_volume 2904.177109
_symmetry_space_group_name_H-M "C 2/C"
_symmetry_group_IT_number 15
_symmetry_cell_setting 'monoclinic'
loop_
_space_group_symop_operation_xyz
x,y,z
-x,y,1/2-z
-x,-y,-z
x,-y,1/2+z
1/2+x,1/2+y,z
1/2-x,1/2+y,1/2-z
1/2-x,1/2-y,-z
1/2+x,1/2-y,1/2+z
loop_
_atom_site_type_symbol
_atom_site_label
_atom_site_fract_x
_atom_site_fract_y
_atom_site_fract_z
Si Si1 0.076018 0.353501 0.627918
Si Si2 0.811729 0.296688 0.391378
Si Si3 0.674638 0.555400 0.691162
Si Si4 0.042952 0.537587 0.686147
Si Si5 0.057238 0.701148 0.027435
Si Si6 0.665397 0.345509 0.688940
Si Si7 0.144139 0.686141 0.908790
O O1 0.128289 0.445933 0.647286
O O2 0.042379 0.368772 0.575535
O O3 0.239976 0.281151 0.609819
O O4 0.865936 0.323051 0.680545
O O5 0.813853 0.380787 0.352505
O O6 0.601178 0.280784 0.446822
O O7 0.864205 0.202839 0.356622
O O8 0.957377 0.308466 0.409340
O O9 0.500000 0.597625 0.750000
O O10 0.636044 0.451874 0.682993
O O11 0.711500 0.611684 0.636216
O O12 0.847317 0.564860 0.697045
O O13 0.000000 0.525120 0.750000
O O14 0.250000 0.750000 0.000000
O O15 0.067860 0.651764 0.973735
O O16 0.500000 0.306650 0.750000
#
# Coordination Sequence:
#
# PCOD8136859 Si02
#       7
#     8   8   8   8   8   8   8
#     4   9  20  36  54  78 107 140 177 217 263 316
#     4  10  20  35  55  80 106 138 180 222 268 318
#     4   9  20  35  53  79 109 140 179 219 266 323
#     4  10  21  36  54  79 111 142 175 219 269 320
#     4   9  19  38  57  75 106 143 180 221 265 317
#     4   9  18  35  53  74 107 144 175 215 267 321
#     4  10  20  35  56  81 106 139 179 225 269 315
#
# _framework density 19.282571000000001
#
# number of rings (size 3 to 8) (size 9 to 14) (size 15 to 20)
#    0.000    2.571    0.000    0.857    0.000    9.714 
#    0.000   15.714    0.000    0.000    0.000    0.000 
#    0.000    0.000    0.000    0.000    0.000    0.000 
#
# Total GULP energy -346909.318153 kJ/mol
# GULP energy per Si atom -12389.618505 kJ/mol
# Density = 1.923868 g / cm^3
# Si number density = 19.282571 Si / 1000 Ang^3
#
#
#
# Elastic Constant Matrix: (Units=GPa)
#
#
# Indices 1 2 3 4 5 6 
#
# 1 66.7873 25.5459 45.6349 0.0000 -5.5955 0.0001
# 2 25.5459 72.6223 55.4998 0.0000 8.0837 0.0000
# 3 45.6349 55.4998 136.7246 0.0001 1.7015 0.0000
# 4 0.0000 0.0000 0.0001 27.0805 0.0000 4.6775
# 5 -5.5955 8.0837 1.7015 0.0000 39.7665 -0.0001
# 6 0.0001 0.0000 0.0000 4.6775 -0.0001 17.9901
#
#
#
# Elastic Compliance Matrix: (Units=1/GPa)
#
#
# Indices 1 2 3 4 5 6 
#
# 1 0.020313 -0.003406 -0.005444 0.000000 0.003783 0.000000
# 2 -0.003406 0.021097 -0.007372 0.000000 -0.004452 0.000000
# 3 -0.005444 -0.007372 0.012121 0.000000 0.000214 0.000000
# 4 0.000000 0.000000 0.000000 0.038663 0.000000 -0.010053
# 5 0.003783 -0.004452 0.000214 0.000000 0.026575 0.000000
# 6 0.000000 0.000000 0.000000 -0.010053 0.000000 0.058200
#
#
# Mechanical properties :
#
#
# Convention : Reuss Voigt Hill
#
# Bulk Modulus (GPa) = 47.42245 58.83284 53.12765
# Shear Modulus (GPa) = 23.10094 26.93099 25.01597
#
# Velocity S-wave (km/s) = 3.46500 3.74123 3.60576
# Velocity P-wave (km/s) = 6.37614 7.01709 6.70428
#
# Compressibility (1/GPa) = 0.02108706
#
# Stress axis : x y z
#
# Youngs Moduli (GPa) = 49.23040 47.39990 82.50224
#
# Poissons Ratio (x) = 0.16142 0.44918
# Poissons Ratio (y) = 0.16766 0.60818
# Poissons Ratio (z) = 0.26803 0.34942
#
# Static dielectric constant tensor:
#      x y z
#    x 3.559370 0.000000 0.017230 
#    y 0.000000 3.480360 0.000000 
#    z 0.017230 0.000000 5.160910 
# 
# 
# High freq. dielectric constant tensor:
#      x y z
#    x 1.751260 0.000000 -0.009950 
#    y 0.000000 1.730360 0.000000 
#    z -0.009950 0.000000 1.763960 
# 
# From -- ./inp_files/264203.got.cif
#   From: 2010.06.25/outbox.cif.g09.slc.cpg/sg15_133_cif.got.tgz:264203.got - 2010.06.28 07:06:18.
