data_PCOD8136251
_publ_section_title
;
Structure prediction by ZEFSAII (Michael W. Deem and Ramdas Pophale) SiO2 
 PCOD8136251
Probable space group: C 2/C
;
_chemical_formula_sum "Si O2"
_cell_formula_units_Z 48
_cell_length_a 11.763520
_cell_length_b 14.327811
_cell_length_c 29.911021
_cell_angle_alpha 90.000000
_cell_angle_beta 30.103400
_cell_angle_gamma 90.000000
_cell_volume 2528.558861
_symmetry_space_group_name_H-M "C 2/C"
_symmetry_group_IT_number 15
_symmetry_cell_setting 'monoclinic'
loop_
_space_group_symop_operation_xyz
x,y,z
-x,y,1/2-z
-x,-y,-z
x,-y,1/2+z
1/2+x,1/2+y,z
1/2-x,1/2+y,1/2-z
1/2-x,1/2-y,-z
1/2+x,1/2-y,1/2+z
loop_
_atom_site_type_symbol
_atom_site_label
_atom_site_fract_x
_atom_site_fract_y
_atom_site_fract_z
Si Si1 0.090450 0.314440 0.428648
Si Si2 0.928297 0.739637 0.378259
Si Si3 0.741086 0.657367 0.925400
Si Si4 0.205218 0.067079 0.030526
Si Si5 0.562444 0.375231 0.047935
Si Si6 0.375673 0.275719 0.676379
O O1 0.303859 0.318224 0.389531
O O2 0.177605 0.276638 0.351663
O O3 0.915400 0.244253 0.510087
O O4 0.952481 0.412421 0.469108
O O5 0.769628 0.651528 0.444352
O O6 0.003359 0.788328 0.398501
O O7 0.143385 0.696546 0.279604
O O8 0.659601 0.606067 0.907529
O O9 0.991821 0.702328 0.836519
O O10 0.726151 0.584612 0.970619
O O11 0.015290 0.130044 0.119102
O O12 0.129292 0.959701 0.058358
#
# Coordination Sequence:
#
# PCOD8136251 Si02
#       6
#     8   8   8   8   8   8
#     4   8  16  32  54  74  96 138 177 206 256 311
#     4  10  20  33  50  73 108 143 169 210 265 319
#     4   8  16  32  54  74 101 136 167 211 264 313
#     4   9  17  33  55  78 100 134 179 219 253 303
#     4  10  20  33  50  77 109 138 169 211 269 313
#     4   9  17  33  55  73  99 138 180 213 254 312
#
# _framework density 18.983143999999999
#
# number of rings (size 3 to 8) (size 9 to 14) (size 15 to 20)
#    0.000    3.000    0.000    3.000    0.000    1.333 
#    6.000    0.000    7.333    0.000    0.000    0.000 
#    0.000    0.000    0.000    0.000    0.000    0.000 
#
# Total GULP energy -297374.490243 kJ/mol
# GULP energy per Si atom -12390.603760 kJ/mol
# Density = 1.893994 g / cm^3
# Si number density = 18.983144 Si / 1000 Ang^3
#
#
#
# Elastic Constant Matrix: (Units=GPa)
#
#
# Indices 1 2 3 4 5 6 
#
# 1 74.0018 17.9569 40.7884 0.0037 -7.2873 0.0019
# 2 17.9569 62.9685 14.7501 0.0042 -1.3377 -0.0002
# 3 40.7884 14.7501 88.3112 0.0046 -0.4041 0.0037
# 4 0.0037 0.0042 0.0046 13.2648 0.0033 1.0097
# 5 -7.2873 -1.3377 -0.4041 0.0033 14.3384 -0.0034
# 6 0.0019 -0.0002 0.0037 1.0097 -0.0034 27.3445
#
#
#
# Elastic Compliance Matrix: (Units=1/GPa)
#
#
# Indices 1 2 3 4 5 6 
#
# 1 0.020074 -0.003495 -0.008644 -0.000004 0.009633 0.000001
# 2 -0.003495 0.017167 -0.001254 -0.000004 -0.000210 0.000001
# 3 -0.008644 -0.001254 0.015507 -0.000001 -0.004073 -0.000002
# 4 -0.000004 -0.000004 -0.000001 0.075600 -0.000020 -0.002792
# 5 0.009633 -0.000210 -0.004073 -0.000020 0.074504 0.000010
# 6 0.000001 0.000001 -0.000002 -0.002792 0.000010 0.036674
#
#
# Mechanical properties :
#
#
# Convention : Reuss Voigt Hill
#
# Bulk Modulus (GPa) = 38.51789 41.36358 39.94073
# Shear Modulus (GPa) = 18.18410 21.10861 19.64636
#
# Velocity S-wave (km/s) = 3.09837 3.33823 3.22053
# Velocity P-wave (km/s) = 5.75625 6.05767 5.90888
#
# Compressibility (1/GPa) = 0.02596197
#
# Stress axis : x y z
#
# Youngs Moduli (GPa) = 49.81514 58.25145 64.48811
#
# Poissons Ratio (x) = 0.20360 0.55742
# Poissons Ratio (y) = 0.17411 0.08086
# Poissons Ratio (z) = 0.43059 0.07304
#
# Static dielectric constant tensor:
#      x y z
#    x 5.073350 -0.000170 -0.192710 
#    y -0.000170 3.138490 0.000020 
#    z -0.192710 0.000020 3.220210 
# 
# 
# High freq. dielectric constant tensor:
#      x y z
#    x 1.748540 0.000000 0.000050 
#    y 0.000000 1.704280 0.000000 
#    z 0.000050 0.000000 1.716150 
# 
# From -- ./inp_files/143454.got.cif
#   From: 2010.06.25/outbox.cif.g09.slc.cpg/sg15_72_cif.got.tgz:143454.got - 2010.06.28 07:06:18.
