data_PCOD8136782
_publ_section_title
;
Structure prediction by ZEFSAII (Michael W. Deem and Ramdas Pophale) SiO2 
 PCOD8136782
Probable space group: C 2/C
;
_chemical_formula_sum "Si O2"
_cell_formula_units_Z 48
_cell_length_a 11.238705
_cell_length_b 16.247101
_cell_length_c 13.585719
_cell_angle_alpha 90.000000
_cell_angle_beta 90.641528
_cell_angle_gamma 90.000000
_cell_volume 2480.547546
_symmetry_space_group_name_H-M "C 2/C"
_symmetry_group_IT_number 15
_symmetry_cell_setting 'monoclinic'
loop_
_space_group_symop_operation_xyz
x,y,z
-x,y,1/2-z
-x,-y,-z
x,-y,1/2+z
1/2+x,1/2+y,z
1/2-x,1/2+y,1/2-z
1/2-x,1/2-y,-z
1/2+x,1/2-y,1/2+z
loop_
_atom_site_type_symbol
_atom_site_label
_atom_site_fract_x
_atom_site_fract_y
_atom_site_fract_z
Si Si1 0.541300 0.627523 0.641556
Si Si2 0.729410 0.486888 0.602181
Si Si3 0.741441 0.746249 0.616280
Si Si4 0.865837 0.893335 0.726961
Si Si5 0.365639 0.897369 0.220987
Si Si6 0.690815 0.556760 0.889145
O O1 0.500000 0.604345 0.750000
O O2 0.633013 0.560171 0.602421
O O3 0.605001 0.717189 0.638996
O O4 0.417238 0.619278 0.580322
O O5 0.687598 0.408563 0.664961
O O6 0.848874 0.521015 0.654750
O O7 0.759305 0.463398 0.490619
O O8 0.750000 0.750000 0.500000
O O9 0.778253 0.831250 0.668448
O O10 0.836179 0.681490 0.656337
O O11 0.000000 0.860888 0.750000
O O12 0.867221 0.976152 0.661686
O O13 0.500000 0.891122 0.250000
O O14 0.281893 0.898989 0.316576
#
# Coordination Sequence:
#
# PCOD8136782 Si02
#       6
#     8   8   8   8   8   8
#     4  11  18  40  63  91 124 162 202 263 310 362
#     4  10  20  34  65  95 113 154 215 260 297 363
#     4  11  24  38  58  89 124 165 201 254 319 366
#     4  11  20  35  58  94 123 154 214 259 290 365
#     4  10  22  42  59  83 130 167 199 252 324 373
#     4  11  20  38  68  93 118 163 214 259 305 364
#
# _framework density 19.350566000000001
#
# number of rings (size 3 to 8) (size 9 to 14) (size 15 to 20)
#    0.000    1.333    6.667    3.000    2.333    0.667 
#    0.000    5.833    0.000    0.000    0.000    0.000 
#    0.000    0.000    0.000    0.000    0.000    0.000 
#
# Total GULP energy -297428.499635 kJ/mol
# GULP energy per Si atom -12392.854151 kJ/mol
# Density = 1.930652 g / cm^3
# Si number density = 19.350566 Si / 1000 Ang^3
#
#
#
# Elastic Constant Matrix: (Units=GPa)
#
#
# Indices 1 2 3 4 5 6 
#
# 1 130.8109 52.8972 41.1559 0.0000 12.2429 0.0000
# 2 52.8972 79.0412 39.4069 0.0000 0.0931 0.0000
# 3 41.1559 39.4069 141.7650 0.0000 12.6695 0.0000
# 4 0.0000 0.0000 0.0000 27.4849 0.0000 6.3728
# 5 12.2429 0.0931 12.6695 0.0000 10.2102 0.0000
# 6 0.0000 0.0000 0.0000 6.3728 0.0000 29.1030
#
#
#
# Elastic Compliance Matrix: (Units=1/GPa)
#
#
# Indices 1 2 3 4 5 6 
#
# 1 0.012364 -0.008273 0.000032 0.000000 -0.014790 0.000000
# 2 -0.008273 0.020508 -0.004689 0.000000 0.015551 0.000000
# 3 0.000032 -0.004689 0.009389 0.000000 -0.011646 0.000000
# 4 0.000000 0.000000 0.000000 0.038330 0.000000 -0.008393
# 5 -0.014790 0.015551 -0.011646 0.000000 0.129985 0.000000
# 6 0.000000 0.000000 0.000000 -0.008393 0.000000 0.036199
#
#
# Mechanical properties :
#
#
# Convention : Reuss Voigt Hill
#
# Bulk Modulus (GPa) = 60.97141 68.72636 64.84888
# Shear Modulus (GPa) = 17.97913 27.90342 22.94127
#
# Velocity S-wave (km/s) = 3.05146 3.80148 3.44693
# Velocity P-wave (km/s) = 6.63268 7.40688 7.03045
#
# Compressibility (1/GPa) = 0.01640113
#
# Stress axis : x y z
#
# Youngs Moduli (GPa) = 80.87810 48.76253 106.51103
#
# Poissons Ratio (x) = 0.40342 -0.00341
# Poissons Ratio (y) = 0.66912 0.49938
# Poissons Ratio (z) = -0.00259 0.22863
#
# Static dielectric constant tensor:
#      x y z
#    x 4.437300 0.000000 0.283200 
#    y 0.000000 3.504180 0.000000 
#    z 0.283200 0.000000 3.671090 
# 
# 
# High freq. dielectric constant tensor:
#      x y z
#    x 1.743230 0.000000 0.010260 
#    y 0.000000 1.730980 0.000000 
#    z 0.010260 0.000000 1.763300 
# 
# From -- ./inp_files/143529.got.cif
#   From: 2010.06.25/outbox.cif.g09.slc.cpg/sg15_72_cif.got.tgz:143529.got - 2010.06.28 07:06:18.
