data_PCOD8136079
_publ_section_title
;
Structure prediction by ZEFSAII (Michael W. Deem and Ramdas Pophale) SiO2 
 PCOD8136079
Probable space group: C 2/C
;
_chemical_formula_sum "Si O2"
_cell_formula_units_Z 56
_cell_length_a 10.156097
_cell_length_b 29.407010
_cell_length_c 12.775410
_cell_angle_alpha 90.000000
_cell_angle_beta 52.368262
_cell_angle_gamma 90.000000
_cell_volume 3021.698752
_symmetry_space_group_name_H-M "C 2/C"
_symmetry_group_IT_number 15
_symmetry_cell_setting 'monoclinic'
loop_
_space_group_symop_operation_xyz
x,y,z
-x,y,1/2-z
-x,-y,-z
x,-y,1/2+z
1/2+x,1/2+y,z
1/2-x,1/2+y,1/2-z
1/2-x,1/2-y,-z
1/2+x,1/2-y,1/2+z
loop_
_atom_site_type_symbol
_atom_site_label
_atom_site_fract_x
_atom_site_fract_y
_atom_site_fract_z
Si Si1 0.105028 0.486435 0.793087
Si Si2 0.818174 0.551105 0.571052
Si Si3 0.893410 0.044772 0.022527
Si Si4 0.648416 0.848802 0.453033
Si Si5 0.871365 0.311928 0.717044
Si Si6 0.402991 0.353236 0.520081
Si Si7 0.873990 0.791031 0.214915
O O1 0.206905 0.523049 0.810456
O O2 0.233702 0.452294 0.675953
O O3 0.000000 0.510204 0.750000
O O4 0.989399 0.458590 0.927692
O O5 0.661788 0.540524 0.571895
O O6 0.833016 0.601868 0.606895
O O7 0.975310 0.094940 0.998213
O O8 0.000000 0.000000 0.000000
O O9 0.459081 0.838286 0.578603
O O10 0.767837 0.849834 0.494903
O O11 0.701897 0.812363 0.339804
O O12 0.694744 0.335805 0.828990
O O13 0.837842 0.260234 0.696790
O O14 0.000000 0.311728 0.750000
O O15 0.555519 0.319827 0.417826
O O16 0.000000 0.792712 0.250000
#
# Coordination Sequence:
#
# PCOD8136079 Si02
#       7
#     8   8   8   8   8   8   8
#     4   9  18  33  49  66  89 123 162 201 240 281
#     4   9  18  32  49  66  91 127 163 203 232 282
#     4  10  20  30  45  69  97 132 163 193 240 289
#     4   9  16  25  41  60  83 120 157 185 231 283
#     4   9  15  25  40  58  85 123 159 190 227 283
#     4   9  17  27  38  58  90 122 154 190 233 282
#     4   9  16  24  37  60  88 119 153 191 234 279
#
# _framework density 18.532622
#
# number of rings (size 3 to 8) (size 9 to 14) (size 15 to 20)
#    0.000    2.857    0.000    1.714    2.000    7.429 
#    0.000    0.000    0.000    0.000    0.000    0.000 
#    0.000    1.143   12.571    1.571    2.857    0.000 
#
# Total GULP energy -346950.744548 kJ/mol
# GULP energy per Si atom -12391.098020 kJ/mol
# Density = 1.849044 g / cm^3
# Si number density = 18.532622 Si / 1000 Ang^3
#
#
#
# Elastic Constant Matrix: (Units=GPa)
#
#
# Indices 1 2 3 4 5 6 
#
# 1 31.4970 27.2413 9.4954 0.0000 4.8648 0.0000
# 2 27.2413 131.2756 27.1263 0.0000 -1.5193 0.0000
# 3 9.4954 27.1263 82.4688 0.0000 -2.9430 0.0000
# 4 0.0000 0.0000 0.0000 28.9393 0.0000 -1.6107
# 5 4.8648 -1.5193 -2.9430 0.0000 13.6992 0.0000
# 6 0.0000 0.0000 0.0000 -1.6107 0.0000 13.8539
#
#
#
# Elastic Compliance Matrix: (Units=1/GPa)
#
#
# Indices 1 2 3 4 5 6 
#
# 1 0.042421 -0.008437 -0.002701 0.000000 -0.016580 0.000000
# 2 -0.008437 0.009852 -0.002140 0.000000 0.003629 0.000000
# 3 -0.002701 -0.002140 0.013268 0.000000 0.003572 0.000000
# 4 0.000000 0.000000 0.000000 0.034780 0.000000 0.004044
# 5 -0.016580 0.003629 0.003572 0.000000 0.080055 0.000000
# 6 0.000000 0.000000 0.000000 0.004044 0.000000 0.072652
#
#
# Mechanical properties :
#
#
# Convention : Reuss Voigt Hill
#
# Bulk Modulus (GPa) = 25.64985 41.44083 33.54534
# Shear Modulus (GPa) = 17.08941 23.39035 20.23988
#
# Velocity S-wave (km/s) = 3.03995 3.55648 3.30831
# Velocity P-wave (km/s) = 5.11782 6.26692 5.72130
#
# Compressibility (1/GPa) = 0.03898658
#
# Stress axis : x y z
#
# Youngs Moduli (GPa) = 23.57330 101.49769 75.36867
#
# Poissons Ratio (x) = 0.85630 0.20357
# Poissons Ratio (y) = 0.19888 0.16128
# Poissons Ratio (z) = 0.06367 0.21719
#
# Static dielectric constant tensor:
#      x y z
#    x 2.816610 0.000000 -0.032920 
#    y 0.000000 3.596950 0.000000 
#    z -0.032920 0.000000 3.577580 
# 
# 
# High freq. dielectric constant tensor:
#      x y z
#    x 1.631220 0.000000 -0.006450 
#    y 0.000000 1.728810 0.000000 
#    z -0.006450 0.000000 1.736220 
# 
# From -- ./inp_files/149016.got.cif
#   From: 2010.06.25/outbox.cif.g09.slc.cpg/sg15_75_cif.got.tgz:149016.got - 2010.06.28 07:06:18.
