data_PCOD8136799
_publ_section_title
;
Structure prediction by ZEFSAII (Michael W. Deem and Ramdas Pophale) SiO2 
 PCOD8136799
Probable space group: C 2/C
;
_chemical_formula_sum "Si O2"
_cell_formula_units_Z 64
_cell_length_a 20.592231
_cell_length_b 19.643944
_cell_length_c 16.820264
_cell_angle_alpha 90.000000
_cell_angle_beta 152.229908
_cell_angle_gamma 90.000000
_cell_volume 3170.156875
_symmetry_space_group_name_H-M "C 2/C"
_symmetry_group_IT_number 15
_symmetry_cell_setting 'monoclinic'
loop_
_space_group_symop_operation_xyz
x,y,z
-x,y,1/2-z
-x,-y,-z
x,-y,1/2+z
1/2+x,1/2+y,z
1/2-x,1/2+y,1/2-z
1/2-x,1/2-y,-z
1/2+x,1/2-y,1/2+z
loop_
_atom_site_type_symbol
_atom_site_label
_atom_site_fract_x
_atom_site_fract_y
_atom_site_fract_z
Si Si1 0.529716 0.250891 0.067815
Si Si2 0.266982 0.835775 0.256959
Si Si3 0.335675 0.947689 0.875423
Si Si4 0.862289 0.547947 0.759262
Si Si5 0.246485 0.064973 0.030954
Si Si6 0.127132 0.296370 0.835658
Si Si7 0.611967 0.616735 0.041309
Si Si8 0.829191 0.060851 0.725965
O O1 0.634901 0.283489 0.115145
O O2 0.617765 0.212101 0.230085
O O3 0.415868 0.200939 0.905525
O O4 0.442991 0.307113 0.021952
O O5 0.259576 0.890065 0.175076
O O6 0.265486 0.877877 0.338852
O O7 0.241919 0.884184 0.743978
O O8 0.366358 0.990139 0.829934
O O9 0.240169 0.988991 0.832183
O O10 0.477678 0.924632 0.073678
O O11 0.811521 0.509823 0.623751
O O12 0.157066 0.062394 0.853943
O O13 0.362446 0.122392 0.140242
O O14 0.147010 0.092117 0.991673
O O15 0.000000 0.269772 0.750000
O O16 0.250000 0.250000 0.000000
O O17 0.484154 0.567748 0.931463
#
# Coordination Sequence:
#
# PCOD8136799 Si02
#       8
#     8   8   8   8   8   8   8   8
#     4  11  22  35  56  78 109 154 193 234 279 343
#     4  10  22  37  56  82 115 146 199 237 283 342
#     4   9  19  34  54  75 108 147 189 235 289 328
#     4   9  21  35  53  78 111 147 193 244 287 328
#     4  11  22  34  57  80 118 157 188 234 284 338
#     4  12  24  36  52  82 120 160 189 223 274 344
#     4  10  20  35  51  79 111 153 187 233 282 337
#     4  10  20  35  54  83 113 149 186 230 278 353
#
# _framework density 20.188275999999998
#
# number of rings (size 3 to 8) (size 9 to 14) (size 15 to 20)
#    0.000    1.750    0.000    5.250   10.500    1.000 
#    0.000    0.000    0.000    0.000    0.000    0.875 
#    0.000    0.000    0.000    0.000    0.000    0.000 
#
# Total GULP energy -396505.019618 kJ/mol
# GULP energy per Si atom -12390.781863 kJ/mol
# Density = 2.014233 g / cm^3
# Si number density = 20.188276 Si / 1000 Ang^3
#
#
#
# Elastic Constant Matrix: (Units=GPa)
#
#
# Indices 1 2 3 4 5 6 
#
# 1 46.4681 31.1252 21.7649 0.0000 7.7042 0.0000
# 2 31.1252 59.2716 28.0973 0.0000 -7.3016 0.0000
# 3 21.7649 28.0973 84.1860 0.0000 9.7967 0.0000
# 4 0.0000 0.0000 0.0000 28.5329 0.0000 4.2217
# 5 7.7042 -7.3016 9.7967 0.0000 21.9204 0.0000
# 6 0.0000 0.0000 0.0000 4.2217 0.0000 33.0767
#
#
#
# Elastic Compliance Matrix: (Units=1/GPa)
#
#
# Indices 1 2 3 4 5 6 
#
# 1 0.042037 -0.025016 0.000180 0.000000 -0.023187 0.000000
# 2 -0.025016 0.037351 -0.008934 0.000000 0.025227 0.000000
# 3 0.000180 -0.008934 0.016000 0.000000 -0.010190 0.000000
# 4 0.000000 0.000000 0.000000 0.035722 0.000000 -0.004559
# 5 -0.023187 0.025227 -0.010190 0.000000 0.066726 0.000000
# 6 0.000000 0.000000 0.000000 -0.004559 0.000000 0.030815
#
#
# Mechanical properties :
#
#
# Convention : Reuss Voigt Hill
#
# Bulk Modulus (GPa) = 35.91189 39.10005 37.50597
# Shear Modulus (GPa) = 16.36805 23.96854 20.16830
#
# Velocity S-wave (km/s) = 2.85049 3.44939 3.16414
# Velocity P-wave (km/s) = 5.35358 5.93920 5.65398
#
# Compressibility (1/GPa) = 0.02784593
#
# Stress axis : x y z
#
# Youngs Moduli (GPa) = 23.78869 26.77306 62.50192
#
# Poissons Ratio (x) = 0.66976 -0.01123
# Poissons Ratio (y) = 0.59510 0.55839
# Poissons Ratio (z) = -0.00427 0.23919
#
# Static dielectric constant tensor:
#      x y z
#    x 3.726730 0.000000 0.310810 
#    y 0.000000 3.750370 0.000000 
#    z 0.310810 0.000000 3.778070 
# 
# 
# High freq. dielectric constant tensor:
#      x y z
#    x 1.763790 0.000000 0.036920 
#    y 0.000000 1.777260 0.000000 
#    z 0.036920 0.000000 1.777780 
# 
# From -- ./inp_files/216509.got.cif
#   From: 2010.06.25/outbox.cif.g09.slc.cpg/sg15_109_cif.got.tgz:216509.got - 2010.06.28 07:06:18.
