data_PCOD8136338
_publ_section_title
;
Structure prediction by ZEFSAII (Michael W. Deem and Ramdas Pophale) SiO2 
 PCOD8136338
Probable space group: C 2/C
;
_chemical_formula_sum "Si O2"
_cell_formula_units_Z 60
_cell_length_a 16.364639
_cell_length_b 19.513793
_cell_length_c 9.348303
_cell_angle_alpha 90.000000
_cell_angle_beta 99.677752
_cell_angle_gamma 90.000000
_cell_volume 2942.767699
_symmetry_space_group_name_H-M "C 2/C"
_symmetry_group_IT_number 15
_symmetry_cell_setting 'monoclinic'
loop_
_space_group_symop_operation_xyz
x,y,z
-x,y,1/2-z
-x,-y,-z
x,-y,1/2+z
1/2+x,1/2+y,z
1/2-x,1/2+y,1/2-z
1/2-x,1/2-y,-z
1/2+x,1/2-y,1/2+z
loop_
_atom_site_type_symbol
_atom_site_label
_atom_site_fract_x
_atom_site_fract_y
_atom_site_fract_z
Si Si1 0.316501 0.703893 0.198653
Si Si2 0.500000 0.493930 0.750000
Si Si3 0.697114 0.696457 0.784594
Si Si4 0.031617 0.763301 0.107598
Si Si5 0.391438 0.520775 0.973301
Si Si6 0.740654 0.113278 0.930949
Si Si7 0.889978 0.860453 0.976474
Si Si8 0.926396 0.670384 0.625061
O O1 0.246419 0.732256 0.286915
O O2 0.363400 0.645789 0.303282
O O3 0.379900 0.763857 0.176934
O O4 0.274960 0.672093 0.046298
O O5 0.433539 0.537385 0.830053
O O6 0.448120 0.447554 0.619784
O O7 0.619036 0.700374 0.655144
O O8 0.751982 0.636205 0.731702
O O9 0.675788 0.678074 0.940456
O O10 0.000000 0.735750 0.250000
O O11 0.977504 0.823688 0.023309
O O12 0.032978 0.695343 0.010800
O O13 0.295700 0.544456 0.961569
O O14 0.395216 0.440324 0.012451
O O15 0.640517 0.108442 0.925491
O O16 0.000000 0.643849 0.750000
#
# Coordination Sequence:
#
# PCOD8136338 Si02
#       8
#     8   4   8   8   8   8   8   8
#     4  11  20  35  58  86 117 157 199 250 308 366
#     4  10  24  38  58  78 124 160 216 238 278 374
#     4  10  20  36  54  82 120 156 193 248 314 349
#     4  10  20  33  55  83 121 152 189 243 311 357
#     4  11  24  39  55  88 123 172 207 236 304 363
#     4  11  22  38  58  80 125 167 202 254 297 372
#     4  11  23  33  57  87 124 159 194 249 292 377
#     4  11  20  38  60  87 114 156 210 252 309 354
#
# _framework density 20.388968999999999
#
# number of rings (size 3 to 8) (size 9 to 14) (size 15 to 20)
#    0.000    1.333    4.000    2.800    6.533    1.067 
#    1.200    0.000    0.000    0.000    0.000   19.600 
#    0.000    0.000    0.000    0.000    0.000    0.000 
#
# Total GULP energy -371680.989452 kJ/mol
# GULP energy per Si atom -12389.366315 kJ/mol
# Density = 2.034256 g / cm^3
# Si number density = 20.388969 Si / 1000 Ang^3
#
#
#
# Elastic Constant Matrix: (Units=GPa)
#
#
# Indices 1 2 3 4 5 6 
#
# 1 121.7261 46.7418 47.6876 0.0000 10.9520 0.0000
# 2 46.7418 53.4071 20.9208 0.0000 -2.1395 0.0000
# 3 47.6876 20.9208 100.6278 0.0000 1.9155 0.0000
# 4 0.0000 0.0000 0.0000 17.8238 0.0000 2.2657
# 5 10.9520 -2.1395 1.9155 0.0000 34.0991 0.0000
# 6 0.0000 0.0000 0.0000 2.2657 0.0000 34.5143
#
#
#
# Elastic Compliance Matrix: (Units=1/GPa)
#
#
# Indices 1 2 3 4 5 6 
#
# 1 0.014865 -0.011430 -0.004569 0.000000 -0.005235 0.000000
# 2 -0.011430 0.029252 -0.000771 0.000000 0.005550 0.000000
# 3 -0.004569 -0.000771 0.012249 0.000000 0.000731 0.000000
# 4 0.000000 0.000000 0.000000 0.056577 0.000000 -0.003714
# 5 -0.005235 0.005550 0.000731 0.000000 0.031315 0.000000
# 6 0.000000 0.000000 0.000000 -0.003714 0.000000 0.029217
#
#
# Mechanical properties :
#
#
# Convention : Reuss Voigt Hill
#
# Bulk Modulus (GPa) = 43.80654 56.27349 50.04002
# Shear Modulus (GPa) = 23.29682 27.98150 25.63916
#
# Velocity S-wave (km/s) = 3.38393 3.70859 3.54997
# Velocity P-wave (km/s) = 6.06630 6.78219 6.43421
#
# Compressibility (1/GPa) = 0.02282764
#
# Stress axis : x y z
#
# Youngs Moduli (GPa) = 67.27257 34.18612 81.63984
#
# Poissons Ratio (x) = 0.39074 0.37297
# Poissons Ratio (y) = 0.76891 0.06291
# Poissons Ratio (z) = 0.30734 0.02634
#
# Static dielectric constant tensor:
#      x y z
#    x 4.120830 0.000000 -0.071940 
#    y 0.000000 3.205490 0.000000 
#    z -0.071940 0.000000 3.838210 
# 
# 
# High freq. dielectric constant tensor:
#      x y z
#    x 1.801550 0.000000 -0.005240 
#    y 0.000000 1.738510 0.000000 
#    z -0.005240 0.000000 1.815230 
# 
# From -- ./inp_files/50266.got.cif
#   From: 2010.06.25/outbox.cif.g09.slc.cpg/sg15_26_cif.got.tgz:50266.got - 2010.06.28 07:06:18.
