data_PCOD8136659
_publ_section_title
;
Structure prediction by ZEFSAII (Michael W. Deem and Ramdas Pophale) SiO2 
 PCOD8136659
Probable space group: C 2/C
;
_chemical_formula_sum "Si O2"
_cell_formula_units_Z 48
_cell_length_a 13.408582
_cell_length_b 33.519385
_cell_length_c 5.624907
_cell_angle_alpha 90.000000
_cell_angle_beta 118.178723
_cell_angle_gamma 90.000000
_cell_volume 2228.466701
_symmetry_space_group_name_H-M "C 2/C"
_symmetry_group_IT_number 15
_symmetry_cell_setting 'monoclinic'
loop_
_space_group_symop_operation_xyz
x,y,z
-x,y,1/2-z
-x,-y,-z
x,-y,1/2+z
1/2+x,1/2+y,z
1/2-x,1/2+y,1/2-z
1/2-x,1/2-y,-z
1/2+x,1/2-y,1/2+z
loop_
_atom_site_type_symbol
_atom_site_label
_atom_site_fract_x
_atom_site_fract_y
_atom_site_fract_z
Si Si1 0.134010 0.480453 0.893049
Si Si2 0.885089 0.852813 0.502328
Si Si3 0.798330 0.783814 0.723800
Si Si4 0.312849 0.899349 0.367097
Si Si5 0.000000 0.199859 0.750000
Si Si6 0.110297 0.674778 0.257901
Si Si7 0.000000 0.378577 0.250000
O O1 0.178070 0.500042 0.694167
O O2 0.000000 0.479894 0.750000
O O3 0.184199 0.435449 0.942335
O O4 0.814785 0.824573 0.599263
O O5 0.812857 0.893350 0.380066
O O6 0.913332 0.828232 0.295827
O O7 0.000000 0.868099 0.750000
O O8 0.750000 0.750000 0.500000
O O9 0.700356 0.790459 0.809081
O O10 0.919656 0.773208 0.985615
O O11 0.337470 0.856012 0.499058
O O12 0.414743 0.908116 0.294694
O O13 0.000000 0.695420 0.250000
O O14 0.078846 0.650157 0.990456
#
# Coordination Sequence:
#
# PCOD8136659 Si02
#       7
#     8   8   8   8   4   8   4
#     4  10  23  38  60  98 143 183 216 265 338 412
#     4  10  22  42  65  92 118 165 222 274 322 385
#     4  11  23  43  65  93 126 167 215 277 336 402
#     4  11  21  38  65  91 128 172 216 271 320 396
#     4  10  22  46  64  88 122 163 226 265 334 396
#     4  10  21  38  61  93 123 164 212 268 328 391
#     4  10  20  34  58  94 124 159 218 259 318 394
#
# _framework density 21.539473999999998
#
# number of rings (size 3 to 8) (size 9 to 14) (size 15 to 20)
#    0.000    1.667    3.333    1.500    5.833    0.667 
#    6.000    0.000    0.000    1.000    0.000    0.000 
#    0.000    0.000    0.000    0.000    0.000    0.000 
#
# Total GULP energy -297486.825589 kJ/mol
# GULP energy per Si atom -12395.284400 kJ/mol
# Density = 2.149045 g / cm^3
# Si number density = 21.539474 Si / 1000 Ang^3
#
#
#
# Elastic Constant Matrix: (Units=GPa)
#
#
# Indices 1 2 3 4 5 6 
#
# 1 114.3305 42.5396 41.7723 0.0000 5.3838 0.0000
# 2 42.5396 64.3052 31.7016 0.0000 8.9564 0.0000
# 3 41.7723 31.7016 117.0713 0.0000 5.0743 0.0000
# 4 0.0000 0.0000 0.0000 41.9778 0.0000 -2.8233
# 5 5.3838 8.9564 5.0743 0.0000 32.0234 0.0000
# 6 0.0000 0.0000 0.0000 -2.8233 0.0000 28.8034
#
#
#
# Elastic Compliance Matrix: (Units=1/GPa)
#
#
# Indices 1 2 3 4 5 6 
#
# 1 0.012209 -0.006879 -0.002505 0.000000 0.000268 0.000000
# 2 -0.006879 0.022424 -0.003420 0.000000 -0.004573 0.000000
# 3 -0.002505 -0.003420 0.010373 0.000000 -0.000266 0.000000
# 4 0.000000 0.000000 0.000000 0.023980 0.000000 0.002351
# 5 0.000268 -0.004573 -0.000266 0.000000 0.032503 0.000000
# 6 0.000000 0.000000 0.000000 0.002351 0.000000 0.034949
#
#
# Mechanical properties :
#
#
# Convention : Reuss Voigt Hill
#
# Bulk Modulus (GPa) = 51.54882 58.63709 55.09296
# Shear Modulus (GPa) = 29.67163 32.54047 31.10605
#
# Velocity S-wave (km/s) = 3.71556 3.89104 3.80431
# Velocity P-wave (km/s) = 6.51087 6.88978 6.70300
#
# Compressibility (1/GPa) = 0.01939909
#
# Stress axis : x y z
#
# Youngs Moduli (GPa) = 81.90925 44.59491 96.40253
#
# Poissons Ratio (x) = 0.30676 0.24150
# Poissons Ratio (y) = 0.56343 0.32965
# Poissons Ratio (z) = 0.20519 0.15249
#
# Static dielectric constant tensor:
#      x y z
#    x 4.220640 0.000000 0.092850 
#    y 0.000000 3.454700 0.000000 
#    z 0.092850 0.000000 4.520700 
# 
# 
# High freq. dielectric constant tensor:
#      x y z
#    x 1.839370 0.000000 -0.003890 
#    y 0.000000 1.809150 0.000000 
#    z -0.003890 0.000000 1.864420 
# 
# From -- ./inp_files/9183.got.cif
#   From: 2010.06.25/outbox.cif.g09.slc.cpg/sg15_5_cif.got.tgz:9183.got - 2010.06.28 07:06:18.
