data_PCOD8136577
_publ_section_title
;
Structure prediction by ZEFSAII (Michael W. Deem and Ramdas Pophale) SiO2 
 PCOD8136577
Probable space group: C 2/C
;
_chemical_formula_sum "Si O2"
_cell_formula_units_Z 52
_cell_length_a 15.780026
_cell_length_b 25.523476
_cell_length_c 9.838523
_cell_angle_alpha 90.000000
_cell_angle_beta 140.581264
_cell_angle_gamma 90.000000
_cell_volume 2516.168100
_symmetry_space_group_name_H-M "C 2/C"
_symmetry_group_IT_number 15
_symmetry_cell_setting 'monoclinic'
loop_
_space_group_symop_operation_xyz
x,y,z
-x,y,1/2-z
-x,-y,-z
x,-y,1/2+z
1/2+x,1/2+y,z
1/2-x,1/2+y,1/2-z
1/2-x,1/2-y,-z
1/2+x,1/2-y,1/2+z
loop_
_atom_site_type_symbol
_atom_site_label
_atom_site_fract_x
_atom_site_fract_y
_atom_site_fract_z
Si Si1 0.120916 0.853667 0.672174
Si Si2 0.270699 0.753547 0.863454
Si Si3 0.000000 0.312046 0.250000
Si Si4 0.843241 0.916871 0.044583
Si Si5 0.092572 0.493980 0.747523
Si Si6 0.191006 0.393658 0.371715
Si Si7 0.314730 0.354507 0.278149
O O1 0.162962 0.795393 0.677657
O O2 0.173673 0.891641 0.621641
O O3 0.966484 0.855111 0.509548
O O4 0.182550 0.874503 0.887130
O O5 0.256675 0.702701 0.749252
O O6 0.250000 0.750000 0.000000
O O7 0.419986 0.777038 0.041031
O O8 0.917057 0.348258 0.248465
O O9 0.805430 0.872332 0.109700
O O10 0.000000 0.936478 0.250000
O O11 0.732442 0.962721 0.907166
O O12 0.135145 0.551219 0.851952
O O13 0.000000 0.468225 0.750000
O O14 0.000000 0.500000 0.500000
O O15 0.235105 0.397562 0.268343
#
# Coordination Sequence:
#
# PCOD8136577 Si02
#       7
#     8   8   4   8   8   8   8
#     4  10  22  40  63  88 129 167 216 265 322 396
#     4  11  20  34  63  91 123 161 214 264 322 373
#     4  10  20  34  56  92 126 150 208 268 320 368
#     4  10  25  46  63  92 137 176 216 269 334 401
#     4  12  25  44  70  96 131 173 223 276 336 391
#     4  11  22  38  64  93 122 164 216 272 323 378
#     4  11  22  39  62  95 128 167 214 271 323 389
#
# _framework density 20.666345
#
# number of rings (size 3 to 8) (size 9 to 14) (size 15 to 20)
#    0.000    1.231    3.846    3.231    2.154    1.846 
#    0.000    3.846    0.000    0.000    0.000    0.000 
#    0.000    0.000    0.000    0.000    0.000    0.000 
#
# Total GULP energy -322104.023278 kJ/mol
# GULP energy per Si atom -12388.616280 kJ/mol
# Density = 2.061931 g / cm^3
# Si number density = 20.666345 Si / 1000 Ang^3
#
#
#
# Elastic Constant Matrix: (Units=GPa)
#
#
# Indices 1 2 3 4 5 6 
#
# 1 113.0256 27.8220 32.1207 0.0000 4.6849 0.0000
# 2 27.8220 99.1841 26.5284 0.0000 8.9038 0.0000
# 3 32.1207 26.5284 56.2340 0.0000 9.8486 0.0000
# 4 0.0000 0.0000 0.0000 133.6324 0.0000 91.4833
# 5 4.6849 8.9038 9.8486 0.0000 26.7646 0.0000
# 6 0.0000 0.0000 0.0000 91.4833 0.0000 107.5148
#
#
#
# Elastic Compliance Matrix: (Units=1/GPa)
#
#
# Indices 1 2 3 4 5 6 
#
# 1 0.010784 -0.001610 -0.005519 0.000000 0.000679 0.000000
# 2 -0.001610 0.011876 -0.004319 0.000000 -0.002080 0.000000
# 3 -0.005519 -0.004319 0.024105 0.000000 -0.006467 0.000000
# 4 0.000000 0.000000 0.000000 0.017924 0.000000 -0.015252
# 5 0.000679 -0.002080 -0.006467 0.000000 0.040316 0.000000
# 6 0.000000 0.000000 0.000000 -0.015252 0.000000 0.022279
#
#
# Mechanical properties :
#
#
# Convention : Reuss Voigt Hill
#
# Bulk Modulus (GPa) = 41.89397 49.04289 45.46843
# Shear Modulus (GPa) = 31.61840 65.71387 48.66614
#
# Velocity S-wave (km/s) = 3.91570 5.64505 4.85794
# Velocity P-wave (km/s) = 6.38429 8.14070 7.31540
#
# Compressibility (1/GPa) = 0.02386978
#
# Stress axis : x y z
#
# Youngs Moduli (GPa) = 92.72804 84.20635 41.48438
#
# Poissons Ratio (x) = 0.13555 0.22897
# Poissons Ratio (y) = 0.14927 0.17915
# Poissons Ratio (z) = 0.51180 0.36365
#
# Static dielectric constant tensor:
#      x y z
#    x 3.976590 0.000000 0.129680 
#    y 0.000000 3.891390 0.000000 
#    z 0.129680 0.000000 3.554040 
# 
# 
# High freq. dielectric constant tensor:
#      x y z
#    x 1.831430 0.000000 0.013590 
#    y 0.000000 1.807780 0.000000 
#    z 0.013590 0.000000 1.794520 
# 
# From -- ./inp_files/43652.got.cif
#   From: 2010.06.25/outbox.cif.g09.slc.cpg/sg15_22_cif.got.tgz:43652.got - 2010.06.28 07:06:18.
