data_PCOD8136877
_publ_section_title
;
Structure prediction by ZEFSAII (Michael W. Deem and Ramdas Pophale) SiO2 
 PCOD8136877
Probable space group: C 2/C
;
_chemical_formula_sum "Si O2"
_cell_formula_units_Z 64
_cell_length_a 13.040601
_cell_length_b 19.078193
_cell_length_c 12.381368
_cell_angle_alpha 90.000000
_cell_angle_beta 94.222735
_cell_angle_gamma 90.000000
_cell_volume 3072.012022
_symmetry_space_group_name_H-M "C 2/C"
_symmetry_group_IT_number 15
_symmetry_cell_setting 'monoclinic'
loop_
_space_group_symop_operation_xyz
x,y,z
-x,y,1/2-z
-x,-y,-z
x,-y,1/2+z
1/2+x,1/2+y,z
1/2-x,1/2+y,1/2-z
1/2-x,1/2-y,-z
1/2+x,1/2-y,1/2+z
loop_
_atom_site_type_symbol
_atom_site_label
_atom_site_fract_x
_atom_site_fract_y
_atom_site_fract_z
Si Si1 0.102408 0.233498 0.552662
Si Si2 0.141672 0.960569 0.484991
Si Si3 0.806979 0.796705 0.659634
Si Si4 0.261159 0.093385 0.188686
Si Si5 0.767227 0.953441 0.218807
Si Si6 0.933304 0.081935 0.887240
Si Si7 0.214896 0.695756 0.656031
Si Si8 0.116338 0.707125 0.420456
O O1 0.104598 0.213432 0.424482
O O2 0.199183 0.278997 0.594927
O O3 0.106972 0.160914 0.617040
O O4 0.004453 0.277917 0.584163
O O5 0.177602 0.910866 0.585500
O O6 0.233944 0.971865 0.407983
O O7 0.055976 0.918968 0.408288
O O8 0.107440 0.038327 0.513315
O O9 0.796000 0.874631 0.709816
O O10 0.836428 0.748880 0.764006
O O11 0.357048 0.140801 0.155674
O O12 0.297168 0.013889 0.222364
O O13 0.884276 0.953587 0.276825
O O14 0.718202 0.876549 0.224047
O O15 0.146073 0.688457 0.544859
O O16 0.325950 0.724665 0.623975
#
# Coordination Sequence:
#
# PCOD8136877 Si02
#       8
#     8   8   8   8   8   8   8   8
#     4  11  22  39  61  86 125 156 208 260 310 369
#     4  10  20  35  55  86 128 154 204 246 312 385
#     4  10  23  40  58  91 118 163 207 258 316 361
#     4  10  22  38  60  89 125 165 203 254 313 372
#     4  11  19  36  60  84 118 166 204 250 309 376
#     4  10  21  33  54  90 118 160 195 255 315 371
#     4  10  20  38  60  89 119 158 211 248 308 373
#     4  10  22  38  61  92 123 162 205 257 310 367
#
# _framework density 20.833252000000002
#
# number of rings (size 3 to 8) (size 9 to 14) (size 15 to 20)
#    0.000    1.750    2.500    1.875    3.500    2.500 
#    0.000    1.250    0.000    4.500    0.000    0.000 
#    0.000    0.000    0.000    0.000    0.000    0.000 
#
# Total GULP energy -396501.301092 kJ/mol
# GULP energy per Si atom -12390.665659 kJ/mol
# Density = 2.078583 g / cm^3
# Si number density = 20.833252 Si / 1000 Ang^3
#
#
#
# Elastic Constant Matrix: (Units=GPa)
#
#
# Indices 1 2 3 4 5 6 
#
# 1 55.7577 28.0816 12.0866 0.0000 -10.5467 0.0000
# 2 28.0816 123.6005 33.0654 0.0000 -0.9037 0.0000
# 3 12.0866 33.0654 101.7752 0.0000 -10.8522 0.0000
# 4 0.0000 0.0000 0.0000 37.9204 0.0000 2.1483
# 5 -10.5467 -0.9037 -10.8522 0.0000 22.0891 0.0000
# 6 0.0000 0.0000 0.0000 2.1483 0.0000 19.6602
#
#
#
# Elastic Compliance Matrix: (Units=1/GPa)
#
#
# Indices 1 2 3 4 5 6 
#
# 1 0.022455 -0.005052 0.000101 0.000000 0.010564 0.000000
# 2 -0.005052 0.010023 -0.003029 0.000000 -0.003490 0.000000
# 3 0.000101 -0.003029 0.011386 0.000000 0.005518 0.000000
# 4 0.000000 0.000000 0.000000 0.026535 0.000000 -0.002899
# 5 0.010564 -0.003490 0.005518 0.000000 0.052884 0.000000
# 6 0.000000 0.000000 0.000000 -0.002899 0.000000 0.051181
#
#
# Mechanical properties :
#
#
# Convention : Reuss Voigt Hill
#
# Bulk Modulus (GPa) = 35.83477 47.51120 41.67298
# Shear Modulus (GPa) = 25.03452 29.79392 27.41422
#
# Velocity S-wave (km/s) = 3.47026 3.78579 3.63145
# Velocity P-wave (km/s) = 5.77018 6.47801 6.13431
#
# Compressibility (1/GPa) = 0.02790586
#
# Stress axis : x y z
#
# Youngs Moduli (GPa) = 44.53296 99.77107 87.82791
#
# Poissons Ratio (x) = 0.50400 -0.00886
# Poissons Ratio (y) = 0.22496 0.26599
# Poissons Ratio (z) = -0.00449 0.30216
#
# Static dielectric constant tensor:
#      x y z
#    x 3.323770 0.000000 -0.076490 
#    y 0.000000 3.821000 0.000000 
#    z -0.076490 0.000000 4.083630 
# 
# 
# High freq. dielectric constant tensor:
#      x y z
#    x 1.761280 0.000000 0.001230 
#    y 0.000000 1.818850 0.000000 
#    z 0.001230 0.000000 1.840550 
# 
# From -- ./inp_files/98789.got.cif
#   From: 2010.06.25/outbox.cif.g09.slc.cpg/sg15_50_cif.got.tgz:98789.got - 2010.06.28 07:06:18.
