data_PCOD8136993
_publ_section_title
;
Structure prediction by ZEFSAII (Michael W. Deem and Ramdas Pophale) SiO2 
 PCOD8136993
Probable space group: C 2/C
;
_chemical_formula_sum "Si O2"
_cell_formula_units_Z 44
_cell_length_a 8.772114
_cell_length_b 22.989841
_cell_length_c 15.572499
_cell_angle_alpha 90.000000
_cell_angle_beta 48.500161
_cell_angle_gamma 90.000000
_cell_volume 2352.099927
_symmetry_space_group_name_H-M "C 2/C"
_symmetry_group_IT_number 15
_symmetry_cell_setting 'monoclinic'
loop_
_space_group_symop_operation_xyz
x,y,z
-x,y,1/2-z
-x,-y,-z
x,-y,1/2+z
1/2+x,1/2+y,z
1/2-x,1/2+y,1/2-z
1/2-x,1/2-y,-z
1/2+x,1/2-y,1/2+z
loop_
_atom_site_type_symbol
_atom_site_label
_atom_site_fract_x
_atom_site_fract_y
_atom_site_fract_z
Si Si1 0.563473 0.662378 0.324123
Si Si2 0.243210 0.658867 0.587349
Si Si3 0.458360 0.561506 0.599288
Si Si4 0.500000 0.363914 0.250000
Si Si5 0.195899 0.709065 0.774410
Si Si6 0.741923 0.052800 0.162729
O O1 0.500000 0.651355 0.250000
O O2 0.361281 0.669719 0.455528
O O3 0.680742 0.722603 0.293767
O O4 0.708924 0.611082 0.302465
O O5 0.287990 0.593481 0.603976
O O6 0.315167 0.701139 0.638759
O O7 0.009747 0.671644 0.655142
O O8 0.527180 0.596183 0.657130
O O9 0.666905 0.554353 0.467587
O O10 0.355377 0.501014 0.667280
O O11 0.690448 0.320512 0.188414
O O12 0.500000 0.044037 0.250000
#
# Coordination Sequence:
#
# PCOD8136993 Si02
#       6
#     8   8   8   4   8   8
#     4  11  22  36  57  86 118 147 191 230 282 349
#     4   9  19  38  58  82 108 155 187 229 286 335
#     4   9  21  42  59  84 113 147 199 235 282 344
#     4  10  22  36  60  86 110 146 198 240 264 346
#     4  10  20  35  58  83 111 150 189 231 282 330
#     4  10  23  40  60  82 118 154 181 242 297 332
#
# _framework density 18.706689000000001
#
# number of rings (size 3 to 8) (size 9 to 14) (size 15 to 20)
#    0.000    2.182    1.818    0.545    7.636    1.455 
#    0.000    3.636    0.000    0.000    0.000    0.000 
#    0.000    0.000    0.000    0.000    0.000    0.000 
#
# Total GULP energy -272662.172460 kJ/mol
# GULP energy per Si atom -12393.735112 kJ/mol
# Density = 1.866411 g / cm^3
# Si number density = 18.706689 Si / 1000 Ang^3
#
#
#
# Elastic Constant Matrix: (Units=GPa)
#
#
# Indices 1 2 3 4 5 6 
#
# 1 121.3439 67.5414 56.7397 0.0000 1.3910 0.0000
# 2 67.5414 133.0514 56.0860 0.0000 -2.6947 0.0000
# 3 56.7397 56.0860 113.2779 0.0000 4.4875 0.0000
# 4 0.0000 0.0000 0.0000 47.1308 0.0000 -6.4868
# 5 1.3910 -2.6947 4.4875 0.0000 26.6777 0.0000
# 6 0.0000 0.0000 0.0000 -6.4868 0.0000 31.6463
#
#
#
# Elastic Compliance Matrix: (Units=1/GPa)
#
#
# Indices 1 2 3 4 5 6 
#
# 1 0.012803 -0.004820 -0.004008 0.000000 -0.000480 0.000000
# 2 -0.004820 0.011396 -0.003306 0.000000 0.001958 0.000000
# 3 -0.004008 -0.003306 0.012561 0.000000 -0.002238 0.000000
# 4 0.000000 0.000000 0.000000 0.021834 0.000000 0.004475
# 5 -0.000480 0.001958 -0.002238 0.000000 0.038084 0.000000
# 6 0.000000 0.000000 0.000000 0.004475 0.000000 0.032517
#
#
# Mechanical properties :
#
#
# Convention : Reuss Voigt Hill
#
# Bulk Modulus (GPa) = 80.04195 80.93416 80.48806
# Shear Modulus (GPa) = 31.72111 33.57803 32.64957
#
# Velocity S-wave (km/s) = 4.12237 4.24131 4.18226
# Velocity P-wave (km/s) = 8.09564 8.20632 8.15117
#
# Compressibility (1/GPa) = 0.01249345
#
# Stress axis : x y z
#
# Youngs Moduli (GPa) = 78.10551 87.75285 79.61431
#
# Poissons Ratio (x) = 0.42294 0.31907
# Poissons Ratio (y) = 0.37645 0.26318
# Poissons Ratio (z) = 0.31302 0.29008
#
# Static dielectric constant tensor:
#      x y z
#    x 3.303280 0.000000 0.119910 
#    y 0.000000 3.664070 0.000000 
#    z 0.119910 0.000000 3.595820 
# 
# 
# High freq. dielectric constant tensor:
#      x y z
#    x 1.712840 0.000000 0.005830 
#    y 0.000000 1.742020 0.000000 
#    z 0.005830 0.000000 1.726740 
# 
# From -- ./inp_files/78390.got.cif
#   From: 2010.06.25/outbox.cif.g09.slc.cpg/sg15_40_cif.got.tgz:78390.got - 2010.06.28 07:06:18.
