data_PCOD8136072
_publ_section_title
;
Structure prediction by ZEFSAII (Michael W. Deem and Ramdas Pophale) SiO2 
 PCOD8136072
Probable space group: C 2/C
;
_chemical_formula_sum "Si O2"
_cell_formula_units_Z 56
_cell_length_a 9.713389
_cell_length_b 10.329173
_cell_length_c 30.458134
_cell_angle_alpha 90.000000
_cell_angle_beta 113.754654
_cell_angle_gamma 90.000000
_cell_volume 2797.003508
_symmetry_space_group_name_H-M "C 2/C"
_symmetry_group_IT_number 15
_symmetry_cell_setting 'monoclinic'
loop_
_space_group_symop_operation_xyz
x,y,z
-x,y,1/2-z
-x,-y,-z
x,-y,1/2+z
1/2+x,1/2+y,z
1/2-x,1/2+y,1/2-z
1/2-x,1/2-y,-z
1/2+x,1/2-y,1/2+z
loop_
_atom_site_type_symbol
_atom_site_label
_atom_site_fract_x
_atom_site_fract_y
_atom_site_fract_z
Si Si1 0.111669 0.638901 0.304543
Si Si2 0.631039 0.561985 0.652017
Si Si3 0.576310 0.845465 0.541588
Si Si4 0.680584 0.409679 0.344927
Si Si5 0.475340 0.420441 0.453726
Si Si6 0.218875 0.402833 0.047021
Si Si7 0.392594 0.138168 0.356128
O O1 0.235571 0.527375 0.313131
O O2 0.182495 0.783883 0.313472
O O3 0.000000 0.626873 0.250000
O O4 0.024878 0.613571 0.338714
O O5 0.488520 0.543931 0.665648
O O6 0.590510 0.507918 0.597647
O O7 0.674160 0.715333 0.656748
O O8 0.636469 0.698223 0.548653
O O9 0.432969 0.844870 0.491395
O O10 0.534136 0.883369 0.586429
O O11 0.707181 0.939926 0.541372
O O12 0.764387 0.363188 0.400065
O O13 0.761811 0.531203 0.331821
O O14 0.500000 0.500000 0.500000
O O15 0.636418 0.356912 0.461419
#
# Coordination Sequence:
#
# PCOD8136072 Si02
#       7
#     8   8   8   8   8   8   8
#     4  11  24  39  59  86 110 141 193 244 284 334
#     4   9  21  39  55  83 120 145 186 237 276 338
#     4   9  18  33  52  77 110 144 182 218 260 328
#     4   9  20  40  61  82 114 151 186 230 283 335
#     4  10  20  29  50  80 110 147 177 215 274 325
#     4   9  18  33  53  78 109 144 181 219 263 326
#     4   9  20  39  59  81 115 153 184 228 284 335
#
# _framework density 20.021425000000001
#
# number of rings (size 3 to 8) (size 9 to 14) (size 15 to 20)
#    0.000    2.571    0.000    1.286    4.000    4.000 
#    0.000    0.714    0.000    0.000    0.000    0.000 
#    0.000    0.000    0.000    0.000    0.000    0.000 
#
# Total GULP energy -346954.985362 kJ/mol
# GULP energy per Si atom -12391.249477 kJ/mol
# Density = 1.997586 g / cm^3
# Si number density = 20.021425 Si / 1000 Ang^3
#
#
#
# Elastic Constant Matrix: (Units=GPa)
#
#
# Indices 1 2 3 4 5 6 
#
# 1 60.7343 44.9602 19.8606 0.0000 12.3300 0.0000
# 2 44.9602 98.3782 14.9266 0.0000 11.8966 0.0000
# 3 19.8606 14.9266 65.7255 0.0000 21.6947 0.0000
# 4 0.0000 0.0000 0.0000 20.5432 0.0000 7.3406
# 5 12.3300 11.8966 21.6947 0.0000 29.1322 0.0000
# 6 0.0000 0.0000 0.0000 7.3406 0.0000 35.1135
#
#
#
# Elastic Compliance Matrix: (Units=1/GPa)
#
#
# Indices 1 2 3 4 5 6 
#
# 1 0.026925 -0.011207 -0.004429 0.000000 -0.003521 0.000000
# 2 -0.011207 0.015443 0.000524 0.000000 -0.001953 0.000000
# 3 -0.004429 0.000524 0.021064 0.000000 -0.014026 0.000000
# 4 0.000000 0.000000 0.000000 0.052608 0.000000 -0.010998
# 5 -0.003521 -0.001953 -0.014026 0.000000 0.047059 0.000000
# 6 0.000000 0.000000 0.000000 -0.010998 0.000000 0.030778
#
#
# Mechanical properties :
#
#
# Convention : Reuss Voigt Hill
#
# Bulk Modulus (GPa) = 30.11287 42.70364 36.40826
# Shear Modulus (GPa) = 21.26125 26.63048 23.94587
#
# Velocity S-wave (km/s) = 3.26225 3.65101 3.46209
# Velocity P-wave (km/s) = 5.40950 6.25687 5.84855
#
# Compressibility (1/GPa) = 0.03320839
#
# Stress axis : x y z
#
# Youngs Moduli (GPa) = 37.14075 64.75252 47.47523
#
# Poissons Ratio (x) = 0.72569 0.21024
# Poissons Ratio (y) = 0.41624 -0.02488
# Poissons Ratio (z) = 0.16448 -0.03394
#
# Static dielectric constant tensor:
#      x y z
#    x 3.934480 0.000000 -0.029690 
#    y 0.000000 3.878300 0.000000 
#    z -0.029690 0.000000 3.584920 
# 
# 
# High freq. dielectric constant tensor:
#      x y z
#    x 1.755480 0.000000 -0.000720 
#    y 0.000000 1.784640 0.000000 
#    z -0.000720 0.000000 1.778510 
# 
# From -- ./inp_files/288067.got.cif
#   From: 2010.06.25/outbox.cif.g09.slc.cpg/sg15_145_cif.got.tgz:288067.got - 2010.06.28 07:06:18.
