data_PCOD8136038
_publ_section_title
;
Structure prediction by ZEFSAII (Michael W. Deem and Ramdas Pophale) SiO2 
 PCOD8136038
Probable space group: C 2/C
;
_chemical_formula_sum "Si O2"
_cell_formula_units_Z 36
_cell_length_a 6.223591
_cell_length_b 12.827441
_cell_length_c 19.202350
_cell_angle_alpha 90.000000
_cell_angle_beta 74.395669
_cell_angle_gamma 90.000000
_cell_volume 1476.474258
_symmetry_space_group_name_H-M "C 2/C"
_symmetry_group_IT_number 15
_symmetry_cell_setting 'monoclinic'
loop_
_space_group_symop_operation_xyz
x,y,z
-x,y,1/2-z
-x,-y,-z
x,-y,1/2+z
1/2+x,1/2+y,z
1/2-x,1/2+y,1/2-z
1/2-x,1/2-y,-z
1/2+x,1/2-y,1/2+z
loop_
_atom_site_type_symbol
_atom_site_label
_atom_site_fract_x
_atom_site_fract_y
_atom_site_fract_z
Si Si1 0.694678 0.435227 0.861167
Si Si2 0.974627 0.576398 0.937902
Si Si3 0.500000 0.791815 0.750000
Si Si4 0.509262 0.287308 0.992186
Si Si5 0.032416 0.869665 0.133304
O O1 0.798067 0.363751 0.792431
O O2 0.546159 0.367923 0.926523
O O3 0.533578 0.515202 0.834954
O O4 0.874760 0.508262 0.884591
O O5 0.858799 0.683269 0.981354
O O6 0.199876 0.631666 0.890700
O O7 0.000000 0.500000 0.000000
O O8 0.571385 0.718612 0.807935
O O9 0.750000 0.250000 0.000000
O O10 0.415164 0.351024 0.067738
#
# Coordination Sequence:
#
# PCOD8136038 Si02
#       5
#     8   8   4   8   8
#     4  12  25  44  69  96 134 177 221 270 332 391
#     4  11  21  42  73 101 128 170 219 276 336 387
#     4  12  26  48  62  94 146 172 220 280 316 400
#     4  10  19  43  66  97 133 161 217 284 317 379
#     4  11  25  46  66  98 137 174 220 277 329 392
#
# _framework density 24.382408000000002
#
# number of rings (size 3 to 8) (size 9 to 14) (size 15 to 20)
#    0.000    0.889    8.889    0.667    3.111    0.889 
#    4.000    2.222    0.000    0.000    0.000    0.000 
#    0.000    0.000    0.000    0.000    0.000    0.000 
#
# Total GULP energy -223114.586479 kJ/mol
# GULP energy per Si atom -12395.254804 kJ/mol
# Density = 2.432691 g / cm^3
# Si number density = 24.382408 Si / 1000 Ang^3
#
#
#
# Elastic Constant Matrix: (Units=GPa)
#
#
# Indices 1 2 3 4 5 6 
#
# 1 38.9563 37.3184 22.9847 0.0000 -4.3289 0.0000
# 2 37.3184 212.7380 80.0321 0.0000 -25.3716 0.0000
# 3 22.9847 80.0321 147.3266 0.0000 -34.0328 0.0000
# 4 0.0000 0.0000 0.0000 35.5974 0.0000 -21.0316
# 5 -4.3289 -25.3716 -34.0328 0.0000 14.8752 0.0000
# 6 0.0000 0.0000 0.0000 -21.0316 0.0000 53.2728
#
#
#
# Elastic Compliance Matrix: (Units=1/GPa)
#
#
# Indices 1 2 3 4 5 6 
#
# 1 0.032114 -0.005098 -0.004434 0.000000 -0.009493 0.000000
# 2 -0.005098 0.006963 -0.001244 0.000000 0.007547 0.000000
# 3 -0.004434 -0.001244 0.015625 0.000000 0.032336 0.000000
# 4 0.000000 0.000000 0.000000 0.036638 0.000000 0.014464
# 5 -0.009493 0.007547 0.032336 0.000000 0.151315 0.000000
# 6 0.000000 0.000000 0.000000 0.014464 0.000000 0.024482
#
#
# Mechanical properties :
#
#
# Convention : Reuss Voigt Hill
#
# Bulk Modulus (GPa) = 30.16508 75.52126 52.84317
# Shear Modulus (GPa) = 16.68126 37.99479 27.33803
#
# Velocity S-wave (km/s) = 2.61847 3.95180 3.35209
# Velocity P-wave (km/s) = 4.64116 7.20161 6.05820
#
# Compressibility (1/GPa) = 0.03315092
#
# Stress axis : x y z
#
# Youngs Moduli (GPa) = 31.13885 143.62041 64.00151
#
# Poissons Ratio (x) = 0.73212 0.28378
# Poissons Ratio (y) = 0.15873 0.07960
# Poissons Ratio (z) = 0.13807 0.17863
#
# Static dielectric constant tensor:
#      x y z
#    x 5.316690 0.000000 -0.524830 
#    y 0.000000 5.289210 0.000000 
#    z -0.524830 0.000000 4.626480 
# 
# 
# High freq. dielectric constant tensor:
#      x y z
#    x 1.978810 0.000000 -0.008990 
#    y 0.000000 2.015120 0.000000 
#    z -0.008990 0.000000 1.954860 
# 
# From -- ./inp_files/187724.got.cif
#   From: 2010.06.25/outbox.cif.g09.slc.cpg/sg15_94_cif.got.tgz:187724.got - 2010.06.28 07:06:18.
