data_PCOD8136320
_publ_section_title
;
Structure prediction by ZEFSAII (Michael W. Deem and Ramdas Pophale) SiO2 
 PCOD8136320
Probable space group: C 2/C
;
_chemical_formula_sum "Si O2"
_cell_formula_units_Z 44
_cell_length_a 5.089017
_cell_length_b 22.156053
_cell_length_c 20.323921
_cell_angle_alpha 90.000000
_cell_angle_beta 89.661357
_cell_angle_gamma 90.000000
_cell_volume 2291.533494
_symmetry_space_group_name_H-M "C 2/C"
_symmetry_group_IT_number 15
_symmetry_cell_setting 'monoclinic'
loop_
_space_group_symop_operation_xyz
x,y,z
-x,y,1/2-z
-x,-y,-z
x,-y,1/2+z
1/2+x,1/2+y,z
1/2-x,1/2+y,1/2-z
1/2-x,1/2-y,-z
1/2+x,1/2-y,1/2+z
loop_
_atom_site_type_symbol
_atom_site_label
_atom_site_fract_x
_atom_site_fract_y
_atom_site_fract_z
Si Si1 0.254176 0.525637 0.419579
Si Si2 0.245423 0.574377 0.030013
Si Si3 0.000000 0.158419 0.750000
Si Si4 0.303109 0.826397 0.369254
Si Si5 0.283056 0.304661 0.450470
Si Si6 0.615952 0.930599 0.317596
O O1 0.501607 0.570883 0.422731
O O2 0.256061 0.481345 0.481000
O O3 0.251314 0.486522 0.353292
O O4 0.002281 0.568864 0.421479
O O5 0.212337 0.635314 0.989761
O O6 0.201102 0.196430 0.796688
O O7 0.160680 0.119097 0.696744
O O8 0.570281 0.793151 0.392277
O O9 0.383506 0.897924 0.360832
O O10 0.078277 0.813197 0.423216
O O11 0.250000 0.250000 0.500000
O O12 0.500000 0.956033 0.250000
#
# Coordination Sequence:
#
# PCOD8136320 Si02
#       6
#     8   8   4   8   8   8
#     4  10  20  33  54  82 117 143 181 226 281 356
#     4  10  21  33  54  81 112 154 180 222 285 334
#     4  10  20  36  60  86 120 146 182 244 302 342
#     4  11  21  37  57  88 119 142 193 237 296 349
#     4  12  24  39  58  85 120 156 198 245 288 342
#     4  10  21  33  58  88 120 147 184 240 302 347
#
# _framework density 19.201115000000001
#
# number of rings (size 3 to 8) (size 9 to 14) (size 15 to 20)
#    0.000    1.455    3.636    1.636   10.182    0.000 
#    0.000    0.000    0.000    0.000   14.182    0.000 
#    0.000    0.000    0.000    0.000    0.000    0.000 
#
# Total GULP energy -272614.061863 kJ/mol
# GULP energy per Si atom -12391.548266 kJ/mol
# Density = 1.915741 g / cm^3
# Si number density = 19.201115 Si / 1000 Ang^3
#
#
#
# Elastic Constant Matrix: (Units=GPa)
#
#
# Indices 1 2 3 4 5 6 
#
# 1 142.9036 32.7101 47.4515 0.0000 8.0801 0.0000
# 2 32.7101 23.1962 7.6162 0.0000 -3.8775 0.0000
# 3 47.4515 7.6162 79.9774 0.0000 16.5611 0.0000
# 4 0.0000 0.0000 0.0000 28.5445 0.0000 1.4681
# 5 8.0801 -3.8775 16.5611 0.0000 44.0854 0.0000
# 6 0.0000 0.0000 0.0000 1.4681 0.0000 14.9317
#
#
#
# Elastic Compliance Matrix: (Units=1/GPa)
#
#
# Indices 1 2 3 4 5 6 
#
# 1 0.012703 -0.016336 -0.005640 0.000000 -0.001646 0.000000
# 2 -0.016336 0.067009 0.001595 0.000000 0.008289 0.000000
# 3 -0.005640 0.001595 0.016759 0.000000 -0.005121 0.000000
# 4 0.000000 0.000000 0.000000 0.035211 0.000000 -0.003462
# 5 -0.001646 0.008289 -0.005121 0.000000 0.025638 0.000000
# 6 0.000000 0.000000 0.000000 -0.003462 0.000000 0.067312
#
#
# Mechanical properties :
#
#
# Convention : Reuss Voigt Hill
#
# Bulk Modulus (GPa) = 17.95095 46.84807 32.39951
# Shear Modulus (GPa) = 17.60788 28.06562 22.83675
#
# Velocity S-wave (km/s) = 3.03153 3.82732 3.45243
# Velocity P-wave (km/s) = 4.65003 6.63195 5.72737
#
# Compressibility (1/GPa) = 0.05570735
#
# Stress axis : x y z
#
# Youngs Moduli (GPa) = 78.72158 14.92337 59.67096
#
# Poissons Ratio (x) = 0.24379 0.33656
# Poissons Ratio (y) = 1.28603 -0.09518
# Poissons Ratio (z) = 0.44401 -0.02380
#
# Static dielectric constant tensor:
#      x y z
#    x 4.101670 0.000000 0.263820 
#    y 0.000000 2.856340 0.000000 
#    z 0.263820 0.000000 3.596400 
# 
# 
# High freq. dielectric constant tensor:
#      x y z
#    x 1.777390 0.000000 0.016400 
#    y 0.000000 1.680430 0.000000 
#    z 0.016400 0.000000 1.742300 
# 
# From -- ./inp_files/227173.got.cif
#   From: 2010.06.25/outbox.cif.g09.slc.cpg/sg15_114_cif.got.tgz:227173.got - 2010.06.28 07:06:18.
