data_PCOD8136680
_publ_section_title
;
Structure prediction by ZEFSAII (Michael W. Deem and Ramdas Pophale) SiO2 
 PCOD8136680
Probable space group: C 2/C
;
_chemical_formula_sum "Si O2"
_cell_formula_units_Z 40
_cell_length_a 21.515830
_cell_length_b 11.957879
_cell_length_c 17.482319
_cell_angle_alpha 90.000000
_cell_angle_beta 29.686627
_cell_angle_gamma 90.000000
_cell_volume 2227.619287
_symmetry_space_group_name_H-M "C 2/C"
_symmetry_group_IT_number 15
_symmetry_cell_setting 'monoclinic'
loop_
_space_group_symop_operation_xyz
x,y,z
-x,y,1/2-z
-x,-y,-z
x,-y,1/2+z
1/2+x,1/2+y,z
1/2-x,1/2+y,1/2-z
1/2-x,1/2-y,-z
1/2+x,1/2-y,1/2+z
loop_
_atom_site_type_symbol
_atom_site_label
_atom_site_fract_x
_atom_site_fract_y
_atom_site_fract_z
Si Si1 0.999316 0.171573 0.991992
Si Si2 0.241290 0.168208 0.627348
Si Si3 0.358764 0.483593 0.057698
Si Si4 0.636668 0.374549 0.083089
Si Si5 0.607824 0.910388 0.395983
O O1 0.112709 0.185727 0.810823
O O2 0.048008 0.116253 0.018456
O O3 0.890499 0.094135 0.073351
O O4 0.941888 0.289793 0.076339
O O5 0.294851 0.288941 0.547368
O O6 0.214919 0.101848 0.576700
O O7 0.340780 0.097654 0.571428
O O8 0.216713 0.447287 0.222677
O O9 0.376558 0.509003 0.948666
O O10 0.500000 0.325400 0.250000
O O11 0.500000 0.000000 0.500000
#
# Coordination Sequence:
#
# PCOD8136680 Si02
#       5
#     8   8   8   8   8
#     4  10  20  39  56  86 114 147 195 228 291 339
#     4  10  20  34  59  87 117 142 184 246 290 330
#     4  10  21  35  59  82 114 153 181 235 286 342
#     4  11  19  34  57  88 117 147 182 238 295 337
#     4  11  22  35  59  86 115 147 191 241 278 333
#
# _framework density 17.956389999999999
#
# number of rings (size 3 to 8) (size 9 to 14) (size 15 to 20)
#    0.000    1.600    4.000    1.200    2.800    1.600 
#    0.000    0.000    0.000    4.800    0.000    0.000 
#    0.000    0.000    0.000    0.000    0.000    0.000 
#
# Total GULP energy -247972.530707 kJ/mol
# GULP energy per Si atom -12398.626535 kJ/mol
# Density = 1.791552 g / cm^3
# Si number density = 17.956390 Si / 1000 Ang^3
#
#
#
# Elastic Constant Matrix: (Units=GPa)
#
#
# Indices 1 2 3 4 5 6 
#
# 1 123.5989 50.7256 48.0809 0.0000 -5.2619 0.0000
# 2 50.7256 116.1073 58.3626 0.0000 -10.8989 0.0000
# 3 48.0809 58.3626 91.3350 0.0000 -6.1815 0.0000
# 4 0.0000 0.0000 0.0000 33.2847 0.0000 -1.3714
# 5 -5.2619 -10.8989 -6.1815 0.0000 28.8213 0.0000
# 6 0.0000 0.0000 0.0000 -1.3714 0.0000 28.9550
#
#
#
# Elastic Compliance Matrix: (Units=1/GPa)
#
#
# Indices 1 2 3 4 5 6 
#
# 1 0.010729 -0.002714 -0.003907 0.000000 0.000094 0.000000
# 2 -0.002714 0.013655 -0.007083 0.000000 0.003149 0.000000
# 3 -0.003907 -0.007083 0.017557 0.000000 0.000374 0.000000
# 4 0.000000 0.000000 0.000000 0.030103 0.000000 0.001426
# 5 0.000094 0.003149 0.000374 0.000000 0.035985 0.000000
# 6 0.000000 0.000000 0.000000 0.001426 0.000000 0.034604
#
#
# Mechanical properties :
#
#
# Convention : Reuss Voigt Hill
#
# Bulk Modulus (GPa) = 68.81853 71.70881 70.26367
# Shear Modulus (GPa) = 28.59042 29.80366 29.19704
#
# Velocity S-wave (km/s) = 3.99458 4.07846 4.03674
# Velocity P-wave (km/s) = 7.72555 7.88671 7.80655
#
# Compressibility (1/GPa) = 0.01453097
#
# Stress axis : x y z
#
# Youngs Moduli (GPa) = 93.20945 73.23509 56.95813
#
# Poissons Ratio (x) = 0.19880 0.22253
# Poissons Ratio (y) = 0.25302 0.40344
# Poissons Ratio (z) = 0.36415 0.51874
#
# Static dielectric constant tensor:
#      x y z
#    x 3.669090 0.000000 -0.052400 
#    y 0.000000 3.281940 0.000000 
#    z -0.052400 0.000000 3.510910 
# 
# 
# High freq. dielectric constant tensor:
#      x y z
#    x 1.703490 0.000000 -0.017950 
#    y 0.000000 1.675050 0.000000 
#    z -0.017950 0.000000 1.695850 
# 
# From -- ./inp_files/68958.got.cif
#   From: 2010.06.25/outbox.cif.g09.slc.cpg/sg15_35_cif.got.tgz:68958.got - 2010.06.28 07:06:18.
