data_PCOD8136299
_publ_section_title
;
Structure prediction by ZEFSAII (Michael W. Deem and Ramdas Pophale) SiO2 
 PCOD8136299
Probable space group: C 2/C
;
_chemical_formula_sum "Si O2"
_cell_formula_units_Z 40
_cell_length_a 7.911568
_cell_length_b 9.302421
_cell_length_c 22.900972
_cell_angle_alpha 90.000000
_cell_angle_beta 82.719019
_cell_angle_gamma 90.000000
_cell_volume 1671.846390
_symmetry_space_group_name_H-M "C 2/C"
_symmetry_group_IT_number 15
_symmetry_cell_setting 'monoclinic'
loop_
_space_group_symop_operation_xyz
x,y,z
-x,y,1/2-z
-x,-y,-z
x,-y,1/2+z
1/2+x,1/2+y,z
1/2-x,1/2+y,1/2-z
1/2-x,1/2-y,-z
1/2+x,1/2-y,1/2+z
loop_
_atom_site_type_symbol
_atom_site_label
_atom_site_fract_x
_atom_site_fract_y
_atom_site_fract_z
Si Si1 0.569855 0.411889 0.583642
Si Si2 0.664586 0.153629 0.785046
Si Si3 0.665545 0.525996 0.310515
Si Si4 0.927715 0.413633 0.390969
Si Si5 0.254294 0.584064 0.013947
O O1 0.523863 0.464686 0.652028
O O2 0.611662 0.243560 0.581004
O O3 0.726641 0.499890 0.548638
O O4 0.407130 0.448594 0.551089
O O5 0.500000 0.158095 0.750000
O O6 0.732442 0.313670 0.794045
O O7 0.610764 0.082628 0.849939
O O8 0.822482 0.064025 0.750428
O O9 0.786810 0.446054 0.349557
O O10 0.916925 0.527215 0.445301
O O11 0.250000 0.750000 0.000000
#
# Coordination Sequence:
#
# PCOD8136299 Si02
#       5
#     8   8   8   8   8
#     4   9  19  36  53  73 104 135 166 207 251 297
#     4   9  18  34  53  73  98 130 167 207 251 296
#     4   9  18  34  54  74 100 133 167 206 251 297
#     4   9  18  35  53  72 104 137 164 204 254 299
#     4  10  20  33  53  79 101 130 172 209 247 297
#
# _framework density 23.925646
#
# number of rings (size 3 to 8) (size 9 to 14) (size 15 to 20)
#    0.000    2.800    0.000    0.600    0.000    2.400 
#    0.000   21.000    0.000    0.000    0.000    0.000 
#    0.000    0.000    0.000    0.000    0.000    0.000 
#
# Total GULP energy -247816.533023 kJ/mol
# GULP energy per Si atom -12390.826651 kJ/mol
# Density = 2.387119 g / cm^3
# Si number density = 23.925646 Si / 1000 Ang^3
#
#
#
# Elastic Constant Matrix: (Units=GPa)
#
#
# Indices 1 2 3 4 5 6 
#
# 1 24.2788 17.0278 33.6371 0.0000 -20.0704 0.0000
# 2 17.0278 166.3206 110.9799 0.0000 -54.7534 0.0000
# 3 33.6371 110.9799 180.8742 0.0000 -54.3045 0.0000
# 4 0.0000 0.0000 0.0000 62.5895 0.0000 -10.1193
# 5 -20.0704 -54.7534 -54.3045 0.0000 39.0090 0.0000
# 6 0.0000 0.0000 0.0000 -10.1193 0.0000 26.6291
#
#
#
# Elastic Compliance Matrix: (Units=1/GPa)
#
#
# Indices 1 2 3 4 5 6 
#
# 1 0.087189 0.014560 -0.009525 0.000000 0.052036 0.000000
# 2 0.014560 0.015253 -0.005824 0.000000 0.020793 0.000000
# 3 -0.009525 -0.005824 0.011937 0.000000 0.003542 0.000000
# 4 0.000000 0.000000 0.000000 0.017023 0.000000 0.006469
# 5 0.052036 0.020793 0.003542 0.000000 0.086524 0.000000
# 6 0.000000 0.000000 0.000000 0.006469 0.000000 0.040011
#
#
# Mechanical properties :
#
#
# Convention : Reuss Voigt Hill
#
# Bulk Modulus (GPa) = 8.86519 77.19593 43.03056
# Shear Modulus (GPa) = 16.82841 39.63411 28.23126
#
# Velocity S-wave (km/s) = 2.65498 4.07449 3.43878
# Velocity P-wave (km/s) = 3.62103 7.38040 5.81301
#
# Compressibility (1/GPa) = 0.11280080
#
# Stress axis : x y z
#
# Youngs Moduli (GPa) = 11.46930 65.56065 83.77329
#
# Poissons Ratio (x) = -0.95455 0.79797
# Poissons Ratio (y) = -0.16699 0.48788
# Poissons Ratio (z) = 0.10925 0.38181
#
# Static dielectric constant tensor:
#      x y z
#    x 3.920920 0.000000 -0.562670 
#    y 0.000000 4.160050 0.000000 
#    z -0.562670 0.000000 5.447320 
# 
# 
# High freq. dielectric constant tensor:
#      x y z
#    x 1.911180 0.000000 -0.015480 
#    y 0.000000 1.942530 0.000000 
#    z -0.015480 0.000000 1.984020 
# 
# From -- ./inp_files/262429.got.cif
#   From: 2010.06.25/outbox.cif.g09.slc.cpg/sg15_132_cif.got.tgz:262429.got - 2010.06.28 07:06:18.
