data_PCOD8136408
_publ_section_title
;
Structure prediction by ZEFSAII (Michael W. Deem and Ramdas Pophale) SiO2 
 PCOD8136408
Probable space group: C 2/C
;
_chemical_formula_sum "Si O2"
_cell_formula_units_Z 32
_cell_length_a 19.648620
_cell_length_b 12.886963
_cell_length_c 5.418205
_cell_angle_alpha 90.000000
_cell_angle_beta 102.763801
_cell_angle_gamma 90.000000
_cell_volume 1338.047259
_symmetry_space_group_name_H-M "C 2/C"
_symmetry_group_IT_number 15
_symmetry_cell_setting 'monoclinic'
loop_
_space_group_symop_operation_xyz
x,y,z
-x,y,1/2-z
-x,-y,-z
x,-y,1/2+z
1/2+x,1/2+y,z
1/2-x,1/2+y,1/2-z
1/2-x,1/2-y,-z
1/2+x,1/2-y,1/2+z
loop_
_atom_site_type_symbol
_atom_site_label
_atom_site_fract_x
_atom_site_fract_y
_atom_site_fract_z
Si Si1 0.124969 0.967079 0.725203
Si Si2 0.775665 0.552531 0.905743
Si Si3 0.081059 0.561452 0.802017
Si Si4 0.320668 0.761333 0.209146
O O1 0.146899 0.848987 0.694550
O O2 0.083442 0.014016 0.452503
O O3 0.192817 0.038734 0.831088
O O4 0.806548 0.509627 0.664955
O O5 0.796445 0.673923 0.935753
O O6 0.099306 0.520990 0.535136
O O7 0.120187 0.671457 0.882692
O O8 0.000000 0.588189 0.750000
O O9 0.250000 0.750000 0.000000
#
# Coordination Sequence:
#
# PCOD8136408 Si02
#       4
#     8   8   8   8
#     4  10  22  35  48  79 121 152 191 245 307 367
#     4  10  20  34  48  78 119 149 191 243 309 364
#     4  10  24  46  68  94 130 171 218 267 320 388
#     4  12  22  36  64  92 123 168 209 268 321 379
#
# _framework density 23.915445999999999
#
# number of rings (size 3 to 8) (size 9 to 14) (size 15 to 20)
#    0.000    1.500    5.000    1.500    0.000    8.000 
#    0.000    0.000    0.000    1.500    0.000    0.000 
#    0.000    0.000    0.000    0.000    0.000    0.000 
#
# Total GULP energy -198245.207872 kJ/mol
# GULP energy per Si atom -12390.325492 kJ/mol
# Density = 2.386101 g / cm^3
# Si number density = 23.915446 Si / 1000 Ang^3
#
#
#
# Elastic Constant Matrix: (Units=GPa)
#
#
# Indices 1 2 3 4 5 6 
#
# 1 71.5679 11.2700 35.1884 0.0000 -4.5996 0.0000
# 2 11.2700 149.5442 36.8637 0.0000 -3.7209 0.0000
# 3 35.1884 36.8637 145.1125 0.0000 -14.3312 0.0000
# 4 0.0000 0.0000 0.0000 35.8701 0.0000 -3.4444
# 5 -4.5996 -3.7209 -14.3312 0.0000 31.0762 0.0000
# 6 0.0000 0.0000 0.0000 -3.4444 0.0000 33.7315
#
#
#
# Elastic Compliance Matrix: (Units=1/GPa)
#
#
# Indices 1 2 3 4 5 6 
#
# 1 0.015885 -0.000264 -0.003725 0.000000 0.000601 0.000000
# 2 -0.000264 0.007138 -0.001748 0.000000 0.000009 0.000000
# 3 -0.003725 -0.001748 0.008553 0.000000 0.003184 0.000000
# 4 0.000000 0.000000 0.000000 0.028154 0.000000 0.002875
# 5 0.000601 0.000009 0.003184 0.000000 0.033737 0.000000
# 6 0.000000 0.000000 0.000000 0.002875 0.000000 0.029939
#
#
# Mechanical properties :
#
#
# Convention : Reuss Voigt Hill
#
# Bulk Modulus (GPa) = 49.74988 59.20765 54.47877
# Shear Modulus (GPa) = 35.31504 38.99571 37.15538
#
# Velocity S-wave (km/s) = 3.84691 4.04241 3.94587
# Velocity P-wave (km/s) = 6.37018 6.82634 6.60220
#
# Compressibility (1/GPa) = 0.02010055
#
# Stress axis : x y z
#
# Youngs Moduli (GPa) = 62.95375 140.09321 116.91559
#
# Poissons Ratio (x) = 0.03696 0.43557
# Poissons Ratio (y) = 0.01661 0.20442
# Poissons Ratio (z) = 0.23453 0.24495
#
# Static dielectric constant tensor:
#      x y z
#    x 4.400330 0.000000 -0.474320 
#    y 0.000000 4.429490 0.000000 
#    z -0.474320 0.000000 5.154870 
# 
# 
# High freq. dielectric constant tensor:
#      x y z
#    x 1.948840 0.000000 -0.013850 
#    y 0.000000 1.943010 0.000000 
#    z -0.013850 0.000000 1.963800 
# 
# From -- ./inp_files/14896.got.cif
#   From: 2010.06.25/outbox.cif.g09.slc.cpg/sg15_8_cif.got.tgz:14896.got - 2010.06.28 07:06:18.
