data_PCOD8136442
_publ_section_title
;
Structure prediction by ZEFSAII (Michael W. Deem and Ramdas Pophale) SiO2 
 PCOD8136442
Probable space group: C 2/C
;
_chemical_formula_sum "Si O2"
_cell_formula_units_Z 56
_cell_length_a 18.890348
_cell_length_b 16.990430
_cell_length_c 14.208831
_cell_angle_alpha 90.000000
_cell_angle_beta 138.779149
_cell_angle_gamma 90.000000
_cell_volume 3005.134139
_symmetry_space_group_name_H-M "C 2/C"
_symmetry_group_IT_number 15
_symmetry_cell_setting 'monoclinic'
loop_
_space_group_symop_operation_xyz
x,y,z
-x,y,1/2-z
-x,-y,-z
x,-y,1/2+z
1/2+x,1/2+y,z
1/2-x,1/2+y,1/2-z
1/2-x,1/2-y,-z
1/2+x,1/2-y,1/2+z
loop_
_atom_site_type_symbol
_atom_site_label
_atom_site_fract_x
_atom_site_fract_y
_atom_site_fract_z
Si Si1 0.622828 0.334989 0.880100
Si Si2 0.108469 0.457555 0.717394
Si Si3 0.296126 0.793555 0.905769
Si Si4 0.785968 1.000000 0.535971
Si Si5 0.608477 0.042442 0.999560
Si Si6 0.796127 0.293553 0.686484
Si Si7 0.122827 0.834989 0.365556
O O1 0.500000 0.312013 0.750000
O O2 0.684499 0.312837 0.845990
O O3 0.636786 0.427472 0.909027
O O4 0.663994 0.288505 0.012561
O O5 0.120416 0.478113 0.620420
O O6 0.114133 0.362704 0.740210
O O7 0.999992 0.499995 0.647990
O O8 0.210922 0.494486 0.869865
O O9 0.385865 0.862708 0.011939
O O10 0.270615 0.782988 0.770614
O O11 0.710940 0.994486 0.552013
O O12 0.863219 0.072528 0.635455
O O13 0.836005 0.211492 0.684573
O O14 0.684501 0.312836 0.523009
O O15 0.000000 0.812010 0.250000
#
# Coordination Sequence:
#
# PCOD8136442 Si02
#       7
#     8   8   8   8   8   8   8
#     4  10  21  36  55  78 106 141 178 218 266 319
#     4   9  18  33  54  79 106 137 175 220 267 312
#     4   9  20  37  55  79 108 137 177 224 266 315
#     4  10  20  34  52  76 108 140 176 216 260 316
#     4   9  18  33  54  79 106 137 175 220 267 312
#     4   9  20  37  55  79 108 137 177 224 266 315
#     4  10  21  36  55  78 106 141 178 218 266 319
#
# _framework density 18.634775999999999
#
# number of rings (size 3 to 8) (size 9 to 14) (size 15 to 20)
#    0.000    2.571    0.000    0.857    0.000    9.143 
#    0.000    2.857    0.000    8.571    0.000    0.000 
#    0.000    0.000    0.000    0.000    0.000    0.000 
#
# Total GULP energy -347070.263649 kJ/mol
# GULP energy per Si atom -12395.366559 kJ/mol
# Density = 1.859236 g / cm^3
# Si number density = 18.634776 Si / 1000 Ang^3
#
#
#
# Elastic Constant Matrix: (Units=GPa)
#
#
# Indices 1 2 3 4 5 6 
#
# 1 90.0134 55.0517 50.2159 0.0000 -4.7375 0.0000
# 2 55.0517 128.2712 53.1645 0.0000 -3.3811 0.0000
# 3 50.2159 53.1645 88.8132 0.0000 2.5831 0.0000
# 4 0.0000 0.0000 0.0000 17.5114 0.0000 -3.4392
# 5 -4.7375 -3.3811 2.5831 0.0000 31.6759 0.0000
# 6 0.0000 0.0000 0.0000 -3.4392 0.0000 19.4320
#
#
#
# Elastic Compliance Matrix: (Units=1/GPa)
#
#
# Indices 1 2 3 4 5 6 
#
# 1 0.018392 -0.004618 -0.007718 0.000000 0.002887 0.000000
# 2 -0.004618 0.011611 -0.004366 0.000000 0.000905 0.000000
# 3 -0.007718 -0.004366 0.018328 0.000000 -0.003115 0.000000
# 4 0.000000 0.000000 0.000000 0.059162 0.000000 0.010471
# 5 0.002887 0.000905 -0.003115 0.000000 0.032352 0.000000
# 6 0.000000 0.000000 0.000000 0.010471 0.000000 0.053315
#
#
# Mechanical properties :
#
#
# Convention : Reuss Voigt Hill
#
# Bulk Modulus (GPa) = 66.99725 69.32911 68.16318
# Shear Modulus (GPa) = 21.59456 23.63490 22.61473
#
# Velocity S-wave (km/s) = 3.40785 3.56521 3.48742
# Velocity P-wave (km/s) = 7.17743 7.36428 7.27145
#
# Compressibility (1/GPa) = 0.01492598
#
# Stress axis : x y z
#
# Youngs Moduli (GPa) = 54.37217 86.12220 54.56262
#
# Poissons Ratio (x) = 0.39774 0.42113
# Poissons Ratio (y) = 0.25111 0.23821
# Poissons Ratio (z) = 0.41966 0.37599
#
# Static dielectric constant tensor:
#      x y z
#    x 3.365220 0.000000 -0.041880 
#    y 0.000000 3.627080 0.000000 
#    z -0.041880 0.000000 3.341790 
# 
# 
# High freq. dielectric constant tensor:
#      x y z
#    x 1.721070 0.000000 -0.006640 
#    y 0.000000 1.732550 0.000000 
#    z -0.006640 0.000000 1.717360 
# 
# From -- ./inp_files/163109.got.cif
#   From: 2010.06.25/outbox.cif.g09.slc.cpg/sg15_82_cif.got.tgz:163109.got - 2010.06.28 07:06:18.
