data_PCOD8136097
_publ_section_title
;
Structure prediction by ZEFSAII (Michael W. Deem and Ramdas Pophale) SiO2 
 PCOD8136097
Probable space group: C 2/C
;
_chemical_formula_sum "Si O2"
_cell_formula_units_Z 56
_cell_length_a 19.490404
_cell_length_b 27.792891
_cell_length_c 5.157824
_cell_angle_alpha 90.000000
_cell_angle_beta 84.739911
_cell_angle_gamma 90.000000
_cell_volume 2782.199841
_symmetry_space_group_name_H-M "C 2/C"
_symmetry_group_IT_number 15
_symmetry_cell_setting 'monoclinic'
loop_
_space_group_symop_operation_xyz
x,y,z
-x,y,1/2-z
-x,-y,-z
x,-y,1/2+z
1/2+x,1/2+y,z
1/2-x,1/2+y,1/2-z
1/2-x,1/2-y,-z
1/2+x,1/2-y,1/2+z
loop_
_atom_site_type_symbol
_atom_site_label
_atom_site_fract_x
_atom_site_fract_y
_atom_site_fract_z
Si Si1 0.368812 0.587502 0.034799
Si Si2 0.276332 0.351124 0.871059
Si Si3 0.963870 0.657297 0.510758
Si Si4 0.304932 0.866430 0.084766
Si Si5 0.500000 0.249658 0.250000
Si Si6 0.500000 0.606889 0.250000
Si Si7 0.250566 0.530019 0.912890
Si Si8 0.099351 0.169798 0.876697
O O1 0.318003 0.598849 0.297405
O O2 0.445019 0.573695 0.113104
O O3 0.332807 0.543945 0.892110
O O4 0.370685 0.636408 0.863744
O O5 0.220904 0.356374 0.117075
O O6 0.337818 0.315735 0.949704
O O7 0.236755 0.335411 0.620609
O O8 0.883606 0.647403 0.539687
O O9 0.978462 0.715030 0.496851
O O10 0.000000 0.634980 0.750000
O O11 0.000000 0.631992 0.250000
O O12 0.295721 0.922763 0.026091
O O13 0.432350 0.281006 0.215854
O O14 0.461734 0.641060 0.464048
O O15 0.232434 0.492250 0.142714
#
# Coordination Sequence:
#
# PCOD8136097 Si02
#       8
#     8   8   8   8   4   4   8   8
#     4  10  20  36  57  89 126 165 211 250 314 350
#     4  10  20  34  64  90 117 170 200 251 298 371
#     4  10  24  43  67  93 127 165 195 253 307 385
#     4  11  21  43  66  91 127 162 204 244 328 364
#     4  10  24  38  62  97 122 166 221 244 300 354
#     4  10  20  30  62  83 122 182 209 246 298 364
#     4  11  23  38  63  93 119 156 208 262 301 371
#     4  11  19  37  59  93 126 165 216 254 294 362
#
# _framework density 20.127956999999999
#
# number of rings (size 3 to 8) (size 9 to 14) (size 15 to 20)
#    0.429    1.143    4.286    2.571    3.000    0.000 
#    0.000    2.143    0.000    2.571    0.000    0.000 
#    0.000    0.000    0.000    0.000    0.000    0.000 
#
# Total GULP energy -346919.550622 kJ/mol
# GULP energy per Si atom -12389.983951 kJ/mol
# Density = 2.008214 g / cm^3
# Si number density = 20.127957 Si / 1000 Ang^3
#
#
#
# Elastic Constant Matrix: (Units=GPa)
#
#
# Indices 1 2 3 4 5 6 
#
# 1 126.3843 16.7346 47.9061 0.0000 4.5950 0.0000
# 2 16.7346 47.4850 14.8472 0.0000 -0.6903 0.0000
# 3 47.9061 14.8472 124.6248 0.0000 -2.9259 0.0000
# 4 0.0000 0.0000 0.0000 9.3920 0.0000 -11.8223
# 5 4.5950 -0.6903 -2.9259 0.0000 39.7685 0.0000
# 6 0.0000 0.0000 0.0000 -11.8223 0.0000 -28.9370
#
#
#
# Elastic Compliance Matrix: (Units=1/GPa)
#
#
# Indices 1 2 3 4 5 6 
#
# 1 0.009573 -0.002320 -0.003436 0.000000 -0.001399 0.000000
# 2 -0.002320 0.022438 -0.001769 0.000000 0.000527 0.000000
# 3 -0.003436 -0.001769 0.009581 0.000000 0.001071 0.000000
# 4 0.000000 0.000000 0.000000 0.070314 0.000000 -0.028727
# 5 -0.001399 0.000527 0.001071 0.000000 0.025395 0.000000
# 6 0.000000 0.000000 0.000000 -0.028727 0.000000 -0.022822
#
#
# Mechanical properties :
#
#
# Convention : Reuss Voigt Hill
#
# Bulk Modulus (GPa) = 37.67699 50.83000 44.25349
# Shear Modulus (GPa) = 36.13349 18.64512 27.38930
#
# Velocity S-wave (km/s) = 4.24156 3.04687 3.69285
# Velocity P-wave (km/s) = 6.53813 6.13890 6.34166
#
# Compressibility (1/GPa) = 0.02654140
#
# Stress axis : x y z
#
# Youngs Moduli (GPa) = 104.46119 44.56817 104.37384
#
# Poissons Ratio (x) = 0.10338 0.35867
# Poissons Ratio (y) = 0.24230 0.18465
# Poissons Ratio (z) = 0.35897 0.07884
#
# Static dielectric constant tensor:
#      x y z
#    x 3.780330 0.000000 0.150610 
#    y 0.000000 3.199940 0.000000 
#    z 0.150610 0.000000 3.989100 
# 
# 
# High freq. dielectric constant tensor:
#      x y z
#    x 1.790050 0.000000 0.007550 
#    y 0.000000 1.727300 0.000000 
#    z 0.007550 0.000000 1.806710 
# 
# From -- ./inp_files/14128.got.cif
#   From: 2010.06.25/outbox.cif.g09.slc.cpg/sg15_8_cif.got.tgz:14128.got - 2010.06.28 07:06:18.
