data_PCOD8136786
_publ_section_title
;
Structure prediction by ZEFSAII (Michael W. Deem and Ramdas Pophale) SiO2 
 PCOD8136786
Probable space group: C 2/C
;
_chemical_formula_sum "Si O2"
_cell_formula_units_Z 52
_cell_length_a 15.714073
_cell_length_b 16.858743
_cell_length_c 18.144066
_cell_angle_alpha 90.000000
_cell_angle_beta 31.733428
_cell_angle_gamma 90.000000
_cell_volume 2528.179200
_symmetry_space_group_name_H-M "C 2/C"
_symmetry_group_IT_number 15
_symmetry_cell_setting 'monoclinic'
loop_
_space_group_symop_operation_xyz
x,y,z
-x,y,1/2-z
-x,-y,-z
x,-y,1/2+z
1/2+x,1/2+y,z
1/2-x,1/2+y,1/2-z
1/2-x,1/2-y,-z
1/2+x,1/2-y,1/2+z
loop_
_atom_site_type_symbol
_atom_site_label
_atom_site_fract_x
_atom_site_fract_y
_atom_site_fract_z
Si Si1 0.638878 0.834507 0.309267
Si Si2 0.448172 0.684587 0.494441
Si Si3 0.500000 0.529594 0.750000
Si Si4 0.196015 0.051300 0.343803
Si Si5 0.317150 0.451502 0.011250
Si Si6 0.275029 0.045241 0.641629
Si Si7 0.985723 0.483363 0.356925
O O1 0.507789 0.765771 0.414193
O O2 0.817967 0.801552 0.156290
O O3 0.639976 0.877817 0.387712
O O4 0.584864 0.899934 0.288074
O O5 0.606435 0.635990 0.406797
O O6 0.348430 0.641151 0.502814
O O7 0.584998 0.469744 0.632741
O O8 0.629860 0.581927 0.698435
O O9 0.108856 0.995178 0.469897
O O10 0.201821 0.011347 0.258954
O O11 0.381757 0.055432 0.239565
O O12 0.130121 0.478073 0.130720
O O13 0.389011 0.992674 0.505106
#
# Coordination Sequence:
#
# PCOD8136786 Si02
#       7
#     8   8   4   8   8   8   8
#     4  11  25  39  60  93 127 175 202 260 310 387
#     4  12  25  38  64  89 134 166 215 248 323 373
#     4  10  20  34  66  90 118 150 212 268 312 350
#     4  11  20  39  66  87 120 164 211 260 304 378
#     4  11  21  39  63  97 116 163 206 268 307 378
#     4  10  20  39  65  93 120 161 213 265 307 375
#     4  10  23  38  67  94 127 153 218 261 321 362
#
# _framework density 20.568162000000001
#
# number of rings (size 3 to 8) (size 9 to 14) (size 15 to 20)
#    0.000    1.231    4.615    3.692    4.308    0.615 
#    0.000    0.000    3.385    2.769    0.000    0.000 
#    0.000    0.000    0.000    0.000    0.000    0.000 
#
# Total GULP energy -322116.424281 kJ/mol
# GULP energy per Si atom -12389.093242 kJ/mol
# Density = 2.052135 g / cm^3
# Si number density = 20.568162 Si / 1000 Ang^3
#
#
#
# Elastic Constant Matrix: (Units=GPa)
#
#
# Indices 1 2 3 4 5 6 
#
# 1 119.9349 19.0268 26.8284 -0.0001 -6.9702 0.0001
# 2 19.0268 43.4859 26.9523 -0.0061 -3.9302 0.0009
# 3 26.8284 26.9523 105.6995 0.0087 -10.3340 -0.0009
# 4 -0.0001 -0.0061 0.0087 37.9767 -0.0008 -9.7622
# 5 -6.9702 -3.9302 -10.3340 -0.0008 25.3104 -0.0006
# 6 0.0001 0.0009 -0.0009 -9.7622 -0.0006 21.3657
#
#
#
# Elastic Compliance Matrix: (Units=1/GPa)
#
#
# Indices 1 2 3 4 5 6 
#
# 1 0.009222 -0.003017 -0.001426 0.000000 0.001489 0.000000
# 2 -0.003017 0.028351 -0.006369 0.000006 0.000971 0.000002
# 3 -0.001426 -0.006369 0.011782 -0.000004 0.003429 -0.000001
# 4 0.000000 0.000006 -0.000004 0.029836 0.000001 0.013633
# 5 0.001489 0.000971 0.003429 0.000001 0.041470 0.000002
# 6 0.000000 0.000002 -0.000001 0.013633 0.000002 0.053033
#
#
# Mechanical properties :
#
#
# Convention : Reuss Voigt Hill
#
# Bulk Modulus (GPa) = 36.05883 46.08171 41.07027
# Shear Modulus (GPa) = 24.44268 30.01809 27.23038
#
# Velocity S-wave (km/s) = 3.45102 3.82441 3.64250
# Velocity P-wave (km/s) = 5.78350 6.47723 6.14017
#
# Compressibility (1/GPa) = 0.02773246
#
# Stress axis : x y z
#
# Youngs Moduli (GPa) = 108.43731 35.27237 84.87630
#
# Poissons Ratio (x) = 0.10640 0.12103
# Poissons Ratio (y) = 0.32711 0.54054
# Poissons Ratio (z) = 0.15462 0.22463
#
# Static dielectric constant tensor:
#      x y z
#    x 4.182850 -0.000010 -0.241440 
#    y -0.000010 3.227350 0.000020 
#    z -0.241440 0.000020 4.234320 
# 
# 
# High freq. dielectric constant tensor:
#      x y z
#    x 1.820450 0.000000 -0.002840 
#    y 0.000000 1.741190 0.000000 
#    z -0.002840 0.000000 1.849040 
# 
# From -- ./inp_files/249104.got.cif
#   From: 2010.06.25/outbox.cif.g09.slc.cpg/sg15_125_cif.got.tgz:249104.got - 2010.06.28 07:06:18.
