data_PCOD8136670
_publ_section_title
;
Structure prediction by ZEFSAII (Michael W. Deem and Ramdas Pophale) SiO2 
 PCOD8136670
Probable space group: C 2/C
;
_chemical_formula_sum "Si O2"
_cell_formula_units_Z 44
_cell_length_a 29.227331
_cell_length_b 9.822951
_cell_length_c 24.748614
_cell_angle_alpha 90.000000
_cell_angle_beta 161.025262
_cell_angle_gamma 90.000000
_cell_volume 2310.294961
_symmetry_space_group_name_H-M "C 2/C"
_symmetry_group_IT_number 15
_symmetry_cell_setting 'monoclinic'
loop_
_space_group_symop_operation_xyz
x,y,z
-x,y,1/2-z
-x,-y,-z
x,-y,1/2+z
1/2+x,1/2+y,z
1/2-x,1/2+y,1/2-z
1/2-x,1/2-y,-z
1/2+x,1/2-y,1/2+z
loop_
_atom_site_type_symbol
_atom_site_label
_atom_site_fract_x
_atom_site_fract_y
_atom_site_fract_z
Si Si1 0.844873 0.150453 0.944582
Si Si2 0.148265 0.174526 0.425058
Si Si3 0.380627 0.342921 0.007023
Si Si4 0.467667 0.843367 0.414250
Si Si5 0.939111 0.647865 0.363547
Si Si6 0.000000 0.086782 0.750000
O O1 0.694885 0.179156 0.748370
O O2 0.896319 0.994357 0.000079
O O3 0.808619 0.193154 0.965090
O O4 0.972149 0.234910 0.061016
O O5 0.250000 0.250000 0.500000
O O6 0.000000 0.248801 0.250000
O O7 0.135673 0.013958 0.394135
O O8 0.215238 0.312278 0.831173
O O9 0.444632 0.238504 0.035860
O O10 0.467472 0.323810 0.160379
O O11 0.561299 0.829416 0.572423
O O12 0.477883 0.990071 0.396389
#
# Coordination Sequence:
#
# PCOD8136670 Si02
#       6
#     8   8   8   8   8   4
#     4  10  20  34  59  82 115 141 187 234 283 325
#     4   9  17  32  54  81 111 145 176 230 275 327
#     4  10  21  39  57  80 112 155 183 236 277 336
#     4  10  21  37  56  87 111 146 187 238 274 337
#     4  10  22  38  58  79 118 149 188 227 284 332
#     4   8  20  36  58  78 116 146 186 232 280 328
#
# _framework density 19.045186999999999
#
# number of rings (size 3 to 8) (size 9 to 14) (size 15 to 20)
#    0.545    1.818    0.000    2.182    0.000    2.909 
#    0.000    0.000    2.000    0.000    0.000    0.000 
#    0.000    0.000    0.000    0.000    0.000    0.000 
#
# Total GULP energy -272637.895985 kJ/mol
# GULP energy per Si atom -12392.631636 kJ/mol
# Density = 1.900184 g / cm^3
# Si number density = 19.045187 Si / 1000 Ang^3
#
#
#
# Elastic Constant Matrix: (Units=GPa)
#
#
# Indices 1 2 3 4 5 6 
#
# 1 67.5024 41.8809 37.8007 -0.0014 1.4335 -0.0007
# 2 41.8809 83.3669 35.8229 -0.0040 17.6066 -0.0027
# 3 37.8007 35.8229 93.3569 -0.0031 -3.5770 -0.0022
# 4 -0.0014 -0.0040 -0.0031 22.1724 -0.0020 6.4352
# 5 1.4335 17.6066 -3.5770 -0.0020 34.9226 -0.0012
# 6 -0.0007 -0.0027 -0.0022 6.4352 -0.0012 26.8722
#
#
#
# Elastic Compliance Matrix: (Units=1/GPa)
#
#
# Indices 1 2 3 4 5 6 
#
# 1 0.024556 -0.010691 -0.005695 -0.000001 0.003799 -0.000001
# 2 -0.010691 0.021528 -0.004348 0.000001 -0.010860 0.000001
# 3 -0.005695 -0.004348 0.014837 0.000001 0.003945 0.000001
# 4 -0.000001 0.000001 0.000001 0.048470 0.000002 -0.011607
# 5 0.003799 -0.010860 0.003945 0.000002 0.034358 0.000000
# 6 -0.000001 0.000001 0.000001 -0.011607 0.000000 0.039993
#
#
# Mechanical properties :
#
#
# Convention : Reuss Voigt Hill
#
# Bulk Modulus (GPa) = 51.40614 52.80391 52.10503
# Shear Modulus (GPa) = 21.58018 25.37490 23.47754
#
# Velocity S-wave (km/s) = 3.36981 3.65410 3.51483
# Velocity P-wave (km/s) = 6.49547 6.75197 6.62496
#
# Compressibility (1/GPa) = 0.01945293
#
# Stress axis : x y z
#
# Youngs Moduli (GPa) = 40.72329 46.45107 67.39931
#
# Poissons Ratio (x) = 0.49663 0.38382
# Poissons Ratio (y) = 0.43539 0.29304
# Poissons Ratio (z) = 0.23191 0.20196
#
# Static dielectric constant tensor:
#      x y z
#    x 3.191240 0.000000 -0.258610 
#    y 0.000000 3.336260 0.000000 
#    z -0.258610 0.000000 3.592560 
# 
# 
# High freq. dielectric constant tensor:
#      x y z
#    x 1.727970 0.000000 -0.017490 
#    y 0.000000 1.722230 0.000000 
#    z -0.017490 0.000000 1.753870 
# 
# From -- ./inp_files/304232.got.cif
#   From: 2010.06.25/outbox.cif.g09.slc.cpg/sg15_153_cif.got.tgz:304232.got - 2010.06.28 07:06:18.
