data_PCOD8136886
_publ_section_title
;
Structure prediction by ZEFSAII (Michael W. Deem and Ramdas Pophale) SiO2 
 PCOD8136886
Probable space group: C 2/C
;
_chemical_formula_sum "Si O2"
_cell_formula_units_Z 56
_cell_length_a 11.367057
_cell_length_b 15.456006
_cell_length_c 17.802092
_cell_angle_alpha 90.000000
_cell_angle_beta 109.544999
_cell_angle_gamma 90.000000
_cell_volume 2947.419635
_symmetry_space_group_name_H-M "C 2/C"
_symmetry_group_IT_number 15
_symmetry_cell_setting 'monoclinic'
loop_
_space_group_symop_operation_xyz
x,y,z
-x,y,1/2-z
-x,-y,-z
x,-y,1/2+z
1/2+x,1/2+y,z
1/2-x,1/2+y,1/2-z
1/2-x,1/2-y,-z
1/2+x,1/2-y,1/2+z
loop_
_atom_site_type_symbol
_atom_site_label
_atom_site_fract_x
_atom_site_fract_y
_atom_site_fract_z
Si Si1 0.584403 0.258968 0.334711
Si Si2 0.427060 0.889221 0.876086
Si Si3 0.390930 0.408836 0.042970
Si Si4 0.737720 0.152060 0.020185
Si Si5 0.164551 0.507447 0.421534
Si Si6 0.002253 0.913087 0.593317
Si Si7 0.757899 0.386144 0.700487
O O1 0.500000 0.298497 0.250000
O O2 0.507320 0.190955 0.366111
O O3 0.625801 0.334777 0.398708
O O4 0.701159 0.207640 0.323250
O O5 0.369515 0.864112 0.942696
O O6 0.518427 0.972169 0.905116
O O7 0.318600 0.908974 0.793117
O O8 0.485471 0.483229 0.091107
O O9 0.250155 0.442491 0.000677
O O10 0.448913 0.376239 0.976656
O O11 0.870576 0.128817 0.085225
O O12 0.750000 0.250000 0.000000
O O13 0.698553 0.094113 0.939348
O O14 0.201159 0.535760 0.345601
O O15 0.107471 0.887060 0.676926
#
# Coordination Sequence:
#
# PCOD8136886 Si02
#       7
#     8   8   8   8   8   8   8
#     4   9  18  33  54  82 108 135 181 228 279 312
#     4  10  20  35  56  80 111 145 179 229 273 326
#     4   9  17  33  55  80 104 134 180 232 262 327
#     4  11  22  35  56  78 113 150 184 228 271 334
#     4   9  19  36  58  81 103 140 194 225 276 319
#     4   9  19  34  53  76 107 145 179 213 281 330
#     4   9  19  36  58  78 109 144 177 233 276 325
#
# _framework density 18.999669999999998
#
# number of rings (size 3 to 8) (size 9 to 14) (size 15 to 20)
#    0.000    2.571    0.000    3.429    0.000    6.857 
#    5.143    0.000    9.429    0.000    0.000    0.000 
#    0.000    0.000    0.000    0.000    0.000    0.000 
#
# Total GULP energy -347076.266203 kJ/mol
# GULP energy per Si atom -12395.580936 kJ/mol
# Density = 1.895643 g / cm^3
# Si number density = 18.999670 Si / 1000 Ang^3
#
#
#
# Elastic Constant Matrix: (Units=GPa)
#
#
# Indices 1 2 3 4 5 6 
#
# 1 77.9565 9.8432 8.2082 0.0000 21.6850 0.0000
# 2 9.8432 91.6974 37.4022 0.0000 8.2504 0.0000
# 3 8.2082 37.4022 67.6732 0.0000 16.6707 0.0000
# 4 0.0000 0.0000 0.0000 17.9840 0.0000 4.0512
# 5 21.6850 8.2504 16.6707 0.0000 31.8133 0.0000
# 6 0.0000 0.0000 0.0000 4.0512 0.0000 13.8630
#
#
#
# Elastic Compliance Matrix: (Units=1/GPa)
#
#
# Indices 1 2 3 4 5 6 
#
# 1 0.016000 -0.001350 0.001614 0.000000 -0.011402 0.000000
# 2 -0.001350 0.014200 -0.008042 0.000000 0.001452 0.000000
# 3 0.001614 -0.008042 0.021567 0.000000 -0.010316 0.000000
# 4 0.000000 0.000000 0.000000 0.059523 0.000000 -0.017395
# 5 -0.011402 0.001452 -0.010316 0.000000 0.044235 0.000000
# 6 0.000000 0.000000 0.000000 -0.017395 0.000000 0.077218
#
#
# Mechanical properties :
#
#
# Convention : Reuss Voigt Hill
#
# Bulk Modulus (GPa) = 27.61578 38.69269 33.15424
# Shear Modulus (GPa) = 19.20351 24.85696 22.03024
#
# Velocity S-wave (km/s) = 3.18265 3.62094 3.40885
# Velocity P-wave (km/s) = 5.29831 6.15555 5.74295
#
# Compressibility (1/GPa) = 0.03621119
#
# Stress axis : x y z
#
# Youngs Moduli (GPa) = 62.50089 70.42269 46.36686
#
# Poissons Ratio (x) = 0.09507 -0.07485
# Poissons Ratio (y) = 0.08438 0.37288
# Poissons Ratio (z) = -0.10089 0.56634
#
# Static dielectric constant tensor:
#      x y z
#    x 3.616950 0.000000 0.236790 
#    y 0.000000 3.334770 0.000000 
#    z 0.236790 0.000000 3.481540 
# 
# 
# High freq. dielectric constant tensor:
#      x y z
#    x 1.743690 0.000000 0.014490 
#    y 0.000000 1.719120 0.000000 
#    z 0.014490 0.000000 1.728250 
# 
# From -- ./inp_files/197766.got.cif
#   From: 2010.06.25/outbox.cif.g09.slc.cpg/sg15_99_cif.got.tgz:197766.got - 2010.06.28 07:06:18.
