data_PCOD8136934
_publ_section_title
;
Structure prediction by ZEFSAII (Michael W. Deem and Ramdas Pophale) SiO2 
 PCOD8136934
Probable space group: C 2/C
;
_chemical_formula_sum "Si O2"
_cell_formula_units_Z 48
_cell_length_a 12.713023
_cell_length_b 20.122534
_cell_length_c 14.534148
_cell_angle_alpha 90.000000
_cell_angle_beta 136.993898
_cell_angle_gamma 90.000000
_cell_volume 2536.027774
_symmetry_space_group_name_H-M "C 2/C"
_symmetry_group_IT_number 15
_symmetry_cell_setting 'monoclinic'
loop_
_space_group_symop_operation_xyz
x,y,z
-x,y,1/2-z
-x,-y,-z
x,-y,1/2+z
1/2+x,1/2+y,z
1/2-x,1/2+y,1/2-z
1/2-x,1/2-y,-z
1/2+x,1/2-y,1/2+z
loop_
_atom_site_type_symbol
_atom_site_label
_atom_site_fract_x
_atom_site_fract_y
_atom_site_fract_z
Si Si1 0.709997 0.297122 0.557309
Si Si2 0.674892 0.939242 0.333946
Si Si3 0.316690 0.579956 0.733168
Si Si4 0.327938 0.441670 0.035202
Si Si5 0.681583 0.789476 0.371500
Si Si6 0.138759 0.773242 0.187686
O O1 0.750000 0.250000 0.500000
O O2 0.734206 0.374199 0.549897
O O3 0.828692 0.284420 0.717175
O O4 0.532000 0.278563 0.464544
O O5 0.500000 0.951812 0.250000
O O6 0.702696 0.945374 0.241256
O O7 0.730426 0.867120 0.405682
O O8 0.773556 0.994487 0.446381
O O9 0.488991 0.554251 0.857801
O O10 0.263666 0.554576 0.598861
O O11 0.316085 0.659569 0.730279
O O12 0.500000 0.781844 0.250000
O O13 0.750000 0.750000 0.500000
O O14 0.748707 0.756001 0.323608
#
# Coordination Sequence:
#
# PCOD8136934 Si02
#       6
#     8   8   8   8   8   8
#     4  11  20  34  57  85 115 145 186 228 283 335
#     4  10  22  38  57  81 115 146 181 232 283 324
#     4   9  19  38  58  76 111 153 181 225 283 328
#     4  10  20  37  57  82 112 147 188 225 275 339
#     4  10  21  41  60  81 113 148 189 230 278 331
#     4  10  20  35  57  83 112 149 184 232 281 329
#
# _framework density 18.927239
#
# number of rings (size 3 to 8) (size 9 to 14) (size 15 to 20)
#    0.000    2.000    1.667    2.000    0.000    2.000 
#    6.000    0.000    0.000    0.000    0.000    0.000 
#    0.000    0.000    0.000    0.000    0.000    0.000 
#
# Total GULP energy -297530.729584 kJ/mol
# GULP energy per Si atom -12397.113733 kJ/mol
# Density = 1.888416 g / cm^3
# Si number density = 18.927239 Si / 1000 Ang^3
#
#
#
# Elastic Constant Matrix: (Units=GPa)
#
#
# Indices 1 2 3 4 5 6 
#
# 1 144.1278 44.3157 36.4981 0.0000 -7.0008 0.0000
# 2 44.3157 98.4033 55.5409 0.0000 -16.4791 0.0000
# 3 36.4981 55.5409 79.7667 0.0000 -18.1457 0.0000
# 4 0.0000 0.0000 0.0000 36.2684 0.0000 -4.3585
# 5 -7.0008 -16.4791 -18.1457 0.0000 23.1788 0.0000
# 6 0.0000 0.0000 0.0000 -4.3585 0.0000 23.4873
#
#
#
# Elastic Compliance Matrix: (Units=1/GPa)
#
#
# Indices 1 2 3 4 5 6 
#
# 1 0.008257 -0.002684 -0.002161 0.000000 -0.001106 0.000000
# 2 -0.002684 0.017835 -0.010330 0.000000 0.003782 0.000000
# 3 -0.002161 -0.010330 0.022993 0.000000 0.010004 0.000000
# 4 0.000000 0.000000 0.000000 0.028201 0.000000 0.005233
# 5 -0.001106 0.003782 0.010004 0.000000 0.053330 0.000000
# 6 0.000000 0.000000 0.000000 0.005233 0.000000 0.043547
#
#
# Mechanical properties :
#
#
# Convention : Reuss Voigt Hill
#
# Bulk Modulus (GPa) = 53.37258 66.11192 59.74225
# Shear Modulus (GPa) = 23.72394 28.98312 26.35353
#
# Velocity S-wave (km/s) = 3.54422 3.91742 3.73548
# Velocity P-wave (km/s) = 6.70885 7.44761 7.08786
#
# Compressibility (1/GPa) = 0.01873621
#
# Stress axis : x y z
#
# Youngs Moduli (GPa) = 121.10855 56.07036 43.49080
#
# Poissons Ratio (x) = 0.15050 0.09397
# Poissons Ratio (y) = 0.32508 0.44924
# Poissons Ratio (z) = 0.26168 0.57918
#
# Static dielectric constant tensor:
#      x y z
#    x 3.824620 0.000000 0.085960 
#    y 0.000000 3.349490 0.000000 
#    z 0.085960 0.000000 3.869810 
# 
# 
# High freq. dielectric constant tensor:
#      x y z
#    x 1.755340 0.000000 -0.000760 
#    y 0.000000 1.727020 0.000000 
#    z -0.000760 0.000000 1.722400 
# 
# From -- ./inp_files/32662.got.cif
#   From: 2010.06.25/outbox.cif.g09.slc.cpg/sg15_17_cif.got.tgz:32662.got - 2010.06.28 07:06:18.
