data_PCOD8136019
_publ_section_title
;
Structure prediction by ZEFSAII (Michael W. Deem and Ramdas Pophale) SiO2 
 PCOD8136019
Probable space group: C 2/C
;
_chemical_formula_sum "Si O2"
_cell_formula_units_Z 48
_cell_length_a 16.446812
_cell_length_b 10.884633
_cell_length_c 14.679308
_cell_angle_alpha 90.000000
_cell_angle_beta 55.355048
_cell_angle_gamma 90.000000
_cell_volume 2161.910150
_symmetry_space_group_name_H-M "C 2/C"
_symmetry_group_IT_number 15
_symmetry_cell_setting 'monoclinic'
loop_
_space_group_symop_operation_xyz
x,y,z
-x,y,1/2-z
-x,-y,-z
x,-y,1/2+z
1/2+x,1/2+y,z
1/2-x,1/2+y,1/2-z
1/2-x,1/2-y,-z
1/2+x,1/2-y,1/2+z
loop_
_atom_site_type_symbol
_atom_site_label
_atom_site_fract_x
_atom_site_fract_y
_atom_site_fract_z
Si Si1 0.954142 0.442910 0.440362
Si Si2 0.069764 0.775957 0.922025
Si Si3 0.757890 0.313992 0.588961
Si Si4 0.290560 0.709267 0.751206
Si Si5 0.586425 0.527894 0.267612
Si Si6 0.481520 0.814460 0.664595
O O1 0.838964 0.421027 0.530056
O O2 0.970679 0.549337 0.355195
O O3 0.000000 0.500000 0.500000
O O4 0.013471 0.315979 0.387023
O O5 0.183843 0.734816 0.863094
O O6 0.054050 0.910303 0.885663
O O7 0.023884 0.769648 0.053774
O O8 0.750000 0.250000 0.500000
O O9 0.782606 0.207898 0.646683
O O10 0.652742 0.370406 0.677825
O O11 0.345653 0.589382 0.753928
O O12 0.362866 0.824706 0.727617
O O13 0.500000 0.496210 0.250000
O O14 0.500000 0.747346 0.750000
#
# Coordination Sequence:
#
# PCOD8136019 Si02
#       6
#     8   8   8   8   8   8
#     4  10  19  42  68  89 128 174 224 278 330 394
#     4  10  23  42  69  96 136 174 231 280 339 405
#     4  11  23  44  71 102 133 182 238 278 338 408
#     4  11  24  43  67  98 141 175 222 285 345 401
#     4  11  24  42  68 102 141 178 224 281 346 409
#     4  11  24  42  67  96 135 183 228 284 340 408
#
# _framework density 22.202587999999999
#
# number of rings (size 3 to 8) (size 9 to 14) (size 15 to 20)
#    0.000    1.333    3.333    3.500    2.333    4.667 
#    3.000    0.000    0.000    0.000    0.000    0.000 
#    0.000    0.000    0.000    0.000    0.000    0.000 
#
# Total GULP energy -297314.573438 kJ/mol
# GULP energy per Si atom -12388.107227 kJ/mol
# Density = 2.215205 g / cm^3
# Si number density = 22.202588 Si / 1000 Ang^3
#
#
#
# Elastic Constant Matrix: (Units=GPa)
#
#
# Indices 1 2 3 4 5 6 
#
# 1 123.3388 18.5459 48.5233 0.0000 8.2257 0.0000
# 2 18.5459 66.5499 13.5476 0.0000 11.7010 0.0000
# 3 48.5233 13.5476 109.4204 0.0000 12.1185 0.0000
# 4 0.0000 0.0000 0.0000 24.1452 0.0000 -8.2445
# 5 8.2257 11.7010 12.1185 0.0000 41.8203 0.0000
# 6 0.0000 0.0000 0.0000 -8.2445 0.0000 30.1589
#
#
#
# Elastic Compliance Matrix: (Units=1/GPa)
#
#
# Indices 1 2 3 4 5 6 
#
# 1 0.010063 -0.001909 -0.004201 0.000000 -0.000228 0.000000
# 2 -0.001909 0.016413 -0.000742 0.000000 -0.004002 0.000000
# 3 -0.004201 -0.000742 0.011343 0.000000 -0.002253 0.000000
# 4 0.000000 0.000000 0.000000 0.045680 0.000000 0.012487
# 5 -0.000228 -0.004002 -0.002253 0.000000 0.025729 0.000000
# 6 0.000000 0.000000 0.000000 0.012487 0.000000 0.036571
#
#
# Mechanical properties :
#
#
# Convention : Reuss Voigt Hill
#
# Bulk Modulus (GPa) = 41.46845 51.17140 46.31992
# Shear Modulus (GPa) = 29.84326 33.80437 31.82382
#
# Velocity S-wave (km/s) = 3.67022 3.90621 3.79005
# Velocity P-wave (km/s) = 6.05628 6.59107 6.32932
#
# Compressibility (1/GPa) = 0.02411472
#
# Stress axis : x y z
#
# Youngs Moduli (GPa) = 99.37756 60.92726 88.15727
#
# Poissons Ratio (x) = 0.11631 0.37033
# Poissons Ratio (y) = 0.18971 0.06545
# Poissons Ratio (z) = 0.41746 0.04523
#
# Static dielectric constant tensor:
#      x y z
#    x 4.537960 0.000000 0.260580 
#    y 0.000000 6.169710 0.000000 
#    z 0.260580 0.000000 4.921320 
# 
# 
# High freq. dielectric constant tensor:
#      x y z
#    x 1.886380 0.000000 -0.007120 
#    y 0.000000 1.868210 0.000000 
#    z -0.007120 0.000000 1.874680 
# 
# From -- ./inp_files/152453.got.cif
#   From: 2010.06.25/outbox.cif.g09.slc.cpg/sg15_77_cif.got.tgz:152453.got - 2010.06.28 07:06:18.
