data_PCOD8136590
_publ_section_title
;
Structure prediction by ZEFSAII (Michael W. Deem and Ramdas Pophale) SiO2 
 PCOD8136590
Probable space group: C 2/C
;
_chemical_formula_sum "Si O2"
_cell_formula_units_Z 48
_cell_length_a 11.476057
_cell_length_b 16.698216
_cell_length_c 15.074182
_cell_angle_alpha 90.000000
_cell_angle_beta 59.119245
_cell_angle_gamma 90.000000
_cell_volume 2479.156463
_symmetry_space_group_name_H-M "C 2/C"
_symmetry_group_IT_number 15
_symmetry_cell_setting 'monoclinic'
loop_
_space_group_symop_operation_xyz
x,y,z
-x,y,1/2-z
-x,-y,-z
x,-y,1/2+z
1/2+x,1/2+y,z
1/2-x,1/2+y,1/2-z
1/2-x,1/2-y,-z
1/2+x,1/2-y,1/2+z
loop_
_atom_site_type_symbol
_atom_site_label
_atom_site_fract_x
_atom_site_fract_y
_atom_site_fract_z
Si Si1 0.281051 0.623318 0.541404
Si Si2 0.208830 0.892902 0.132754
Si Si3 0.579894 0.739251 0.131197
Si Si4 0.949494 0.147819 0.635768
Si Si5 0.484324 0.192575 0.489151
Si Si6 0.141008 0.542941 0.452446
O O1 0.362909 0.654041 0.423189
O O2 0.197754 0.698742 0.612602
O O3 0.381371 0.597359 0.581674
O O4 0.186550 0.552299 0.539236
O O5 0.157647 0.848483 0.241344
O O6 0.335623 0.847255 0.037066
O O7 0.086520 0.897585 0.109876
O O8 0.250082 0.985469 0.139391
O O9 0.500000 0.719031 0.250000
O O10 0.488693 0.776753 0.088671
O O11 0.992100 0.237434 0.590798
O O12 0.610854 0.130856 0.422878
O O13 0.000000 0.500000 0.500000
#
# Coordination Sequence:
#
# PCOD8136590 Si02
#       6
#     8   8   8   8   8   8
#     4   9  18  32  52  78 112 137 184 227 269 334
#     4  10  20  35  57  80 116 151 181 229 288 333
#     4   9  16  29  52  85 104 137 181 230 268 316
#     4  10  20  34  57  84 111 148 187 231 276 334
#     4   9  18  34  58  81 108 146 190 229 271 335
#     4   9  19  36  56  76 107 150 182 230 286 330
#
# _framework density 19.361425000000001
#
# number of rings (size 3 to 8) (size 9 to 14) (size 15 to 20)
#    0.000    2.667    0.000    2.500    0.000    0.667 
#    3.000    0.000   18.333    0.000    0.000    0.000 
#    0.000    0.000    0.000    0.000    0.000    0.000 
#
# Total GULP energy -297335.060607 kJ/mol
# GULP energy per Si atom -12388.960859 kJ/mol
# Density = 1.931736 g / cm^3
# Si number density = 19.361425 Si / 1000 Ang^3
#
#
#
# Elastic Constant Matrix: (Units=GPa)
#
#
# Indices 1 2 3 4 5 6 
#
# 1 136.8586 47.7686 54.9656 0.0000 5.6729 0.0000
# 2 47.7686 74.1460 35.6519 0.0000 -4.1274 0.0000
# 3 54.9656 35.6519 107.5640 0.0000 -3.3228 0.0000
# 4 0.0000 0.0000 0.0000 17.3321 0.0000 -1.0192
# 5 5.6729 -4.1274 -3.3228 0.0000 22.0152 0.0000
# 6 0.0000 0.0000 0.0000 -1.0192 0.0000 32.6195
#
#
#
# Elastic Compliance Matrix: (Units=1/GPa)
#
#
# Indices 1 2 3 4 5 6 
#
# 1 0.010965 -0.005414 -0.003946 0.000000 -0.004436 0.000000
# 2 -0.005414 0.018825 -0.003336 0.000000 0.004421 0.000000
# 3 -0.003946 -0.003336 0.012489 0.000000 0.002276 0.000000
# 4 0.000000 0.000000 0.000000 0.057802 0.000000 0.001806
# 5 -0.004436 0.004421 0.002276 0.000000 0.047739 0.000000
# 6 0.000000 0.000000 0.000000 0.001806 0.000000 0.030713
#
#
# Mechanical properties :
#
#
# Convention : Reuss Voigt Hill
#
# Bulk Modulus (GPa) = 59.21650 66.14899 62.68275
# Shear Modulus (GPa) = 23.86007 26.40553 25.13280
#
# Velocity S-wave (km/s) = 3.51429 3.69700 3.60681
# Velocity P-wave (km/s) = 6.86427 7.24315 7.05626
#
# Compressibility (1/GPa) = 0.01688718
#
# Stress axis : x y z
#
# Youngs Moduli (GPa) = 91.19869 53.12020 80.06857
#
# Poissons Ratio (x) = 0.28759 0.31593
# Poissons Ratio (y) = 0.49374 0.26715
# Poissons Ratio (z) = 0.35985 0.17723
#
# Static dielectric constant tensor:
#      x y z
#    x 3.974530 0.000000 -0.080750 
#    y 0.000000 3.847140 0.000000 
#    z -0.080750 0.000000 3.204640 
# 
# 
# High freq. dielectric constant tensor:
#      x y z
#    x 1.780000 0.000000 -0.005660 
#    y 0.000000 1.739240 0.000000 
#    z -0.005660 0.000000 1.717330 
# 
# From -- ./inp_files/87470.got.cif
#   From: 2010.06.25/outbox.cif.g09.slc.cpg/sg15_44_cif.got.tgz:87470.got - 2010.06.28 07:06:18.
