data_PCOD8136337
_publ_section_title
;
Structure prediction by ZEFSAII (Michael W. Deem and Ramdas Pophale) SiO2 
 PCOD8136337
Probable space group: C 2/C
;
_chemical_formula_sum "Si O2"
_cell_formula_units_Z 56
_cell_length_a 20.507461
_cell_length_b 14.593846
_cell_length_c 14.650914
_cell_angle_alpha 90.000000
_cell_angle_beta 42.157649
_cell_angle_gamma 90.000000
_cell_volume 2942.935471
_symmetry_space_group_name_H-M "C 2/C"
_symmetry_group_IT_number 15
_symmetry_cell_setting 'monoclinic'
loop_
_space_group_symop_operation_xyz
x,y,z
-x,y,1/2-z
-x,-y,-z
x,-y,1/2+z
1/2+x,1/2+y,z
1/2-x,1/2+y,1/2-z
1/2-x,1/2-y,-z
1/2+x,1/2-y,1/2+z
loop_
_atom_site_type_symbol
_atom_site_label
_atom_site_fract_x
_atom_site_fract_y
_atom_site_fract_z
Si Si1 0.928134 0.704256 0.007277
Si Si2 0.489449 0.970168 0.158473
Si Si3 0.226957 0.186204 0.940160
Si Si4 0.256729 0.903921 0.767078
Si Si5 0.672513 0.063849 0.925662
Si Si6 0.365609 0.235996 0.643634
Si Si7 0.219205 0.508051 0.082817
O O1 0.870796 0.783658 0.011842
O O2 0.856055 0.652770 0.151110
O O3 0.972557 0.633786 0.887787
O O4 0.017443 0.743282 0.973865
O O5 0.500000 0.004111 0.250000
O O6 0.376250 0.983369 0.255324
O O7 0.560170 0.033768 0.023444
O O8 0.322378 0.189782 0.778772
O O9 0.215258 0.083398 0.992042
O O10 0.250000 0.250000 0.000000
O O11 0.168650 0.840481 0.825911
O O12 0.257337 0.999211 0.708593
O O13 0.231492 0.919318 0.900403
O O14 0.675378 0.171201 0.896318
O O15 0.701866 0.050279 0.001188
#
# Coordination Sequence:
#
# PCOD8136337 Si02
#       7
#     8   8   8   8   8   8   8
#     4  10  20  33  55  83 114 146 180 235 284 328
#     4   9  16  29  52  82 106 132 176 231 287 324
#     4  11  21  34  55  85 112 143 185 230 282 335
#     4  10  21  36  55  85 108 147 191 226 282 334
#     4  10  20  35  56  84 113 145 188 233 284 334
#     4  11  21  36  56  79 116 148 183 235 280 331
#     4  11  19  34  57  80 116 146 181 237 284 333
#
# _framework density 19.028618999999999
#
# number of rings (size 3 to 8) (size 9 to 14) (size 15 to 20)
#    0.000    1.714    2.857    4.286    0.000    2.857 
#    0.000    0.714    0.000    0.000    0.000    0.000 
#    0.000    0.000    0.000    0.000    0.000    0.000 
#
# Total GULP energy -346959.534352 kJ/mol
# GULP energy per Si atom -12391.411941 kJ/mol
# Density = 1.898531 g / cm^3
# Si number density = 19.028619 Si / 1000 Ang^3
#
#
#
# Elastic Constant Matrix: (Units=GPa)
#
#
# Indices 1 2 3 4 5 6 
#
# 1 89.5499 39.2300 30.2890 0.0000 10.4533 0.0000
# 2 39.2300 69.7532 19.9695 0.0000 3.7534 0.0000
# 3 30.2890 19.9695 49.9335 0.0000 8.1782 0.0000
# 4 0.0000 0.0000 0.0000 23.4857 0.0000 7.6973
# 5 10.4533 3.7534 8.1782 0.0000 30.5265 0.0000
# 6 0.0000 0.0000 0.0000 7.6973 0.0000 32.7953
#
#
#
# Elastic Compliance Matrix: (Units=1/GPa)
#
#
# Indices 1 2 3 4 5 6 
#
# 1 0.017148 -0.007504 -0.006892 0.000000 -0.003103 0.000000
# 2 -0.007504 0.019476 -0.003416 0.000000 0.001090 0.000000
# 3 -0.006892 -0.003416 0.026271 0.000000 -0.004258 0.000000
# 4 0.000000 0.000000 0.000000 0.046127 0.000000 -0.010826
# 5 -0.003103 0.001090 -0.004258 0.000000 0.034828 0.000000
# 6 0.000000 0.000000 0.000000 -0.010826 0.000000 0.033033
#
#
# Mechanical properties :
#
#
# Convention : Reuss Voigt Hill
#
# Bulk Modulus (GPa) = 36.66960 43.13485 39.90223
# Shear Modulus (GPa) = 22.56357 25.34472 23.95415
#
# Velocity S-wave (km/s) = 3.44724 3.65352 3.55187
# Velocity P-wave (km/s) = 5.92935 6.36515 6.15111
#
# Compressibility (1/GPa) = 0.02727055
#
# Stress axis : x y z
#
# Youngs Moduli (GPa) = 58.31681 51.34603 38.06512
#
# Poissons Ratio (x) = 0.38530 0.26236
# Poissons Ratio (y) = 0.43760 0.13001
# Poissons Ratio (z) = 0.40194 0.17537
#
# Static dielectric constant tensor:
#      x y z
#    x 3.447140 0.000000 -0.076000 
#    y 0.000000 3.676840 0.000000 
#    z -0.076000 0.000000 3.514940 
# 
# 
# High freq. dielectric constant tensor:
#      x y z
#    x 1.734060 0.000000 0.012700 
#    y 0.000000 1.727690 0.000000 
#    z 0.012700 0.000000 1.723950 
# 
# From -- ./inp_files/168448.got.cif
#   From: 2010.06.25/outbox.cif.g09.slc.cpg/sg15_85_cif.got.tgz:168448.got - 2010.06.28 07:06:18.
