data_PCOD8136594
_publ_section_title
;
Structure prediction by ZEFSAII (Michael W. Deem and Ramdas Pophale) SiO2 
 PCOD8136594
Probable space group: C 2/C
;
_chemical_formula_sum "Si O2"
_cell_formula_units_Z 48
_cell_length_a 21.879598
_cell_length_b 11.625338
_cell_length_c 25.464024
_cell_angle_alpha 90.000000
_cell_angle_beta 159.334212
_cell_angle_gamma 90.000000
_cell_volume 2285.828145
_symmetry_space_group_name_H-M "C 2/C"
_symmetry_group_IT_number 15
_symmetry_cell_setting 'monoclinic'
loop_
_space_group_symop_operation_xyz
x,y,z
-x,y,1/2-z
-x,-y,-z
x,-y,1/2+z
1/2+x,1/2+y,z
1/2-x,1/2+y,1/2-z
1/2-x,1/2-y,-z
1/2+x,1/2-y,1/2+z
loop_
_atom_site_type_symbol
_atom_site_label
_atom_site_fract_x
_atom_site_fract_y
_atom_site_fract_z
Si Si1 0.979797 0.901695 0.097431
Si Si2 0.776377 0.781020 0.851500
Si Si3 0.970830 0.353205 0.011937
Si Si4 0.253742 0.022261 0.256214
Si Si5 0.638577 0.392791 0.929544
Si Si6 0.204977 0.210032 0.379310
O O1 0.124760 0.813173 0.235593
O O2 0.058868 0.981755 0.113926
O O3 0.908505 0.979576 0.087923
O O4 0.817433 0.833252 0.941932
O O5 0.725893 0.880344 0.770435
O O6 0.956131 0.728252 0.975079
O O7 0.131688 0.414374 0.170946
O O8 0.835024 0.441693 0.877626
O O9 0.872046 0.283609 0.976906
O O10 0.469773 0.307864 0.794733
O O11 0.709005 0.394486 0.925936
O O12 0.787258 0.333505 0.084910
#
# Coordination Sequence:
#
# PCOD8136594 Si02
#       6
#     8   8   8   8   8   8
#     4  11  22  38  59  88 127 160 200 244 301 360
#     4  11  22  36  58  89 127 156 196 247 301 368
#     4  10  20  34  57  86 117 151 192 243 302 348
#     4  10  20  35  54  88 115 156 192 240 300 356
#     4  10  22  39  60  90 115 155 200 247 299 346
#     4  10  21  38  62  85 118 151 196 252 294 353
#
# _framework density 20.998954000000001
#
# number of rings (size 3 to 8) (size 9 to 14) (size 15 to 20)
#    0.000    1.667    3.333    1.500    0.000    1.333 
#    0.000    0.000    0.000    9.000    0.000    0.000 
#    0.000    0.000    0.000    0.000    0.000    0.000 
#
# Total GULP energy -297465.531996 kJ/mol
# GULP energy per Si atom -12394.397167 kJ/mol
# Density = 2.095116 g / cm^3
# Si number density = 20.998954 Si / 1000 Ang^3
#
#
#
# Elastic Constant Matrix: (Units=GPa)
#
#
# Indices 1 2 3 4 5 6 
#
# 1 53.6887 22.6756 21.6541 -0.0069 -1.4575 -0.0003
# 2 22.6756 84.1702 38.0289 -0.0284 -8.8467 -0.0082
# 3 21.6541 38.0289 69.8610 0.0016 -10.9755 -0.0060
# 4 -0.0069 -0.0284 0.0016 35.4331 -0.0011 -3.9006
# 5 -1.4575 -8.8467 -10.9755 -0.0011 17.2583 0.0012
# 6 -0.0003 -0.0082 -0.0060 -3.9006 0.0012 42.1255
#
#
#
# Elastic Compliance Matrix: (Units=1/GPa)
#
#
# Indices 1 2 3 4 5 6 
#
# 1 0.022360 -0.003996 -0.005311 0.000001 -0.003538 -0.000001
# 2 -0.003996 0.016603 -0.007238 0.000013 0.003570 0.000003
# 3 -0.005311 -0.007238 0.021384 -0.000007 0.009440 0.000001
# 4 0.000001 0.000013 -0.000007 0.028513 0.000004 0.002640
# 5 -0.003538 0.003570 0.009440 0.000004 0.065478 0.000001
# 6 -0.000001 0.000003 0.000001 0.002640 0.000001 0.023983
#
#
# Mechanical properties :
#
#
# Convention : Reuss Voigt Hill
#
# Bulk Modulus (GPa) = 36.69013 41.38188 39.03601
# Shear Modulus (GPa) = 22.67619 27.32080 24.99849
#
# Velocity S-wave (km/s) = 3.28971 3.61093 3.45405
# Velocity P-wave (km/s) = 5.65154 6.09381 5.87683
#
# Compressibility (1/GPa) = 0.02725528
#
# Stress axis : x y z
#
# Youngs Moduli (GPa) = 44.72336 60.23096 46.76467
#
# Poissons Ratio (x) = 0.24068 0.24838
# Poissons Ratio (y) = 0.17871 0.33850
# Poissons Ratio (z) = 0.23753 0.43597
#
# Static dielectric constant tensor:
#      x y z
#    x 3.576690 -0.000020 0.060090 
#    y -0.000020 3.774130 -0.000090 
#    z 0.060090 -0.000090 3.784310 
# 
# 
# High freq. dielectric constant tensor:
#      x y z
#    x 1.796260 0.000000 -0.004690 
#    y 0.000000 1.810430 -0.000010 
#    z -0.004690 -0.000010 1.826530 
# 
# From -- ./inp_files/283563.got.cif
#   From: 2010.06.25/outbox.cif.g09.slc.cpg/sg15_142_cif.got.tgz:283563.got - 2010.06.28 07:06:18.
