data_PCOD8136085
_publ_section_title
;
Structure prediction by ZEFSAII (Michael W. Deem and Ramdas Pophale) SiO2 
 PCOD8136085
Probable space group: C 2/C
;
_chemical_formula_sum "Si O2"
_cell_formula_units_Z 64
_cell_length_a 24.785105
_cell_length_b 14.580532
_cell_length_c 8.836240
_cell_angle_alpha 90.000000
_cell_angle_beta 103.552066
_cell_angle_gamma 90.000000
_cell_volume 3104.332380
_symmetry_space_group_name_H-M "C 2/C"
_symmetry_group_IT_number 15
_symmetry_cell_setting 'monoclinic'
loop_
_space_group_symop_operation_xyz
x,y,z
-x,y,1/2-z
-x,-y,-z
x,-y,1/2+z
1/2+x,1/2+y,z
1/2-x,1/2+y,1/2-z
1/2-x,1/2-y,-z
1/2+x,1/2-y,1/2+z
loop_
_atom_site_type_symbol
_atom_site_label
_atom_site_fract_x
_atom_site_fract_y
_atom_site_fract_z
Si Si1 0.371914 0.440217 0.597865
Si Si2 0.533152 0.571317 0.126346
Si Si3 0.869797 0.818572 0.343910
Si Si4 0.307113 0.022719 0.028873
Si Si5 0.831585 0.622402 0.321084
Si Si6 0.707313 0.686087 0.266120
Si Si7 0.245871 0.616651 0.785181
Si Si8 0.380600 0.361613 0.020217
O O1 0.412495 0.474052 0.758962
O O2 0.404346 0.374387 0.495410
O O3 0.320355 0.378650 0.624091
O O4 0.355345 0.535039 0.507490
O O5 0.500000 0.611518 0.250000
O O6 0.500000 0.500000 0.000000
O O7 0.560648 0.646801 0.033207
O O8 0.866485 0.711986 0.385519
O O9 0.810894 0.869919 0.306077
O O10 0.895620 0.822566 0.194384
O O11 0.275844 0.091370 0.895639
O O12 0.345033 0.951981 0.958915
O O13 0.347308 0.081206 0.166288
O O14 0.263882 0.964589 0.102416
O O15 0.765802 0.641750 0.262821
O O16 0.716795 0.790397 0.330470
O O17 0.667620 0.695928 0.093514
#
# Coordination Sequence:
#
# PCOD8136085 Si02
#       8
#     8   8   8   8   8   8   8   8
#     4  11  23  34  55  82 102 146 194 230 267 326
#     4  11  23  41  57  75 109 139 184 222 286 342
#     4  11  22  35  51  76 112 139 192 241 281 310
#     4  10  20  30  49  68  92 144 201 218 275 330
#     4  10  21  34  49  74 107 153 186 243 278 315
#     4  10  21  34  48  72 110 145 191 238 285 305
#     4  10  21  34  48  71 106 150 185 246 281 314
#     4  11  23  34  55  82 102 146 194 229 271 328
#
# _framework density 20.616350000000001
#
# number of rings (size 3 to 8) (size 9 to 14) (size 15 to 20)
#    0.000    1.500    1.250    4.500   10.500    4.000 
#    0.000    0.000    0.000    0.000    0.000    0.000 
#    0.000    0.000    0.000  254.250    0.250    0.000 
#
# Total GULP energy -396526.232467 kJ/mol
# GULP energy per Si atom -12391.444765 kJ/mol
# Density = 2.056943 g / cm^3
# Si number density = 20.616350 Si / 1000 Ang^3
#
#
#
# Elastic Constant Matrix: (Units=GPa)
#
#
# Indices 1 2 3 4 5 6 
#
# 1 56.8554 10.5566 16.7910 0.0000 -13.9056 0.0000
# 2 10.5566 86.8160 14.2374 0.0000 -3.1959 0.0000
# 3 16.7910 14.2374 93.5274 0.0000 -19.6479 0.0000
# 4 0.0000 0.0000 0.0000 31.9237 0.0000 -4.4796
# 5 -13.9056 -3.1959 -19.6479 0.0000 33.2992 0.0000
# 6 0.0000 0.0000 0.0000 -4.4796 0.0000 18.2492
#
#
#
# Elastic Compliance Matrix: (Units=1/GPa)
#
#
# Indices 1 2 3 4 5 6 
#
# 1 0.020240 -0.001896 -0.001835 0.000000 0.007187 0.000000
# 2 -0.001896 0.011991 -0.001609 0.000000 -0.000590 0.000000
# 3 -0.001835 -0.001609 0.012640 0.000000 0.006537 0.000000
# 4 0.000000 0.000000 0.000000 0.032442 0.000000 0.007963
# 5 0.007187 -0.000590 0.006537 0.000000 0.036833 0.000000
# 6 0.000000 0.000000 0.000000 0.007963 0.000000 0.056752
#
#
# Mechanical properties :
#
#
# Convention : Reuss Voigt Hill
#
# Bulk Modulus (GPa) = 29.24704 35.59655 32.42179
# Shear Modulus (GPa) = 25.91008 29.73533 27.82270
#
# Velocity S-wave (km/s) = 3.54895 3.80191 3.67760
# Velocity P-wave (km/s) = 5.56871 6.04784 5.81321
#
# Compressibility (1/GPa) = 0.03419150
#
# Stress axis : x y z
#
# Youngs Moduli (GPa) = 49.40624 83.39404 79.11529
#
# Poissons Ratio (x) = 0.15808 0.14520
# Poissons Ratio (y) = 0.09366 0.12730
# Poissons Ratio (z) = 0.09067 0.13418
#
# Static dielectric constant tensor:
#      x y z
#    x 3.505320 0.000000 -0.274700 
#    y 0.000000 3.850640 0.000000 
#    z -0.274700 0.000000 4.269310 
# 
# 
# High freq. dielectric constant tensor:
#      x y z
#    x 1.748180 0.000000 -0.029470 
#    y 0.000000 1.793260 0.000000 
#    z -0.029470 0.000000 1.837780 
# 
# From -- ./inp_files/66276.got.cif
#   From: 2010.06.25/outbox.cif.g09.slc.cpg/sg15_34_cif.got.tgz:66276.got - 2010.06.28 07:06:18.
