data_PCOD8136825
_publ_section_title
;
Structure prediction by ZEFSAII (Michael W. Deem and Ramdas Pophale) SiO2 
 PCOD8136825
Probable space group: C 2/C
;
_chemical_formula_sum "Si O2"
_cell_formula_units_Z 36
_cell_length_a 7.588995
_cell_length_b 30.533784
_cell_length_c 8.833596
_cell_angle_alpha 90.000000
_cell_angle_beta 122.190862
_cell_angle_gamma 90.000000
_cell_volume 1732.269876
_symmetry_space_group_name_H-M "C 2/C"
_symmetry_group_IT_number 15
_symmetry_cell_setting 'monoclinic'
loop_
_space_group_symop_operation_xyz
x,y,z
-x,y,1/2-z
-x,-y,-z
x,-y,1/2+z
1/2+x,1/2+y,z
1/2-x,1/2+y,1/2-z
1/2-x,1/2-y,-z
1/2+x,1/2-y,1/2+z
loop_
_atom_site_type_symbol
_atom_site_label
_atom_site_fract_x
_atom_site_fract_y
_atom_site_fract_z
Si Si1 0.000000 0.014375 0.750000
Si Si2 0.304712 0.142578 0.561185
Si Si3 0.768419 0.457117 0.099921
Si Si4 0.504442 0.295598 0.076206
Si Si5 0.234716 0.211469 0.299652
O O1 0.128706 0.043792 0.689037
O O2 0.834081 0.986166 0.578402
O O3 0.500000 0.156112 0.750000
O O4 0.284188 0.090763 0.533032
O O5 0.100607 0.160511 0.550403
O O6 0.331465 0.166462 0.410584
O O7 0.000000 0.474326 0.250000
O O8 0.500000 0.302480 0.250000
O O9 0.634906 0.253045 0.087785
O O10 0.276266 0.290828 0.890986
O O11 0.000000 0.217529 0.250000
#
# Coordination Sequence:
#
# PCOD8136825 Si02
#       5
#     4   8   8   8   8
#     4  10  22  40  68  92 128 156 206 252 310 378
#     4  10  21  37  56  80 113 153 197 235 290 359
#     4  10  22  40  65  94 124 163 202 251 314 367
#     4  11  21  33  55  81 113 149 193 248 288 343
#     4  10  20  35  54  76 108 154 193 233 288 353
#
# _framework density 20.781981999999999
#
# number of rings (size 3 to 8) (size 9 to 14) (size 15 to 20)
#    0.000    1.778    0.000    6.000    6.222    0.000 
#    0.000    0.000    0.000    6.667    0.000    0.000 
#    0.000    0.000    0.000    0.000    0.000    0.000 
#
# Total GULP energy -223101.761413 kJ/mol
# GULP energy per Si atom -12394.542301 kJ/mol
# Density = 2.073468 g / cm^3
# Si number density = 20.781982 Si / 1000 Ang^3
#
#
#
# Elastic Constant Matrix: (Units=GPa)
#
#
# Indices 1 2 3 4 5 6 
#
# 1 37.5772 7.7910 23.7935 0.0000 -3.4807 0.0000
# 2 7.7910 70.2356 45.6986 0.0000 5.4143 0.0000
# 3 23.7935 45.6986 169.5929 0.0000 1.2986 0.0000
# 4 0.0000 0.0000 0.0000 30.9397 0.0000 1.9340
# 5 -3.4807 5.4143 1.2986 0.0000 40.9226 0.0000
# 6 0.0000 0.0000 0.0000 1.9340 0.0000 8.7483
#
#
#
# Elastic Compliance Matrix: (Units=1/GPa)
#
#
# Indices 1 2 3 4 5 6 
#
# 1 0.029540 -0.000945 -0.003911 0.000000 0.002762 0.000000
# 2 -0.000945 0.017484 -0.004561 0.000000 -0.002249 0.000000
# 3 -0.003911 -0.004561 0.007674 0.000000 0.000027 0.000000
# 4 0.000000 0.000000 0.000000 0.032774 0.000000 -0.007245
# 5 0.002762 -0.002249 0.000027 0.000000 0.024968 0.000000
# 6 0.000000 0.000000 0.000000 -0.007245 0.000000 0.115909
#
#
# Mechanical properties :
#
#
# Convention : Reuss Voigt Hill
#
# Bulk Modulus (GPa) = 27.88377 47.99689 37.94033
# Shear Modulus (GPa) = 19.29475 29.46363 24.37919
#
# Velocity S-wave (km/s) = 3.05033 3.76939 3.42876
# Velocity P-wave (km/s) = 5.08453 6.48768 5.82848
#
# Compressibility (1/GPa) = 0.03586316
#
# Stress axis : x y z
#
# Youngs Moduli (GPa) = 33.85248 57.19564 130.30902
#
# Poissons Ratio (x) = 0.05405 0.50962
# Poissons Ratio (y) = 0.03199 0.59439
# Poissons Ratio (z) = 0.13239 0.26089
#
# Static dielectric constant tensor:
#      x y z
#    x 3.626400 0.000000 -0.011830 
#    y 0.000000 3.536410 0.000000 
#    z -0.011830 0.000000 4.772960 
# 
# 
# High freq. dielectric constant tensor:
#      x y z
#    x 1.793860 0.000000 0.004000 
#    y 0.000000 1.797480 0.000000 
#    z 0.004000 0.000000 1.851140 
# 
# From -- ./inp_files/24342.got.cif
#   From: 2010.06.25/outbox.cif.g09.slc.cpg/sg15_13_cif.got.tgz:24342.got - 2010.06.28 07:06:18.
