data_PCOD8136238
_publ_section_title
;
Structure prediction by ZEFSAII (Michael W. Deem and Ramdas Pophale) SiO2 
 PCOD8136238
Probable space group: C 2/C
;
_chemical_formula_sum "Si O2"
_cell_formula_units_Z 32
_cell_length_a 16.673987
_cell_length_b 23.510817
_cell_length_c 15.701153
_cell_angle_alpha 90.000000
_cell_angle_beta 162.530217
_cell_angle_gamma 90.000000
_cell_volume 1847.793503
_symmetry_space_group_name_H-M "C 2/C"
_symmetry_group_IT_number 15
_symmetry_cell_setting 'monoclinic'
loop_
_space_group_symop_operation_xyz
x,y,z
-x,y,1/2-z
-x,-y,-z
x,-y,1/2+z
1/2+x,1/2+y,z
1/2-x,1/2+y,1/2-z
1/2-x,1/2-y,-z
1/2+x,1/2-y,1/2+z
loop_
_atom_site_type_symbol
_atom_site_label
_atom_site_fract_x
_atom_site_fract_y
_atom_site_fract_z
Si Si1 0.011829 0.712759 0.665186
Si Si2 0.386351 0.440920 0.352284
Si Si3 0.371324 0.099893 0.428737
Si Si4 0.256554 0.505081 0.064095
O O1 0.000000 0.689841 0.750000
O O2 0.806749 0.764508 0.443572
O O3 0.948413 0.662333 0.536771
O O4 0.500000 0.500000 0.500000
O O5 0.614434 0.394389 0.605342
O O6 0.331073 0.449204 0.195739
O O7 0.112938 0.427472 0.122315
O O8 0.303314 0.060539 0.440222
O O9 0.500000 0.521859 0.250000
O O10 0.000000 0.487911 0.750000
#
# Coordination Sequence:
#
# PCOD8136238 Si02
#       4
#     8   8   8   8
#     4  10  21  34  49  72 100 129 167 208 236 273
#     4  10  20  33  48  71 100 131 166 202 238 290
#     4  11  20  34  51  69 101 139 166 194 245 290
#     4  11  20  31  49  73 101 131 165 198 238 294
#
# _framework density 17.317951999999998
#
# number of rings (size 3 to 8) (size 9 to 14) (size 15 to 20)
#    0.000    1.500    0.000    9.750    0.000    3.000 
#    0.000    0.000    0.000    0.000    0.000    0.000 
#    0.000   70.000    0.000    0.000    0.000    0.000 
#
# Total GULP energy -198397.823503 kJ/mol
# GULP energy per Si atom -12399.863969 kJ/mol
# Density = 1.727854 g / cm^3
# Si number density = 17.317952 Si / 1000 Ang^3
#
#
#
# Elastic Constant Matrix: (Units=GPa)
#
#
# Indices 1 2 3 4 5 6 
#
# 1 81.4721 29.6004 47.1621 -0.0012 4.2157 0.0002
# 2 29.6004 50.4178 13.9927 -0.0010 -10.7307 0.0008
# 3 47.1621 13.9927 126.4354 0.0002 -5.3208 0.0052
# 4 -0.0012 -0.0010 0.0002 27.9034 -0.0008 -13.4197
# 5 4.2157 -10.7307 -5.3208 -0.0008 45.7947 -0.0020
# 6 0.0002 0.0008 0.0052 -13.4197 -0.0020 20.5434
#
#
#
# Elastic Compliance Matrix: (Units=1/GPa)
#
#
# Indices 1 2 3 4 5 6 
#
# 1 0.020492 -0.011325 -0.006614 0.000002 -0.005309 0.000002
# 2 -0.011325 0.027713 0.001482 0.000001 0.007708 0.000000
# 3 -0.006614 0.001482 0.010303 -0.000002 0.002153 -0.000004
# 4 0.000002 0.000001 -0.000002 0.052254 0.000002 0.034135
# 5 -0.005309 0.007708 0.002153 0.000002 0.024382 0.000003
# 6 0.000002 0.000000 -0.000004 0.034135 0.000003 0.070975
#
#
# Mechanical properties :
#
#
# Convention : Reuss Voigt Hill
#
# Bulk Modulus (GPa) = 39.07286 48.87061 43.97174
# Shear Modulus (GPa) = 20.19673 30.01965 25.10819
#
# Velocity S-wave (km/s) = 3.41872 4.16798 3.81180
# Velocity P-wave (km/s) = 6.18017 7.17242 6.69471
#
# Compressibility (1/GPa) = 0.02559321
#
# Stress axis : x y z
#
# Youngs Moduli (GPa) = 48.79926 36.08453 97.06056
#
# Poissons Ratio (x) = 0.40867 0.64195
# Poissons Ratio (y) = 0.55266 -0.14383
# Poissons Ratio (z) = 0.32275 -0.05347
#
# Static dielectric constant tensor:
#      x y z
#    x 3.263130 -0.000070 -0.297490 
#    y -0.000070 3.013230 -0.000210 
#    z -0.297490 -0.000210 4.166150 
# 
# 
# High freq. dielectric constant tensor:
#      x y z
#    x 1.658660 0.000000 0.003560 
#    y 0.000000 1.631420 0.000000 
#    z 0.003560 0.000000 1.703360 
# 
# From -- ./inp_files/6739.got.cif
#   From: 2010.06.25/outbox.cif.g09.slc.cpg/sg15_4_cif.got.tgz:6739.got - 2010.06.28 07:06:18.
