data_PCOD8136185
_publ_section_title
;
Structure prediction by ZEFSAII (Michael W. Deem and Ramdas Pophale) SiO2 
 PCOD8136185
Probable space group: C 2/C
;
_chemical_formula_sum "Si O2"
_cell_formula_units_Z 56
_cell_length_a 15.321192
_cell_length_b 27.157937
_cell_length_c 9.895503
_cell_angle_alpha 90.000000
_cell_angle_beta 131.435795
_cell_angle_gamma 90.000000
_cell_volume 3086.835088
_symmetry_space_group_name_H-M "C 2/C"
_symmetry_group_IT_number 15
_symmetry_cell_setting 'monoclinic'
loop_
_space_group_symop_operation_xyz
x,y,z
-x,y,1/2-z
-x,-y,-z
x,-y,1/2+z
1/2+x,1/2+y,z
1/2-x,1/2+y,1/2-z
1/2-x,1/2-y,-z
1/2+x,1/2-y,1/2+z
loop_
_atom_site_type_symbol
_atom_site_label
_atom_site_fract_x
_atom_site_fract_y
_atom_site_fract_z
Si Si1 0.182229 0.810976 0.798846
Si Si2 0.293945 0.711078 0.889983
Si Si3 0.491027 0.724471 0.896082
Si Si4 0.341742 0.892242 0.860471
Si Si5 0.366086 0.089908 0.086692
Si Si6 0.417852 0.008631 0.542167
Si Si7 0.568254 0.830975 0.045770
O O1 0.282234 0.769612 0.895952
O O2 0.085868 0.801163 0.587657
O O3 0.239894 0.862845 0.827890
O O4 0.136762 0.810846 0.908673
O O5 0.367446 0.705318 0.827263
O O6 0.165299 0.686315 0.752829
O O7 0.500000 0.706674 0.750000
O O8 0.506201 0.783604 0.915214
O O9 0.304160 0.899308 0.665291
O O10 0.338196 0.944334 0.931271
O O11 0.468271 0.865731 0.006214
O O12 0.500000 0.078092 0.250000
O O13 0.329441 0.038159 0.977673
O O14 0.355557 0.138563 0.985063
O O15 0.500000 0.022313 0.750000
O O16 0.500000 0.000000 0.500000
#
# Coordination Sequence:
#
# PCOD8136185 Si02
#       7
#     8   8   8   8   8   8   8
#     4  10  23  36  54  77 111 149 180 226 270 314
#     4  10  22  37  51  80 111 145 186 224 264 314
#     4  11  22  37  56  76 108 148 191 227 258 312
#     4  11  20  34  54  80 115 144 181 212 279 325
#     4   9  18  32  49  77 114 142 173 222 262 321
#     4  11  19  32  49  78 113 144 172 219 271 332
#     4  10  20  32  55  80 112 149 178 216 268 321
#
# _framework density 18.141559000000001
#
# number of rings (size 3 to 8) (size 9 to 14) (size 15 to 20)
#    0.000    1.714    5.714    1.714    4.000    1.143 
#    0.000    0.000    0.000    0.000    0.000    1.000 
#    0.000    0.000    0.000    0.000    0.000    0.000 
#
# Total GULP energy -346985.789915 kJ/mol
# GULP energy per Si atom -12392.349640 kJ/mol
# Density = 1.810027 g / cm^3
# Si number density = 18.141559 Si / 1000 Ang^3
#
#
#
# Elastic Constant Matrix: (Units=GPa)
#
#
# Indices 1 2 3 4 5 6 
#
# 1 66.4373 27.6760 26.7585 0.0000 -18.8432 0.0000
# 2 27.6760 108.2030 25.7922 0.0000 -1.0952 0.0000
# 3 26.7585 25.7922 85.2481 0.0000 -17.9377 0.0000
# 4 0.0000 0.0000 0.0000 27.8935 0.0000 -1.7589
# 5 -18.8432 -1.0952 -17.9377 0.0000 27.9213 0.0000
# 6 0.0000 0.0000 0.0000 -1.7589 0.0000 23.3897
#
#
#
# Elastic Compliance Matrix: (Units=1/GPa)
#
#
# Indices 1 2 3 4 5 6 
#
# 1 0.021752 -0.004793 -0.002692 0.000000 0.012762 0.000000
# 2 -0.004793 0.011094 -0.002823 0.000000 -0.004613 0.000000
# 3 -0.002692 -0.002823 0.015060 0.000000 0.007747 0.000000
# 4 0.000000 0.000000 0.000000 0.036021 0.000000 0.002709
# 5 0.012762 -0.004613 0.007747 0.000000 0.049224 0.000000
# 6 0.000000 0.000000 0.000000 0.002709 0.000000 0.042957
#
#
# Mechanical properties :
#
#
# Convention : Reuss Voigt Hill
#
# Bulk Modulus (GPa) = 36.64303 46.70466 41.67384
# Shear Modulus (GPa) = 24.29287 27.81836 26.05562
#
# Velocity S-wave (km/s) = 3.66330 3.92012 3.79389
# Velocity P-wave (km/s) = 6.17538 6.80369 6.49714
#
# Compressibility (1/GPa) = 0.02729032
#
# Stress axis : x y z
#
# Youngs Moduli (GPa) = 45.97183 90.13920 66.40218
#
# Poissons Ratio (x) = 0.43202 0.17878
# Poissons Ratio (y) = 0.22034 0.18743
# Poissons Ratio (z) = 0.12377 0.25444
#
# Static dielectric constant tensor:
#      x y z
#    x 3.083330 0.000000 -0.330770 
#    y 0.000000 3.612890 0.000000 
#    z -0.330770 0.000000 3.343700 
# 
# 
# High freq. dielectric constant tensor:
#      x y z
#    x 1.670980 0.000000 -0.032330 
#    y 0.000000 1.701660 0.000000 
#    z -0.032330 0.000000 1.695440 
# 
# From -- ./inp_files/43596.got.cif
#   From: 2010.06.25/outbox.cif.g09.slc.cpg/sg15_22_cif.got.tgz:43596.got - 2010.06.28 07:06:18.
