data_PCOD8136862
_publ_section_title
;
Structure prediction by ZEFSAII (Michael W. Deem and Ramdas Pophale) SiO2 
 PCOD8136862
Probable space group: C 2/C
;
_chemical_formula_sum "Si O2"
_cell_formula_units_Z 56
_cell_length_a 14.825016
_cell_length_b 8.467304
_cell_length_c 24.533942
_cell_angle_alpha 90.000000
_cell_angle_beta 59.297467
_cell_angle_gamma 90.000000
_cell_volume 2648.012920
_symmetry_space_group_name_H-M "C 2/C"
_symmetry_group_IT_number 15
_symmetry_cell_setting 'monoclinic'
loop_
_space_group_symop_operation_xyz
x,y,z
-x,y,1/2-z
-x,-y,-z
x,-y,1/2+z
1/2+x,1/2+y,z
1/2-x,1/2+y,1/2-z
1/2-x,1/2-y,-z
1/2+x,1/2-y,1/2+z
loop_
_atom_site_type_symbol
_atom_site_label
_atom_site_fract_x
_atom_site_fract_y
_atom_site_fract_z
Si Si1 0.992737 0.442900 0.083762
Si Si2 0.109811 0.157943 0.238907
Si Si3 0.745532 0.370264 0.370743
Si Si4 0.322586 0.359840 0.345476
Si Si5 0.334530 0.075625 0.050279
Si Si6 0.555036 0.932113 0.674932
Si Si7 0.141188 0.841473 0.855143
O O1 0.979876 0.506894 0.149581
O O2 0.921959 0.559503 0.070105
O O3 0.951225 0.263149 0.089676
O O4 0.112730 0.447245 0.025250
O O5 0.208571 0.268563 0.193776
O O6 0.108442 0.134772 0.303304
O O7 0.000000 0.232206 0.250000
O O8 0.121414 0.987719 0.208742
O O9 0.708099 0.253806 0.430408
O O10 0.838870 0.471806 0.366410
O O11 0.651662 0.486027 0.379817
O O12 0.256489 0.444309 0.414137
O O13 0.414628 0.252016 0.342777
O O14 0.250646 0.252235 0.328122
O O15 0.500000 0.960271 0.750000
#
# Coordination Sequence:
#
# PCOD8136862 Si02
#       7
#     8   8   8   8   8   8   8
#     4  10  21  39  60  80 112 149 190 236 276 336
#     4  11  20  33  53  81 114 146 188 236 285 340
#     4  10  21  35  54  79 112 146 185 232 282 339
#     4   9  21  37  55  80 113 149 188 230 284 347
#     4   9  21  40  58  81 110 151 193 228 280 335
#     4  11  22  37  57  85 115 145 184 234 288 336
#     4  10  20  35  55  80 111 151 187 231 289 339
#
# _framework density 21.147933999999999
#
# number of rings (size 3 to 8) (size 9 to 14) (size 15 to 20)
#    0.000    2.000    0.000    3.429    0.000    9.714 
#    0.000    0.000    0.000    0.000    0.000    0.000 
#    0.000    0.000    0.000    0.000    0.000    0.000 
#
# Total GULP energy -347155.069243 kJ/mol
# GULP energy per Si atom -12398.395330 kJ/mol
# Density = 2.109980 g / cm^3
# Si number density = 21.147934 Si / 1000 Ang^3
#
#
#
# Elastic Constant Matrix: (Units=GPa)
#
#
# Indices 1 2 3 4 5 6 
#
# 1 57.3784 27.3977 22.7527 0.0000 1.3741 0.0000
# 2 27.3977 134.5602 31.3435 0.0000 -7.6645 0.0000
# 3 22.7527 31.3435 96.8601 0.0000 -5.6081 0.0000
# 4 0.0000 0.0000 0.0000 19.5282 0.0000 -8.6587
# 5 1.3741 -7.6645 -5.6081 0.0000 27.9921 0.0000
# 6 0.0000 0.0000 0.0000 -8.6587 0.0000 34.7148
#
#
#
# Elastic Compliance Matrix: (Units=1/GPa)
#
#
# Indices 1 2 3 4 5 6 
#
# 1 0.020693 -0.003461 -0.003900 0.000000 -0.002745 0.000000
# 2 -0.003461 0.008697 -0.001875 0.000000 0.002176 0.000000
# 3 -0.003900 -0.001875 0.011967 0.000000 0.002076 0.000000
# 4 0.000000 0.000000 0.000000 0.057575 0.000000 0.014361
# 5 -0.002745 0.002176 0.002076 0.000000 0.036871 0.000000
# 6 0.000000 0.000000 0.000000 0.014361 0.000000 0.032388
#
#
# Mechanical properties :
#
#
# Convention : Reuss Voigt Hill
#
# Bulk Modulus (GPa) = 43.69724 50.19850 46.94787
# Shear Modulus (GPa) = 25.73445 30.26735 28.00090
#
# Velocity S-wave (km/s) = 3.49216 3.78725 3.64270
# Velocity P-wave (km/s) = 6.08011 6.55078 6.31983
#
# Compressibility (1/GPa) = 0.02288474
#
# Stress axis : x y z
#
# Youngs Moduli (GPa) = 48.32556 114.98080 83.56141
#
# Poissons Ratio (x) = 0.39798 0.32587
# Poissons Ratio (y) = 0.16727 0.15671
# Poissons Ratio (z) = 0.18846 0.21563
#
# Static dielectric constant tensor:
#      x y z
#    x 3.742100 0.000000 -0.184420 
#    y 0.000000 4.095990 0.000000 
#    z -0.184420 0.000000 3.681660 
# 
# 
# High freq. dielectric constant tensor:
#      x y z
#    x 1.814760 0.000000 -0.011420 
#    y 0.000000 1.844390 0.000000 
#    z -0.011420 0.000000 1.812110 
# 
# From -- ./inp_files/295076.got.cif
#   From: 2010.06.25/outbox.cif.g09.slc.cpg/sg15_148_cif.got.tgz:295076.got - 2010.06.28 07:06:18.
