data_PCOD8136779
_publ_section_title
;
Structure prediction by ZEFSAII (Michael W. Deem and Ramdas Pophale) SiO2 
 PCOD8136779
Probable space group: C 2/C
;
_chemical_formula_sum "Si O2"
_cell_formula_units_Z 60
_cell_length_a 13.387069
_cell_length_b 15.016685
_cell_length_c 23.882429
_cell_angle_alpha 90.000000
_cell_angle_beta 31.685805
_cell_angle_gamma 90.000000
_cell_volume 2521.814268
_symmetry_space_group_name_H-M "C 2/C"
_symmetry_group_IT_number 15
_symmetry_cell_setting 'monoclinic'
loop_
_space_group_symop_operation_xyz
x,y,z
-x,y,1/2-z
-x,-y,-z
x,-y,1/2+z
1/2+x,1/2+y,z
1/2-x,1/2+y,1/2-z
1/2-x,1/2-y,-z
1/2+x,1/2-y,1/2+z
loop_
_atom_site_type_symbol
_atom_site_label
_atom_site_fract_x
_atom_site_fract_y
_atom_site_fract_z
Si Si1 0.140663 0.951249 0.633809
Si Si2 0.343688 0.217434 0.056768
Si Si3 0.993021 0.564623 0.449332
Si Si4 0.690041 0.522487 0.283993
Si Si5 0.684444 0.716526 0.329803
Si Si6 0.673705 0.654701 0.550971
Si Si7 0.500000 0.300111 0.250000
Si Si8 0.300695 0.658349 0.673445
O O1 0.171610 0.843813 0.614463
O O2 0.000000 0.976061 0.750000
O O3 0.034852 0.988117 0.628079
O O4 0.357976 0.988693 0.545222
O O5 0.479318 0.157844 0.031672
O O6 0.256632 0.301155 0.133337
O O7 0.468016 0.257315 0.947339
O O8 0.851278 0.587048 0.464899
O O9 0.189318 0.528078 0.330916
O O10 0.705873 0.611441 0.312031
O O11 0.782859 0.440617 0.275166
O O12 0.825723 0.739486 0.312798
O O13 0.736449 0.768443 0.248755
O O14 0.750000 0.750000 0.500000
O O15 0.576302 0.642849 0.660183
O O16 0.523862 0.635692 0.573565
#
# Coordination Sequence:
#
# PCOD8136779 Si02
#       8
#     8   8   8   8   8   8   4   8
#     4  12  26  40  67 104 140 179 234 294 353 422
#     4  12  24  43  68  96 140 182 229 287 357 417
#     4  12  22  40  66  99 128 175 229 299 343 403
#     4  12  26  44  67  99 143 183 240 288 348 427
#     4  11  23  42  71  99 138 184 228 289 353 421
#     4  11  19  35  63  94 124 160 215 281 344 392
#     4  10  20  34  64  98 120 162 220 274 340 396
#     4  11  23  43  67  98 138 180 222 292 351 415
#
# _framework density 23.792394000000002
#
# number of rings (size 3 to 8) (size 9 to 14) (size 15 to 20)
#    0.000    0.533    6.667    2.000    2.800    1.067 
#    0.000    1.333    4.400    0.000    0.000    0.000 
#    0.000    0.000    0.000    0.000    0.000    0.000 
#
# Total GULP energy -371810.543967 kJ/mol
# GULP energy per Si atom -12393.684799 kJ/mol
# Density = 2.373824 g / cm^3
# Si number density = 23.792394 Si / 1000 Ang^3
#
#
#
# Elastic Constant Matrix: (Units=GPa)
#
#
# Indices 1 2 3 4 5 6 
#
# 1 34.5874 8.4850 16.1854 -0.0028 -5.5225 0.0008
# 2 8.4850 119.5570 15.3926 -0.0043 4.0091 0.0012
# 3 16.1854 15.3926 90.9696 -0.0134 -4.8237 0.0001
# 4 -0.0028 -0.0043 -0.0134 40.3420 0.0033 2.3317
# 5 -5.5225 4.0091 -4.8237 0.0033 22.4267 -0.0006
# 6 0.0008 0.0012 0.0001 2.3317 -0.0006 40.4460
#
#
#
# Elastic Compliance Matrix: (Units=1/GPa)
#
#
# Indices 1 2 3 4 5 6 
#
# 1 0.032969 -0.001923 -0.005150 0.000000 0.007354 0.000000
# 2 -0.001923 0.008740 -0.001259 0.000001 -0.002307 0.000000
# 3 -0.005150 -0.001259 0.012206 0.000003 0.001582 0.000000
# 4 0.000000 0.000001 0.000003 0.024871 -0.000003 -0.001434
# 5 0.007354 -0.002307 0.001582 -0.000003 0.047153 0.000001
# 6 0.000000 0.000000 0.000000 -0.001434 0.000001 0.024807
#
#
# Mechanical properties :
#
#
# Convention : Reuss Voigt Hill
#
# Bulk Modulus (GPa) = 26.84620 36.13779 31.49199
# Shear Modulus (GPa) = 27.80436 34.31298 31.05867
#
# Velocity S-wave (km/s) = 3.42222 3.80173 3.61696
# Velocity P-wave (km/s) = 5.18879 5.87304 5.54149
#
# Compressibility (1/GPa) = 0.03724922
#
# Stress axis : x y z
#
# Youngs Moduli (GPa) = 30.33198 114.41436 81.92706
#
# Poissons Ratio (x) = 0.22006 0.42196
# Poissons Ratio (y) = 0.05834 0.10315
# Poissons Ratio (z) = 0.15622 0.14405
#
# Static dielectric constant tensor:
#      x y z
#    x 4.276050 -0.000010 -0.296260 
#    y -0.000010 4.518660 0.000020 
#    z -0.296260 0.000020 4.469050 
# 
# 
# High freq. dielectric constant tensor:
#      x y z
#    x 1.921380 0.000000 -0.020670 
#    y 0.000000 1.954280 0.000000 
#    z -0.020670 0.000000 1.943390 
# 
# From -- ./inp_files/296675.got.cif
#   From: 2010.06.25/outbox.cif.g09.slc.cpg/sg15_149_cif.got.tgz:296675.got - 2010.06.28 07:06:18.
