data_PCOD8136545
_publ_section_title
;
Structure prediction by ZEFSAII (Michael W. Deem and Ramdas Pophale) SiO2 
 PCOD8136545
Probable space group: C 2/C
;
_chemical_formula_sum "Si O2"
_cell_formula_units_Z 56
_cell_length_a 22.257006
_cell_length_b 10.507461
_cell_length_c 12.680904
_cell_angle_alpha 90.000000
_cell_angle_beta 76.989456
_cell_angle_gamma 90.000000
_cell_volume 2889.483494
_symmetry_space_group_name_H-M "C 2/C"
_symmetry_group_IT_number 15
_symmetry_cell_setting 'monoclinic'
loop_
_space_group_symop_operation_xyz
x,y,z
-x,y,1/2-z
-x,-y,-z
x,-y,1/2+z
1/2+x,1/2+y,z
1/2-x,1/2+y,1/2-z
1/2-x,1/2-y,-z
1/2+x,1/2-y,1/2+z
loop_
_atom_site_type_symbol
_atom_site_label
_atom_site_fract_x
_atom_site_fract_y
_atom_site_fract_z
Si Si1 0.304690 0.214409 0.826130
Si Si2 0.207342 0.360717 0.397861
Si Si3 0.065099 0.811547 0.695509
Si Si4 0.664287 0.374232 0.034461
Si Si5 0.880782 0.865062 0.042336
Si Si6 0.705870 0.126883 0.450430
Si Si7 0.567540 0.404178 0.251375
O O1 0.274693 0.167450 0.729625
O O2 0.378346 0.227347 0.784369
O O3 0.274646 0.350514 0.873551
O O4 0.290353 0.112384 0.924063
O O5 0.268322 0.384057 0.442134
O O6 0.163358 0.250319 0.459892
O O7 0.174218 0.499568 0.416010
O O8 0.069450 0.834190 0.568218
O O9 0.000000 0.743422 0.750000
O O10 0.067353 0.944007 0.756215
O O11 0.650367 0.497984 0.968816
O O12 0.614797 0.351613 0.145728
O O13 0.830376 0.754344 0.065685
O O14 0.915199 0.858518 0.139295
O O15 0.500000 0.350223 0.250000
#
# Coordination Sequence:
#
# PCOD8136545 Si02
#       7
#     8   8   8   8   8   8   8
#     4  10  20  35  56  78 110 145 180 224 269 328
#     4  11  22  35  57  84 114 144 176 229 279 323
#     4   9  19  33  54  82 107 142 188 225 272 327
#     4  10  22  35  53  86 112 138 185 229 275 325
#     4  10  20  37  57  79 113 145 180 230 274 328
#     4  10  21  36  56  82 108 145 184 214 275 337
#     4  10  20  34  56  82 109 143 183 231 278 320
#
# _framework density 19.380625999999999
#
# number of rings (size 3 to 8) (size 9 to 14) (size 15 to 20)
#    0.000    2.000    0.000    5.143    0.000   10.857 
#    0.000    0.000    0.000   12.000    0.000    0.000 
#    0.000    0.000    0.000    0.000    0.000    0.000 
#
# Total GULP energy -347108.327179 kJ/mol
# GULP energy per Si atom -12396.725971 kJ/mol
# Density = 1.933651 g / cm^3
# Si number density = 19.380626 Si / 1000 Ang^3
#
#
#
# Elastic Constant Matrix: (Units=GPa)
#
#
# Indices 1 2 3 4 5 6 
#
# 1 95.8003 33.0845 42.8680 0.0000 -9.0607 0.0000
# 2 33.0845 111.8352 48.4732 0.0000 -1.9832 0.0000
# 3 42.8680 48.4732 119.2690 0.0000 13.6886 0.0000
# 4 0.0000 0.0000 0.0000 16.6888 0.0000 -2.4578
# 5 -9.0607 -1.9832 13.6886 0.0000 38.2694 0.0000
# 6 0.0000 0.0000 0.0000 -2.4578 0.0000 15.2115
#
#
#
# Elastic Compliance Matrix: (Units=1/GPa)
#
#
# Indices 1 2 3 4 5 6 
#
# 1 0.013650 -0.001927 -0.004674 0.000000 0.004804 0.000000
# 2 -0.001927 0.011312 -0.004087 0.000000 0.001592 0.000000
# 3 -0.004674 -0.004087 0.012385 0.000000 -0.005749 0.000000
# 4 0.000000 0.000000 0.000000 0.061381 0.000000 0.009918
# 5 0.004804 0.001592 -0.005749 0.000000 0.029407 0.000000
# 6 0.000000 0.000000 0.000000 0.009918 0.000000 0.067342
#
#
# Mechanical properties :
#
#
# Convention : Reuss Voigt Hill
#
# Bulk Modulus (GPa) = 62.61853 63.97289 63.29571
# Shear Modulus (GPa) = 22.50461 27.53253 25.01857
#
# Velocity S-wave (km/s) = 3.41132 3.77320 3.59682
# Velocity P-wave (km/s) = 6.92071 7.21548 7.06963
#
# Compressibility (1/GPa) = 0.01596971
#
# Stress axis : x y z
#
# Youngs Moduli (GPa) = 73.26139 88.40466 80.74014
#
# Poissons Ratio (x) = 0.17035 0.37740
# Poissons Ratio (y) = 0.14117 0.33002
# Poissons Ratio (z) = 0.34244 0.36135
#
# Static dielectric constant tensor:
#      x y z
#    x 3.561690 0.000000 -0.087940 
#    y 0.000000 3.458500 0.000000 
#    z -0.087940 0.000000 3.679180 
# 
# 
# High freq. dielectric constant tensor:
#      x y z
#    x 1.741990 0.000000 -0.002020 
#    y 0.000000 1.731650 0.000000 
#    z -0.002020 0.000000 1.768610 
# 
# From -- ./inp_files/110987.got.cif
#   From: 2010.06.25/outbox.cif.g09.slc.cpg/sg15_56_cif.got.tgz:110987.got - 2010.06.28 07:06:18.
