data_PCOD8136498
_publ_section_title
;
Structure prediction by ZEFSAII (Michael W. Deem and Ramdas Pophale) SiO2 
 PCOD8136498
Probable space group: C 2/C
;
_chemical_formula_sum "Si O2"
_cell_formula_units_Z 64
_cell_length_a 16.310071
_cell_length_b 19.510390
_cell_length_c 17.966495
_cell_angle_alpha 90.000000
_cell_angle_beta 34.821352
_cell_angle_gamma 90.000000
_cell_volume 3264.646279
_symmetry_space_group_name_H-M "C 2/C"
_symmetry_group_IT_number 15
_symmetry_cell_setting 'monoclinic'
loop_
_space_group_symop_operation_xyz
x,y,z
-x,y,1/2-z
-x,-y,-z
x,-y,1/2+z
1/2+x,1/2+y,z
1/2-x,1/2+y,1/2-z
1/2-x,1/2-y,-z
1/2+x,1/2-y,1/2+z
loop_
_atom_site_type_symbol
_atom_site_label
_atom_site_fract_x
_atom_site_fract_y
_atom_site_fract_z
Si Si1 0.583786 0.434330 0.967611
Si Si2 0.775740 0.308208 0.637519
Si Si3 0.122941 0.026614 0.602331
Si Si4 0.515491 0.691018 0.059307
Si Si5 0.851991 0.877341 0.903908
Si Si6 0.178730 0.642128 0.010307
Si Si7 0.153039 0.735585 0.165774
Si Si8 0.863730 0.376064 0.708736
O O1 0.522920 0.364975 0.975619
O O2 0.755994 0.433777 0.822451
O O3 0.500000 0.500000 0.000000
O O4 0.564570 0.437776 0.070640
O O5 0.626248 0.284119 0.788996
O O6 0.900442 0.251358 0.545109
O O7 0.758594 0.336472 0.566374
O O8 0.835816 0.371718 0.641426
O O9 0.218530 0.078827 0.576770
O O10 0.000000 0.007140 0.750000
O O11 0.203233 0.953497 0.531047
O O12 0.630926 0.661607 0.031176
O O13 0.000000 0.880917 0.750000
O O14 0.227292 0.704907 0.920871
O O15 0.190214 0.671269 0.085152
O O16 0.027513 0.606910 0.104339
O O17 0.156712 0.702050 0.244247
O O18 0.000000 0.765770 0.250000
#
# Coordination Sequence:
#
# PCOD8136498 Si02
#       8
#     8   8   8   8   8   8   8   8
#     4  11  22  40  63  89 117 158 209 247 299 366
#     4  10  22  37  62  89 122 154 202 249 315 358
#     4  11  22  37  62  89 116 160 204 245 300 370
#     4  10  21  39  65  90 118 158 198 263 304 363
#     4   9  19  39  61  84 116 156 202 250 307 360
#     4  10  20  34  54  86 119 157 192 241 297 361
#     4   9  18  33  55  83 121 154 195 241 297 360
#     4  10  22  36  60  83 122 161 193 249 304 357
#
# _framework density 19.603961000000002
#
# number of rings (size 3 to 8) (size 9 to 14) (size 15 to 20)
#    0.000    2.000    2.500    0.750    5.250    2.000 
#    0.000    1.875    2.750    0.000    0.000    0.000 
#    0.000    0.000    0.000    0.000    0.000    0.000 
#
# Total GULP energy -396467.871651 kJ/mol
# GULP energy per Si atom -12389.620989 kJ/mol
# Density = 1.955934 g / cm^3
# Si number density = 19.603961 Si / 1000 Ang^3
#
#
#
# Elastic Constant Matrix: (Units=GPa)
#
#
# Indices 1 2 3 4 5 6 
#
# 1 78.4628 22.6859 24.3935 0.0015 -0.6758 -0.0006
# 2 22.6859 65.8452 35.2613 0.0001 -14.7750 -0.0002
# 3 24.3935 35.2613 65.9672 0.0029 -6.3108 -0.0025
# 4 0.0015 0.0001 0.0029 26.4512 -0.0025 -5.0000
# 5 -0.6758 -14.7750 -6.3108 -0.0025 32.8232 0.0015
# 6 -0.0006 -0.0002 -0.0025 -5.0000 0.0015 23.3321
#
#
#
# Elastic Compliance Matrix: (Units=1/GPa)
#
#
# Indices 1 2 3 4 5 6 
#
# 1 0.014943 -0.003559 -0.003817 -0.000001 -0.002029 0.000000
# 2 -0.003559 0.024124 -0.010745 0.000002 0.008720 -0.000001
# 3 -0.003817 -0.010745 0.022253 -0.000002 -0.000637 0.000002
# 4 -0.000001 0.000002 -0.000002 0.039402 0.000003 0.008444
# 5 -0.002029 0.008720 -0.000637 0.000003 0.034227 -0.000002
# 6 0.000000 -0.000001 0.000002 0.008444 -0.000002 0.044669
#
#
# Mechanical properties :
#
#
# Convention : Reuss Voigt Hill
#
# Bulk Modulus (GPa) = 39.87578 41.66187 40.76882
# Shear Modulus (GPa) = 22.29953 25.05025 23.67489
#
# Velocity S-wave (km/s) = 3.37634 3.57853 3.47891
# Velocity P-wave (km/s) = 5.96527 6.19455 6.08099
#
# Compressibility (1/GPa) = 0.02507788
#
# Stress axis : x y z
#
# Youngs Moduli (GPa) = 66.91953 41.45229 44.93780
#
# Poissons Ratio (x) = 0.14755 0.17154
# Poissons Ratio (y) = 0.23820 0.48284
# Poissons Ratio (z) = 0.25545 0.44539
#
# Static dielectric constant tensor:
#      x y z
#    x 3.767280 0.000000 0.006400 
#    y 0.000000 3.397120 0.000000 
#    z 0.006400 0.000000 3.548190 
# 
# 
# High freq. dielectric constant tensor:
#      x y z
#    x 1.774500 0.000000 0.001960 
#    y 0.000000 1.746960 0.000000 
#    z 0.001960 0.000000 1.746700 
# 
# From -- ./inp_files/206444.got.cif
#   From: 2010.06.25/outbox.cif.g09.slc.cpg/sg15_104_cif.got.tgz:206444.got - 2010.06.28 07:06:18.
