data_PCOD8136890
_publ_section_title
;
Structure prediction by ZEFSAII (Michael W. Deem and Ramdas Pophale) SiO2 
 PCOD8136890
Probable space group: C 2/C
;
_chemical_formula_sum "Si O2"
_cell_formula_units_Z 40
_cell_length_a 20.334797
_cell_length_b 14.107299
_cell_length_c 11.654147
_cell_angle_alpha 90.000000
_cell_angle_beta 142.050782
_cell_angle_gamma 90.000000
_cell_volume 2055.952404
_symmetry_space_group_name_H-M "C 2/C"
_symmetry_group_IT_number 15
_symmetry_cell_setting 'monoclinic'
loop_
_space_group_symop_operation_xyz
x,y,z
-x,y,1/2-z
-x,-y,-z
x,-y,1/2+z
1/2+x,1/2+y,z
1/2-x,1/2+y,1/2-z
1/2-x,1/2-y,-z
1/2+x,1/2-y,1/2+z
loop_
_atom_site_type_symbol
_atom_site_label
_atom_site_fract_x
_atom_site_fract_y
_atom_site_fract_z
Si Si1 0.399228 0.762873 0.814287
Si Si2 0.253991 0.889703 0.472609
Si Si3 0.128668 0.667665 0.587457
Si Si4 0.321384 0.762065 0.943694
Si Si5 0.727075 0.099143 0.935874
O O1 0.309398 0.839545 0.656939
O O2 0.358927 0.660330 0.713572
O O3 0.510696 0.790648 0.909903
O O4 0.413368 0.761418 0.972752
O O5 0.336602 0.886948 0.479763
O O6 0.227029 0.996894 0.470265
O O7 0.208050 0.756935 0.718674
O O8 0.140127 0.595106 0.711894
O O9 0.325769 0.668598 0.032933
O O10 0.330363 0.856976 0.030847
#
# Coordination Sequence:
#
# PCOD8136890 Si02
#       5
#     8   8   8   8   8
#     4  10  20  35  56  82 113 153 183 235 286 335
#     4  10  21  35  57  83 116 145 187 240 284 333
#     4   9  19  37  55  83 114 143 189 227 283 341
#     4   8  19  37  56  77 116 149 186 236 285 334
#     4   9  19  38  55  81 115 147 188 240 278 333
#
# _framework density 19.455703
#
# number of rings (size 3 to 8) (size 9 to 14) (size 15 to 20)
#    1.200    1.600    0.000    0.600    2.800    1.600 
#    3.600    1.000    0.000    7.200    0.000    0.000 
#    0.000    0.000    0.000    0.000    0.000    0.000 
#
# Total GULP energy -247788.365040 kJ/mol
# GULP energy per Si atom -12389.418252 kJ/mol
# Density = 1.941142 g / cm^3
# Si number density = 19.455703 Si / 1000 Ang^3
#
#
#
# Elastic Constant Matrix: (Units=GPa)
#
#
# Indices 1 2 3 4 5 6 
#
# 1 69.8739 19.8755 20.9704 0.0000 -18.2220 0.0000
# 2 19.8755 125.5080 20.2949 0.0000 -16.9982 0.0000
# 3 20.9704 20.2949 37.4198 0.0000 -10.7918 0.0000
# 4 0.0000 0.0000 0.0000 20.4024 0.0000 -5.9758
# 5 -18.2220 -16.9982 -10.7918 0.0000 28.8906 0.0000
# 6 0.0000 0.0000 0.0000 -5.9758 0.0000 13.4650
#
#
#
# Elastic Compliance Matrix: (Units=1/GPa)
#
#
# Indices 1 2 3 4 5 6 
#
# 1 0.019129 -0.000565 -0.007879 0.000000 0.008790 0.000000
# 2 -0.000565 0.009134 -0.003575 0.000000 0.003682 0.000000
# 3 -0.007879 -0.003575 0.034786 0.000000 0.005921 0.000000
# 4 0.000000 0.000000 0.000000 0.056337 0.000000 0.025003
# 5 0.008790 0.003682 0.005921 0.000000 0.044535 0.000000
# 6 0.000000 0.000000 0.000000 0.025003 0.000000 0.085363
#
#
# Mechanical properties :
#
#
# Convention : Reuss Voigt Hill
#
# Bulk Modulus (GPa) = 25.63389 39.45371 32.54380
# Shear Modulus (GPa) = 17.46262 23.99565 20.72913
#
# Velocity S-wave (km/s) = 2.99918 3.51571 3.26767
# Velocity P-wave (km/s) = 5.01971 6.06656 5.56779
#
# Compressibility (1/GPa) = 0.03901085
#
# Stress axis : x y z
#
# Youngs Moduli (GPa) = 52.27686 109.48206 28.74728
#
# Poissons Ratio (x) = 0.06184 0.22649
# Poissons Ratio (y) = 0.02953 0.10278
# Poissons Ratio (z) = 0.41188 0.39144
#
# Static dielectric constant tensor:
#      x y z
#    x 3.507280 0.000000 -0.346010 
#    y 0.000000 3.248160 0.000000 
#    z -0.346010 0.000000 3.316740 
# 
# 
# High freq. dielectric constant tensor:
#      x y z
#    x 1.758380 0.000000 -0.033540 
#    y 0.000000 1.730470 0.000000 
#    z -0.033540 0.000000 1.737910 
# 
# From -- ./inp_files/112519.got.cif
#   From: 2010.06.25/outbox.cif.g09.slc.cpg/sg15_57_cif.got.tgz:112519.got - 2010.06.28 07:06:18.
