data_PCOD8136233
_publ_section_title
;
Structure prediction by ZEFSAII (Michael W. Deem and Ramdas Pophale) SiO2 
 PCOD8136233
Probable space group: C 2/C
;
_chemical_formula_sum "Si O2"
_cell_formula_units_Z 64
_cell_length_a 9.886264
_cell_length_b 22.388715
_cell_length_c 25.717698
_cell_angle_alpha 90.000000
_cell_angle_beta 140.251830
_cell_angle_gamma 90.000000
_cell_volume 3639.786476
_symmetry_space_group_name_H-M "C 2/C"
_symmetry_group_IT_number 15
_symmetry_cell_setting 'monoclinic'
loop_
_space_group_symop_operation_xyz
x,y,z
-x,y,1/2-z
-x,-y,-z
x,-y,1/2+z
1/2+x,1/2+y,z
1/2-x,1/2+y,1/2-z
1/2-x,1/2-y,-z
1/2+x,1/2-y,1/2+z
loop_
_atom_site_type_symbol
_atom_site_label
_atom_site_fract_x
_atom_site_fract_y
_atom_site_fract_z
Si Si1 0.058648 0.666265 0.952752
Si Si2 0.492953 0.965305 0.417471
Si Si3 0.653535 0.210253 0.404667
Si Si4 0.727171 0.162079 0.535358
Si Si5 0.336357 0.526211 0.248876
Si Si6 0.178083 0.031260 0.919488
Si Si7 0.033548 0.792601 0.589577
Si Si8 0.846292 0.363160 0.748573
O O1 0.030734 0.604091 0.914392
O O2 0.975666 0.657536 0.987050
O O3 0.937131 0.721526 0.889060
O O4 0.298458 0.685050 0.024117
O O5 0.338967 0.974481 0.419995
O O6 0.373336 0.990275 0.331205
O O7 0.717754 0.997131 0.499462
O O8 0.638537 0.170085 0.451421
O O9 0.625079 0.280995 0.407623
O O10 0.877486 0.197257 0.442485
O O11 0.465346 0.190704 0.312056
O O12 0.861814 0.100834 0.578316
O O13 0.500000 0.534529 0.250000
O O14 0.453785 0.496302 0.333696
O O15 0.241669 0.589275 0.237231
O O16 0.146740 0.832001 0.665070
O O17 0.000000 0.392257 0.750000
#
# Coordination Sequence:
#
# PCOD8136233 Si02
#       8
#     8   8   8   8   8   8   8   8
#     4   9  17  31  50  70  94 123 156 195 238 281
#     4   9  17  29  47  72  98 122 153 196 239 278
#     4   9  18  31  48  70  95 125 159 194 234 284
#     4   9  17  31  50  70  94 123 156 195 238 281
#     4  10  20  33  51  73  95 124 163 200 236 286
#     4   9  17  29  47  72  98 122 153 196 239 278
#     4   9  18  31  48  70  95 125 159 194 234 284
#     4  10  20  33  47  67  97 126 155 194 238 282
#
# _framework density 17.583449000000002
#
# number of rings (size 3 to 8) (size 9 to 14) (size 15 to 20)
#    0.000    2.750    0.000    1.500    0.000    4.000 
#    0.000    6.250    0.000    4.500    0.000    3.500 
#    0.000    0.000    0.000    0.000    0.000    0.000 
#
# Total GULP energy -396516.297833 kJ/mol
# GULP energy per Si atom -12391.134307 kJ/mol
# Density = 1.754343 g / cm^3
# Si number density = 17.583449 Si / 1000 Ang^3
#
#
#
# Elastic Constant Matrix: (Units=GPa)
#
#
# Indices 1 2 3 4 5 6 
#
# 1 40.4114 35.6964 17.1972 0.0002 -0.0942 -0.0002
# 2 35.6964 120.1698 45.1574 0.0000 1.3743 0.0000
# 3 17.1972 45.1574 84.6224 0.0006 1.9708 -0.0001
# 4 0.0002 0.0000 0.0006 18.4154 0.0001 -4.2853
# 5 -0.0942 1.3743 1.9708 0.0001 15.4419 -0.0001
# 6 -0.0002 0.0000 -0.0001 -4.2853 -0.0001 22.7820
#
#
#
# Elastic Compliance Matrix: (Units=1/GPa)
#
#
# Indices 1 2 3 4 5 6 
#
# 1 0.033813 -0.009338 -0.001918 0.000000 0.001282 0.000000
# 2 -0.009338 0.012988 -0.005020 0.000000 -0.000572 0.000000
# 3 -0.001918 -0.005020 0.014920 0.000000 -0.001469 0.000000
# 4 0.000000 0.000000 0.000000 0.056788 0.000000 0.010682
# 5 0.001282 -0.000572 -0.001469 0.000000 0.065005 0.000000
# 6 0.000000 0.000000 0.000000 0.010682 0.000000 0.045904
#
#
# Mechanical properties :
#
#
# Convention : Reuss Voigt Hill
#
# Bulk Modulus (GPa) = 34.28303 49.03398 41.65850
# Shear Modulus (GPa) = 18.40305 21.13806 19.77055
#
# Velocity S-wave (km/s) = 3.23865 3.47097 3.35682
# Velocity P-wave (km/s) = 5.79006 6.63404 6.22637
#
# Compressibility (1/GPa) = 0.02916895
#
# Stress axis : x y z
#
# Youngs Moduli (GPa) = 29.57413 76.99197 67.02353
#
# Poissons Ratio (x) = 0.71895 0.12858
# Poissons Ratio (y) = 0.27616 0.33646
# Poissons Ratio (z) = 0.05674 0.38650
#
# Static dielectric constant tensor:
#      x y z
#    x 3.136150 0.000000 -0.002460 
#    y 0.000000 3.551650 0.000000 
#    z -0.002460 0.000000 3.351170 
# 
# 
# High freq. dielectric constant tensor:
#      x y z
#    x 1.653950 0.000000 0.001630 
#    y 0.000000 1.692990 0.000000 
#    z 0.001630 0.000000 1.672250 
# 
# From -- ./inp_files/266142.got.cif
#   From: 2010.06.25/outbox.cif.g09.slc.cpg/sg15_134_cif.got.tgz:266142.got - 2010.06.28 07:06:18.
