data_PCOD8136686
_publ_section_title
;
Structure prediction by ZEFSAII (Michael W. Deem and Ramdas Pophale) SiO2 
 PCOD8136686
Probable space group: C 2/C
;
_chemical_formula_sum "Si O2"
_cell_formula_units_Z 60
_cell_length_a 24.519939
_cell_length_b 19.819932
_cell_length_c 12.978754
_cell_angle_alpha 90.000000
_cell_angle_beta 29.953361
_cell_angle_gamma 90.000000
_cell_volume 3149.282823
_symmetry_space_group_name_H-M "C 2/C"
_symmetry_group_IT_number 15
_symmetry_cell_setting 'monoclinic'
loop_
_space_group_symop_operation_xyz
x,y,z
-x,y,1/2-z
-x,-y,-z
x,-y,1/2+z
1/2+x,1/2+y,z
1/2-x,1/2+y,1/2-z
1/2-x,1/2-y,-z
1/2+x,1/2-y,1/2+z
loop_
_atom_site_type_symbol
_atom_site_label
_atom_site_fract_x
_atom_site_fract_y
_atom_site_fract_z
Si Si1 0.274152 0.115044 0.499687
Si Si2 0.408844 0.703200 0.482136
Si Si3 0.921465 0.641267 0.975206
Si Si4 0.499900 0.838394 0.568594
Si Si5 0.763894 0.043636 0.140510
Si Si6 0.723831 0.103018 0.774884
Si Si7 0.500000 0.403409 0.250000
Si Si8 0.564896 0.688396 0.831091
O O1 0.398881 0.134690 0.297660
O O2 0.253824 0.057581 0.450158
O O3 0.250491 0.083595 0.649402
O O4 0.197120 0.180692 0.601444
O O5 0.375071 0.782383 0.543930
O O6 0.305995 0.662080 0.606806
O O7 0.454871 0.673444 0.514960
O O8 0.500000 0.692023 0.250000
O O9 0.000000 0.622012 0.750000
O O10 0.995930 0.637940 0.955917
O O11 0.817317 0.590537 0.156099
O O12 0.605092 0.867128 0.451227
O O13 0.491582 0.758896 0.598620
O O14 0.736327 0.965412 0.192307
O O15 0.892322 0.053360 0.953333
O O16 0.488755 0.361793 0.162751
#
# Coordination Sequence:
#
# PCOD8136686 Si02
#       8
#     8   8   8   8   8   8   4   8
#     4   9  20  39  56  82 124 151 187 243 302 333
#     4   9  20  41  58  82 120 157 189 243 297 340
#     4   9  20  40  61  81 121 157 186 238 302 341
#     4  10  20  34  59  91 115 148 197 241 286 353
#     4  10  23  40  57  85 119 159 194 238 292 351
#     4  11  23  35  59  90 113 155 198 237 288 344
#     4  10  22  38  60  86 114 152 208 240 286 356
#     4   9  19  36  60  88 112 152 194 246 297 337
#
# _framework density 19.051956000000001
#
# number of rings (size 3 to 8) (size 9 to 14) (size 15 to 20)
#    0.000    2.400    0.000    0.800    4.667    6.400 
#    4.800    4.000    0.000    0.000    0.000    0.000 
#    0.000    0.000    0.000    0.000    0.000    0.000 
#
# Total GULP energy -371683.079530 kJ/mol
# GULP energy per Si atom -12389.435984 kJ/mol
# Density = 1.900859 g / cm^3
# Si number density = 19.051956 Si / 1000 Ang^3
#
#
#
# Elastic Constant Matrix: (Units=GPa)
#
#
# Indices 1 2 3 4 5 6 
#
# 1 82.8110 50.8112 49.1066 0.0000 -15.3047 0.0000
# 2 50.8112 106.6704 52.3002 0.0000 -16.4761 0.0000
# 3 49.1066 52.3002 116.3828 0.0000 -11.1967 0.0000
# 4 0.0000 0.0000 0.0000 11.3707 0.0000 -1.7563
# 5 -15.3047 -16.4761 -11.1967 0.0000 38.5696 0.0000
# 6 0.0000 0.0000 0.0000 -1.7563 0.0000 21.1035
#
#
#
# Elastic Compliance Matrix: (Units=1/GPa)
#
#
# Indices 1 2 3 4 5 6 
#
# 1 0.019633 -0.006287 -0.005110 0.000000 0.003621 0.000000
# 2 -0.006287 0.014564 -0.003635 0.000000 0.002672 0.000000
# 3 -0.005110 -0.003635 0.012384 0.000000 0.000014 0.000000
# 4 0.000000 0.000000 0.000000 0.089090 0.000000 0.007414
# 5 0.003621 0.002672 0.000014 0.000000 0.028509 0.000000
# 6 0.000000 0.000000 0.000000 0.007414 0.000000 0.048003
#
#
# Mechanical properties :
#
#
# Convention : Reuss Voigt Hill
#
# Bulk Modulus (GPa) = 60.54781 67.81115 64.17948
# Shear Modulus (GPa) = 20.18136 24.45184 22.31660
#
# Velocity S-wave (km/s) = 3.25819 3.58638 3.42622
# Velocity P-wave (km/s) = 6.78261 7.26771 7.02934
#
# Compressibility (1/GPa) = 0.01651587
#
# Stress axis : x y z
#
# Youngs Moduli (GPa) = 50.93484 68.66063 80.75248
#
# Poissons Ratio (x) = 0.43167 0.41267
# Poissons Ratio (y) = 0.32023 0.29355
# Poissons Ratio (z) = 0.26029 0.24959
#
# Static dielectric constant tensor:
#      x y z
#    x 3.564320 0.000000 0.056820 
#    y 0.000000 3.374440 0.000000 
#    z 0.056820 0.000000 3.608170 
# 
# 
# High freq. dielectric constant tensor:
#      x y z
#    x 1.746870 0.000000 0.004210 
#    y 0.000000 1.727530 0.000000 
#    z 0.004210 0.000000 1.746790 
# 
# From -- ./inp_files/119948.got.cif
#   From: 2010.06.25/outbox.cif.g09.slc.cpg/sg15_60_cif.got.tgz:119948.got - 2010.06.28 07:06:18.
