data_PCOD8136339
_publ_section_title
;
Structure prediction by ZEFSAII (Michael W. Deem and Ramdas Pophale) SiO2 
 PCOD8136339
Probable space group: C 2/C
;
_chemical_formula_sum "Si O2"
_cell_formula_units_Z 52
_cell_length_a 15.121088
_cell_length_b 19.910980
_cell_length_c 20.553924
_cell_angle_alpha 90.000000
_cell_angle_beta 153.198510
_cell_angle_gamma 90.000000
_cell_volume 2790.303112
_symmetry_space_group_name_H-M "C 2/C"
_symmetry_group_IT_number 15
_symmetry_cell_setting 'monoclinic'
loop_
_space_group_symop_operation_xyz
x,y,z
-x,y,1/2-z
-x,-y,-z
x,-y,1/2+z
1/2+x,1/2+y,z
1/2-x,1/2+y,1/2-z
1/2-x,1/2-y,-z
1/2+x,1/2-y,1/2+z
loop_
_atom_site_type_symbol
_atom_site_label
_atom_site_fract_x
_atom_site_fract_y
_atom_site_fract_z
Si Si1 0.179699 0.297419 0.634137
Si Si2 0.809629 0.044115 0.363506
Si Si3 0.500000 0.024157 0.750000
Si Si4 0.000000 0.253889 0.250000
Si Si5 0.066731 0.816588 0.579361
Si Si6 0.674096 0.050522 0.128726
Si Si7 0.749936 0.637734 0.529716
Si Si8 0.000000 0.912215 0.750000
O O1 0.336604 0.290695 0.678909
O O2 0.278231 0.285369 0.768609
O O3 0.094768 0.372914 0.572775
O O4 0.004897 0.243650 0.513768
O O5 0.841610 0.122743 0.402483
O O6 0.759402 0.035042 0.255064
O O7 0.631018 0.022215 0.290836
O O8 0.000000 0.000000 0.500000
O O9 0.367288 0.068577 0.614624
O O10 0.097039 0.300117 0.370707
O O11 0.886495 0.852156 0.497540
O O12 0.850253 0.040818 0.191945
O O13 0.500000 0.000000 0.000000
O O14 0.620094 0.636108 0.379180
#
# Coordination Sequence:
#
# PCOD8136339 Si02
#       8
#     8   8   4   4   8   8   8   4
#     4  10  21  34  52  78 117 149 182 232 279 335
#     4  11  21  39  59  83 112 149 196 236 273 337
#     4  11  20  38  61  81 111 154 188 240 283 322
#     4   9  21  32  52  84 115 153 182 210 284 364
#     4  10  21  36  53  83 115 148 187 229 278 341
#     4  11  24  37  56  84 116 151 191 231 285 340
#     4  10  20  33  55  85 116 150 181 218 284 353
#     4  12  19  36  57  85 122 153 174 234 281 334
#
# _framework density 18.635967999999998
#
# number of rings (size 3 to 8) (size 9 to 14) (size 15 to 20)
#    0.000    1.538    4.615    1.385    2.154    2.462 
#    0.000    0.000    0.000    4.615    0.000    0.000 
#    0.000    0.000    0.000    0.000    0.000    0.000 
#
# Total GULP energy -322391.335710 kJ/mol
# GULP energy per Si atom -12399.666758 kJ/mol
# Density = 1.859355 g / cm^3
# Si number density = 18.635968 Si / 1000 Ang^3
#
#
#
# Elastic Constant Matrix: (Units=GPa)
#
#
# Indices 1 2 3 4 5 6 
#
# 1 83.4800 52.1622 37.8632 -0.0047 6.6982 -0.0024
# 2 52.1622 144.0197 88.2600 -0.0148 -3.0059 0.0029
# 3 37.8632 88.2600 128.0904 -0.0480 -7.2601 -0.0231
# 4 -0.0047 -0.0148 -0.0480 43.7593 0.0021 11.1418
# 5 6.6982 -3.0059 -7.2601 0.0021 22.9570 0.0036
# 6 -0.0024 0.0029 -0.0231 11.1418 0.0036 15.7392
#
#
#
# Elastic Compliance Matrix: (Units=1/GPa)
#
#
# Indices 1 2 3 4 5 6 
#
# 1 0.016363 -0.004984 -0.001741 -0.000003 -0.005977 0.000004
# 2 -0.004984 0.013562 -0.007829 -0.000001 0.000754 -0.000014
# 3 -0.001741 -0.007829 0.013937 0.000009 0.003891 0.000015
# 4 -0.000003 -0.000001 0.000009 0.027877 0.000004 -0.019734
# 5 -0.005977 0.000754 0.003891 0.000004 0.046633 -0.000009
# 6 0.000004 -0.000014 0.000015 -0.019734 -0.000009 0.077505
#
#
# Mechanical properties :
#
#
# Convention : Reuss Voigt Hill
#
# Bulk Modulus (GPa) = 67.78308 79.12901 73.45604
# Shear Modulus (GPa) = 21.74832 28.31141 25.02987
#
# Velocity S-wave (km/s) = 3.41986 3.90190 3.66880
# Velocity P-wave (km/s) = 7.21422 7.92794 7.57949
#
# Compressibility (1/GPa) = 0.01475294
#
# Stress axis : x y z
#
# Youngs Moduli (GPa) = 61.11522 73.73430 71.75251
#
# Poissons Ratio (x) = 0.36748 0.12495
# Poissons Ratio (y) = 0.30459 0.56175
# Poissons Ratio (z) = 0.10643 0.57727
#
# Static dielectric constant tensor:
#      x y z
#    x 3.177490 0.000380 0.287330 
#    y 0.000380 3.750590 -0.001720 
#    z 0.287330 -0.001720 2.366680 
# 
# 
# High freq. dielectric constant tensor:
#      x y z
#    x 1.690330 0.000000 -0.014040 
#    y 0.000000 1.729020 0.000000 
#    z -0.014040 0.000000 1.737390 
# 
# From -- ./inp_files/40808.got.cif
#   From: 2010.06.25/outbox.cif.g09.slc.cpg/sg15_21_cif.got.tgz:40808.got - 2010.06.28 07:06:18.
