data_PCOD8136834
_publ_section_title
;
Structure prediction by ZEFSAII (Michael W. Deem and Ramdas Pophale) SiO2 
 PCOD8136834
Probable space group: C 2/C
;
_chemical_formula_sum "Si O2"
_cell_formula_units_Z 64
_cell_length_a 11.425777
_cell_length_b 18.801526
_cell_length_c 16.398491
_cell_angle_alpha 90.000000
_cell_angle_beta 89.018653
_cell_angle_gamma 90.000000
_cell_volume 3522.240640
_symmetry_space_group_name_H-M "C 2/C"
_symmetry_group_IT_number 15
_symmetry_cell_setting 'monoclinic'
loop_
_space_group_symop_operation_xyz
x,y,z
-x,y,1/2-z
-x,-y,-z
x,-y,1/2+z
1/2+x,1/2+y,z
1/2-x,1/2+y,1/2-z
1/2-x,1/2-y,-z
1/2+x,1/2-y,1/2+z
loop_
_atom_site_type_symbol
_atom_site_label
_atom_site_fract_x
_atom_site_fract_y
_atom_site_fract_z
Si Si1 0.382302 0.425945 0.642067
Si Si2 0.507659 0.888780 0.153837
Si Si3 0.832828 0.817299 0.508181
Si Si4 0.442563 0.233669 0.967981
Si Si5 0.354428 0.438716 0.830661
Si Si6 0.774079 0.540801 0.932204
Si Si7 0.727024 0.056879 0.914907
Si Si8 0.744092 0.159215 0.448360
O O1 0.325040 0.358896 0.595166
O O2 0.358559 0.418296 0.737143
O O3 0.521678 0.426028 0.625247
O O4 0.328137 0.501376 0.616067
O O5 0.500000 0.873362 0.250000
O O6 0.390618 0.929032 0.131759
O O7 0.617294 0.939226 0.128115
O O8 0.507363 0.813347 0.106666
O O9 0.750000 0.750000 0.500000
O O10 0.797394 0.872061 0.438276
O O11 0.963674 0.787619 0.495503
O O12 0.330142 0.274801 0.935196
O O13 0.391868 0.183511 0.041187
O O14 0.315394 0.518759 0.850854
O O15 0.253858 0.388165 0.867963
O O16 0.721583 0.613142 0.971419
O O17 0.811508 0.489074 0.005922
#
# Coordination Sequence:
#
# PCOD8136834 Si02
#       8
#     8   8   8   8   8   8   8   8
#     4  10  21  35  58  83 113 142 182 233 280 325
#     4  11  21  35  54  80 113 144 180 230 282 330
#     4  11  21  37  58  82 114 146 186 226 277 333
#     4  10  20  35  54  82 105 146 186 221 274 331
#     4  10  20  36  57  84 110 142 186 231 280 322
#     4   9  20  35  56  80 107 141 186 229 271 326
#     4  10  21  35  58  82 108 148 185 230 272 333
#     4   9  19  35  57  79 104 142 188 228 264 332
#
# _framework density 18.170252000000001
#
# number of rings (size 3 to 8) (size 9 to 14) (size 15 to 20)
#    0.000    2.000    2.500    1.125    1.750    2.500 
#    0.000    0.000    0.000    0.000    0.000    0.000 
#    0.000    0.000    0.000    0.000    0.000    0.000 
#
# Total GULP energy -396617.580535 kJ/mol
# GULP energy per Si atom -12394.299392 kJ/mol
# Density = 1.812890 g / cm^3
# Si number density = 18.170252 Si / 1000 Ang^3
#
#
#
# Elastic Constant Matrix: (Units=GPa)
#
#
# Indices 1 2 3 4 5 6 
#
# 1 75.6433 38.7535 48.9992 0.0000 -9.3909 0.0000
# 2 38.7535 102.4848 32.9126 0.0000 -8.0845 0.0000
# 3 48.9992 32.9126 74.8396 0.0000 -7.7979 0.0000
# 4 0.0000 0.0000 0.0000 15.5939 0.0000 -2.6213
# 5 -9.3909 -8.0845 -7.7979 0.0000 25.9320 0.0000
# 6 0.0000 0.0000 0.0000 -2.6213 0.0000 44.6248
#
#
#
# Elastic Compliance Matrix: (Units=1/GPa)
#
#
# Indices 1 2 3 4 5 6 
#
# 1 0.025163 -0.004738 -0.014035 0.000000 0.003415 0.000000
# 2 -0.004738 0.012367 -0.002182 0.000000 0.001484 0.000000
# 3 -0.014035 -0.002182 0.023651 0.000000 0.001349 0.000000
# 4 0.000000 0.000000 0.000000 0.064767 0.000000 0.003804
# 5 0.003415 0.001484 0.001349 0.000000 0.040667 0.000000
# 6 0.000000 0.000000 0.000000 0.003804 0.000000 0.022633
#
#
# Mechanical properties :
#
#
# Convention : Reuss Voigt Hill
#
# Bulk Modulus (GPa) = 51.89300 54.92205 53.40753
# Shear Modulus (GPa) = 21.04538 26.05030 23.54784
#
# Velocity S-wave (km/s) = 3.40697 3.79050 3.60384
# Velocity P-wave (km/s) = 6.64063 7.03201 6.83912
#
# Compressibility (1/GPa) = 0.01927042
#
# Stress axis : x y z
#
# Youngs Moduli (GPa) = 39.74102 80.86018 42.28133
#
# Poissons Ratio (x) = 0.38315 0.59342
# Poissons Ratio (y) = 0.18831 0.09225
# Poissons Ratio (z) = 0.55777 0.17642
#
# Static dielectric constant tensor:
#      x y z
#    x 3.532440 0.000000 -0.119670 
#    y 0.000000 3.658310 0.000000 
#    z -0.119670 0.000000 3.229180 
# 
# 
# High freq. dielectric constant tensor:
#      x y z
#    x 1.704890 0.000000 -0.009860 
#    y 0.000000 1.719160 0.000000 
#    z -0.009860 0.000000 1.686350 
# 
# From -- ./inp_files/146060.got.cif
#   From: 2010.06.25/outbox.cif.g09.slc.cpg/sg15_74_cif.got.tgz:146060.got - 2010.06.28 07:06:18.
