data_PCOD8136010
_publ_section_title
;
Structure prediction by ZEFSAII (Michael W. Deem and Ramdas Pophale) SiO2 
 PCOD8136010
Probable space group: C 2/C
;
_chemical_formula_sum "Si O2"
_cell_formula_units_Z 52
_cell_length_a 13.045431
_cell_length_b 11.249234
_cell_length_c 21.538054
_cell_angle_alpha 90.000000
_cell_angle_beta 129.918862
_cell_angle_gamma 90.000000
_cell_volume 2424.136823
_symmetry_space_group_name_H-M "C 2/C"
_symmetry_group_IT_number 15
_symmetry_cell_setting 'monoclinic'
loop_
_space_group_symop_operation_xyz
x,y,z
-x,y,1/2-z
-x,-y,-z
x,-y,1/2+z
1/2+x,1/2+y,z
1/2-x,1/2+y,1/2-z
1/2-x,1/2-y,-z
1/2+x,1/2-y,1/2+z
loop_
_atom_site_type_symbol
_atom_site_label
_atom_site_fract_x
_atom_site_fract_y
_atom_site_fract_z
Si Si1 0.500000 0.107905 0.250000
Si Si2 0.658808 0.449609 0.810651
Si Si3 0.430824 0.191876 0.096666
Si Si4 0.231581 0.988436 0.699128
Si Si5 0.797721 0.061745 0.548392
Si Si6 0.338264 0.262544 0.390085
Si Si7 0.480549 0.401573 0.543398
O O1 0.432265 0.189177 0.171657
O O2 0.615639 0.032018 0.261563
O O3 0.500000 0.447964 0.750000
O O4 0.715912 0.493227 0.766999
O O5 0.711929 0.546014 0.881325
O O6 0.707068 0.317351 0.849962
O O7 0.375923 0.320761 0.056355
O O8 0.576723 0.181009 0.123899
O O9 0.348625 0.079350 0.037956
O O10 0.126570 0.886926 0.633046
O O11 0.195048 0.114752 0.656142
O O12 0.870468 0.945154 0.550097
O O13 0.421547 0.283471 0.486910
O O14 0.500000 0.500000 0.500000
#
# Coordination Sequence:
#
# PCOD8136010 Si02
#       7
#     4   8   8   8   8   8   8
#     4  12  26  42  70 100 136 174 234 284 328 398
#     4  12  25  46  66 102 138 175 224 282 335 402
#     4  11  23  42  69 102 125 176 232 278 330 395
#     4  11  24  45  67  96 134 180 221 281 342 399
#     4  11  24  41  69  97 133 173 226 279 335 397
#     4  11  24  43  66  97 134 177 226 272 349 404
#     4  10  19  42  66  90 130 178 216 272 336 406
#
# _framework density 21.450934
#
# number of rings (size 3 to 8) (size 9 to 14) (size 15 to 20)
#    0.000    0.923    6.154    1.846    6.462    1.231 
#    0.000    0.000    0.000    0.000    0.000    0.000 
#    0.000    0.000    0.000    0.000    0.000    0.000 
#
# Total GULP energy -322308.804173 kJ/mol
# GULP energy per Si atom -12396.492468 kJ/mol
# Density = 2.140211 g / cm^3
# Si number density = 21.450934 Si / 1000 Ang^3
#
#
#
# Elastic Constant Matrix: (Units=GPa)
#
#
# Indices 1 2 3 4 5 6 
#
# 1 132.0511 26.3255 43.4444 0.0000 -1.7795 0.0000
# 2 26.3255 54.7106 35.4280 0.0000 7.2315 0.0000
# 3 43.4444 35.4280 113.2492 0.0000 -13.0458 0.0000
# 4 0.0000 0.0000 0.0000 21.4799 0.0000 -9.6187
# 5 -1.7795 7.2315 -13.0458 0.0000 38.3399 0.0000
# 6 0.0000 0.0000 0.0000 -9.6187 0.0000 14.9910
#
#
#
# Elastic Compliance Matrix: (Units=1/GPa)
#
#
# Indices 1 2 3 4 5 6 
#
# 1 0.008955 -0.002619 -0.002614 0.000000 0.000020 0.000000
# 2 -0.002619 0.025670 -0.007907 0.000000 -0.007654 0.000000
# 3 -0.002614 -0.007907 0.012973 0.000000 0.005784 0.000000
# 4 0.000000 0.000000 0.000000 0.065324 0.000000 0.041914
# 5 0.000020 -0.007654 0.005784 0.000000 0.029495 0.000000
# 6 0.000000 0.000000 0.000000 0.041914 0.000000 0.093600
#
#
# Mechanical properties :
#
#
# Convention : Reuss Voigt Hill
#
# Bulk Modulus (GPa) = 46.90934 56.71184 51.81059
# Shear Modulus (GPa) = 18.55949 27.94971 23.25460
#
# Velocity S-wave (km/s) = 2.94463 3.61357 3.29611
# Velocity P-wave (km/s) = 5.78592 6.62615 6.22024
#
# Compressibility (1/GPa) = 0.02131771
#
# Stress axis : x y z
#
# Youngs Moduli (GPa) = 111.66768 38.95526 77.08467
#
# Poissons Ratio (x) = 0.10203 0.20147
# Poissons Ratio (y) = 0.29248 0.60954
# Poissons Ratio (z) = 0.29186 0.30804
#
# Static dielectric constant tensor:
#      x y z
#    x 4.083110 0.000000 -0.035960 
#    y 0.000000 4.690380 0.000000 
#    z -0.035960 0.000000 4.475230 
# 
# 
# High freq. dielectric constant tensor:
#      x y z
#    x 1.851000 0.000000 -0.003020 
#    y 0.000000 1.805820 0.000000 
#    z -0.003020 0.000000 1.859050 
# 
# From -- ./inp_files/269332.got.cif
#   From: 2010.06.25/outbox.cif.g09.slc.cpg/sg15_135_cif.got.tgz:269332.got - 2010.06.28 07:06:18.
