data_PCOD8136378
_publ_section_title
;
Structure prediction by ZEFSAII (Michael W. Deem and Ramdas Pophale) SiO2 
 PCOD8136378
Probable space group: C 2/C
;
_chemical_formula_sum "Si O2"
_cell_formula_units_Z 60
_cell_length_a 11.665219
_cell_length_b 9.988239
_cell_length_c 18.551174
_cell_angle_alpha 90.000000
_cell_angle_beta 85.982859
_cell_angle_gamma 90.000000
_cell_volume 2156.179467
_symmetry_space_group_name_H-M "C 2/C"
_symmetry_group_IT_number 15
_symmetry_cell_setting 'monoclinic'
loop_
_space_group_symop_operation_xyz
x,y,z
-x,y,1/2-z
-x,-y,-z
x,-y,1/2+z
1/2+x,1/2+y,z
1/2-x,1/2+y,1/2-z
1/2-x,1/2-y,-z
1/2+x,1/2-y,1/2+z
loop_
_atom_site_type_symbol
_atom_site_label
_atom_site_fract_x
_atom_site_fract_y
_atom_site_fract_z
Si Si1 0.678982 0.645621 0.865843
Si Si2 0.004631 0.280575 0.969648
Si Si3 0.863675 0.869786 0.692369
Si Si4 0.325916 0.404817 0.417344
Si Si5 0.887567 0.837125 0.852286
Si Si6 0.558155 0.063786 0.899519
Si Si7 0.357240 0.255972 0.283719
Si Si8 0.000000 0.488331 0.750000
O O1 0.610431 0.686309 0.940858
O O2 0.682102 0.486211 0.858712
O O3 0.609784 0.697040 0.797973
O O4 0.808285 0.704738 0.861087
O O5 0.011338 0.414520 0.920249
O O6 0.883324 0.195249 0.973582
O O7 0.020917 0.328394 0.052401
O O8 0.864895 0.914375 0.776499
O O9 0.977971 0.802311 0.654929
O O10 0.777802 0.744967 0.691577
O O11 0.361586 0.561632 0.419592
O O12 0.187629 0.409137 0.422736
O O13 0.400195 0.355454 0.343586
O O14 0.546229 0.081182 0.813349
O O15 0.399448 0.103474 0.287268
#
# Coordination Sequence:
#
# PCOD8136378 Si02
#       8
#     8   8   8   8   8   8   8   4
#     4  11  19  37  62  92 132 171 226 279 335 411
#     4  11  22  38  64 101 136 170 227 278 352 414
#     4  10  21  36  54  88 134 173 222 282 334 404
#     4  12  20  39  64  98 134 168 225 284 338 410
#     4  10  20  33  58  93 123 173 226 270 340 402
#     4  11  24  39  63 103 134 176 221 289 343 416
#     4  11  22  36  59  98 127 175 221 275 345 403
#     4  12  22  44  62  94 132 174 234 278 346 416
#
# _framework density 27.826996000000001
#
# number of rings (size 3 to 8) (size 9 to 14) (size 15 to 20)
#    0.000    1.067    6.667    1.200    0.000    0.000 
#    2.400    0.000    0.000    1.600    3.467    0.000 
#    0.000    0.000    0.000    0.000    0.000    0.000 
#
# Total GULP energy -371664.335123 kJ/mol
# GULP energy per Si atom -12388.811171 kJ/mol
# Density = 2.776366 g / cm^3
# Si number density = 27.826996 Si / 1000 Ang^3
#
#
#
# Elastic Constant Matrix: (Units=GPa)
#
#
# Indices 1 2 3 4 5 6 
#
# 1 87.7918 0.1796 2.7846 0.0000 -15.3304 0.0000
# 2 0.1796 91.4096 16.3625 0.0000 -5.1798 0.0000
# 3 2.7846 16.3625 96.3217 0.0000 0.8657 0.0000
# 4 0.0000 0.0000 0.0000 37.9502 0.0000 -5.8387
# 5 -15.3304 -5.1798 0.8657 0.0000 30.0656 0.0000
# 6 0.0000 0.0000 0.0000 -5.8387 0.0000 39.0989
#
#
#
# Elastic Compliance Matrix: (Units=1/GPa)
#
#
# Indices 1 2 3 4 5 6 
#
# 1 0.012537 0.000431 -0.000494 0.000000 0.006481 0.000000
# 2 0.000431 0.011419 -0.001972 0.000000 0.002244 0.000000
# 3 -0.000494 -0.001972 0.010739 0.000000 -0.000901 0.000000
# 4 0.000000 0.000000 0.000000 0.026970 0.000000 0.004027
# 5 0.006481 0.002244 -0.000901 0.000000 0.036978 0.000000
# 6 0.000000 0.000000 0.000000 0.004027 0.000000 0.026178
#
#
# Mechanical properties :
#
#
# Convention : Reuss Voigt Hill
#
# Bulk Modulus (GPa) = 32.65312 34.90851 33.78081
# Shear Modulus (GPa) = 35.94539 38.50271 37.22405
#
# Velocity S-wave (km/s) = 3.59798 3.72377 3.66142
# Velocity P-wave (km/s) = 5.38706 5.57322 5.48093
#
# Compressibility (1/GPa) = 0.03062495
#
# Stress axis : x y z
#
# Youngs Moduli (GPa) = 79.76315 87.57226 93.11584
#
# Poissons Ratio (x) = -0.03775 0.04599
# Poissons Ratio (y) = -0.03438 0.18366
# Poissons Ratio (z) = 0.03940 0.17273
#
# Static dielectric constant tensor:
#      x y z
#    x 4.931380 0.000000 -0.046650 
#    y 0.000000 4.987520 0.000000 
#    z -0.046650 0.000000 4.947900 
# 
# 
# High freq. dielectric constant tensor:
#      x y z
#    x 2.126250 0.000000 -0.015840 
#    y 0.000000 2.138590 0.000000 
#    z -0.015840 0.000000 2.109630 
# 
# From -- ./inp_files/237595.got.cif
#   From: 2010.06.25/outbox.cif.g09.slc.cpg/sg15_119_cif.got.tgz:237595.got - 2010.06.28 07:06:18.
