data_PCOD8136869
_publ_section_title
;
Structure prediction by ZEFSAII (Michael W. Deem and Ramdas Pophale) SiO2 
 PCOD8136869
Probable space group: C 2/C
;
_chemical_formula_sum "Si O2"
_cell_formula_units_Z 56
_cell_length_a 20.608062
_cell_length_b 19.388841
_cell_length_c 9.391722
_cell_angle_alpha 90.000000
_cell_angle_beta 45.747591
_cell_angle_gamma 90.000000
_cell_volume 2687.896680
_symmetry_space_group_name_H-M "C 2/C"
_symmetry_group_IT_number 15
_symmetry_cell_setting 'monoclinic'
loop_
_space_group_symop_operation_xyz
x,y,z
-x,y,1/2-z
-x,-y,-z
x,-y,1/2+z
1/2+x,1/2+y,z
1/2-x,1/2+y,1/2-z
1/2-x,1/2-y,-z
1/2+x,1/2-y,1/2+z
loop_
_atom_site_type_symbol
_atom_site_label
_atom_site_fract_x
_atom_site_fract_y
_atom_site_fract_z
Si Si1 0.148349 0.275164 0.650804
Si Si2 0.959867 0.939636 0.657950
Si Si3 0.207416 0.980260 0.052396
Si Si4 0.669744 0.016207 0.386785
Si Si5 0.546571 0.852041 0.034677
Si Si6 0.577608 0.881183 0.530321
Si Si7 0.058123 0.132890 0.792123
O O1 0.250000 0.250000 0.500000
O O2 0.135627 0.327694 0.537796
O O3 0.082920 0.211037 0.721437
O O4 0.126686 0.306488 0.841136
O O5 0.000000 0.942254 0.750000
O O6 0.990398 0.869056 0.533036
O O7 0.852182 0.949979 0.841928
O O8 0.000000 0.000000 0.500000
O O9 0.147735 0.913348 0.186290
O O10 0.297222 0.995389 0.006104
O O11 0.242397 0.963431 0.840183
O O12 0.590702 0.073540 0.504653
O O13 0.633882 0.944109 0.379647
O O14 0.500000 0.822183 0.250000
O O15 0.467335 0.847378 0.038826
O O16 0.500000 0.913006 0.750000
O O17 0.000000 0.101894 0.750000
#
# Coordination Sequence:
#
# PCOD8136869 Si02
#       7
#     8   8   8   8   8   8   8
#     4  11  24  43  65  89 120 164 214 258 312 382
#     4  10  20  35  55  83 121 161 201 244 296 362
#     4  11  21  34  57  92 121 152 198 253 304 360
#     4  12  21  35  59  88 120 153 195 256 312 352
#     4  11  23  40  60  88 121 158 204 257 308 368
#     4  10  21  40  61  84 115 158 203 244 302 381
#     4  11  21  39  61  84 120 166 204 248 306 373
#
# _framework density 20.834133999999999
#
# number of rings (size 3 to 8) (size 9 to 14) (size 15 to 20)
#    0.000    1.143    0.000   10.714    0.000    0.571 
#    0.000    0.714    0.000    0.000    0.000    0.000 
#    0.000    0.000    0.000    0.000    0.000    0.000 
#
# Total GULP energy -346981.041523 kJ/mol
# GULP energy per Si atom -12392.180054 kJ/mol
# Density = 2.078671 g / cm^3
# Si number density = 20.834134 Si / 1000 Ang^3
#
#
#
# Elastic Constant Matrix: (Units=GPa)
#
#
# Indices 1 2 3 4 5 6 
#
# 1 111.1601 33.4464 40.2288 0.0000 7.3569 0.0000
# 2 33.4464 88.1823 31.6146 0.0000 -5.6949 0.0000
# 3 40.2288 31.6146 116.3557 0.0000 12.9196 0.0000
# 4 0.0000 0.0000 0.0000 587.7937 0.0000 569.5438
# 5 7.3569 -5.6949 12.9196 0.0000 38.1532 0.0000
# 6 0.0000 0.0000 0.0000 569.5438 0.0000 621.8365
#
#
#
# Elastic Compliance Matrix: (Units=1/GPa)
#
#
# Indices 1 2 3 4 5 6 
#
# 1 0.011107 -0.003340 -0.002743 0.000000 -0.001712 0.000000
# 2 -0.003340 0.013944 -0.003051 0.000000 0.003758 0.000000
# 3 -0.002743 -0.003051 0.010768 0.000000 -0.003573 0.000000
# 4 0.000000 0.000000 0.000000 0.015118 0.000000 -0.013847
# 5 -0.001712 0.003758 -0.003573 0.000000 0.028311 0.000000
# 6 0.000000 0.000000 0.000000 -0.013847 0.000000 0.014291
#
#
# Mechanical properties :
#
#
# Convention : Reuss Voigt Hill
#
# Bulk Modulus (GPa) = 56.97556 58.47530 57.72543
# Shear Modulus (GPa) = 42.49667 263.58389 153.04028
#
# Velocity S-wave (km/s) = 4.52127 11.26011 8.57998
# Velocity P-wave (km/s) = 7.39341 14.04213 11.22149
#
# Compressibility (1/GPa) = 0.01755139
#
# Stress axis : x y z
#
# Youngs Moduli (GPa) = 90.03516 71.71774 92.86537
#
# Poissons Ratio (x) = 0.23953 0.25469
# Poissons Ratio (y) = 0.30071 0.28334
# Poissons Ratio (z) = 0.24692 0.21882
#
# Static dielectric constant tensor:
#      x y z
#    x 3.776060 0.000000 0.034640 
#    y 0.000000 3.798130 0.000000 
#    z 0.034640 0.000000 4.295090 
# 
# 
# High freq. dielectric constant tensor:
#      x y z
#    x 1.823900 0.000000 -0.001960 
#    y 0.000000 1.795160 0.000000 
#    z -0.001960 0.000000 1.823740 
# 
# From -- ./inp_files/57792.got.cif
#   From: 2010.06.25/outbox.cif.g09.slc.cpg/sg15_29_cif.got.tgz:57792.got - 2010.06.28 07:06:18.
