data_PCOD8136845
_publ_section_title
;
Structure prediction by ZEFSAII (Michael W. Deem and Ramdas Pophale) SiO2 
 PCOD8136845
Probable space group: C 2/C
;
_chemical_formula_sum "Si O2"
_cell_formula_units_Z 56
_cell_length_a 29.212153
_cell_length_b 18.384882
_cell_length_c 16.933980
_cell_angle_alpha 90.000000
_cell_angle_beta 159.392427
_cell_angle_gamma 90.000000
_cell_volume 3200.983153
_symmetry_space_group_name_H-M "C 2/C"
_symmetry_group_IT_number 15
_symmetry_cell_setting 'monoclinic'
loop_
_space_group_symop_operation_xyz
x,y,z
-x,y,1/2-z
-x,-y,-z
x,-y,1/2+z
1/2+x,1/2+y,z
1/2-x,1/2+y,1/2-z
1/2-x,1/2-y,-z
1/2+x,1/2-y,1/2+z
loop_
_atom_site_type_symbol
_atom_site_label
_atom_site_fract_x
_atom_site_fract_y
_atom_site_fract_z
Si Si1 0.365543 0.026997 0.319431
Si Si2 0.885346 0.955180 0.615696
Si Si3 0.788520 0.682800 0.160873
Si Si4 0.061762 0.193881 0.679052
Si Si5 0.237348 0.585305 0.738192
Si Si6 0.537495 0.428598 0.012858
Si Si7 0.383406 0.767341 0.502564
O O1 0.363525 0.114371 0.320564
O O2 0.500000 0.000000 0.500000
O O3 0.347889 0.986795 0.376149
O O4 0.236986 0.007016 0.059280
O O5 0.833260 0.895733 0.467346
O O6 0.000000 0.997316 0.750000
O O7 0.936123 0.918131 0.777410
O O8 0.890419 0.727862 0.273883
O O9 0.668131 0.658788 0.910245
O O10 0.741620 0.734487 0.156023
O O11 0.027932 0.140285 0.553791
O O12 0.927234 0.209481 0.507197
O O13 0.146661 0.654363 0.581902
O O14 0.316718 0.566239 0.786718
O O15 0.500000 0.500000 0.000000
O O16 0.500000 0.781517 0.750000
#
# Coordination Sequence:
#
# PCOD8136845 Si02
#       7
#     8   8   8   8   8   8   8
#     4  10  20  35  61  81 113 153 191 231 285 351
#     4   8  19  36  57  79 110 149 198 225 284 334
#     4  10  20  35  54  86 118 145 185 236 298 346
#     4  10  21  33  58  86 114 145 189 241 291 342
#     4   9  20  38  55  82 113 153 187 233 287 346
#     4  11  20  35  56  85 113 147 195 243 277 337
#     4  10  20  36  57  85 114 146 186 241 300 343
#
# _framework density 17.494624999999999
#
# number of rings (size 3 to 8) (size 9 to 14) (size 15 to 20)
#    0.857    1.429    1.429    1.714    2.000    1.714 
#    2.571    0.714    0.000    0.000    0.000    0.000 
#    0.000    0.000    0.000    0.000    0.000    0.000 
#
# Total GULP energy -346892.226567 kJ/mol
# GULP energy per Si atom -12389.008092 kJ/mol
# Density = 1.745481 g / cm^3
# Si number density = 17.494625 Si / 1000 Ang^3
#
#
#
# Elastic Constant Matrix: (Units=GPa)
#
#
# Indices 1 2 3 4 5 6 
#
# 1 100.0932 38.8620 33.0719 0.0000 1.0911 0.0000
# 2 38.8620 101.8578 32.3377 0.0000 -4.6806 0.0000
# 3 33.0719 32.3377 62.7674 0.0000 13.4492 0.0000
# 4 0.0000 0.0000 0.0000 22.9578 0.0000 -6.5506
# 5 1.0911 -4.6806 13.4492 0.0000 25.1990 0.0000
# 6 0.0000 0.0000 0.0000 -6.5506 0.0000 32.7193
#
#
#
# Elastic Compliance Matrix: (Units=1/GPa)
#
#
# Indices 1 2 3 4 5 6 
#
# 1 0.013048 -0.003083 -0.005694 0.000000 0.001901 0.000000
# 2 -0.003083 0.013362 -0.006571 0.000000 0.006122 0.000000
# 3 -0.005694 -0.006571 0.025435 0.000000 -0.014549 0.000000
# 4 0.000000 0.000000 0.000000 0.046197 0.000000 0.009249
# 5 0.001901 0.006122 -0.014549 0.000000 0.048504 0.000000
# 6 0.000000 0.000000 0.000000 0.009249 0.000000 0.032415
#
#
# Mechanical properties :
#
#
# Convention : Reuss Voigt Hill
#
# Bulk Modulus (GPa) = 47.28605 52.58462 49.93534
# Shear Modulus (GPa) = 23.07261 26.87168 24.97215
#
# Velocity S-wave (km/s) = 3.63552 3.92343 3.78222
# Velocity P-wave (km/s) = 6.68658 7.11669 6.90498
#
# Compressibility (1/GPa) = 0.02114789
#
# Stress axis : x y z
#
# Youngs Moduli (GPa) = 76.63745 74.84181 39.31606
#
# Poissons Ratio (x) = 0.23076 0.22387
# Poissons Ratio (y) = 0.23629 0.25835
# Poissons Ratio (z) = 0.43638 0.49180
#
# Static dielectric constant tensor:
#      x y z
#    x 3.476470 0.000000 0.115310 
#    y 0.000000 3.018310 0.000000 
#    z 0.115310 0.000000 3.199790 
# 
# 
# High freq. dielectric constant tensor:
#      x y z
#    x 1.686300 0.000000 0.017080 
#    y 0.000000 1.660050 0.000000 
#    z 0.017080 0.000000 1.659690 
# 
# From -- ./inp_files/225734.got.cif
#   From: 2010.06.25/outbox.cif.g09.slc.cpg/sg15_113_cif.got.tgz:225734.got - 2010.06.28 07:06:18.
