data_PCOD8136433
_publ_section_title
;
Structure prediction by ZEFSAII (Michael W. Deem and Ramdas Pophale) SiO2 
 PCOD8136433
Probable space group: C 2/C
;
_chemical_formula_sum "Si O2"
_cell_formula_units_Z 60
_cell_length_a 24.047714
_cell_length_b 12.178257
_cell_length_c 10.981510
_cell_angle_alpha 90.000000
_cell_angle_beta 114.477750
_cell_angle_gamma 90.000000
_cell_volume 2926.986522
_symmetry_space_group_name_H-M "C 2/C"
_symmetry_group_IT_number 15
_symmetry_cell_setting 'monoclinic'
loop_
_space_group_symop_operation_xyz
x,y,z
-x,y,1/2-z
-x,-y,-z
x,-y,1/2+z
1/2+x,1/2+y,z
1/2-x,1/2+y,1/2-z
1/2-x,1/2-y,-z
1/2+x,1/2-y,1/2+z
loop_
_atom_site_type_symbol
_atom_site_label
_atom_site_fract_x
_atom_site_fract_y
_atom_site_fract_z
Si Si1 0.396354 0.317297 0.487975
Si Si2 0.239099 0.473847 0.892517
Si Si3 0.801734 0.868876 0.604414
Si Si4 0.000000 0.869614 0.750000
Si Si5 0.089549 0.959824 0.640867
Si Si6 0.644434 0.684691 0.012762
Si Si7 0.726800 0.183193 0.737151
Si Si8 0.842868 0.719994 0.223600
O O1 0.333597 0.336949 0.504504
O O2 0.450791 0.293245 0.634001
O O3 0.412035 0.420526 0.417494
O O4 0.386974 0.216946 0.383179
O O5 0.299218 0.400964 0.927059
O O6 0.229192 0.555415 0.770351
O O7 0.177958 0.399982 0.840813
O O8 0.246687 0.546729 0.021971
O O9 0.848388 0.935807 0.730286
O O10 0.774228 0.761009 0.643157
O O11 0.967557 0.946781 0.820249
O O12 0.086414 0.871497 0.526676
O O13 0.665244 0.794069 0.103860
O O14 0.624601 0.716072 0.858314
O O15 0.783810 0.208431 0.702870
#
# Coordination Sequence:
#
# PCOD8136433 Si02
#       8
#     8   8   8   4   8   8   8   8
#     4  11  21  39  54  84 113 147 191 237 289 341
#     4  11  19  33  52  81 116 162 190 225 259 340
#     4  10  20  34  56  81 118 159 186 226 279 326
#     4  10  24  38  62  86 102 150 194 240 298 350
#     4  10  20  38  60  79 117 146 185 235 292 348
#     4  10  21  35  50  80 119 157 175 226 291 335
#     4  10  20  34  51  81 118 156 200 221 260 335
#     4  11  23  33  52  79 118 158 189 223 290 329
#
# _framework density 20.498899000000002
#
# number of rings (size 3 to 8) (size 9 to 14) (size 15 to 20)
#    0.000    1.600    2.667    3.200    1.867    5.333 
#    0.000    0.000    0.000    0.000    0.000    8.400 
#    0.000    0.000    0.000    0.000    0.000    0.000 
#
# Total GULP energy -371835.694451 kJ/mol
# GULP energy per Si atom -12394.523148 kJ/mol
# Density = 2.045224 g / cm^3
# Si number density = 20.498899 Si / 1000 Ang^3
#
#
#
# Elastic Constant Matrix: (Units=GPa)
#
#
# Indices 1 2 3 4 5 6 
#
# 1 73.8089 23.0079 37.1156 0.0000 -17.3592 0.0000
# 2 23.0079 77.4031 44.0676 0.0000 1.6312 0.0000
# 3 37.1156 44.0676 129.5350 0.0000 -12.7403 0.0000
# 4 0.0000 0.0000 0.0000 22.4587 0.0000 -2.6242
# 5 -17.3592 1.6312 -12.7403 0.0000 36.9880 0.0000
# 6 0.0000 0.0000 0.0000 -2.6242 0.0000 13.1483
#
#
#
# Elastic Compliance Matrix: (Units=1/GPa)
#
#
# Indices 1 2 3 4 5 6 
#
# 1 0.018083 -0.003730 -0.003169 0.000000 0.007560 0.000000
# 2 -0.003730 0.017052 -0.005153 0.000000 -0.004278 0.000000
# 3 -0.003169 -0.005153 0.010617 0.000000 0.002397 0.000000
# 4 0.000000 0.000000 0.000000 0.045589 0.000000 0.009099
# 5 0.007560 -0.004278 0.002397 0.000000 0.031598 0.000000
# 6 0.000000 0.000000 0.000000 0.009099 0.000000 0.077871
#
#
# Mechanical properties :
#
#
# Convention : Reuss Voigt Hill
#
# Bulk Modulus (GPa) = 46.19479 54.34769 50.27124
# Shear Modulus (GPa) = 21.53966 26.28938 23.91452
#
# Velocity S-wave (km/s) = 3.24508 3.58505 3.41929
# Velocity P-wave (km/s) = 6.05185 6.61112 6.33766
#
# Compressibility (1/GPa) = 0.02164746
#
# Stress axis : x y z
#
# Youngs Moduli (GPa) = 55.30150 58.64380 94.19205
#
# Poissons Ratio (x) = 0.21876 0.29846
# Poissons Ratio (y) = 0.20630 0.48537
# Poissons Ratio (z) = 0.17523 0.30219
#
# Static dielectric constant tensor:
#      x y z
#    x 3.581750 0.000000 -0.142040 
#    y 0.000000 3.664200 0.000000 
#    z -0.142040 0.000000 4.228580 
# 
# 
# High freq. dielectric constant tensor:
#      x y z
#    x 1.757710 0.000000 -0.024690 
#    y 0.000000 1.772390 0.000000 
#    z -0.024690 0.000000 1.830320 
# 
# From -- ./inp_files/122472.got.cif
#   From: 2010.06.25/outbox.cif.g09.slc.cpg/sg15_62_cif.got.tgz:122472.got - 2010.06.28 07:06:18.
