data_PCOD8136685
_publ_section_title
;
Structure prediction by ZEFSAII (Michael W. Deem and Ramdas Pophale) SiO2 
 PCOD8136685
Probable space group: C 2/C
;
_chemical_formula_sum "Si O2"
_cell_formula_units_Z 64
_cell_length_a 8.555913
_cell_length_b 22.760184
_cell_length_c 19.897067
_cell_angle_alpha 90.000000
_cell_angle_beta 124.336687
_cell_angle_gamma 90.000000
_cell_volume 3199.433522
_symmetry_space_group_name_H-M "C 2/C"
_symmetry_group_IT_number 15
_symmetry_cell_setting 'monoclinic'
loop_
_space_group_symop_operation_xyz
x,y,z
-x,y,1/2-z
-x,-y,-z
x,-y,1/2+z
1/2+x,1/2+y,z
1/2-x,1/2+y,1/2-z
1/2-x,1/2-y,-z
1/2+x,1/2-y,1/2+z
loop_
_atom_site_type_symbol
_atom_site_label
_atom_site_fract_x
_atom_site_fract_y
_atom_site_fract_z
Si Si1 0.589381 0.208207 0.100516
Si Si2 0.252383 0.172034 0.111773
Si Si3 0.033920 0.269922 0.442127
Si Si4 0.016704 0.094114 0.536570
Si Si5 0.808783 0.436990 0.720845
Si Si6 0.075036 0.980055 0.921715
Si Si7 0.658798 0.823160 0.343342
Si Si8 0.797342 0.908270 0.666493
O O1 0.443001 0.200243 0.126714
O O2 0.719918 0.265008 0.145008
O O3 0.733407 0.154599 0.124790
O O4 0.471861 0.209519 0.001798
O O5 0.302500 0.126215 0.182294
O O6 0.117373 0.219885 0.115049
O O7 0.132855 0.142969 0.022412
O O8 0.250000 0.250000 0.500000
O O9 0.039883 0.318195 0.384497
O O10 0.104087 0.059362 0.494506
O O11 0.192488 0.123261 0.617827
O O12 0.897870 0.048911 0.555121
O O13 0.637395 0.477039 0.657559
O O14 0.838617 0.429805 0.807756
O O15 0.000000 0.471541 0.750000
O O16 0.211529 0.955548 0.896415
O O17 0.500000 0.836693 0.250000
O O18 0.000000 0.901521 0.750000
#
# Coordination Sequence:
#
# PCOD8136685 Si02
#       8
#     8   8   8   8   8   8   8   8
#     4  11  21  35  61  89 125 155 198 256 307 378
#     4  11  21  36  61  88 123 161 196 255 309 359
#     4  10  21  35  56  85 120 157 203 238 295 376
#     4  10  20  41  60  85 116 160 214 248 311 359
#     4  10  20  35  58  91 117 150 196 259 312 356
#     4   9  21  37  66  80 115 162 209 260 298 369
#     4  11  24  37  61  90 124 167 203 250 313 382
#     4  10  20  34  59  90 120 153 201 251 311 363
#
# _framework density 20.003540999999998
#
# number of rings (size 3 to 8) (size 9 to 14) (size 15 to 20)
#    0.000    1.750    3.750    1.500   10.500    0.500 
#    0.000    0.625   11.000    0.000    0.000    0.000 
#    0.000    0.000    0.000    0.000    0.000    0.000 
#
# Total GULP energy -396578.259230 kJ/mol
# GULP energy per Si atom -12393.070601 kJ/mol
# Density = 1.995801 g / cm^3
# Si number density = 20.003541 Si / 1000 Ang^3
#
#
#
# Elastic Constant Matrix: (Units=GPa)
#
#
# Indices 1 2 3 4 5 6 
#
# 1 90.7442 28.4465 16.9108 0.0000 -13.0955 0.0000
# 2 28.4465 81.3181 28.5822 0.0000 -1.8614 0.0000
# 3 16.9108 28.5822 92.9208 0.0000 -8.0966 0.0000
# 4 0.0000 0.0000 0.0000 16.8973 0.0000 -1.7656
# 5 -13.0955 -1.8614 -8.0966 0.0000 27.5676 0.0000
# 6 0.0000 0.0000 0.0000 -1.7656 0.0000 27.7326
#
#
#
# Elastic Compliance Matrix: (Units=1/GPa)
#
#
# Indices 1 2 3 4 5 6 
#
# 1 0.013331 -0.004324 -0.000585 0.000000 0.005869 0.000000
# 2 -0.004324 0.015193 -0.004081 0.000000 -0.002226 0.000000
# 3 -0.000585 -0.004081 0.012392 0.000000 0.003086 0.000000
# 4 0.000000 0.000000 0.000000 0.059577 0.000000 0.003793
# 5 0.005869 -0.002226 0.003086 0.000000 0.039819 0.000000
# 6 0.000000 0.000000 0.000000 0.003793 0.000000 0.036300
#
#
# Mechanical properties :
#
#
# Convention : Reuss Voigt Hill
#
# Bulk Modulus (GPa) = 43.59410 45.87355 44.73383
# Shear Modulus (GPa) = 24.72343 27.17573 25.94958
#
# Velocity S-wave (km/s) = 3.51943 3.68984 3.60564
# Velocity P-wave (km/s) = 6.19319 6.41372 6.30442
#
# Compressibility (1/GPa) = 0.02293888
#
# Stress axis : x y z
#
# Youngs Moduli (GPa) = 75.01122 65.81913 80.69483
#
# Poissons Ratio (x) = 0.28458 0.04719
# Poissons Ratio (y) = 0.32432 0.32928
# Poissons Ratio (z) = 0.04387 0.26858
#
# Static dielectric constant tensor:
#      x y z
#    x 3.979870 0.000000 -0.347230 
#    y 0.000000 3.525140 0.000000 
#    z -0.347230 0.000000 3.934430 
# 
# 
# High freq. dielectric constant tensor:
#      x y z
#    x 1.778430 0.000000 -0.005560 
#    y 0.000000 1.758470 0.000000 
#    z -0.005560 0.000000 1.784040 
# 
# From -- ./inp_files/234285.got.cif
#   From: 2010.06.25/outbox.cif.g09.slc.cpg/sg15_118_cif.got.tgz:234285.got - 2010.06.28 07:06:18.
