data_PCOD8136002
_publ_section_title
;
Structure prediction by ZEFSAII (Michael W. Deem and Ramdas Pophale) SiO2 
 PCOD8136002
Probable space group: C 2/C
;
_chemical_formula_sum "Si O2"
_cell_formula_units_Z 64
_cell_length_a 11.727266
_cell_length_b 11.042999
_cell_length_c 24.380793
_cell_angle_alpha 90.000000
_cell_angle_beta 83.955844
_cell_angle_gamma 90.000000
_cell_volume 3139.862837
_symmetry_space_group_name_H-M "C 2/C"
_symmetry_group_IT_number 15
_symmetry_cell_setting 'monoclinic'
loop_
_space_group_symop_operation_xyz
x,y,z
-x,y,1/2-z
-x,-y,-z
x,-y,1/2+z
1/2+x,1/2+y,z
1/2-x,1/2+y,1/2-z
1/2-x,1/2-y,-z
1/2+x,1/2-y,1/2+z
loop_
_atom_site_type_symbol
_atom_site_label
_atom_site_fract_x
_atom_site_fract_y
_atom_site_fract_z
Si Si1 0.411083 0.583909 0.840555
Si Si2 0.989493 0.518174 0.616692
Si Si3 0.221739 0.597747 0.058231
Si Si4 0.947229 0.306513 0.695153
Si Si5 0.132796 0.940059 0.851058
Si Si6 0.223771 0.380646 0.434541
Si Si7 0.216485 0.107875 0.760306
Si Si8 0.437460 0.795075 0.200340
O O1 0.461734 0.719372 0.840500
O O2 0.505253 0.487427 0.852714
O O3 0.308538 0.557515 0.887392
O O4 0.373298 0.559342 0.780218
O O5 0.921970 0.415536 0.654692
O O6 0.905694 0.584431 0.577057
O O7 0.024012 0.624577 0.658492
O O8 0.098738 0.456715 0.582445
O O9 0.321344 0.537922 0.089841
O O10 0.239129 0.740601 0.066181
O O11 0.241263 0.563012 0.994049
O O12 0.828368 0.235330 0.712404
O O13 0.000000 0.354157 0.750000
O O14 0.129546 0.799606 0.834415
O O15 0.222421 0.006913 0.806914
O O16 0.340841 0.115315 0.728087
O O17 0.500000 0.735673 0.250000
#
# Coordination Sequence:
#
# PCOD8136002 Si02
#       8
#     8   8   8   8   8   8   8   8
#     4  10  19  42  64  90 122 169 216 249 329 394
#     4  12  22  39  65  95 124 163 221 270 316 393
#     4  11  24  43  65  89 130 166 217 276 322 380
#     4   9  20  34  61  92 124 165 205 257 316 391
#     4  11  23  40  62  91 133 167 205 268 318 391
#     4  11  23  43  67  91 119 173 221 267 322 385
#     4  10  21  38  62  90 131 171 207 250 323 397
#     4  12  24  35  58  97 132 164 207 262 324 384
#
# _framework density 20.383054999999999
#
# number of rings (size 3 to 8) (size 9 to 14) (size 15 to 20)
#    0.000    1.250    3.750    3.375    3.500    1.500 
#    0.000    0.000    0.000    3.750    0.000    0.000 
#    0.000    0.000    0.000    0.000    0.000    0.000 
#
# Total GULP energy -396640.042569 kJ/mol
# GULP energy per Si atom -12395.001330 kJ/mol
# Density = 2.033666 g / cm^3
# Si number density = 20.383055 Si / 1000 Ang^3
#
#
#
# Elastic Constant Matrix: (Units=GPa)
#
#
# Indices 1 2 3 4 5 6 
#
# 1 65.4339 -2.2545 14.4375 0.0000 7.1662 0.0000
# 2 -2.2545 53.2873 17.1886 0.0000 2.9085 0.0000
# 3 14.4375 17.1886 101.4671 0.0000 16.5384 0.0000
# 4 0.0000 0.0000 0.0000 25.9200 0.0000 4.8830
# 5 7.1662 2.9085 16.5384 0.0000 34.6158 0.0000
# 6 0.0000 0.0000 0.0000 4.8830 0.0000 22.3178
#
#
#
# Elastic Compliance Matrix: (Units=1/GPa)
#
#
# Indices 1 2 3 4 5 6 
#
# 1 0.016074 0.001505 -0.002146 0.000000 -0.002429 0.000000
# 2 0.001505 0.019992 -0.003553 0.000000 -0.000294 0.000000
# 3 -0.002146 -0.003553 0.011540 0.000000 -0.004771 0.000000
# 4 0.000000 0.000000 0.000000 0.040239 0.000000 -0.008804
# 5 -0.002429 -0.000294 -0.004771 0.000000 0.031695 0.000000
# 6 0.000000 0.000000 0.000000 -0.008804 0.000000 0.046734
#
#
# Mechanical properties :
#
#
# Convention : Reuss Voigt Hill
#
# Bulk Modulus (GPa) = 25.49861 30.99238 28.24550
# Shear Modulus (GPa) = 26.63330 29.29183 27.96256
#
# Velocity S-wave (km/s) = 3.61867 3.79498 3.70787
# Velocity P-wave (km/s) = 5.47691 5.86860 5.67614
#
# Compressibility (1/GPa) = 0.03921783
#
# Stress axis : x y z
#
# Youngs Moduli (GPa) = 62.21237 50.02019 86.65329
#
# Poissons Ratio (x) = -0.07528 0.18597
# Poissons Ratio (y) = -0.09362 0.30787
# Poissons Ratio (z) = 0.13352 0.17772
#
# Static dielectric constant tensor:
#      x y z
#    x 3.596680 0.000000 0.067950 
#    y 0.000000 3.591840 0.000000 
#    z 0.067950 0.000000 3.915180 
# 
# 
# High freq. dielectric constant tensor:
#      x y z
#    x 1.791720 0.000000 0.003600 
#    y 0.000000 1.787600 0.000000 
#    z 0.003600 0.000000 1.799330 
# 
# From -- ./inp_files/268843.got.cif
#   From: 2010.06.25/outbox.cif.g09.slc.cpg/sg15_135_cif.got.tgz:268843.got - 2010.06.28 07:06:18.
