data_PCOD8136489
_publ_section_title
;
Structure prediction by ZEFSAII (Michael W. Deem and Ramdas Pophale) SiO2 
 PCOD8136489
Probable space group: C 2/C
;
_chemical_formula_sum "Si O2"
_cell_formula_units_Z 60
_cell_length_a 16.580134
_cell_length_b 8.688046
_cell_length_c 21.369546
_cell_angle_alpha 90.000000
_cell_angle_beta 85.092998
_cell_angle_gamma 90.000000
_cell_volume 3066.978736
_symmetry_space_group_name_H-M "C 2/C"
_symmetry_group_IT_number 15
_symmetry_cell_setting 'monoclinic'
loop_
_space_group_symop_operation_xyz
x,y,z
-x,y,1/2-z
-x,-y,-z
x,-y,1/2+z
1/2+x,1/2+y,z
1/2-x,1/2+y,1/2-z
1/2-x,1/2-y,-z
1/2+x,1/2-y,1/2+z
loop_
_atom_site_type_symbol
_atom_site_label
_atom_site_fract_x
_atom_site_fract_y
_atom_site_fract_z
Si Si1 0.479146 0.930270 0.566894
Si Si2 0.318730 0.668705 0.901724
Si Si3 0.500000 0.333743 0.250000
Si Si4 0.860940 0.658718 0.600570
Si Si5 0.327328 0.849438 0.246099
Si Si6 0.086575 0.582303 0.167697
Si Si7 0.949295 0.848575 0.493401
Si Si8 0.838473 0.998392 0.776796
O O1 0.537447 0.005237 0.616535
O O2 0.492677 0.749045 0.557143
O O3 0.500000 0.000000 0.500000
O O4 0.387957 0.979955 0.590043
O O5 0.225062 0.675257 0.926839
O O6 0.336487 0.836133 0.869837
O O7 0.366438 0.624850 0.961221
O O8 0.337467 0.537454 0.849958
O O9 0.525867 0.219599 0.192651
O O10 0.577824 0.442106 0.261199
O O11 0.858748 0.688200 0.674608
O O12 0.926021 0.770353 0.561621
O O13 0.328494 0.684750 0.278913
O O14 0.386950 0.967765 0.278422
O O15 0.236961 0.919334 0.252986
O O16 0.000000 0.000000 0.500000
#
# Coordination Sequence:
#
# PCOD8136489 Si02
#       8
#     8   8   4   8   8   8   8   8
#     4   9  20  36  55  78 107 142 183 229 280 337
#     4   9  20  39  58  80 114 155 192 234 286 348
#     4  10  20  34  54  82 112 148 190 234 284 340
#     4  10  20  36  58  81 110 150 190 231 289 353
#     4  11  22  38  59  87 118 155 194 239 296 354
#     4  10  20  37  58  80 114 153 188 234 290 342
#     4  10  21  38  59  82 112 147 191 242 288 336
#     4  10  22  37  56  84 118 151 192 239 289 349
#
# _framework density 19.563226
#
# number of rings (size 3 to 8) (size 9 to 14) (size 15 to 20)
#    0.000    2.133    0.000    3.600    0.000    8.000 
#    0.000    3.333    0.000    0.000    0.000    0.000 
#    0.000    0.000    0.000    0.000    0.000    0.000 
#
# Total GULP energy -371713.000335 kJ/mol
# GULP energy per Si atom -12390.433344 kJ/mol
# Density = 1.951870 g / cm^3
# Si number density = 19.563226 Si / 1000 Ang^3
#
#
#
# Elastic Constant Matrix: (Units=GPa)
#
#
# Indices 1 2 3 4 5 6 
#
# 1 114.3919 64.2227 45.8926 0.0000 -7.3313 0.0000
# 2 64.2227 110.9881 32.1223 0.0000 6.0618 0.0000
# 3 45.8926 32.1223 83.3816 0.0000 16.5024 0.0000
# 4 0.0000 0.0000 0.0000 28.5110 0.0000 0.9449
# 5 -7.3313 6.0618 16.5024 0.0000 34.2439 0.0000
# 6 0.0000 0.0000 0.0000 0.9449 0.0000 33.4742
#
#
#
# Elastic Compliance Matrix: (Units=1/GPa)
#
#
# Indices 1 2 3 4 5 6 
#
# 1 0.017060 -0.008025 -0.008072 0.000000 0.008963 0.000000
# 2 -0.008025 0.013916 -0.000129 0.000000 -0.004119 0.000000
# 3 -0.008072 -0.000129 0.018597 0.000000 -0.010667 0.000000
# 4 0.000000 0.000000 0.000000 0.035107 0.000000 -0.000991
# 5 0.008963 -0.004119 -0.010667 0.000000 0.036991 0.000000
# 6 0.000000 0.000000 0.000000 -0.000991 0.000000 0.029902
#
#
# Mechanical properties :
#
#
# Convention : Reuss Voigt Hill
#
# Bulk Modulus (GPa) = 58.40831 65.91521 62.16176
# Shear Modulus (GPa) = 26.35300 30.34742 28.35021
#
# Velocity S-wave (km/s) = 3.67422 3.94286 3.81091
# Velocity P-wave (km/s) = 6.92249 7.38206 7.15597
#
# Compressibility (1/GPa) = 0.01712085
#
# Stress axis : x y z
#
# Youngs Moduli (GPa) = 58.61571 71.85999 53.77307
#
# Poissons Ratio (x) = 0.57669 0.43406
# Poissons Ratio (y) = 0.47040 0.00692
# Poissons Ratio (z) = 0.47315 0.00925
#
# Static dielectric constant tensor:
#      x y z
#    x 3.683340 0.000000 0.029080 
#    y 0.000000 3.821520 0.000000 
#    z 0.029080 0.000000 3.590530 
# 
# 
# High freq. dielectric constant tensor:
#      x y z
#    x 1.765610 0.000000 0.001070 
#    y 0.000000 1.749380 0.000000 
#    z 0.001070 0.000000 1.768040 
# 
# From -- ./inp_files/247440.got.cif
#   From: 2010.06.25/outbox.cif.g09.slc.cpg/sg15_124_cif.got.tgz:247440.got - 2010.06.28 07:06:18.
