data_PCOD8136149
_publ_section_title
;
Structure prediction by ZEFSAII (Michael W. Deem and Ramdas Pophale) SiO2 
 PCOD8136149
Probable space group: C 2/C
;
_chemical_formula_sum "Si O2"
_cell_formula_units_Z 48
_cell_length_a 13.646475
_cell_length_b 23.879757
_cell_length_c 16.095462
_cell_angle_alpha 90.000000
_cell_angle_beta 147.977654
_cell_angle_gamma 90.000000
_cell_volume 2781.214523
_symmetry_space_group_name_H-M "C 2/C"
_symmetry_group_IT_number 15
_symmetry_cell_setting 'monoclinic'
loop_
_space_group_symop_operation_xyz
x,y,z
-x,y,1/2-z
-x,-y,-z
x,-y,1/2+z
1/2+x,1/2+y,z
1/2-x,1/2+y,1/2-z
1/2-x,1/2-y,-z
1/2+x,1/2-y,1/2+z
loop_
_atom_site_type_symbol
_atom_site_label
_atom_site_fract_x
_atom_site_fract_y
_atom_site_fract_z
Si Si1 0.830267 0.520846 0.684430
Si Si2 0.783026 0.418799 0.315750
Si Si3 0.172342 0.191359 0.815885
Si Si4 0.459439 0.808633 0.815896
Si Si5 0.961402 0.979147 0.815566
Si Si6 0.848462 0.418791 0.815737
O O1 0.791296 0.569266 0.723661
O O2 0.650359 0.510961 0.499997
O O3 0.883761 0.463127 0.767920
O O4 0.000000 0.540718 0.750000
O O5 0.698348 0.357167 0.266617
O O6 0.652108 0.463139 0.267946
O O7 0.986681 0.423828 0.500007
O O8 0.147103 0.249995 0.749983
O O9 0.000000 0.176772 0.750000
O O10 0.346348 0.196062 0.999994
O O11 0.500000 0.823215 0.750000
O O12 0.334886 0.857157 0.766618
O O13 0.843987 0.930725 0.776353
O O14 0.000000 0.959273 0.750000
#
# Coordination Sequence:
#
# PCOD8136149 Si02
#       6
#     8   8   8   8   8   8
#     4  11  21  33  51  74 100 132 164 201 245 291
#     4  10  20  34  51  74 101 130 164 203 244 291
#     4  10  20  32  50  73 100 131 163 200 242 287
#     4  10  20  32  50  73 100 131 163 200 242 287
#     4  11  21  33  51  74 100 132 164 201 245 291
#     4  10  20  34  51  74 101 130 164 203 244 291
#
# _framework density 17.258647
#
# number of rings (size 3 to 8) (size 9 to 14) (size 15 to 20)
#    0.000    1.667    0.000    9.000    0.000    8.000 
#    0.000    0.000    0.000    1.000    0.000    7.000 
#    0.000    0.000    0.000    0.000    0.000    0.000 
#
# Total GULP energy -297675.852189 kJ/mol
# GULP energy per Si atom -12403.160508 kJ/mol
# Density = 1.721937 g / cm^3
# Si number density = 17.258647 Si / 1000 Ang^3
#
#
#
# Elastic Constant Matrix: (Units=GPa)
#
#
# Indices 1 2 3 4 5 6 
#
# 1 105.1685 59.2659 22.7506 -0.0002 -3.9949 -0.0001
# 2 59.2659 129.3749 32.4735 0.0000 -3.2279 0.0000
# 3 22.7506 32.4735 55.9844 -0.0003 -1.9460 0.0000
# 4 -0.0002 0.0000 -0.0003 21.5330 -0.0002 0.6603
# 5 -3.9949 -3.2279 -1.9460 -0.0002 24.9103 -0.0001
# 6 -0.0001 0.0000 0.0000 0.6603 -0.0001 16.0496
#
#
#
# Elastic Compliance Matrix: (Units=1/GPa)
#
#
# Indices 1 2 3 4 5 6 
#
# 1 0.013071 -0.005424 -0.002123 0.000000 0.001228 0.000000
# 2 -0.005424 0.011312 -0.004348 0.000000 0.000256 0.000000
# 3 -0.002123 -0.004348 0.021273 0.000000 0.000758 0.000000
# 4 0.000000 0.000000 0.000000 0.046499 0.000000 -0.001913
# 5 0.001228 0.000256 0.000758 0.000000 0.040433 0.000000
# 6 0.000000 0.000000 0.000000 -0.001913 0.000000 0.062386
#
#
# Mechanical properties :
#
#
# Convention : Reuss Voigt Hill
#
# Bulk Modulus (GPa) = 45.73356 57.72309 51.72833
# Shear Modulus (GPa) = 22.11857 24.23442 23.17649
#
# Velocity S-wave (km/s) = 3.58382 3.75132 3.66852
# Velocity P-wave (km/s) = 6.60920 7.23061 6.92687
#
# Compressibility (1/GPa) = 0.02186578
#
# Stress axis : x y z
#
# Youngs Moduli (GPa) = 76.50394 88.40004 47.00717
#
# Poissons Ratio (x) = 0.47952 0.09978
# Poissons Ratio (y) = 0.41499 0.20440
# Poissons Ratio (z) = 0.16240 0.38439
#
# Static dielectric constant tensor:
#      x y z
#    x 3.359220 0.000000 0.000920 
#    y 0.000000 3.361810 0.000000 
#    z 0.000920 0.000000 3.366910 
# 
# 
# High freq. dielectric constant tensor:
#      x y z
#    x 1.656860 0.000000 0.003800 
#    y 0.000000 1.657440 0.000000 
#    z 0.003800 0.000000 1.688330 
# 
# From -- ./inp_files/58531.got.cif
#   From: 2010.06.25/outbox.cif.g09.slc.cpg/sg15_30_cif.got.tgz:58531.got - 2010.06.28 07:06:18.
