data_PCOD8136745
_publ_section_title
;
Structure prediction by ZEFSAII (Michael W. Deem and Ramdas Pophale) SiO2 
 PCOD8136745
Probable space group: C 2/C
;
_chemical_formula_sum "Si O2"
_cell_formula_units_Z 44
_cell_length_a 8.694214
_cell_length_b 25.518679
_cell_length_c 11.500606
_cell_angle_alpha 90.000000
_cell_angle_beta 132.557614
_cell_angle_gamma 90.000000
_cell_volume 1879.487978
_symmetry_space_group_name_H-M "C 2/C"
_symmetry_group_IT_number 15
_symmetry_cell_setting 'monoclinic'
loop_
_space_group_symop_operation_xyz
x,y,z
-x,y,1/2-z
-x,-y,-z
x,-y,1/2+z
1/2+x,1/2+y,z
1/2-x,1/2+y,1/2-z
1/2-x,1/2-y,-z
1/2+x,1/2-y,1/2+z
loop_
_atom_site_type_symbol
_atom_site_label
_atom_site_fract_x
_atom_site_fract_y
_atom_site_fract_z
Si Si1 0.933169 0.719801 0.028739
Si Si2 0.365658 0.411694 0.783541
Si Si3 0.707857 0.962314 0.913624
Si Si4 0.398504 0.294767 0.817302
Si Si5 0.500000 0.062238 0.750000
Si Si6 0.910885 0.604966 0.947860
O O1 0.147253 0.710745 0.208722
O O2 0.750000 0.750000 0.000000
O O3 0.010493 0.757080 0.965120
O O4 0.839820 0.664455 0.936107
O O5 0.500000 0.438696 0.750000
O O6 0.384515 0.448015 0.908372
O O7 0.460492 0.355391 0.868957
O O8 0.141446 0.404301 0.611468
O O9 0.500000 0.935987 0.750000
O O10 0.675318 0.025266 0.902679
O O11 0.740380 0.935785 0.057834
O O12 0.500000 0.275712 0.750000
O O13 0.396571 0.096010 0.800855
#
# Coordination Sequence:
#
# PCOD8136745 Si02
#       6
#     8   8   8   8   4   8
#     4  11  22  37  61  87 124 159 205 254 307 365
#     4   9  18  35  58  85 115 155 202 241 297 365
#     4   8  17  32  59  79 110 151 196 243 291 356
#     4  10  21  37  58  87 119 163 201 250 301 367
#     4  10  20  34  62  86 114 152 204 252 298 358
#     4  10  20  36  59  86 116 155 202 246 304 364
#
# _framework density 23.410632
#
# number of rings (size 3 to 8) (size 9 to 14) (size 15 to 20)
#    0.545    1.818    0.000    2.727    1.273    2.909 
#    0.000    0.909    0.000    0.000    0.000    0.000 
#    0.000    0.000    0.000    0.000    0.000    0.000 
#
# Total GULP energy -272550.132280 kJ/mol
# GULP energy per Si atom -12388.642376 kJ/mol
# Density = 2.335735 g / cm^3
# Si number density = 23.410632 Si / 1000 Ang^3
#
#
#
# Elastic Constant Matrix: (Units=GPa)
#
#
# Indices 1 2 3 4 5 6 
#
# 1 145.2412 38.6470 11.9993 0.0000 -30.7688 0.0000
# 2 38.6470 111.5672 15.5407 0.0000 -23.2940 0.0000
# 3 11.9993 15.5407 28.8464 0.0000 -20.0178 0.0000
# 4 0.0000 0.0000 0.0000 23.9241 0.0000 -14.4007
# 5 -30.7688 -23.2940 -20.0178 0.0000 41.0392 0.0000
# 6 0.0000 0.0000 0.0000 -14.4007 0.0000 39.2935
#
#
#
# Elastic Compliance Matrix: (Units=1/GPa)
#
#
# Indices 1 2 3 4 5 6 
#
# 1 0.008562 -0.001919 0.001770 0.000000 0.006193 0.000000
# 2 -0.001919 0.010694 -0.002644 0.000000 0.003341 0.000000
# 3 0.001770 -0.002644 0.053263 0.000000 0.025807 0.000000
# 4 0.000000 0.000000 0.000000 0.053630 0.000000 0.019655
# 5 0.006193 0.003341 0.025807 0.000000 0.043494 0.000000
# 6 0.000000 0.000000 0.000000 0.019655 0.000000 0.032653
#
#
# Mechanical properties :
#
#
# Convention : Reuss Voigt Hill
#
# Bulk Modulus (GPa) = 14.94058 46.44764 30.69411
# Shear Modulus (GPa) = 21.72095 35.48256 28.60175
#
# Velocity S-wave (km/s) = 3.04932 3.89737 3.49913
# Velocity P-wave (km/s) = 4.33517 6.33531 5.42816
#
# Compressibility (1/GPa) = 0.06693181
#
# Stress axis : x y z
#
# Youngs Moduli (GPa) = 116.80188 93.51054 18.77474
#
# Poissons Ratio (x) = 0.17947 -0.03324
# Poissons Ratio (y) = 0.22417 0.04965
# Poissons Ratio (z) = -0.20677 0.24728
#
# Static dielectric constant tensor:
#      x y z
#    x 5.218800 0.000000 -0.841980 
#    y 0.000000 4.246670 0.000000 
#    z -0.841980 0.000000 4.076740 
# 
# 
# High freq. dielectric constant tensor:
#      x y z
#    x 1.939820 0.000000 -0.021290 
#    y 0.000000 1.923380 0.000000 
#    z -0.021290 0.000000 1.881970 
# 
# From -- ./inp_files/81557.got.cif
#   From: 2010.06.25/outbox.cif.g09.slc.cpg/sg15_41_cif.got.tgz:81557.got - 2010.06.28 07:06:18.
