data_PCOD8136505
_publ_section_title
;
Structure prediction by ZEFSAII (Michael W. Deem and Ramdas Pophale) SiO2 
 PCOD8136505
Probable space group: C 2/C
;
_chemical_formula_sum "Si O2"
_cell_formula_units_Z 44
_cell_length_a 10.054946
_cell_length_b 19.963260
_cell_length_c 10.866406
_cell_angle_alpha 90.000000
_cell_angle_beta 104.474237
_cell_angle_gamma 90.000000
_cell_volume 2111.976981
_symmetry_space_group_name_H-M "C 2/C"
_symmetry_group_IT_number 15
_symmetry_cell_setting 'monoclinic'
loop_
_space_group_symop_operation_xyz
x,y,z
-x,y,1/2-z
-x,-y,-z
x,-y,1/2+z
1/2+x,1/2+y,z
1/2-x,1/2+y,1/2-z
1/2-x,1/2-y,-z
1/2+x,1/2-y,1/2+z
loop_
_atom_site_type_symbol
_atom_site_label
_atom_site_fract_x
_atom_site_fract_y
_atom_site_fract_z
Si Si1 0.817346 0.187964 0.370648
Si Si2 0.155527 0.959085 0.656742
Si Si3 0.000000 0.725099 0.750000
Si Si4 0.458145 0.254592 0.114417
Si Si5 0.663686 0.815449 0.507651
Si Si6 0.166176 0.951708 0.931108
O O1 0.774056 0.113084 0.328594
O O2 0.872664 0.227644 0.263820
O O3 0.684673 0.218617 0.400523
O O4 0.941456 0.191609 0.500870
O O5 0.190585 0.987868 0.802554
O O6 0.996225 0.942578 0.596767
O O7 0.216475 0.004510 0.560271
O O8 0.054936 0.676254 0.870136
O O9 0.500000 0.292660 0.250000
O O10 0.575271 0.198865 0.110833
O O11 0.750000 0.750000 0.500000
O O12 0.756878 0.880813 0.544458
#
# Coordination Sequence:
#
# PCOD8136505 Si02
#       6
#     8   8   4   8   8   8
#     4  10  20  36  57  83 119 149 185 244 293 342
#     4  10  20  39  58  86 115 154 198 245 292 361
#     4  10  20  36  62  92 116 154 204 246 296 360
#     4  10  20  34  54  89 114 145 190 240 293 349
#     4  11  21  37  62  86 116 158 196 249 299 353
#     4  10  21  38  61  85 116 154 200 244 299 351
#
# _framework density 20.833559999999999
#
# number of rings (size 3 to 8) (size 9 to 14) (size 15 to 20)
#    0.000    1.818    0.000    6.545    0.000    0.000 
#   19.636    0.909    2.000    0.000    0.000    0.000 
#    0.000    0.000    0.000    0.000    0.000    0.000 
#
# Total GULP energy -272586.853706 kJ/mol
# GULP energy per Si atom -12390.311532 kJ/mol
# Density = 2.078614 g / cm^3
# Si number density = 20.833560 Si / 1000 Ang^3
#
#
#
# Elastic Constant Matrix: (Units=GPa)
#
#
# Indices 1 2 3 4 5 6 
#
# 1 86.5021 26.1998 16.3317 0.0000 -19.9301 0.0000
# 2 26.1998 78.1157 45.9766 0.0000 -9.7889 0.0000
# 3 16.3317 45.9766 157.2551 0.0000 -20.1200 0.0000
# 4 0.0000 0.0000 0.0000 23.0449 0.0000 2.4103
# 5 -19.9301 -9.7889 -20.1200 0.0000 28.1011 0.0000
# 6 0.0000 0.0000 0.0000 2.4103 0.0000 20.3172
#
#
#
# Elastic Compliance Matrix: (Units=1/GPa)
#
#
# Indices 1 2 3 4 5 6 
#
# 1 0.014951 -0.004362 0.000974 0.000000 0.009782 0.000000
# 2 -0.004362 0.016879 -0.004542 0.000000 -0.000466 0.000000
# 3 0.000974 -0.004542 0.008225 0.000000 0.004998 0.000000
# 4 0.000000 0.000000 0.000000 0.043939 0.000000 -0.005213
# 5 0.009782 -0.000466 0.004998 0.000000 0.045940 0.000000
# 6 0.000000 0.000000 0.000000 -0.005213 0.000000 0.049838
#
#
# Mechanical properties :
#
#
# Convention : Reuss Voigt Hill
#
# Bulk Modulus (GPa) = 41.32791 55.43210 48.38001
# Shear Modulus (GPa) = 24.54629 29.85030 27.19829
#
# Velocity S-wave (km/s) = 3.43623 3.78934 3.61710
# Velocity P-wave (km/s) = 5.96857 6.76833 6.38099
#
# Compressibility (1/GPa) = 0.02419672
#
# Stress axis : x y z
#
# Youngs Moduli (GPa) = 66.88308 59.24430 121.57774
#
# Poissons Ratio (x) = 0.25844 -0.11843
# Poissons Ratio (y) = 0.29176 0.55215
# Poissons Ratio (z) = -0.06515 0.26906
#
# Static dielectric constant tensor:
#      x y z
#    x 3.985620 0.000000 0.060010 
#    y 0.000000 3.438380 0.000000 
#    z 0.060010 0.000000 4.583790 
# 
# 
# High freq. dielectric constant tensor:
#      x y z
#    x 1.809080 0.000000 -0.004880 
#    y 0.000000 1.767020 0.000000 
#    z -0.004880 0.000000 1.853070 
# 
# From -- ./inp_files/78281.got.cif
#   From: 2010.06.25/outbox.cif.g09.slc.cpg/sg15_40_cif.got.tgz:78281.got - 2010.06.28 07:06:18.
