data_PCOD8136004
_publ_section_title
;
Structure prediction by ZEFSAII (Michael W. Deem and Ramdas Pophale) SiO2 
 PCOD8136004
Probable space group: C 2/C
;
_chemical_formula_sum "Si O2"
_cell_formula_units_Z 56
_cell_length_a 24.063909
_cell_length_b 7.970063
_cell_length_c 14.307093
_cell_angle_alpha 90.000000
_cell_angle_beta 86.405467
_cell_angle_gamma 90.000000
_cell_volume 2738.571654
_symmetry_space_group_name_H-M "C 2/C"
_symmetry_group_IT_number 15
_symmetry_cell_setting 'monoclinic'
loop_
_space_group_symop_operation_xyz
x,y,z
-x,y,1/2-z
-x,-y,-z
x,-y,1/2+z
1/2+x,1/2+y,z
1/2-x,1/2+y,1/2-z
1/2-x,1/2-y,-z
1/2+x,1/2-y,1/2+z
loop_
_atom_site_type_symbol
_atom_site_label
_atom_site_fract_x
_atom_site_fract_y
_atom_site_fract_z
Si Si1 0.089346 0.054792 0.962092
Si Si2 0.854466 0.331433 0.414887
Si Si3 0.306302 0.443773 0.146766
Si Si4 0.736074 0.054639 0.990276
Si Si5 0.738950 0.353283 0.686005
Si Si6 0.972833 0.561346 0.855033
Si Si7 0.979747 0.241160 0.977896
O O1 0.127511 0.022051 0.866484
O O2 0.031382 0.132245 0.935255
O O3 0.125328 0.182853 0.019902
O O4 0.075477 0.876157 0.012922
O O5 0.826244 0.489228 0.474312
O O6 0.810729 0.262981 0.345395
O O7 0.908375 0.389680 0.351574
O O8 0.280289 0.449038 0.045665
O O9 0.277216 0.586768 0.210117
O O10 0.294479 0.259722 0.190299
O O11 0.750000 0.250000 0.000000
O O12 0.747466 0.010950 0.881223
O O13 0.971747 0.378360 0.899942
O O14 0.000000 0.562465 0.750000
O O15 0.007181 0.684881 0.920250
#
# Coordination Sequence:
#
# PCOD8136004 Si02
#       7
#     8   8   8   8   8   8   8
#     4  10  19  42  65  84 120 165 197 254 301 355
#     4  10  21  40  65  85 123 160 200 250 302 355
#     4  11  22  39  61  87 125 159 197 250 299 358
#     4  11  22  40  61  90 122 161 196 250 302 366
#     4  11  22  41  57  93 122 157 205 247 294 370
#     4  10  22  42  60  92 123 153 197 259 300 370
#     4   9  22  41  62  89 119 156 206 244 309 363
#
# _framework density 20.448616000000001
#
# number of rings (size 3 to 8) (size 9 to 14) (size 15 to 20)
#    0.000    1.714    2.857    1.714    4.000    0.000 
#   10.286    1.429    0.000    0.000    0.000    0.000 
#    0.000    0.000    0.000    0.000    0.000    0.000 
#
# Total GULP energy -347068.369486 kJ/mol
# GULP energy per Si atom -12395.298910 kJ/mol
# Density = 2.040207 g / cm^3
# Si number density = 20.448616 Si / 1000 Ang^3
#
#
#
# Elastic Constant Matrix: (Units=GPa)
#
#
# Indices 1 2 3 4 5 6 
#
# 1 95.4847 47.5693 49.5665 0.0000 -36.9941 0.0000
# 2 47.5693 120.5819 33.8049 0.0000 -27.9064 0.0000
# 3 49.5665 33.8049 105.1253 0.0000 -36.2757 0.0000
# 4 0.0000 0.0000 0.0000 33.0333 0.0000 -6.7168
# 5 -36.9941 -27.9064 -36.2757 0.0000 37.2656 0.0000
# 6 0.0000 0.0000 0.0000 -6.7168 0.0000 38.9519
#
#
#
# Elastic Compliance Matrix: (Units=1/GPa)
#
#
# Indices 1 2 3 4 5 6 
#
# 1 0.018995 -0.003563 -0.003349 0.000000 0.012929 0.000000
# 2 -0.003563 0.010764 -0.000332 0.000000 0.004201 0.000000
# 3 -0.003349 -0.000332 0.015006 0.000000 0.011034 0.000000
# 4 0.000000 0.000000 0.000000 0.031372 0.000000 0.005410
# 5 0.012929 0.004201 0.011034 0.000000 0.053555 0.000000
# 6 0.000000 0.000000 0.000000 0.005410 0.000000 0.026606
#
#
# Mechanical properties :
#
#
# Convention : Reuss Voigt Hill
#
# Bulk Modulus (GPa) = 33.02814 64.78593 48.90703
# Shear Modulus (GPa) = 27.64285 34.53358 31.08821
#
# Velocity S-wave (km/s) = 3.68070 4.11396 3.90334
# Velocity P-wave (km/s) = 5.85237 7.37003 6.65460
#
# Compressibility (1/GPa) = 0.03027721
#
# Stress axis : x y z
#
# Youngs Moduli (GPa) = 52.64414 92.90414 66.64074
#
# Poissons Ratio (x) = 0.33097 0.22321
# Poissons Ratio (y) = 0.18755 0.02213
# Poissons Ratio (z) = 0.17633 0.03085
#
# Static dielectric constant tensor:
#      x y z
#    x 3.864610 0.000000 -0.331070 
#    y 0.000000 3.887840 0.000000 
#    z -0.331070 0.000000 3.617010 
# 
# 
# High freq. dielectric constant tensor:
#      x y z
#    x 1.797460 0.000000 -0.024080 
#    y 0.000000 1.811680 0.000000 
#    z -0.024080 0.000000 1.787160 
# 
# From -- ./inp_files/171826.got.cif
#   From: 2010.06.25/outbox.cif.g09.slc.cpg/sg15_86_cif.got.tgz:171826.got - 2010.06.28 07:06:18.
