data_PCOD8136599
_publ_section_title
;
Structure prediction by ZEFSAII (Michael W. Deem and Ramdas Pophale) SiO2 
 PCOD8136599
Probable space group: C 2/C
;
_chemical_formula_sum "Si O2"
_cell_formula_units_Z 56
_cell_length_a 10.075238
_cell_length_b 18.084530
_cell_length_c 26.719547
_cell_angle_alpha 90.000000
_cell_angle_beta 36.884476
_cell_angle_gamma 90.000000
_cell_volume 2922.067060
_symmetry_space_group_name_H-M "C 2/C"
_symmetry_group_IT_number 15
_symmetry_cell_setting 'monoclinic'
loop_
_space_group_symop_operation_xyz
x,y,z
-x,y,1/2-z
-x,-y,-z
x,-y,1/2+z
1/2+x,1/2+y,z
1/2-x,1/2+y,1/2-z
1/2-x,1/2-y,-z
1/2+x,1/2-y,1/2+z
loop_
_atom_site_type_symbol
_atom_site_label
_atom_site_fract_x
_atom_site_fract_y
_atom_site_fract_z
Si Si1 0.370095 0.399646 0.412301
Si Si2 0.574585 0.729129 0.010982
Si Si3 0.437476 0.873788 0.672934
Si Si4 0.927847 0.917792 0.509678
Si Si5 0.511217 0.462685 0.805363
Si Si6 0.114586 0.642845 0.425281
Si Si7 0.417360 0.270557 0.326285
O O1 0.460135 0.401629 0.441363
O O2 0.472625 0.465236 0.349470
O O3 0.455039 0.323999 0.361907
O O4 0.102990 0.402415 0.491724
O O5 0.575185 0.642126 0.995855
O O6 0.337948 0.751141 0.103737
O O7 0.750000 0.750000 0.000000
O O8 0.626986 0.776388 0.945752
O O9 0.673144 0.913761 0.602609
O O10 0.251608 0.930972 0.747373
O O11 0.383198 0.843656 0.634332
O O12 0.438740 0.803317 0.708848
O O13 0.000000 0.000000 0.500000
O O14 0.500000 0.482461 0.750000
O O15 0.327860 0.403564 0.877178
O O16 0.500000 0.308412 0.250000
#
# Coordination Sequence:
#
# PCOD8136599 Si02
#       7
#     8   8   8   8   8   8   8
#     4  10  20  37  59  82 117 150 189 239 286 344
#     4  10  22  38  60  87 113 150 200 239 276 349
#     4   9  20  38  58  81 114 152 190 230 285 348
#     4  10  22  40  60  83 113 154 194 238 292 342
#     4  10  20  34  57  89 119 149 189 236 290 347
#     4   9  19  36  59  84 109 154 193 233 280 336
#     4  10  21  37  59  84 114 153 188 236 292 339
#
# _framework density 19.164515999999999
#
# number of rings (size 3 to 8) (size 9 to 14) (size 15 to 20)
#    0.000    2.286    0.000    1.714    4.000    4.571 
#    7.714    0.000    0.000    0.000    0.000    0.000 
#    0.000    0.000    0.000    0.000    0.000    0.000 
#
# Total GULP energy -347217.549199 kJ/mol
# GULP energy per Si atom -12400.626757 kJ/mol
# Density = 1.912090 g / cm^3
# Si number density = 19.164516 Si / 1000 Ang^3
#
#
#
# Elastic Constant Matrix: (Units=GPa)
#
#
# Indices 1 2 3 4 5 6 
#
# 1 108.1672 68.0978 44.0827 0.0014 -6.3994 0.0024
# 2 68.0978 136.2446 58.0068 0.0018 -5.7087 -0.0009
# 3 44.0827 58.0068 95.0066 -0.0060 6.3523 0.0030
# 4 0.0014 0.0018 -0.0060 31.8635 0.0054 5.2574
# 5 -6.3994 -5.7087 6.3523 0.0054 26.9796 -0.0035
# 6 0.0024 -0.0009 0.0030 5.2574 -0.0035 30.2441
#
#
#
# Elastic Compliance Matrix: (Units=1/GPa)
#
#
# Indices 1 2 3 4 5 6 
#
# 1 0.014339 -0.005568 -0.003457 -0.000001 0.003037 0.000000
# 2 -0.005568 0.012432 -0.005176 -0.000002 0.002529 0.000002
# 3 -0.003457 -0.005176 0.015665 0.000005 -0.005603 -0.000003
# 4 -0.000001 -0.000002 0.000005 0.032311 -0.000009 -0.005617
# 5 0.003037 0.002529 -0.005603 -0.000009 0.039640 0.000007
# 6 0.000000 0.000002 -0.000003 -0.005617 0.000007 0.034041
#
#
# Mechanical properties :
#
#
# Convention : Reuss Voigt Hill
#
# Bulk Modulus (GPa) = 71.25538 75.53255 73.39397
# Shear Modulus (GPa) = 27.54727 29.09951 28.32339
#
# Velocity S-wave (km/s) = 3.79543 3.90090 3.84853
# Velocity P-wave (km/s) = 7.51456 7.73225 7.62418
#
# Compressibility (1/GPa) = 0.01403403
#
# Stress axis : x y z
#
# Youngs Moduli (GPa) = 69.74179 80.43472 63.83842
#
# Poissons Ratio (x) = 0.44784 0.22067
# Poissons Ratio (y) = 0.38831 0.33045
# Poissons Ratio (z) = 0.24107 0.41636
#
# Static dielectric constant tensor:
#      x y z
#    x 3.524370 -0.000030 -0.016090 
#    y -0.000030 3.558820 0.000060 
#    z -0.016090 0.000060 3.627860 
# 
# 
# High freq. dielectric constant tensor:
#      x y z
#    x 1.742320 0.000000 0.007120 
#    y 0.000000 1.745100 0.000000 
#    z 0.007120 0.000000 1.750100 
# 
# From -- ./inp_files/190885.got.cif
#   From: 2010.06.25/outbox.cif.g09.slc.cpg/sg15_96_cif.got.tgz:190885.got - 2010.06.28 07:06:18.
