data_PCOD8136487
_publ_section_title
;
Structure prediction by ZEFSAII (Michael W. Deem and Ramdas Pophale) SiO2 
 PCOD8136487
Probable space group: C 2/C
;
_chemical_formula_sum "Si O2"
_cell_formula_units_Z 56
_cell_length_a 30.458255
_cell_length_b 8.739502
_cell_length_c 14.888981
_cell_angle_alpha 90.000000
_cell_angle_beta 132.612778
_cell_angle_gamma 90.000000
_cell_volume 2916.773436
_symmetry_space_group_name_H-M "C 2/C"
_symmetry_group_IT_number 15
_symmetry_cell_setting 'monoclinic'
loop_
_space_group_symop_operation_xyz
x,y,z
-x,y,1/2-z
-x,-y,-z
x,-y,1/2+z
1/2+x,1/2+y,z
1/2-x,1/2+y,1/2-z
1/2-x,1/2-y,-z
1/2+x,1/2-y,1/2+z
loop_
_atom_site_type_symbol
_atom_site_label
_atom_site_fract_x
_atom_site_fract_y
_atom_site_fract_z
Si Si1 0.477889 0.979028 0.070088
Si Si2 0.396470 0.051077 0.704903
Si Si3 0.881765 0.314752 0.376730
Si Si4 0.617921 0.771241 0.494009
Si Si5 0.304388 0.185007 0.017473
Si Si6 0.843095 0.935009 0.935196
Si Si7 0.215196 0.505717 0.179049
O O1 0.534816 0.004785 0.213968
O O2 0.444445 0.816717 0.042945
O O3 0.426500 0.106424 0.011516
O O4 0.500000 0.000000 0.000000
O O5 0.397537 0.155761 0.795584
O O6 0.379301 0.162637 0.601739
O O7 0.351896 0.905397 0.647255
O O8 0.880448 0.137061 0.403382
O O9 0.815624 0.378335 0.301714
O O10 0.622725 0.589443 0.492391
O O11 0.675142 0.839747 0.625742
O O12 0.250000 0.250000 0.000000
O O13 0.340013 0.321728 0.016862
O O14 0.276845 0.062489 0.909831
O O15 0.776794 0.961610 0.810595
#
# Coordination Sequence:
#
# PCOD8136487 Si02
#       7
#     8   8   8   8   8   8   8
#     4   9  19  38  59  75 100 145 186 213 261 336
#     4  10  20  37  57  77 107 144 181 223 272 329
#     4   9  19  36  57  79 102 142 189 220 263 332
#     4  10  20  34  54  81 109 140 179 227 276 318
#     4  10  21  35  56  85 110 142 187 229 272 328
#     4  11  21  35  53  81 114 142 178 230 278 322
#     4   9  19  35  54  74 109 151 178 210 269 337
#
# _framework density 19.199297999999999
#
# number of rings (size 3 to 8) (size 9 to 14) (size 15 to 20)
#    0.000    2.286    0.000    3.857    0.000    3.429 
#    0.000    9.286    0.000    0.000    0.000    0.000 
#    0.000    0.000    0.000    0.000    0.000    0.000 
#
# Total GULP energy -347010.587806 kJ/mol
# GULP energy per Si atom -12393.235279 kJ/mol
# Density = 1.915560 g / cm^3
# Si number density = 19.199298 Si / 1000 Ang^3
#
#
#
# Elastic Constant Matrix: (Units=GPa)
#
#
# Indices 1 2 3 4 5 6 
#
# 1 99.9586 49.7015 31.4677 0.0000 5.6323 0.0000
# 2 49.7015 129.1405 42.9183 0.0000 6.2321 0.0000
# 3 31.4677 42.9183 90.5172 0.0000 19.7504 0.0000
# 4 0.0000 0.0000 0.0000 14.8666 0.0000 -7.2058
# 5 5.6323 6.2321 19.7504 0.0000 33.6171 0.0000
# 6 0.0000 0.0000 0.0000 -7.2058 0.0000 23.8742
#
#
#
# Elastic Compliance Matrix: (Units=1/GPa)
#
#
# Indices 1 2 3 4 5 6 
#
# 1 0.012837 -0.004101 -0.002541 0.000000 0.000102 0.000000
# 2 -0.004101 0.010531 -0.003775 0.000000 0.000953 0.000000
# 3 -0.002541 -0.003775 0.015457 0.000000 -0.007955 0.000000
# 4 0.000000 0.000000 0.000000 0.078792 0.000000 0.023781
# 5 0.000102 0.000953 -0.007955 0.000000 0.034227 0.000000
# 6 0.000000 0.000000 0.000000 0.023781 0.000000 0.049064
#
#
# Mechanical properties :
#
#
# Convention : Reuss Voigt Hill
#
# Bulk Modulus (GPa) = 55.58422 63.08793 59.33607
# Shear Modulus (GPa) = 21.95508 27.50684 24.73096
#
# Velocity S-wave (km/s) = 3.38529 3.78921 3.59293
# Velocity P-wave (km/s) = 6.65539 7.21630 6.94151
#
# Compressibility (1/GPa) = 0.01799072
#
# Stress axis : x y z
#
# Youngs Moduli (GPa) = 77.89736 94.96145 64.69721
#
# Poissons Ratio (x) = 0.38946 0.16436
# Poissons Ratio (y) = 0.31948 0.24424
# Poissons Ratio (z) = 0.19790 0.35850
#
# Static dielectric constant tensor:
#      x y z
#    x 3.676590 0.000000 0.219320 
#    y 0.000000 3.628920 0.000000 
#    z 0.219320 0.000000 3.711090 
# 
# 
# High freq. dielectric constant tensor:
#      x y z
#    x 1.751290 0.000000 0.004410 
#    y 0.000000 1.731610 0.000000 
#    z 0.004410 0.000000 1.746940 
# 
# From -- ./inp_files/171824.got.cif
#   From: 2010.06.25/outbox.cif.g09.slc.cpg/sg15_86_cif.got.tgz:171824.got - 2010.06.28 07:06:18.
