data_PCOD8136511
_publ_section_title
;
Structure prediction by ZEFSAII (Michael W. Deem and Ramdas Pophale) SiO2 
 PCOD8136511
Probable space group: C 2/C
;
_chemical_formula_sum "Si O2"
_cell_formula_units_Z 40
_cell_length_a 11.730047
_cell_length_b 13.470545
_cell_length_c 12.925294
_cell_angle_alpha 90.000000
_cell_angle_beta 112.075130
_cell_angle_gamma 90.000000
_cell_volume 1892.608092
_symmetry_space_group_name_H-M "C 2/C"
_symmetry_group_IT_number 15
_symmetry_cell_setting 'monoclinic'
loop_
_space_group_symop_operation_xyz
x,y,z
-x,y,1/2-z
-x,-y,-z
x,-y,1/2+z
1/2+x,1/2+y,z
1/2-x,1/2+y,1/2-z
1/2-x,1/2-y,-z
1/2+x,1/2-y,1/2+z
loop_
_atom_site_type_symbol
_atom_site_label
_atom_site_fract_x
_atom_site_fract_y
_atom_site_fract_z
Si Si1 0.244221 0.394751 0.274186
Si Si2 0.077721 0.352598 0.034328
Si Si3 0.498618 0.685164 0.636533
Si Si4 0.879986 0.019075 0.164746
Si Si5 0.337732 0.947053 0.034962
O O1 0.157628 0.334380 0.164837
O O2 0.359730 0.328710 0.351202
O O3 0.293084 0.492531 0.232139
O O4 0.162144 0.430009 0.342447
O O5 0.938344 0.378130 0.016260
O O6 0.076725 0.250661 0.970201
O O7 0.135947 0.438002 0.982086
O O8 0.500000 0.737551 0.750000
O O9 0.428980 0.580079 0.623808
O O10 0.000000 0.078600 0.250000
O O11 0.797926 0.082417 0.056728
#
# Coordination Sequence:
#
# PCOD8136511 Si02
#       5
#     8   8   8   8   8
#     4   9  19  36  54  76 109 140 169 217 265 306
#     4  10  21  36  54  80 107 138 176 215 259 312
#     4   9  20  36  55  77 105 139 177 214 258 311
#     4   8  18  35  54  79 106 136 174 215 259 311
#     4  10  20  34  55  78 108 139 172 216 263 306
#
# _framework density 21.134855999999999
#
# number of rings (size 3 to 8) (size 9 to 14) (size 15 to 20)
#    0.000    3.200    0.000    0.600    0.000   16.000 
#    0.000    2.000    0.000    0.000    0.000    0.000 
#    0.000    0.000    0.000    0.000    0.000    0.000 
#
# Total GULP energy -247872.627968 kJ/mol
# GULP energy per Si atom -12393.631398 kJ/mol
# Density = 2.108675 g / cm^3
# Si number density = 21.134856 Si / 1000 Ang^3
#
#
#
# Elastic Constant Matrix: (Units=GPa)
#
#
# Indices 1 2 3 4 5 6 
#
# 1 108.0075 18.2376 56.0970 0.0000 9.7143 0.0000
# 2 18.2376 12.9877 9.5829 0.0000 -9.9353 0.0000
# 3 56.0970 9.5829 122.5870 0.0000 -1.3330 0.0000
# 4 0.0000 0.0000 0.0000 34.0184 0.0000 8.8131
# 5 9.7143 -9.9353 -1.3330 0.0000 39.4799 0.0000
# 6 0.0000 0.0000 0.0000 8.8131 0.0000 12.5744
#
#
#
# Elastic Compliance Matrix: (Units=1/GPa)
#
#
# Indices 1 2 3 4 5 6 
#
# 1 0.019201 -0.032214 -0.006410 0.000000 -0.013048 0.000000
# 2 -0.032214 0.156196 0.003046 0.000000 0.047337 0.000000
# 3 -0.006410 0.003046 0.010882 0.000000 0.002711 0.000000
# 4 0.000000 0.000000 0.000000 0.035918 0.000000 -0.025174
# 5 -0.013048 0.047337 0.002711 0.000000 0.040544 0.000000
# 6 0.000000 0.000000 0.000000 -0.025174 0.000000 0.097171
#
#
# Mechanical properties :
#
#
# Convention : Reuss Voigt Hill
#
# Bulk Modulus (GPa) = 8.68636 45.71301 27.19969
# Shear Modulus (GPa) = 10.65094 27.85886 19.25490
#
# Velocity S-wave (km/s) = 2.24732 3.63457 3.02163
# Velocity P-wave (km/s) = 3.29436 6.26814 5.00712
#
# Compressibility (1/GPa) = 0.11512298
#
# Stress axis : x y z
#
# Youngs Moduli (GPa) = 52.08074 6.40220 91.89317
#
# Poissons Ratio (x) = 0.20624 0.58905
# Poissons Ratio (y) = 1.67773 -0.27991
# Poissons Ratio (z) = 0.33385 -0.01950
#
# Static dielectric constant tensor:
#      x y z
#    x 4.091770 0.000000 0.271880 
#    y 0.000000 3.147930 0.000000 
#    z 0.271880 0.000000 3.951070 
# 
# 
# High freq. dielectric constant tensor:
#      x y z
#    x 1.848380 0.000000 0.012290 
#    y 0.000000 1.764830 0.000000 
#    z 0.012290 0.000000 1.835370 
# 
# From -- ./inp_files/85696.got.cif
#   From: 2010.06.25/outbox.cif.g09.slc.cpg/sg15_43_cif.got.tgz:85696.got - 2010.06.28 07:06:18.
