data_PCOD8136817
_publ_section_title
;
Structure prediction by ZEFSAII (Michael W. Deem and Ramdas Pophale) SiO2 
 PCOD8136817
Probable space group: C 2/C
;
_chemical_formula_sum "Si O2"
_cell_formula_units_Z 48
_cell_length_a 24.278674
_cell_length_b 17.466834
_cell_length_c 5.238927
_cell_angle_alpha 90.000000
_cell_angle_beta 96.008082
_cell_angle_gamma 90.000000
_cell_volume 2209.476615
_symmetry_space_group_name_H-M "C 2/C"
_symmetry_group_IT_number 15
_symmetry_cell_setting 'monoclinic'
loop_
_space_group_symop_operation_xyz
x,y,z
-x,y,1/2-z
-x,-y,-z
x,-y,1/2+z
1/2+x,1/2+y,z
1/2-x,1/2+y,1/2-z
1/2-x,1/2-y,-z
1/2+x,1/2-y,1/2+z
loop_
_atom_site_type_symbol
_atom_site_label
_atom_site_fract_x
_atom_site_fract_y
_atom_site_fract_z
Si Si1 0.914442 0.794057 0.229013
Si Si2 0.300637 0.463309 0.940072
Si Si3 0.695668 0.292164 0.562334
Si Si4 0.570187 0.537143 0.904922
Si Si5 0.099548 0.283860 0.269505
Si Si6 0.064796 0.547378 0.781342
O O1 0.942216 0.875811 0.186175
O O2 0.930935 0.759341 0.510429
O O3 0.847346 0.801571 0.194578
O O4 0.933658 0.737208 0.007929
O O5 0.273901 0.484254 0.202070
O O6 0.365469 0.479847 0.012082
O O7 0.287859 0.377176 0.841817
O O8 0.750000 0.250000 0.500000
O O9 0.663471 0.245680 0.771964
O O10 0.543342 0.485435 0.665137
O O11 0.099413 0.374421 0.313117
O O12 0.081605 0.502881 0.533376
O O13 0.000000 0.567586 0.750000
#
# Coordination Sequence:
#
# PCOD8136817 Si02
#       6
#     8   8   8   8   8   8
#     4   9  19  31  49  75 105 141 178 222 273 321
#     4   9  18  30  46  66  93 125 174 221 250 295
#     4   9  21  35  52  73 106 149 182 223 277 327
#     4   9  15  24  43  67  97 128 167 212 249 290
#     4  10  20  35  53  78 108 136 178 225 273 332
#     4  10  21  39  64  88 111 144 184 232 293 355
#
# _framework density 21.724602999999998
#
# number of rings (size 3 to 8) (size 9 to 14) (size 15 to 20)
#    1.000    1.667    0.000    2.000    7.000    0.667 
#    0.000    1.667    0.000    0.000    0.000    0.000 
#    0.000   22.667    0.000    0.000    0.000    0.000 
#
# Total GULP energy -297338.548585 kJ/mol
# GULP energy per Si atom -12389.106191 kJ/mol
# Density = 2.167516 g / cm^3
# Si number density = 21.724603 Si / 1000 Ang^3
#
#
#
# Elastic Constant Matrix: (Units=GPa)
#
#
# Indices 1 2 3 4 5 6 
#
# 1 40.4695 28.3228 19.8503 0.0000 -4.1780 0.0000
# 2 28.3228 188.2412 83.0502 0.0000 -13.0445 0.0000
# 3 19.8503 83.0502 180.0592 0.0000 -23.4857 0.0000
# 4 0.0000 0.0000 0.0000 41.0880 0.0000 -8.7097
# 5 -4.1780 -13.0445 -23.4857 0.0000 10.3273 0.0000
# 6 0.0000 0.0000 0.0000 -8.7097 0.0000 -64.4599
#
#
#
# Elastic Compliance Matrix: (Units=1/GPa)
#
#
# Indices 1 2 3 4 5 6 
#
# 1 0.028094 -0.003517 -0.000813 0.000000 0.005074 0.000000
# 2 -0.003517 0.007140 -0.002722 0.000000 0.001405 0.000000
# 3 -0.000813 -0.002722 0.009110 0.000000 0.016949 0.000000
# 4 0.000000 0.000000 0.000000 0.023660 0.000000 -0.003197
# 5 0.005074 0.001405 0.016949 0.000000 0.139202 0.000000
# 6 0.000000 0.000000 0.000000 -0.003197 0.000000 -0.015082
#
#
# Mechanical properties :
#
#
# Convention : Reuss Voigt Hill
#
# Bulk Modulus (GPa) = 33.06974 74.57960 53.82467
# Shear Modulus (GPa) = 23.11516 15.89421 19.50468
#
# Velocity S-wave (km/s) = 3.26545 2.70779 2.99961
# Velocity P-wave (km/s) = 5.42889 6.64682 6.06849
#
# Compressibility (1/GPa) = 0.03023913
#
# Stress axis : x y z
#
# Youngs Moduli (GPa) = 35.59496 140.05966 109.77281
#
# Poissons Ratio (x) = 0.49253 0.08928
# Poissons Ratio (y) = 0.12517 0.29883
# Poissons Ratio (z) = 0.02895 0.38127
#
# Static dielectric constant tensor:
#      x y z
#    x 3.388450 0.000000 -0.179960 
#    y 0.000000 3.807510 0.000000 
#    z -0.179960 0.000000 4.196040 
# 
# 
# High freq. dielectric constant tensor:
#      x y z
#    x 1.803140 0.000000 -0.009780 
#    y 0.000000 1.853880 0.000000 
#    z -0.009780 0.000000 1.864730 
# 
# From -- ./inp_files/16930.got.cif
#   From: 2010.06.25/outbox.cif.g09.slc.cpg/sg15_9_cif.got.tgz:16930.got - 2010.06.28 07:06:18.
