data_PCOD8136815
_publ_section_title
;
Structure prediction by ZEFSAII (Michael W. Deem and Ramdas Pophale) SiO2 
 PCOD8136815
Probable space group: C 2/C
;
_chemical_formula_sum "Si O2"
_cell_formula_units_Z 56
_cell_length_a 14.463812
_cell_length_b 8.681219
_cell_length_c 29.824976
_cell_angle_alpha 90.000000
_cell_angle_beta 50.393707
_cell_angle_gamma 90.000000
_cell_volume 2885.255153
_symmetry_space_group_name_H-M "C 2/C"
_symmetry_group_IT_number 15
_symmetry_cell_setting 'monoclinic'
loop_
_space_group_symop_operation_xyz
x,y,z
-x,y,1/2-z
-x,-y,-z
x,-y,1/2+z
1/2+x,1/2+y,z
1/2-x,1/2+y,1/2-z
1/2-x,1/2-y,-z
1/2+x,1/2-y,1/2+z
loop_
_atom_site_type_symbol
_atom_site_label
_atom_site_fract_x
_atom_site_fract_y
_atom_site_fract_z
Si Si1 0.161443 0.998847 0.322428
Si Si2 0.791524 0.947520 0.405829
Si Si3 0.508870 0.354995 0.695531
Si Si4 0.901954 0.451233 0.201538
Si Si5 0.370518 0.197902 0.621011
Si Si6 0.432874 0.992043 0.474406
Si Si7 0.492612 0.227020 0.380980
O O1 0.141263 0.118935 0.369400
O O2 0.097966 0.056549 0.296690
O O3 0.302848 0.982009 0.270186
O O4 0.107056 0.836130 0.354760
O O5 0.713268 0.861329 0.392683
O O6 0.708859 0.017771 0.471317
O O7 0.879247 0.823438 0.400092
O O8 0.862513 0.090347 0.362618
O O9 0.500000 0.399086 0.750000
O O10 0.497312 0.172317 0.691066
O O11 0.833353 0.386721 0.178703
O O12 0.973893 0.606932 0.168597
O O13 0.511864 0.156546 0.568472
O O14 0.460793 0.144794 0.437247
O O15 0.500000 0.000000 0.500000
#
# Coordination Sequence:
#
# PCOD8136815 Si02
#       7
#     8   8   8   8   8   8   8
#     4  10  20  36  57  80 110 146 180 222 272 324
#     4  10  20  36  56  79 108 139 176 228 273 312
#     4  10  21  35  54  82 109 143 181 220 271 322
#     4  10  20  35  53  77 110 144 177 214 264 328
#     4   9  19  36  56  79 104 143 182 214 266 328
#     4   9  19  37  57  76 105 144 181 219 269 327
#     4  10  20  35  55  81 108 137 180 227 269 315
#
# _framework density 19.409026999999998
#
# number of rings (size 3 to 8) (size 9 to 14) (size 15 to 20)
#    0.000    2.286    0.000    3.000    0.000    4.571 
#    0.000   16.429    0.000    0.000    0.000    0.000 
#    0.000    0.000    0.000    0.000    0.000    0.000 
#
# Total GULP energy -347164.519922 kJ/mol
# GULP energy per Si atom -12398.732854 kJ/mol
# Density = 1.936485 g / cm^3
# Si number density = 19.409027 Si / 1000 Ang^3
#
#
#
# Elastic Constant Matrix: (Units=GPa)
#
#
# Indices 1 2 3 4 5 6 
#
# 1 70.1408 36.5324 47.4260 0.0001 -8.8843 0.0001
# 2 36.5324 132.5152 84.3402 0.0001 -18.5119 0.0001
# 3 47.4260 84.3402 162.6042 0.0000 -25.1751 0.0001
# 4 0.0001 0.0001 0.0000 23.2690 0.0000 -1.4819
# 5 -8.8843 -18.5119 -25.1751 0.0000 32.1777 0.0001
# 6 0.0001 0.0001 0.0001 -1.4819 0.0001 24.5365
#
#
#
# Elastic Compliance Matrix: (Units=1/GPa)
#
#
# Indices 1 2 3 4 5 6 
#
# 1 0.018288 -0.002426 -0.003994 0.000000 0.000529 0.000000
# 2 -0.002426 0.011722 -0.005043 0.000000 0.002128 0.000000
# 3 -0.003994 -0.005043 0.010594 0.000000 0.004284 0.000000
# 4 0.000000 0.000000 0.000000 0.043142 0.000000 0.002606
# 5 0.000529 0.002128 0.004284 0.000000 0.035800 0.000000
# 6 0.000000 0.000000 0.000000 0.002606 0.000000 0.040913
#
#
# Mechanical properties :
#
#
# Convention : Reuss Voigt Hill
#
# Bulk Modulus (GPa) = 56.56587 77.98414 67.27501
# Shear Modulus (GPa) = 26.41638 29.12742 27.77190
#
# Velocity S-wave (km/s) = 3.69322 3.87811 3.78680
# Velocity P-wave (km/s) = 6.88432 7.76656 7.33871
#
# Compressibility (1/GPa) = 0.01767850
#
# Stress axis : x y z
#
# Youngs Moduli (GPa) = 54.68074 85.30929 94.39511
#
# Poissons Ratio (x) = 0.20696 0.37699
# Poissons Ratio (y) = 0.13265 0.47603
# Poissons Ratio (z) = 0.21838 0.43021
#
# Static dielectric constant tensor:
#      x y z
#    x 3.373280 0.000000 -0.117980 
#    y 0.000000 3.658980 0.000000 
#    z -0.117980 0.000000 4.026830 
# 
# 
# High freq. dielectric constant tensor:
#      x y z
#    x 1.740940 0.000000 -0.003960 
#    y 0.000000 1.755340 0.000000 
#    z -0.003960 0.000000 1.765500 
# 
# From -- ./inp_files/272630.got.cif
#   From: 2010.06.25/outbox.cif.g09.slc.cpg/sg15_137_cif.got.tgz:272630.got - 2010.06.28 07:06:18.
