data_PCOD8136833
_publ_section_title
;
Structure prediction by ZEFSAII (Michael W. Deem and Ramdas Pophale) SiO2 
 PCOD8136833
Probable space group: C 2/C
;
_chemical_formula_sum "Si O2"
_cell_formula_units_Z 64
_cell_length_a 17.644896
_cell_length_b 24.863086
_cell_length_c 7.700349
_cell_angle_alpha 90.000000
_cell_angle_beta 105.034572
_cell_angle_gamma 90.000000
_cell_volume 3262.556347
_symmetry_space_group_name_H-M "C 2/C"
_symmetry_group_IT_number 15
_symmetry_cell_setting 'monoclinic'
loop_
_space_group_symop_operation_xyz
x,y,z
-x,y,1/2-z
-x,-y,-z
x,-y,1/2+z
1/2+x,1/2+y,z
1/2-x,1/2+y,1/2-z
1/2-x,1/2-y,-z
1/2+x,1/2-y,1/2+z
loop_
_atom_site_type_symbol
_atom_site_label
_atom_site_fract_x
_atom_site_fract_y
_atom_site_fract_z
Si Si1 0.989940 0.396752 0.950593
Si Si2 0.761151 0.657663 0.281283
Si Si3 0.913929 0.709260 0.498612
Si Si4 0.333468 0.051702 0.301751
Si Si5 0.140268 0.241290 0.197671
Si Si6 0.155171 0.434162 0.093389
Si Si7 0.247224 0.332421 0.124549
Si Si8 0.416288 0.294536 0.197805
O O1 0.979252 0.337215 0.023149
O O2 0.914547 0.434195 0.950876
O O3 0.000000 0.391700 0.750000
O O4 0.065323 0.421537 0.095769
O O5 0.827747 0.683596 0.438622
O O6 0.763467 0.592796 0.317393
O O7 0.677434 0.683814 0.281111
O O8 0.780118 0.671351 0.091187
O O9 0.918991 0.738351 0.689366
O O10 0.925206 0.749932 0.349147
O O11 0.310740 0.989700 0.311319
O O12 0.348186 0.062511 0.112177
O O13 0.213402 0.281408 0.207060
O O14 0.091110 0.234442 0.993290
O O15 0.213571 0.386957 0.191411
O O16 0.342198 0.333188 0.192253
O O17 0.500000 0.326812 0.250000
#
# Coordination Sequence:
#
# PCOD8136833 Si02
#       8
#     8   8   8   8   8   8   8   8
#     4   9  19  34  54  74 117 161 189 227 276 331
#     4   9  17  35  56  78 114 147 182 237 290 326
#     4  11  20  33  57  85 112 152 190 225 284 337
#     4   9  19  33  54  78 109 152 190 234 279 327
#     4  11  21  36  58  86 111 146 191 235 283 348
#     4  10  20  35  54  79 114 149 194 231 279 336
#     4  10  20  37  56  80 110 151 189 234 289 342
#     4  11  23  38  56  76 117 148 182 237 287 337
#
# _framework density 19.616519
#
# number of rings (size 3 to 8) (size 9 to 14) (size 15 to 20)
#    0.000    2.000    2.500    2.625    1.750    2.500 
#    0.000    1.250    0.000    0.000    0.000    7.875 
#    0.000    0.000    0.000    0.000    0.000    0.000 
#
# Total GULP energy -396635.655668 kJ/mol
# GULP energy per Si atom -12394.864240 kJ/mol
# Density = 1.957187 g / cm^3
# Si number density = 19.616519 Si / 1000 Ang^3
#
#
#
# Elastic Constant Matrix: (Units=GPa)
#
#
# Indices 1 2 3 4 5 6 
#
# 1 89.6307 54.3632 26.5658 0.0000 21.5406 0.0000
# 2 54.3632 130.1867 21.5379 0.0000 9.7651 0.0000
# 3 26.5658 21.5379 45.2689 0.0000 -3.3015 0.0000
# 4 0.0000 0.0000 0.0000 24.8331 0.0000 0.6989
# 5 21.5406 9.7651 -3.3015 0.0000 13.1749 0.0000
# 6 0.0000 0.0000 0.0000 0.6989 0.0000 36.2267
#
#
#
# Elastic Compliance Matrix: (Units=1/GPa)
#
#
# Indices 1 2 3 4 5 6 
#
# 1 0.036552 -0.007027 -0.022497 0.000000 -0.060192 0.000000
# 2 -0.007027 0.010441 -0.000581 0.000000 0.003604 0.000000
# 3 -0.022497 -0.000581 0.038996 0.000000 0.046985 0.000000
# 4 0.000000 0.000000 0.000000 0.040291 0.000000 -0.000777
# 5 -0.060192 0.003604 0.046985 0.000000 0.183416 0.000000
# 6 0.000000 0.000000 0.000000 -0.000777 0.000000 0.027619
#
#
# Mechanical properties :
#
#
# Convention : Reuss Voigt Hill
#
# Bulk Modulus (GPa) = 38.79124 52.22446 45.50785
# Shear Modulus (GPa) = 12.31165 25.68823 18.99994
#
# Velocity S-wave (km/s) = 2.50795 3.62266 3.11556
# Velocity P-wave (km/s) = 5.31075 6.64670 6.01593
#
# Compressibility (1/GPa) = 0.02577901
#
# Stress axis : x y z
#
# Youngs Moduli (GPa) = 27.35797 95.77309 25.64378
#
# Poissons Ratio (x) = 0.67297 0.57691
# Poissons Ratio (y) = 0.19224 0.01491
# Poissons Ratio (z) = 0.61548 0.05568
#
# Static dielectric constant tensor:
#      x y z
#    x 3.606940 0.000000 0.047910 
#    y 0.000000 0.811050 0.000000 
#    z 0.047910 0.000000 3.497740 
# 
# 
# High freq. dielectric constant tensor:
#      x y z
#    x 1.741100 0.000000 -0.001080 
#    y 0.000000 1.741380 0.000000 
#    z -0.001080 0.000000 1.765180 
# 
# From -- ./inp_files/51271.got.cif
#   From: 2010.06.25/outbox.cif.g09.slc.cpg/sg15_26_cif.got.tgz:51271.got - 2010.06.28 07:06:18.
