data_PCOD8136770
_publ_section_title
;
Structure prediction by ZEFSAII (Michael W. Deem and Ramdas Pophale) SiO2 
 PCOD8136770
Probable space group: C 2/C
;
_chemical_formula_sum "Si O2"
_cell_formula_units_Z 44
_cell_length_a 23.239929
_cell_length_b 13.076043
_cell_length_c 13.316037
_cell_angle_alpha 90.000000
_cell_angle_beta 33.007034
_cell_angle_gamma 90.000000
_cell_volume 2204.331894
_symmetry_space_group_name_H-M "C 2/C"
_symmetry_group_IT_number 15
_symmetry_cell_setting 'monoclinic'
loop_
_space_group_symop_operation_xyz
x,y,z
-x,y,1/2-z
-x,-y,-z
x,-y,1/2+z
1/2+x,1/2+y,z
1/2-x,1/2+y,1/2-z
1/2-x,1/2-y,-z
1/2+x,1/2-y,1/2+z
loop_
_atom_site_type_symbol
_atom_site_label
_atom_site_fract_x
_atom_site_fract_y
_atom_site_fract_z
Si Si1 0.789780 0.638773 0.478174
Si Si2 0.000000 0.297367 0.750000
Si Si3 0.853309 0.835272 0.602218
Si Si4 0.817349 0.012203 0.508050
Si Si5 0.310994 0.331593 0.172678
Si Si6 0.464576 0.408468 0.622186
O O1 0.750000 0.750000 0.500000
O O2 0.914870 0.635027 0.314756
O O3 0.769043 0.551604 0.426752
O O4 0.728473 0.609834 0.669614
O O5 0.057738 0.231595 0.581454
O O6 0.737579 0.783005 0.758884
O O7 0.880009 0.843280 0.681206
O O8 0.860041 0.944862 0.538462
O O9 0.767244 0.110899 0.636690
O O10 0.913340 0.046706 0.297491
O O11 0.438568 0.333859 0.987556
O O12 0.500000 0.500000 0.500000
#
# Coordination Sequence:
#
# PCOD8136770 Si02
#       6
#     8   4   8   8   8   8
#     4  11  20  38  61  89 124 165 211 260 314 376
#     4  10  20  34  64  88 118 168 212 254 318 376
#     4  11  23  39  60  95 130 159 209 267 317 376
#     4  12  22  38  64  91 127 161 215 268 303 383
#     4  11  24  38  61  98 127 163 209 264 324 370
#     4  12  22  37  67  95 123 165 219 263 313 372
#
# _framework density 19.960697
#
# number of rings (size 3 to 8) (size 9 to 14) (size 15 to 20)
#    0.000    0.727    7.273    2.727    0.000    0.727 
#    0.000    3.636    4.000    0.000    0.000    0.000 
#    0.000    0.000    0.000    0.000    0.000    0.000 
#
# Total GULP energy -272741.722433 kJ/mol
# GULP energy per Si atom -12397.351020 kJ/mol
# Density = 1.991527 g / cm^3
# Si number density = 19.960697 Si / 1000 Ang^3
#
#
#
# Elastic Constant Matrix: (Units=GPa)
#
#
# Indices 1 2 3 4 5 6 
#
# 1 131.6031 41.8333 48.7288 0.0000 -8.8364 0.0000
# 2 41.8333 57.9941 47.5877 0.0000 5.1684 0.0000
# 3 48.7288 47.5877 100.5835 0.0000 -0.1308 0.0000
# 4 0.0000 0.0000 0.0000 28.5984 0.0000 9.6236
# 5 -8.8364 5.1684 -0.1308 0.0000 43.5665 0.0000
# 6 0.0000 0.0000 0.0000 9.6236 0.0000 45.4194
#
#
#
# Elastic Compliance Matrix: (Units=1/GPa)
#
#
# Indices 1 2 3 4 5 6 
#
# 1 0.010533 -0.005993 -0.002263 0.000000 0.002840 0.000000
# 2 -0.005993 0.032104 -0.012292 0.000000 -0.005061 0.000000
# 3 -0.002263 -0.012292 0.016855 0.000000 0.001050 0.000000
# 4 0.000000 0.000000 0.000000 0.037652 0.000000 -0.007978
# 5 0.002840 -0.005061 0.001050 0.000000 0.024133 0.000000
# 6 0.000000 0.000000 0.000000 -0.007978 0.000000 0.023707
#
#
# Mechanical properties :
#
#
# Convention : Reuss Voigt Hill
#
# Bulk Modulus (GPa) = 54.36440 62.94228 58.65334
# Shear Modulus (GPa) = 26.01299 33.65227 29.83263
#
# Velocity S-wave (km/s) = 3.61392 4.11046 3.87016
# Velocity P-wave (km/s) = 6.68646 7.35727 7.02987
#
# Compressibility (1/GPa) = 0.01839439
#
# Stress axis : x y z
#
# Youngs Moduli (GPa) = 94.94390 31.14921 59.32876
#
# Poissons Ratio (x) = 0.18669 0.13428
# Poissons Ratio (y) = 0.56904 0.72925
# Poissons Ratio (z) = 0.21489 0.38288
#
# Static dielectric constant tensor:
#      x y z
#    x 4.178800 0.000000 0.171730 
#    y 0.000000 3.514620 0.000000 
#    z 0.171730 0.000000 3.666930 
# 
# 
# High freq. dielectric constant tensor:
#      x y z
#    x 1.802250 0.000000 0.011280 
#    y 0.000000 1.751720 0.000000 
#    z 0.011280 0.000000 1.767560 
# 
# From -- ./inp_files/151773.got.cif
#   From: 2010.06.25/outbox.cif.g09.slc.cpg/sg15_76_cif.got.tgz:151773.got - 2010.06.28 07:06:18.
