data_PCOD8136194
_publ_section_title
;
Structure prediction by ZEFSAII (Michael W. Deem and Ramdas Pophale) SiO2 
 PCOD8136194
Probable space group: C 2/C
;
_chemical_formula_sum "Si O2"
_cell_formula_units_Z 52
_cell_length_a 11.985060
_cell_length_b 19.192034
_cell_length_c 15.149813
_cell_angle_alpha 90.000000
_cell_angle_beta 120.425648
_cell_angle_gamma 90.000000
_cell_volume 3004.833126
_symmetry_space_group_name_H-M "C 2/C"
_symmetry_group_IT_number 15
_symmetry_cell_setting 'monoclinic'
loop_
_space_group_symop_operation_xyz
x,y,z
-x,y,1/2-z
-x,-y,-z
x,-y,1/2+z
1/2+x,1/2+y,z
1/2-x,1/2+y,1/2-z
1/2-x,1/2-y,-z
1/2+x,1/2-y,1/2+z
loop_
_atom_site_type_symbol
_atom_site_label
_atom_site_fract_x
_atom_site_fract_y
_atom_site_fract_z
Si Si1 0.298386 0.268732 0.879565
Si Si2 0.000000 0.541148 0.250000
Si Si3 0.047728 0.758170 0.867470
Si Si4 0.813403 0.652100 0.014968
Si Si5 0.290948 0.148273 0.461929
Si Si6 0.611292 0.001346 0.969971
Si Si7 0.900353 0.338657 0.812548
O O1 0.427988 0.283417 0.877671
O O2 0.297573 0.323151 0.961462
O O3 0.173383 0.276501 0.766606
O O4 0.296023 0.189855 0.914214
O O5 0.947560 0.492131 0.151646
O O6 0.888000 0.590661 0.248665
O O7 0.146309 0.822841 0.910467
O O8 0.000000 0.740785 0.750000
O O9 0.113595 0.688996 0.933610
O O10 0.807466 0.570160 0.992209
O O11 0.947815 0.676491 0.114569
O O12 0.291948 0.066113 0.483314
O O13 0.337499 0.154239 0.381588
O O14 0.500000 0.000000 0.000000
#
# Coordination Sequence:
#
# PCOD8136194 Si02
#       7
#     8   4   8   8   8   8   8
#     4  11  19  35  59  82 109 148 188 222 278 335
#     4  10  20  32  56  90 104 144 178 234 288 316
#     4  11  23  37  55  82 114 153 185 223 281 339
#     4  10  21  34  59  88 108 140 189 239 275 319
#     4  11  23  37  55  83 115 147 184 233 274 334
#     4  11  19  36  57  83 114 138 182 237 282 321
#     4  11  17  35  56  82 111 142 183 226 278 324
#
# _framework density 17.305454000000001
#
# number of rings (size 3 to 8) (size 9 to 14) (size 15 to 20)
#    0.000    1.231    9.231    0.000    1.077    0.000 
#    0.000    0.769    0.000    3.692    0.000    0.000 
#    0.000    0.000    0.000    0.000    0.000    0.000 
#
# Total GULP energy -322267.677507 kJ/mol
# GULP energy per Si atom -12394.910673 kJ/mol
# Density = 1.726607 g / cm^3
# Si number density = 17.305454 Si / 1000 Ang^3
#
#
#
# Elastic Constant Matrix: (Units=GPa)
#
#
# Indices 1 2 3 4 5 6 
#
# 1 107.4312 45.6801 41.6951 0.0000 -18.6948 0.0000
# 2 45.6801 130.0780 55.5347 0.0000 -2.8987 0.0000
# 3 41.6951 55.5347 118.0921 0.0000 -13.4652 0.0000
# 4 0.0000 0.0000 0.0000 -240.5242 0.0000 343.6392
# 5 -18.6948 -2.8987 -13.4652 0.0000 32.5361 0.0000
# 6 0.0000 0.0000 0.0000 343.6392 0.0000 -414.2123
#
#
#
# Elastic Compliance Matrix: (Units=1/GPa)
#
#
# Indices 1 2 3 4 5 6 
#
# 1 0.012646 -0.003372 -0.002188 0.000000 0.006060 0.000000
# 2 -0.003372 0.010553 -0.004079 0.000000 -0.002685 0.000000
# 3 -0.002188 -0.004079 0.011517 0.000000 0.003146 0.000000
# 4 0.000000 0.000000 0.000000 0.022439 0.000000 0.018616
# 5 0.006060 -0.002685 0.003146 0.000000 0.035280 0.000000
# 6 0.000000 0.000000 0.000000 0.018616 0.000000 0.013030
#
#
# Mechanical properties :
#
#
# Convention : Reuss Voigt Hill
#
# Bulk Modulus (GPa) = 64.76972 71.26899 68.01936
# Shear Modulus (GPa) = 38.49486 -110.26065 -35.88289
#
# Velocity S-wave (km/s) = 4.72151 -7.99079 -4.55851
# Velocity P-wave (km/s) = 8.19952 6.62303 3.41815
#
# Compressibility (1/GPa) = 0.01543931
#
# Stress axis : x y z
#
# Youngs Moduli (GPa) = 79.07800 94.75869 86.82590
#
# Poissons Ratio (x) = 0.31948 0.19001
# Poissons Ratio (y) = 0.26661 0.35412
# Poissons Ratio (z) = 0.17305 0.38648
#
# Static dielectric constant tensor:
#      x y z
#    x 3.312120 0.000000 -0.183080 
#    y 0.000000 3.773490 0.000000 
#    z -0.183080 0.000000 3.483530 
# 
# 
# High freq. dielectric constant tensor:
#      x y z
#    x 1.665600 0.000000 -0.026590 
#    y 0.000000 1.652980 0.000000 
#    z -0.026590 0.000000 1.678460 
# 
# From -- ./inp_files/146836.got.cif
#   From: 2010.06.25/outbox.cif.g09.slc.cpg/sg15_74_cif.got.tgz:146836.got - 2010.06.28 07:06:18.
