data_PCOD8136171
_publ_section_title
;
Structure prediction by ZEFSAII (Michael W. Deem and Ramdas Pophale) SiO2 
 PCOD8136171
Probable space group: C 2/C
;
_chemical_formula_sum "Si O2"
_cell_formula_units_Z 64
_cell_length_a 17.945953
_cell_length_b 22.023641
_cell_length_c 9.662120
_cell_angle_alpha 90.000000
_cell_angle_beta 65.333491
_cell_angle_gamma 90.000000
_cell_volume 3470.352452
_symmetry_space_group_name_H-M "C 2/C"
_symmetry_group_IT_number 15
_symmetry_cell_setting 'monoclinic'
loop_
_space_group_symop_operation_xyz
x,y,z
-x,y,1/2-z
-x,-y,-z
x,-y,1/2+z
1/2+x,1/2+y,z
1/2-x,1/2+y,1/2-z
1/2-x,1/2-y,-z
1/2+x,1/2-y,1/2+z
loop_
_atom_site_type_symbol
_atom_site_label
_atom_site_fract_x
_atom_site_fract_y
_atom_site_fract_z
Si Si1 0.439409 0.989133 0.668829
Si Si2 0.657424 0.643144 0.276200
Si Si3 0.849354 0.864203 0.044901
Si Si4 0.337252 0.117701 0.128702
Si Si5 0.169104 0.604697 0.694501
Si Si6 0.504353 0.560580 0.410516
Si Si7 0.084907 0.261352 0.992963
Si Si8 0.403120 0.770210 0.187835
O O1 0.500000 0.983096 0.750000
O O2 0.387904 0.928255 0.684225
O O3 0.500000 0.000000 0.500000
O O4 0.374902 0.044156 0.720608
O O5 0.654988 0.644011 0.114303
O O6 0.744087 0.615658 0.257595
O O7 0.583965 0.600676 0.389109
O O8 0.650702 0.713812 0.329208
O O9 0.867796 0.798469 0.098167
O O10 0.924653 0.905702 0.028250
O O11 0.765052 0.894901 0.162070
O O12 0.344046 0.104451 0.960153
O O13 0.373272 0.184483 0.123454
O O14 0.132789 0.662413 0.806897
O O15 0.500000 0.547606 0.250000
O O16 0.500000 0.500000 0.500000
O O17 0.091586 0.264862 0.152134
O O18 0.988021 0.262792 0.038917
#
# Coordination Sequence:
#
# PCOD8136171 Si02
#       8
#     8   8   8   8   8   8   8   8
#     4  12  24  40  55  77 111 147 187 224 271 326
#     4   9  17  31  51  81 110 137 176 225 275 318
#     4   9  17  31  51  81 110 137 178 226 270 317
#     4  10  20  33  53  79 108 141 181 225 271 324
#     4  10  20  32  53  80 109 141 181 225 270 320
#     4  10  20  34  53  77 111 144 176 216 267 321
#     4   9  15  27  50  78 109 138 172 223 277 317
#     4   9  15  26  49  79 110 137 171 225 278 313
#
# _framework density 18.441929999999999
#
# number of rings (size 3 to 8) (size 9 to 14) (size 15 to 20)
#    0.000    2.250    2.500    1.500    3.500    3.000 
#    0.000    0.000    0.000    0.750    0.000    4.375 
#    0.000    0.000    0.000    0.000    0.000    0.000 
#
# Total GULP energy -396500.684226 kJ/mol
# GULP energy per Si atom -12390.646382 kJ/mol
# Density = 1.839996 g / cm^3
# Si number density = 18.441930 Si / 1000 Ang^3
#
#
#
# Elastic Constant Matrix: (Units=GPa)
#
#
# Indices 1 2 3 4 5 6 
#
# 1 116.4817 81.4960 51.0022 0.0000 -40.9657 0.0000
# 2 81.4960 176.8988 51.9765 0.0000 -25.1751 0.0000
# 3 51.0022 51.9765 53.6549 0.0000 -22.0225 0.0000
# 4 0.0000 0.0000 0.0000 26.9075 0.0000 -7.4612
# 5 -40.9657 -25.1751 -22.0225 0.0000 30.7876 0.0000
# 6 0.0000 0.0000 0.0000 -7.4612 0.0000 31.7118
#
#
#
# Elastic Compliance Matrix: (Units=1/GPa)
#
#
# Indices 1 2 3 4 5 6 
#
# 1 0.023216 -0.005266 -0.008572 0.000000 0.020453 0.000000
# 2 -0.005266 0.009139 -0.005176 0.000000 -0.003236 0.000000
# 3 -0.008572 -0.005176 0.035930 0.000000 0.010063 0.000000
# 4 0.000000 0.000000 0.000000 0.039758 0.000000 0.009354
# 5 0.020453 -0.003236 0.010063 0.000000 0.064248 0.000000
# 6 0.000000 0.000000 0.000000 0.009354 0.000000 0.033735
#
#
# Mechanical properties :
#
#
# Convention : Reuss Voigt Hill
#
# Bulk Modulus (GPa) = 33.04948 79.55387 56.30168
# Shear Modulus (GPa) = 19.67427 28.71877 24.19652
#
# Velocity S-wave (km/s) = 3.26977 3.95049 3.62614
# Velocity P-wave (km/s) = 5.67582 8.00247 6.93738
#
# Compressibility (1/GPa) = 0.03025766
#
# Stress axis : x y z
#
# Youngs Moduli (GPa) = 43.07393 109.41856 27.83198
#
# Poissons Ratio (x) = 0.57620 0.23857
# Poissons Ratio (y) = 0.22683 0.14406
# Poissons Ratio (z) = 0.36922 0.56634
#
# Static dielectric constant tensor:
#      x y z
#    x 3.737180 0.000000 -0.596900 
#    y 0.000000 3.564900 0.000000 
#    z -0.596900 0.000000 3.151460 
# 
# 
# High freq. dielectric constant tensor:
#      x y z
#    x 1.702750 0.000000 -0.047370 
#    y 0.000000 1.730310 0.000000 
#    z -0.047370 0.000000 1.676190 
# 
# From -- ./inp_files/107299.got.cif
#   From: 2010.06.25/outbox.cif.g09.slc.cpg/sg15_54_cif.got.tgz:107299.got - 2010.06.28 07:06:18.
