data_PCOD8136748
_publ_section_title
;
Structure prediction by ZEFSAII (Michael W. Deem and Ramdas Pophale) SiO2 
 PCOD8136748
Probable space group: C 2/C
;
_chemical_formula_sum "Si O2"
_cell_formula_units_Z 60
_cell_length_a 13.558744
_cell_length_b 23.773814
_cell_length_c 12.029047
_cell_angle_alpha 90.000000
_cell_angle_beta 123.643160
_cell_angle_gamma 90.000000
_cell_volume 3228.017994
_symmetry_space_group_name_H-M "C 2/C"
_symmetry_group_IT_number 15
_symmetry_cell_setting 'monoclinic'
loop_
_space_group_symop_operation_xyz
x,y,z
-x,y,1/2-z
-x,-y,-z
x,-y,1/2+z
1/2+x,1/2+y,z
1/2-x,1/2+y,1/2-z
1/2-x,1/2-y,-z
1/2+x,1/2-y,1/2+z
loop_
_atom_site_type_symbol
_atom_site_label
_atom_site_fract_x
_atom_site_fract_y
_atom_site_fract_z
Si Si1 0.694116 0.335109 0.008336
Si Si2 0.747969 0.078240 0.124217
Si Si3 0.069425 0.273252 0.407043
Si Si4 0.758938 0.414901 0.245600
Si Si5 0.367143 0.533731 0.644963
Si Si6 0.500000 0.091979 0.250000
Si Si7 0.502590 0.127626 0.498739
Si Si8 0.255805 0.961403 0.645136
O O1 0.667544 0.380473 0.894213
O O2 0.584330 0.291950 0.954141
O O3 0.804352 0.300351 0.033543
O O4 0.720598 0.364412 0.141861
O O5 0.609622 0.093186 0.023221
O O6 0.779513 0.079206 0.274467
O O7 0.769509 0.015258 0.095612
O O8 0.001455 0.307748 0.461380
O O9 0.000000 0.276675 0.250000
O O10 0.663007 0.417366 0.285497
O O11 0.757211 0.472922 0.176675
O O12 0.886314 0.404134 0.378991
O O13 0.500000 0.512118 0.750000
O O14 0.347979 0.554275 0.507034
O O15 0.505560 0.129537 0.365941
O O16 0.614858 0.052605 0.321180
#
# Coordination Sequence:
#
# PCOD8136748 Si02
#       8
#     8   8   8   8   8   4   8   8
#     4  10  20  37  56  86 113 142 192 235 293 335
#     4   9  21  35  54  85 115 153 186 235 279 336
#     4  10  20  35  59  84 111 145 187 244 289 340
#     4  11  21  35  61  83 116 156 188 238 292 337
#     4  11  23  38  53  79 122 163 194 220 275 356
#     4  10  20  34  62  88 122 142 188 244 288 338
#     4  10  20  36  61  87 114 147 191 246 300 327
#     4  10  21  34  56  89 117 156 192 227 278 355
#
# _framework density 18.587257000000001
#
# number of rings (size 3 to 8) (size 9 to 14) (size 15 to 20)
#    0.000    1.867    4.000    0.000    1.867    4.267 
#    2.400    0.000    1.467    0.800    0.000    0.000 
#    0.000    0.000    0.000    0.000    0.000    0.000 
#
# Total GULP energy -371863.120508 kJ/mol
# GULP energy per Si atom -12395.437350 kJ/mol
# Density = 1.854495 g / cm^3
# Si number density = 18.587257 Si / 1000 Ang^3
#
#
#
# Elastic Constant Matrix: (Units=GPa)
#
#
# Indices 1 2 3 4 5 6 
#
# 1 54.4843 22.6040 38.6186 0.0000 -8.8266 0.0000
# 2 22.6040 63.5406 32.1986 0.0000 -12.9035 0.0000
# 3 38.6186 32.1986 126.4154 0.0000 -18.1992 0.0000
# 4 0.0000 0.0000 0.0000 31.9993 0.0000 1.0363
# 5 -8.8266 -12.9035 -18.1992 0.0000 26.1328 0.0000
# 6 0.0000 0.0000 0.0000 1.0363 0.0000 22.5437
#
#
#
# Elastic Compliance Matrix: (Units=1/GPa)
#
#
# Indices 1 2 3 4 5 6 
#
# 1 0.025216 -0.005588 -0.006058 0.000000 0.001539 0.000000
# 2 -0.005588 0.020311 -0.002550 0.000000 0.006366 0.000000
# 3 -0.006058 -0.002550 0.011042 0.000000 0.004384 0.000000
# 4 0.000000 0.000000 0.000000 0.031297 0.000000 -0.001439
# 5 0.001539 0.006366 0.004384 0.000000 0.044982 0.000000
# 6 0.000000 0.000000 0.000000 -0.001439 0.000000 0.044424
#
#
# Mechanical properties :
#
#
# Convention : Reuss Voigt Hill
#
# Bulk Modulus (GPa) = 35.49096 47.92029 41.70562
# Shear Modulus (GPa) = 23.24979 26.20310 24.72645
#
# Velocity S-wave (km/s) = 3.54057 3.75872 3.65127
# Velocity P-wave (km/s) = 5.98747 6.68390 6.34525
#
# Compressibility (1/GPa) = 0.02817619
#
# Stress axis : x y z
#
# Youngs Moduli (GPa) = 39.65807 49.23553 90.56476
#
# Poissons Ratio (x) = 0.27512 0.54867
# Poissons Ratio (y) = 0.22160 0.23092
# Poissons Ratio (z) = 0.24026 0.12554
#
# Static dielectric constant tensor:
#      x y z
#    x 3.453910 0.000000 -0.266700 
#    y 0.000000 3.539940 0.000000 
#    z -0.266700 0.000000 3.531890 
# 
# 
# High freq. dielectric constant tensor:
#      x y z
#    x 1.709450 0.000000 -0.010500 
#    y 0.000000 1.700900 0.000000 
#    z -0.010500 0.000000 1.735650 
# 
# From -- ./inp_files/100676.got.cif
#   From: 2010.06.25/outbox.cif.g09.slc.cpg/sg15_51_cif.got.tgz:100676.got - 2010.06.28 07:06:18.
