data_PCOD8136901
_publ_section_title
;
Structure prediction by ZEFSAII (Michael W. Deem and Ramdas Pophale) SiO2 
 PCOD8136901
Probable space group: C 2/C
;
_chemical_formula_sum "Si O2"
_cell_formula_units_Z 64
_cell_length_a 13.951936
_cell_length_b 30.963813
_cell_length_c 19.748685
_cell_angle_alpha 90.000000
_cell_angle_beta 156.854305
_cell_angle_gamma 90.000000
_cell_volume 3353.494732
_symmetry_space_group_name_H-M "C 2/C"
_symmetry_group_IT_number 15
_symmetry_cell_setting 'monoclinic'
loop_
_space_group_symop_operation_xyz
x,y,z
-x,y,1/2-z
-x,-y,-z
x,-y,1/2+z
1/2+x,1/2+y,z
1/2-x,1/2+y,1/2-z
1/2-x,1/2-y,-z
1/2+x,1/2-y,1/2+z
loop_
_atom_site_type_symbol
_atom_site_label
_atom_site_fract_x
_atom_site_fract_y
_atom_site_fract_z
Si Si1 0.397803 0.920096 0.616070
Si Si2 0.766827 0.147399 0.146189
Si Si3 0.927254 0.565919 0.903451
Si Si4 0.544012 0.227755 0.412004
Si Si5 0.318831 0.797509 0.352329
Si Si6 0.246660 0.853890 0.706154
Si Si7 0.233149 0.486660 0.071958
Si Si8 0.965443 0.127168 0.895224
O O1 0.500000 0.942058 0.750000
O O2 0.609209 0.899129 0.706985
O O3 0.260889 0.958688 0.491404
O O4 0.217595 0.882336 0.522161
O O5 0.844975 0.152076 0.276028
O O6 0.000000 0.148989 0.250000
O O7 0.630289 0.102065 0.049110
O O8 0.595190 0.188141 0.012243
O O9 0.822924 0.547249 0.905256
O O10 0.710813 0.585172 0.716159
O O11 0.043076 0.525398 0.939643
O O12 0.750000 0.250000 0.500000
O O13 0.684145 0.216255 0.571591
O O14 0.308293 0.258967 0.272719
O O15 0.431136 0.184716 0.305155
O O16 0.154102 0.839170 0.233556
O O17 0.016329 0.854693 0.504403
O O18 0.500000 0.507743 0.250000
#
# Coordination Sequence:
#
# PCOD8136901 Si02
#       8
#     8   8   8   8   8   8   8   8
#     4  10  20  35  56  85 118 153 187 234 302 366
#     4  10  21  41  61  83 113 156 205 245 288 339
#     4  10  21  36  57  85 112 149 197 248 287 352
#     4  11  21  35  57  90 124 154 187 238 297 353
#     4  10  22  36  57  86 120 152 196 238 284 355
#     4  10  21  37  60  86 119 156 194 242 293 357
#     4  11  20  35  58  84 116 148 194 240 301 355
#     4  10  20  38  58  85 119 156 191 236 299 361
#
# _framework density 19.084568000000001
#
# number of rings (size 3 to 8) (size 9 to 14) (size 15 to 20)
#    0.000    1.750    2.500    2.250    0.000    3.000 
#    0.000   10.000    0.000    0.000    0.000    0.000 
#    0.000    0.000    0.000    0.000    0.000    0.000 
#
# Total GULP energy -396589.889854 kJ/mol
# GULP energy per Si atom -12393.434058 kJ/mol
# Density = 1.904113 g / cm^3
# Si number density = 19.084568 Si / 1000 Ang^3
#
#
#
# Elastic Constant Matrix: (Units=GPa)
#
#
# Indices 1 2 3 4 5 6 
#
# 1 103.1163 33.0924 56.4161 0.0000 1.7149 0.0004
# 2 33.0924 78.3576 42.0386 0.0004 -8.7898 0.0010
# 3 56.4161 42.0386 117.9617 0.0035 -10.9910 0.0057
# 4 0.0000 0.0004 0.0035 34.4448 0.0030 6.5262
# 5 1.7149 -8.7898 -10.9910 0.0030 27.9840 0.0017
# 6 0.0004 0.0010 0.0057 6.5262 0.0017 13.0321
#
#
#
# Elastic Compliance Matrix: (Units=1/GPa)
#
#
# Indices 1 2 3 4 5 6 
#
# 1 0.014068 -0.003207 -0.005978 0.000000 -0.004217 0.000003
# 2 -0.003207 0.016732 -0.004070 0.000000 0.003854 0.000000
# 3 -0.005978 -0.004070 0.013184 -0.000001 0.004266 -0.000006
# 4 0.000000 0.000000 -0.000001 0.032075 -0.000003 -0.016063
# 5 -0.004217 0.003854 0.004266 -0.000003 0.038879 -0.000006
# 6 0.000003 0.000000 -0.000006 -0.016063 -0.000006 0.084777
#
#
# Mechanical properties :
#
#
# Convention : Reuss Voigt Hill
#
# Bulk Modulus (GPa) = 57.22794 62.50332 59.86563
# Shear Modulus (GPa) = 21.54691 26.28473 23.91582
#
# Velocity S-wave (km/s) = 3.36374 3.71519 3.54383
# Velocity P-wave (km/s) = 6.71848 7.15719 6.94130
#
# Compressibility (1/GPa) = 0.01747398
#
# Stress axis : x y z
#
# Youngs Moduli (GPa) = 71.08409 59.76465 75.84732
#
# Poissons Ratio (x) = 0.19167 0.45342
# Poissons Ratio (y) = 0.22797 0.30871
# Poissons Ratio (z) = 0.42495 0.24325
#
# Static dielectric constant tensor:
#      x y z
#    x 3.207440 -0.000010 -0.089180 
#    y -0.000010 3.609680 -0.000030 
#    z -0.089180 -0.000030 3.809080 
# 
# 
# High freq. dielectric constant tensor:
#      x y z
#    x 1.712250 0.000000 -0.009010 
#    y 0.000000 1.747000 0.000000 
#    z -0.009010 0.000000 1.753200 
# 
# From -- ./inp_files/246007.got.cif
#   From: 2010.06.25/outbox.cif.g09.slc.cpg/sg15_124_cif.got.tgz:246007.got - 2010.06.28 07:06:18.
