data_PCOD8136953
_publ_section_title
;
Structure prediction by ZEFSAII (Michael W. Deem and Ramdas Pophale) SiO2 
 PCOD8136953
Probable space group: C 2/C
;
_chemical_formula_sum "Si O2"
_cell_formula_units_Z 52
_cell_length_a 11.576490
_cell_length_b 25.761098
_cell_length_c 8.998662
_cell_angle_alpha 90.000000
_cell_angle_beta 75.679997
_cell_angle_gamma 90.000000
_cell_volume 2600.227591
_symmetry_space_group_name_H-M "C 2/C"
_symmetry_group_IT_number 15
_symmetry_cell_setting 'monoclinic'
loop_
_space_group_symop_operation_xyz
x,y,z
-x,y,1/2-z
-x,-y,-z
x,-y,1/2+z
1/2+x,1/2+y,z
1/2-x,1/2+y,1/2-z
1/2-x,1/2-y,-z
1/2+x,1/2-y,1/2+z
loop_
_atom_site_type_symbol
_atom_site_label
_atom_site_fract_x
_atom_site_fract_y
_atom_site_fract_z
Si Si1 0.539355 0.397871 0.457596
Si Si2 0.500000 0.877213 0.250000
Si Si3 0.000000 0.039359 0.250000
Si Si4 0.000000 0.625096 0.250000
Si Si5 0.842022 0.051054 0.819563
Si Si6 0.583852 0.050556 0.975855
Si Si7 0.859447 0.684614 0.040721
Si Si8 0.913075 0.795845 0.916407
O O1 0.558501 0.424745 0.608419
O O2 0.656880 0.407864 0.317723
O O3 0.421714 0.422332 0.421851
O O4 0.525827 0.336595 0.490441
O O5 0.427795 0.914543 0.165366
O O6 0.407613 0.843397 0.376526
O O7 0.895430 0.001163 0.228267
O O8 0.087047 0.660156 0.324473
O O9 0.926165 0.586348 0.376878
O O10 0.719460 0.032499 0.929335
O O11 0.500000 0.000000 0.000000
O O12 0.715761 0.682006 0.095642
O O13 0.899962 0.744090 0.017470
O O14 0.000000 0.785828 0.750000
#
# Coordination Sequence:
#
# PCOD8136953 Si02
#       8
#     8   4   4   4   8   8   8   8
#     4  10  21  37  60  91 120 158 203 256 313 369
#     4  10  21  43  60  80 124 163 199 254 316 368
#     4  10  20  35  57  86 119 157 194 248 306 370
#     4  10  25  42  63  92 125 170 211 262 310 366
#     4  10  22  38  56  87 127 158 199 258 315 362
#     4  11  24  39  60  89 120 166 211 252 305 374
#     4  10  23  43  64  92 127 161 211 262 319 384
#     4  11  22  39  68  95 120 163 213 259 321 385
#
# _framework density 19.998249000000001
#
# number of rings (size 3 to 8) (size 9 to 14) (size 15 to 20)
#    0.000    1.846    1.538    3.231    2.154    8.615 
#    0.000    0.769    0.000    0.000    0.000    0.000 
#    0.000    0.000    0.000    0.000    0.000    0.000 
#
# Total GULP energy -322182.060363 kJ/mol
# GULP energy per Si atom -12391.617706 kJ/mol
# Density = 1.995273 g / cm^3
# Si number density = 19.998249 Si / 1000 Ang^3
#
#
#
# Elastic Constant Matrix: (Units=GPa)
#
#
# Indices 1 2 3 4 5 6 
#
# 1 107.9805 47.2755 53.7802 0.0000 -25.8659 0.0000
# 2 47.2755 132.4868 47.7801 0.0000 1.0971 0.0000
# 3 53.7802 47.7801 122.1707 0.0000 -1.6963 0.0000
# 4 0.0000 0.0000 0.0000 -76.1354 0.0000 -29.2402
# 5 -25.8659 1.0971 -1.6963 0.0000 35.4045 0.0000
# 6 0.0000 0.0000 0.0000 -29.2402 0.0000 22.1322
#
#
#
# Elastic Compliance Matrix: (Units=1/GPa)
#
#
# Indices 1 2 3 4 5 6 
#
# 1 0.016715 -0.004041 -0.005610 0.000000 0.012068 0.000000
# 2 -0.004041 0.009771 -0.002089 0.000000 -0.003355 0.000000
# 3 -0.005610 -0.002089 0.011423 0.000000 -0.003487 0.000000
# 4 0.000000 0.000000 0.000000 -0.008713 0.000000 -0.011512
# 5 0.012068 -0.003355 -0.003487 0.000000 0.036999 0.000000
# 6 0.000000 0.000000 0.000000 -0.011512 0.000000 0.029974
#
#
# Mechanical properties :
#
#
# Convention : Reuss Voigt Hill
#
# Bulk Modulus (GPa) = 69.30428 73.36776 71.33602
# Shear Modulus (GPa) = 40.17356 10.53372 25.35364
#
# Velocity S-wave (km/s) = 4.48689 2.29755 3.56447
# Velocity P-wave (km/s) = 7.84686 6.61854 7.25873
#
# Compressibility (1/GPa) = 0.01442912
#
# Stress axis : x y z
#
# Youngs Moduli (GPa) = 59.82562 102.34212 87.53927
#
# Poissons Ratio (x) = 0.41359 0.49110
# Poissons Ratio (y) = 0.24177 0.18287
# Poissons Ratio (z) = 0.33563 0.21380
#
# Static dielectric constant tensor:
#      x y z
#    x 3.522130 0.000000 -0.077680 
#    y 0.000000 3.839550 0.000000 
#    z -0.077680 0.000000 3.790710 
# 
# 
# High freq. dielectric constant tensor:
#      x y z
#    x 1.764380 0.000000 -0.009980 
#    y 0.000000 1.792940 0.000000 
#    z -0.009980 0.000000 1.794740 
# 
# From -- ./inp_files/33535.got.cif
#   From: 2010.06.25/outbox.cif.g09.slc.cpg/sg15_17_cif.got.tgz:33535.got - 2010.06.28 07:06:18.
