data_PCOD8136389
_publ_section_title
;
Structure prediction by ZEFSAII (Michael W. Deem and Ramdas Pophale) SiO2 
 PCOD8136389
Probable space group: C 2/C
;
_chemical_formula_sum "Si O2"
_cell_formula_units_Z 44
_cell_length_a 12.288860
_cell_length_b 26.799637
_cell_length_c 8.893709
_cell_angle_alpha 90.000000
_cell_angle_beta 130.159312
_cell_angle_gamma 90.000000
_cell_volume 2238.521439
_symmetry_space_group_name_H-M "C 2/C"
_symmetry_group_IT_number 15
_symmetry_cell_setting 'monoclinic'
loop_
_space_group_symop_operation_xyz
x,y,z
-x,y,1/2-z
-x,-y,-z
x,-y,1/2+z
1/2+x,1/2+y,z
1/2-x,1/2+y,1/2-z
1/2-x,1/2-y,-z
1/2+x,1/2-y,1/2+z
loop_
_atom_site_type_symbol
_atom_site_label
_atom_site_fract_x
_atom_site_fract_y
_atom_site_fract_z
Si Si1 0.094263 0.220477 0.192692
Si Si2 0.500000 0.508175 0.750000
Si Si3 0.885229 0.066713 0.383814
Si Si4 0.359833 0.836442 0.290009
Si Si5 0.437213 0.652445 0.855373
Si Si6 0.829434 0.359206 0.927577
O O1 0.132901 0.277958 0.238997
O O2 0.242232 0.190855 0.313623
O O3 0.000000 0.203212 0.250000
O O4 0.998511 0.206187 0.962199
O O5 0.390688 0.541878 0.554568
O O6 0.594622 0.475112 0.723961
O O7 0.734367 0.092872 0.215190
O O8 0.008240 0.109121 0.482276
O O9 0.234578 0.847462 0.297745
O O10 0.510177 0.853642 0.492995
O O11 0.329857 0.866078 0.108551
O O12 0.500000 0.639521 0.750000
#
# Coordination Sequence:
#
# PCOD8136389 Si02
#       6
#     8   4   8   8   8   8
#     4  11  19  35  59  87 117 164 216 239 267 338
#     4  10  20  38  70  86 112 140 202 244 296 372
#     4  10  21  39  62  93 108 151 193 245 299 360
#     4  11  20  34  59  88 124 161 199 245 281 338
#     4  11  23  37  56  86 126 159 197 240 292 350
#     4  10  20  33  59  94 118 148 200 253 291 328
#
# _framework density 19.655833000000001
#
# number of rings (size 3 to 8) (size 9 to 14) (size 15 to 20)
#    0.000    1.455    4.545    2.727    2.545    0.727 
#    0.000    3.636    0.000   19.636    0.000    0.000 
#    0.000    0.000    0.000    0.000    0.000    0.000 
#
# Total GULP energy -272755.055811 kJ/mol
# GULP energy per Si atom -12397.957082 kJ/mol
# Density = 1.961110 g / cm^3
# Si number density = 19.655833 Si / 1000 Ang^3
#
#
#
# Elastic Constant Matrix: (Units=GPa)
#
#
# Indices 1 2 3 4 5 6 
#
# 1 135.6121 33.9528 66.7298 0.0000 26.9214 0.0000
# 2 33.9528 92.6861 63.2302 0.0000 2.2449 0.0000
# 3 66.7298 63.2302 124.1169 0.0000 19.0371 0.0000
# 4 0.0000 0.0000 0.0000 38.6575 0.0000 -4.8055
# 5 26.9214 2.2449 19.0371 0.0000 38.8759 0.0000
# 6 0.0000 0.0000 0.0000 -4.8055 0.0000 2.1116
#
#
#
# Elastic Compliance Matrix: (Units=1/GPa)
#
#
# Indices 1 2 3 4 5 6 
#
# 1 0.010894 -0.000632 -0.004740 0.000000 -0.005187 0.000000
# 2 -0.000632 0.017006 -0.008910 0.000000 0.003818 0.000000
# 3 -0.004740 -0.008910 0.015744 0.000000 -0.003913 0.000000
# 4 0.000000 0.000000 0.000000 0.036074 0.000000 0.082098
# 5 -0.005187 0.003818 -0.003913 0.000000 0.031010 0.000000
# 6 0.000000 0.000000 0.000000 0.082098 0.000000 0.660425
#
#
# Mechanical properties :
#
#
# Convention : Reuss Voigt Hill
#
# Bulk Modulus (GPa) = 66.30257 75.58228 70.94243
# Shear Modulus (GPa) = 6.21316 28.49582 17.35449
#
# Velocity S-wave (km/s) = 1.77984 3.81167 2.97462
# Velocity P-wave (km/s) = 6.16675 7.60974 6.92593
#
# Compressibility (1/GPa) = 0.01508237
#
# Stress axis : x y z
#
# Youngs Moduli (GPa) = 91.79392 58.80216 63.51502
#
# Poissons Ratio (x) = 0.03714 0.30104
# Poissons Ratio (y) = 0.05798 0.56590
# Poissons Ratio (z) = 0.43507 0.52391
#
# Static dielectric constant tensor:
#      x y z
#    x 3.422550 0.000000 0.120250 
#    y 0.000000 3.591480 0.000000 
#    z 0.120250 0.000000 3.783950 
# 
# 
# High freq. dielectric constant tensor:
#      x y z
#    x 1.742400 0.000000 0.007530 
#    y 0.000000 1.759970 0.000000 
#    z 0.007530 0.000000 1.769240 
# 
# From -- ./inp_files/33981.got.cif
#   From: 2010.06.25/outbox.cif.g09.slc.cpg/sg15_17_cif.got.tgz:33981.got - 2010.06.28 07:06:18.
