data_PCOD8136113
_publ_section_title
;
Structure prediction by ZEFSAII (Michael W. Deem and Ramdas Pophale) SiO2 
 PCOD8136113
Probable space group: C 2/C
;
_chemical_formula_sum "Si O2"
_cell_formula_units_Z 52
_cell_length_a 25.045135
_cell_length_b 9.162163
_cell_length_c 15.757698
_cell_angle_alpha 90.000000
_cell_angle_beta 127.912052
_cell_angle_gamma 90.000000
_cell_volume 2852.767094
_symmetry_space_group_name_H-M "C 2/C"
_symmetry_group_IT_number 15
_symmetry_cell_setting 'monoclinic'
loop_
_space_group_symop_operation_xyz
x,y,z
-x,y,1/2-z
-x,-y,-z
x,-y,1/2+z
1/2+x,1/2+y,z
1/2-x,1/2+y,1/2-z
1/2-x,1/2-y,-z
1/2+x,1/2-y,1/2+z
loop_
_atom_site_type_symbol
_atom_site_label
_atom_site_fract_x
_atom_site_fract_y
_atom_site_fract_z
Si Si1 0.775828 0.523497 0.713187
Si Si2 0.168955 0.752216 0.160895
Si Si3 0.140096 0.468961 0.357442
Si Si4 0.000000 0.010940 0.750000
Si Si5 0.784515 0.025716 0.513221
Si Si6 0.612819 0.714102 0.789200
Si Si7 0.107082 0.197713 0.422286
O O1 0.804848 0.413685 0.811565
O O2 0.735827 0.648989 0.722107
O O3 0.837925 0.586690 0.715922
O O4 0.726400 0.436349 0.598098
O O5 0.126495 0.791693 0.202696
O O6 0.119872 0.771805 0.033299
O O7 0.210047 0.493333 0.480275
O O8 0.099056 0.621169 0.308326
O O9 0.093758 0.349605 0.359276
O O10 0.048155 0.113539 0.741508
O O11 0.042161 0.907564 0.854406
O O12 0.820622 0.158585 0.595951
O O13 0.829478 0.878733 0.562429
#
# Coordination Sequence:
#
# PCOD8136113 Si02
#       7
#     8   8   8   4   8   8   8
#     4   8  19  28  49  83 114 135 165 206 280 322
#     4  10  20  31  52  85 112 137 166 225 268 313
#     4   9  18  32  55  81 105 137 174 216 264 330
#     4  10  24  40  54  70 102 156 194 214 254 318
#     4   8  17  32  51  82 106 142 168 207 268 337
#     4  10  20  35  55  77 108 143 185 214 263 311
#     4  10  20  35  55  79 109 142 182 217 261 312
#
# _framework density 18.227916
#
# number of rings (size 3 to 8) (size 9 to 14) (size 15 to 20)
#    0.923    1.846    0.000    0.923    2.154    2.462 
#    0.000    0.000    0.000    8.308    0.000    0.000 
#    0.000    0.000    0.000    0.000    0.000    0.000 
#
# Total GULP energy -322163.432247 kJ/mol
# GULP energy per Si atom -12390.901240 kJ/mol
# Density = 1.818643 g / cm^3
# Si number density = 18.227916 Si / 1000 Ang^3
#
#
#
# Elastic Constant Matrix: (Units=GPa)
#
#
# Indices 1 2 3 4 5 6 
#
# 1 64.7410 41.7357 27.6370 0.0000 -0.4429 0.0000
# 2 41.7357 91.4421 40.5504 0.0000 -7.4203 0.0000
# 3 27.6370 40.5504 76.1191 0.0000 -6.0943 0.0000
# 4 0.0000 0.0000 0.0000 27.0794 0.0000 -2.4620
# 5 -0.4429 -7.4203 -6.0943 0.0000 25.4628 0.0000
# 6 0.0000 0.0000 0.0000 -2.4620 0.0000 27.4913
#
#
#
# Elastic Compliance Matrix: (Units=1/GPa)
#
#
# Indices 1 2 3 4 5 6 
#
# 1 0.022833 -0.009018 -0.003736 0.000000 -0.003125 0.000000
# 2 -0.009018 0.018025 -0.006036 0.000000 0.003651 0.000000
# 3 -0.003736 -0.006036 0.017906 0.000000 0.002462 0.000000
# 4 0.000000 0.000000 0.000000 0.037232 0.000000 0.003334
# 5 -0.003125 0.003651 0.002462 0.000000 0.040872 0.000000
# 6 0.000000 0.000000 0.000000 0.003334 0.000000 0.036674
#
#
# Mechanical properties :
#
#
# Convention : Reuss Voigt Hill
#
# Bulk Modulus (GPa) = 47.20483 50.23870 48.72177
# Shear Modulus (GPa) = 22.91652 24.16531 23.54092
#
# Velocity S-wave (km/s) = 3.54958 3.64501 3.59761
# Velocity P-wave (km/s) = 6.53854 6.73320 6.63659
#
# Compressibility (1/GPa) = 0.02118427
#
# Stress axis : x y z
#
# Youngs Moduli (GPa) = 43.79545 55.47921 55.84653
#
# Poissons Ratio (x) = 0.50033 0.20865
# Poissons Ratio (y) = 0.39496 0.33706
# Poissons Ratio (z) = 0.16363 0.33485
#
# Static dielectric constant tensor:
#      x y z
#    x 3.104570 0.000000 0.035510 
#    y 0.000000 3.308090 0.000000 
#    z 0.035510 0.000000 3.185100 
# 
# 
# High freq. dielectric constant tensor:
#      x y z
#    x 1.680830 0.000000 -0.003680 
#    y 0.000000 1.709840 0.000000 
#    z -0.003680 0.000000 1.690840 
# 
# From -- ./inp_files/176264.got.cif
#   From: 2010.06.25/outbox.cif.g09.slc.cpg/sg15_89_cif.got.tgz:176264.got - 2010.06.28 07:06:18.
