data_PCOD8136829
_publ_section_title
;
Structure prediction by ZEFSAII (Michael W. Deem and Ramdas Pophale) SiO2 
 PCOD8136829
Probable space group: C 2/C
;
_chemical_formula_sum "Si O2"
_cell_formula_units_Z 56
_cell_length_a 9.707496
_cell_length_b 30.863708
_cell_length_c 12.063355
_cell_angle_alpha 90.000000
_cell_angle_beta 123.950517
_cell_angle_gamma 90.000000
_cell_volume 2998.129579
_symmetry_space_group_name_H-M "C 2/C"
_symmetry_group_IT_number 15
_symmetry_cell_setting 'monoclinic'
loop_
_space_group_symop_operation_xyz
x,y,z
-x,y,1/2-z
-x,-y,-z
x,-y,1/2+z
1/2+x,1/2+y,z
1/2-x,1/2+y,1/2-z
1/2-x,1/2-y,-z
1/2+x,1/2-y,1/2+z
loop_
_atom_site_type_symbol
_atom_site_label
_atom_site_fract_x
_atom_site_fract_y
_atom_site_fract_z
Si Si1 0.841483 0.052611 0.930047
Si Si2 0.512291 0.138917 0.937152
Si Si3 0.598182 0.044399 0.019711
Si Si4 0.045123 0.796222 0.396235
Si Si5 0.575793 0.804504 0.901618
Si Si6 0.620599 0.477059 0.705562
Si Si7 0.265508 0.352549 0.362958
O O1 0.695921 0.039818 0.948822
O O2 0.810386 0.021563 0.812445
O O3 0.837870 0.099995 0.877564
O O4 0.023670 0.048804 0.066501
O O5 0.365315 0.156100 0.793338
O O6 0.683956 0.148177 0.948760
O O7 0.488087 0.088022 0.958766
O O8 0.518113 0.166617 0.050747
O O9 0.727742 0.051678 0.179205
O O10 0.500000 0.000000 0.000000
O O11 0.227465 0.813889 0.508063
O O12 0.036366 0.745119 0.412235
O O13 0.000000 0.808714 0.250000
O O14 0.912600 0.817594 0.420429
O O15 0.500000 0.817813 0.750000
O O16 0.500000 0.490511 0.750000
#
# Coordination Sequence:
#
# PCOD8136829 Si02
#       7
#     8   8   8   8   8   8   8
#     4   9  19  35  53  79 107 145 194 236 281 338
#     4  10  21  38  58  87 119 151 198 244 287 355
#     4  10  20  35  54  77 114 153 185 236 291 333
#     4  10  20  39  64  86 115 158 191 238 297 357
#     4  10  22  40  60  88 122 148 192 245 297 348
#     4   9  18  34  52  74 109 148 186 237 281 333
#     4  10  20  36  62  85 113 153 195 242 291 348
#
# _framework density 18.678311999999998
#
# number of rings (size 3 to 8) (size 9 to 14) (size 15 to 20)
#    0.000    2.286    1.429    0.857    0.000    4.000 
#   10.286    2.143    0.000    0.000    0.000    0.000 
#    0.000    0.000    0.000    0.000    0.000    0.000 
#
# Total GULP energy -347163.460647 kJ/mol
# GULP energy per Si atom -12398.695023 kJ/mol
# Density = 1.863580 g / cm^3
# Si number density = 18.678312 Si / 1000 Ang^3
#
#
#
# Elastic Constant Matrix: (Units=GPa)
#
#
# Indices 1 2 3 4 5 6 
#
# 1 88.3325 59.7635 40.5545 0.0000 3.8472 0.0000
# 2 59.7635 82.6516 30.9297 0.0000 -5.8029 0.0000
# 3 40.5545 30.9297 97.8499 0.0000 -2.5016 0.0000
# 4 0.0000 0.0000 0.0000 26.5294 0.0000 -2.2755
# 5 3.8472 -5.8029 -2.5016 0.0000 25.7273 0.0000
# 6 0.0000 0.0000 0.0000 -2.2755 0.0000 38.7902
#
#
#
# Elastic Compliance Matrix: (Units=1/GPa)
#
#
# Indices 1 2 3 4 5 6 
#
# 1 0.025850 -0.017222 -0.005482 0.000000 -0.008283 0.000000
# 2 -0.017222 0.025383 -0.000675 0.000000 0.008235 0.000000
# 3 -0.005482 -0.000675 0.012754 0.000000 0.001908 0.000000
# 4 0.000000 0.000000 0.000000 0.037885 0.000000 0.002222
# 5 -0.008283 0.008235 0.001908 0.000000 0.042151 0.000000
# 6 0.000000 0.000000 0.000000 0.002222 0.000000 0.025910
#
#
# Mechanical properties :
#
#
# Convention : Reuss Voigt Hill
#
# Bulk Modulus (GPa) = 58.04111 59.03660 58.53886
# Shear Modulus (GPa) = 22.47872 27.38182 24.93027
#
# Velocity S-wave (km/s) = 3.47286 3.83295 3.65734
# Velocity P-wave (km/s) = 6.87187 7.15991 7.01737
#
# Compressibility (1/GPa) = 0.01722917
#
# Stress axis : x y z
#
# Youngs Moduli (GPa) = 38.68423 39.39722 78.40764
#
# Poissons Ratio (x) = 0.67850 0.42982
# Poissons Ratio (y) = 0.66622 0.05292
# Poissons Ratio (z) = 0.21206 0.02659
#
# Static dielectric constant tensor:
#      x y z
#    x 3.390050 0.000000 0.075310 
#    y 0.000000 3.347900 0.000000 
#    z 0.075310 0.000000 3.588680 
# 
# 
# High freq. dielectric constant tensor:
#      x y z
#    x 1.720340 0.000000 0.002340 
#    y 0.000000 1.715420 0.000000 
#    z 0.002340 0.000000 1.734540 
# 
# From -- ./inp_files/82663.got.cif
#   From: 2010.06.25/outbox.cif.g09.slc.cpg/sg15_42_cif.got.tgz:82663.got - 2010.06.28 07:06:18.
