data_PCOD8136436
_publ_section_title
;
Structure prediction by ZEFSAII (Michael W. Deem and Ramdas Pophale) SiO2 
 PCOD8136436
Probable space group: C 2/C
;
_chemical_formula_sum "Si O2"
_cell_formula_units_Z 64
_cell_length_a 14.059643
_cell_length_b 13.002503
_cell_length_c 28.208208
_cell_angle_alpha 90.000000
_cell_angle_beta 41.614010
_cell_angle_gamma 90.000000
_cell_volume 3424.649648
_symmetry_space_group_name_H-M "C 2/C"
_symmetry_group_IT_number 15
_symmetry_cell_setting 'monoclinic'
loop_
_space_group_symop_operation_xyz
x,y,z
-x,y,1/2-z
-x,-y,-z
x,-y,1/2+z
1/2+x,1/2+y,z
1/2-x,1/2+y,1/2-z
1/2-x,1/2-y,-z
1/2+x,1/2-y,1/2+z
loop_
_atom_site_type_symbol
_atom_site_label
_atom_site_fract_x
_atom_site_fract_y
_atom_site_fract_z
Si Si1 0.440195 0.578515 0.822275
Si Si2 0.583887 0.413352 0.830137
Si Si3 0.699319 0.067357 0.174816
Si Si4 0.324299 0.163353 0.169863
Si Si5 0.804101 0.786631 0.929601
Si Si6 0.157021 0.671484 0.677725
Si Si7 0.157096 0.463369 0.929601
Si Si8 0.973768 0.317357 0.825184
O O1 0.500000 0.534739 0.750000
O O2 0.524251 0.522054 0.833451
O O3 0.270790 0.556349 0.890206
O O4 0.466147 0.698850 0.814451
O O5 0.640942 0.425082 0.863102
O O6 0.709768 0.375000 0.750000
O O7 0.463726 0.327386 0.875850
O O8 0.677664 0.125000 0.131557
O O9 0.593384 0.125000 0.250000
O O10 0.659500 0.948850 0.185549
O O11 0.274603 0.272054 0.166549
O O12 0.341276 0.077386 0.124150
O O13 0.480247 0.175083 0.136898
O O14 0.808592 0.693651 0.890206
O O15 0.698261 0.875000 0.951159
O O16 0.750000 0.750000 0.000000
O O17 0.000000 0.715261 0.750000
O O18 0.000000 0.500000 0.000000
#
# Coordination Sequence:
#
# PCOD8136436 Si02
#       8
#     8   8   8   8   8   8   8   8
#     4  11  19  36  59  86 119 154 199 248 298 352
#     4  10  20  35  60  85 116 155 200 244 295 354
#     4  10  20  34  51  88 124 146 193 248 293 352
#     4  10  20  35  60  85 116 155 200 244 295 354
#     4  10  23  40  60  89 123 156 205 248 309 366
#     4  11  19  36  59  86 119 154 199 248 298 352
#     4  10  23  40  60  89 123 156 205 248 309 366
#     4  10  20  34  51  88 124 146 193 248 293 352
#
# _framework density 18.688043
#
# number of rings (size 3 to 8) (size 9 to 14) (size 15 to 20)
#    0.000    1.750    5.000    0.750    0.000    2.000 
#    0.000    1.250    0.000    0.000    0.000    0.000 
#    0.000    0.000    0.000    0.000    0.000    0.000 
#
# Total GULP energy -396641.374910 kJ/mol
# GULP energy per Si atom -12395.042966 kJ/mol
# Density = 1.864551 g / cm^3
# Si number density = 18.688043 Si / 1000 Ang^3
#
#
#
# Elastic Constant Matrix: (Units=GPa)
#
#
# Indices 1 2 3 4 5 6 
#
# 1 185.8851 62.3590 46.7388 0.0000 -1.1425 0.0000
# 2 62.3590 127.8076 35.2602 0.0000 -0.3322 0.0000
# 3 46.7388 35.2602 88.0699 0.0000 -0.0566 0.0000
# 4 0.0000 0.0000 0.0000 15.8131 0.0000 -0.0014
# 5 -1.1425 -0.3322 -0.0566 0.0000 22.9881 0.0000
# 6 0.0000 0.0000 0.0000 -0.0014 0.0000 15.9301
#
#
#
# Elastic Compliance Matrix: (Units=1/GPa)
#
#
# Indices 1 2 3 4 5 6 
#
# 1 0.006931 -0.002660 -0.002613 0.000000 0.000300 0.000000
# 2 -0.002660 0.009817 -0.002519 0.000000 0.000003 0.000000
# 3 -0.002613 -0.002519 0.013750 0.000000 -0.000132 0.000000
# 4 0.000000 0.000000 0.000000 0.063239 0.000000 0.000006
# 5 0.000300 0.000003 -0.000132 0.000000 0.043515 0.000000
# 6 0.000000 0.000000 0.000000 0.000006 0.000000 0.062774
#
#
# Mechanical properties :
#
#
# Convention : Reuss Voigt Hill
#
# Bulk Modulus (GPa) = 67.05103 76.71983 71.88543
# Shear Modulus (GPa) = 22.66741 28.10656 25.38698
#
# Velocity S-wave (km/s) = 3.48650 3.88233 3.68973
# Velocity P-wave (km/s) = 7.22251 7.82552 7.53005
#
# Compressibility (1/GPa) = 0.01491401
#
# Stress axis : x y z
#
# Youngs Moduli (GPa) = 144.28182 101.86423 72.72884
#
# Poissons Ratio (x) = 0.27096 0.19005
# Poissons Ratio (y) = 0.38379 0.18318
# Poissons Ratio (z) = 0.37702 0.25657
#
# Static dielectric constant tensor:
#      x y z
#    x 4.486670 0.000000 -0.018180 
#    y 0.000000 3.343850 0.000000 
#    z -0.018180 0.000000 3.003460 
# 
# 
# High freq. dielectric constant tensor:
#      x y z
#    x 1.753040 0.000000 -0.000840 
#    y 0.000000 1.729950 0.000000 
#    z -0.000840 0.000000 1.684350 
# 
# From -- ./inp_files/313588.got.cif
#   From: 2010.06.25/outbox.cif.g09.slc.cpg/sg15_157_cif.got.tgz:313588.got - 2010.06.28 07:06:18.
