data_PCOD8136703
_publ_section_title
;
Structure prediction by ZEFSAII (Michael W. Deem and Ramdas Pophale) SiO2 
 PCOD8136703
Probable space group: C 2/C
;
_chemical_formula_sum "Si O2"
_cell_formula_units_Z 64
_cell_length_a 17.474215
_cell_length_b 20.341717
_cell_length_c 26.367362
_cell_angle_alpha 90.000000
_cell_angle_beta 160.704801
_cell_angle_gamma 90.000000
_cell_volume 3096.980070
_symmetry_space_group_name_H-M "C 2/C"
_symmetry_group_IT_number 15
_symmetry_cell_setting 'monoclinic'
loop_
_space_group_symop_operation_xyz
x,y,z
-x,y,1/2-z
-x,-y,-z
x,-y,1/2+z
1/2+x,1/2+y,z
1/2-x,1/2+y,1/2-z
1/2-x,1/2-y,-z
1/2+x,1/2-y,1/2+z
loop_
_atom_site_type_symbol
_atom_site_label
_atom_site_fract_x
_atom_site_fract_y
_atom_site_fract_z
Si Si1 0.602830 0.911001 0.692914
Si Si2 0.072966 0.072832 0.852652
Si Si3 0.280121 0.823320 0.178162
Si Si4 0.642726 0.391385 0.546023
Si Si5 0.435432 0.300404 0.094254
Si Si6 0.486356 0.513456 0.094242
Si Si7 0.244139 0.286133 0.725734
Si Si8 0.773075 0.846522 0.470007
O O1 0.345888 0.938794 0.532245
O O2 0.673131 0.883546 0.792795
O O3 0.776797 0.968649 0.786239
O O4 0.612598 0.853810 0.655907
O O5 0.000080 0.146957 0.821951
O O6 0.000000 0.057257 0.750000
O O7 0.945391 0.021351 0.809949
O O8 0.171700 0.753625 0.129719
O O9 0.547030 0.834350 0.364154
O O10 0.286665 0.822857 0.122913
O O11 0.117952 0.882730 0.095693
O O12 0.687138 0.337119 0.530155
O O13 0.660777 0.463991 0.533252
O O14 0.675419 0.263983 0.228723
O O15 0.250000 0.250000 0.000000
O O16 0.331163 0.576673 0.008440
O O17 0.511911 0.300595 0.881554
#
# Coordination Sequence:
#
# PCOD8136703 Si02
#       8
#     8   8   8   8   8   8   8   8
#     4  11  22  40  65  89 125 162 201 263 306 367
#     4  11  26  43  61  88 122 167 206 251 304 370
#     4  10  20  34  60  88 124 156 196 251 304 361
#     4  10  21  38  61  98 123 159 204 256 319 355
#     4  10  21  39  62  93 123 162 201 254 309 368
#     4  10  23  40  63  92 123 157 210 248 315 364
#     4  10  20  37  57  88 126 154 198 241 309 364
#     4  10  21  36  60  90 119 161 199 251 303 359
#
# _framework density 20.665292999999998
#
# number of rings (size 3 to 8) (size 9 to 14) (size 15 to 20)
#    0.000    1.750    3.750    0.750    1.750    5.500 
#    0.000    0.000   16.500    0.000    0.000    0.000 
#    0.000    0.000    0.000    0.000    0.000    0.000 
#
# Total GULP energy -396502.170703 kJ/mol
# GULP energy per Si atom -12390.692834 kJ/mol
# Density = 2.061826 g / cm^3
# Si number density = 20.665293 Si / 1000 Ang^3
#
#
#
# Elastic Constant Matrix: (Units=GPa)
#
#
# Indices 1 2 3 4 5 6 
#
# 1 85.8706 32.6388 28.3582 0.0637 -13.9172 0.0339
# 2 32.6388 107.5713 22.1398 0.1442 -9.9765 0.0088
# 3 28.3582 22.1398 73.7483 -0.2359 2.2588 0.1856
# 4 0.0637 0.1442 -0.2359 18.5387 0.0020 6.7609
# 5 -13.9172 -9.9765 2.2588 0.0020 28.2360 0.0586
# 6 0.0339 0.0088 0.1856 6.7609 0.0586 39.8997
#
#
#
# Elastic Compliance Matrix: (Units=1/GPa)
#
#
# Indices 1 2 3 4 5 6 
#
# 1 0.015709 -0.003004 -0.005357 -0.000107 0.007110 0.000020
# 2 -0.003004 0.010895 -0.002194 -0.000112 0.002544 0.000026
# 3 -0.005357 -0.002194 0.016424 0.000286 -0.004729 -0.000113
# 4 -0.000107 -0.000112 0.000286 0.057500 -0.000099 -0.009744
# 5 0.007110 0.002544 -0.004729 -0.000099 0.040197 -0.000027
# 6 0.000020 0.000026 -0.000113 -0.009744 -0.000027 0.026715
#
#
# Mechanical properties :
#
#
# Convention : Reuss Voigt Hill
#
# Bulk Modulus (GPa) = 45.62394 48.16264 46.89329
# Shear Modulus (GPa) = 25.52899 29.60511 27.56705
#
# Velocity S-wave (km/s) = 3.51858 3.78908 3.65633
# Velocity P-wave (km/s) = 6.21552 6.51916 6.36915
#
# Compressibility (1/GPa) = 0.02191832
#
# Stress axis : x y z
#
# Youngs Moduli (GPa) = 63.65910 91.78211 60.88608
#
# Poissons Ratio (x) = 0.27574 0.32615
# Poissons Ratio (y) = 0.19125 0.13358
# Poissons Ratio (z) = 0.34100 0.20137
#
# Static dielectric constant tensor:
#      x y z
#    x 2.023910 0.001510 -6.351840 
#    y 0.001510 3.824220 0.004400 
#    z -6.351840 0.004400 -17.907490 
# 
# 
# High freq. dielectric constant tensor:
#      x y z
#    x 1.819510 0.000000 0.026490 
#    y 0.000000 1.813260 -0.000040 
#    z 0.026490 -0.000040 1.781030 
# 
# From -- ./inp_files/299521.got.cif
#   From: 2010.06.25/outbox.cif.g09.slc.cpg/sg15_150_cif.got.tgz:299521.got - 2010.06.28 07:06:18.
