data_PCOD8136208
_publ_section_title
;
Structure prediction by ZEFSAII (Michael W. Deem and Ramdas Pophale) SiO2 
 PCOD8136208
Probable space group: C 2/C
;
_chemical_formula_sum "Si O2"
_cell_formula_units_Z 52
_cell_length_a 24.768731
_cell_length_b 20.849311
_cell_length_c 8.926310
_cell_angle_alpha 90.000000
_cell_angle_beta 35.766748
_cell_angle_gamma 90.000000
_cell_volume 2694.276660
_symmetry_space_group_name_H-M "C 2/C"
_symmetry_group_IT_number 15
_symmetry_cell_setting 'monoclinic'
loop_
_space_group_symop_operation_xyz
x,y,z
-x,y,1/2-z
-x,-y,-z
x,-y,1/2+z
1/2+x,1/2+y,z
1/2-x,1/2+y,1/2-z
1/2-x,1/2-y,-z
1/2+x,1/2-y,1/2+z
loop_
_atom_site_type_symbol
_atom_site_label
_atom_site_fract_x
_atom_site_fract_y
_atom_site_fract_z
Si Si1 0.604075 0.532171 0.076365
Si Si2 0.290270 0.248252 0.142334
Si Si3 0.161956 0.919398 0.763620
Si Si4 0.500000 0.803625 0.750000
Si Si5 0.327607 0.161521 0.800185
Si Si6 0.887710 0.814351 0.406070
Si Si7 0.095323 0.844852 0.450686
O O1 0.500000 0.521317 0.250000
O O2 0.608644 0.547550 0.244124
O O3 0.664240 0.469872 0.896315
O O4 0.650175 0.592993 0.887684
O O5 0.237152 0.303537 0.173064
O O6 0.220265 0.199269 0.378987
O O7 0.352409 0.278866 0.131567
O O8 0.350724 0.207733 0.888249
O O9 0.268712 0.901476 0.481745
O O10 0.105180 0.856243 0.954731
O O11 0.570045 0.850674 0.500749
O O12 0.560735 0.753845 0.709819
O O13 0.923403 0.853957 0.183339
O O14 0.000000 0.843548 0.750000
#
# Coordination Sequence:
#
# PCOD8136208 Si02
#       7
#     8   8   8   4   8   8   8
#     4  11  24  35  55  78 110 148 187 222 269 325
#     4   9  17  34  52  78 112 145 183 218 278 323
#     4  11  22  40  55  80 112 147 186 229 269 326
#     4  10  20  32  58  86 104 148 182 214 290 330
#     4   9  18  34  56  80 109 145 181 231 270 330
#     4  10  22  32  57  80 114 146 179 223 276 329
#     4  11  21  33  51  83 115 146 178 225 264 331
#
# _framework density 19.300170999999999
#
# number of rings (size 3 to 8) (size 9 to 14) (size 15 to 20)
#    0.000    1.846    1.538    3.692    5.385    0.000 
#    0.000    0.000    0.000    0.923    0.000    0.000 
#    0.000    0.000    0.000    0.000    0.000    0.000 
#
# Total GULP energy -322093.575396 kJ/mol
# GULP energy per Si atom -12388.214438 kJ/mol
# Density = 1.925624 g / cm^3
# Si number density = 19.300171 Si / 1000 Ang^3
#
#
#
# Elastic Constant Matrix: (Units=GPa)
#
#
# Indices 1 2 3 4 5 6 
#
# 1 60.4963 29.3425 40.8218 0.0000 12.5218 0.0000
# 2 29.3425 75.4048 41.9133 0.0000 2.2551 0.0000
# 3 40.8218 41.9133 134.9916 0.0000 7.6081 0.0000
# 4 0.0000 0.0000 0.0000 84.3927 0.0000 28.8868
# 5 12.5218 2.2551 7.6081 0.0000 25.2816 0.0000
# 6 0.0000 0.0000 0.0000 28.8868 0.0000 37.7738
#
#
#
# Elastic Compliance Matrix: (Units=1/GPa)
#
#
# Indices 1 2 3 4 5 6 
#
# 1 0.025335 -0.006786 -0.004965 0.000000 -0.010449 0.000000
# 2 -0.006786 0.017846 -0.003650 0.000000 0.002868 0.000000
# 3 -0.004965 -0.003650 0.010056 0.000000 -0.000241 0.000000
# 4 0.000000 0.000000 0.000000 0.016051 0.000000 -0.012275
# 5 -0.010449 0.002868 -0.000241 0.000000 0.044546 0.000000
# 6 0.000000 0.000000 0.000000 -0.012275 0.000000 0.035860
#
#
# Mechanical properties :
#
#
# Convention : Reuss Voigt Hill
#
# Bulk Modulus (GPa) = 44.57706 55.00533 49.79120
# Shear Modulus (GPa) = 26.59922 40.07731 33.33826
#
# Velocity S-wave (km/s) = 3.71642 4.56184 4.16066
# Velocity P-wave (km/s) = 6.44690 7.50393 6.99541
#
# Compressibility (1/GPa) = 0.02243306
#
# Stress axis : x y z
#
# Youngs Moduli (GPa) = 39.47163 56.03577 99.43899
#
# Poissons Ratio (x) = 0.38026 0.49375
# Poissons Ratio (y) = 0.26786 0.36299
# Poissons Ratio (z) = 0.19599 0.20455
#
# Static dielectric constant tensor:
#      x y z
#    x 3.270450 0.000000 0.126710 
#    y 0.000000 3.765310 0.000000 
#    z 0.126710 0.000000 3.805420 
# 
# 
# High freq. dielectric constant tensor:
#      x y z
#    x 1.726860 0.000000 0.020950 
#    y 0.000000 1.728540 0.000000 
#    z 0.020950 0.000000 1.756600 
# 
# From -- ./inp_files/40779.got.cif
#   From: 2010.06.25/outbox.cif.g09.slc.cpg/sg15_21_cif.got.tgz:40779.got - 2010.06.28 07:06:18.
