data_PCOD8136851
_publ_section_title
;
Structure prediction by ZEFSAII (Michael W. Deem and Ramdas Pophale) SiO2 
 PCOD8136851
Probable space group: C 2/C
;
_chemical_formula_sum "Si O2"
_cell_formula_units_Z 64
_cell_length_a 29.544568
_cell_length_b 8.203727
_cell_length_c 14.090340
_cell_angle_alpha 90.000000
_cell_angle_beta 93.780234
_cell_angle_gamma 90.000000
_cell_volume 3407.723746
_symmetry_space_group_name_H-M "C 2/C"
_symmetry_group_IT_number 15
_symmetry_cell_setting 'monoclinic'
loop_
_space_group_symop_operation_xyz
x,y,z
-x,y,1/2-z
-x,-y,-z
x,-y,1/2+z
1/2+x,1/2+y,z
1/2-x,1/2+y,1/2-z
1/2-x,1/2-y,-z
1/2+x,1/2-y,1/2+z
loop_
_atom_site_type_symbol
_atom_site_label
_atom_site_fract_x
_atom_site_fract_y
_atom_site_fract_z
Si Si1 0.518603 0.107535 0.918279
Si Si2 0.132718 0.907633 0.334149
Si Si3 0.303114 0.731117 0.499249
Si Si4 0.363187 0.437175 0.860853
Si Si5 0.899872 0.842854 0.521425
Si Si6 0.136906 0.483782 0.482140
Si Si7 0.913371 0.580475 0.194621
Si Si8 0.920763 0.370512 0.370126
O O1 0.552258 0.250195 0.958852
O O2 0.472926 0.188369 0.868821
O O3 0.539879 0.987394 0.842698
O O4 0.500000 0.000000 0.000000
O O5 0.174643 0.834315 0.400170
O O6 0.092448 0.775851 0.313422
O O7 0.151929 0.962945 0.234251
O O8 0.110353 0.060409 0.383763
O O9 0.250000 0.750000 0.500000
O O10 0.318356 0.611781 0.415504
O O11 0.318937 0.916982 0.479626
O O12 0.389825 0.277682 0.830814
O O13 0.398776 0.537068 0.931461
O O14 0.860255 0.708250 0.494777
O O15 0.128438 0.499284 0.368443
O O16 0.092798 0.570156 0.525667
O O17 0.910199 0.526721 0.303020
#
# Coordination Sequence:
#
# PCOD8136851 Si02
#       8
#     8   8   8   8   8   8   8   8
#     4  11  21  35  55  78 112 150 203 239 275 342
#     4  10  21  38  57  84 117 148 192 237 294 353
#     4   9  20  40  63  85 114 149 188 238 292 357
#     4  10  21  37  59  84 116 151 189 243 298 348
#     4  10  20  36  57  81 116 153 190 241 293 335
#     4   9  18  36  57  78 107 151 186 224 288 358
#     4  10  20  35  55  76 109 153 191 233 281 340
#     4  11  20  36  56  78 111 154 199 234 283 345
#
# _framework density 18.780864000000001
#
# number of rings (size 3 to 8) (size 9 to 14) (size 15 to 20)
#    0.000    2.000    2.500    3.375    0.000    0.500 
#    0.000   10.000    0.000    0.000    0.000    0.000 
#    0.000    0.000    0.000    0.000    0.000    0.000 
#
# Total GULP energy -396576.038661 kJ/mol
# GULP energy per Si atom -12393.001208 kJ/mol
# Density = 1.873812 g / cm^3
# Si number density = 18.780864 Si / 1000 Ang^3
#
#
#
# Elastic Constant Matrix: (Units=GPa)
#
#
# Indices 1 2 3 4 5 6 
#
# 1 131.6824 53.4048 39.2914 0.0000 -5.9521 0.0000
# 2 53.4048 110.3416 34.5406 0.0000 -5.1185 0.0000
# 3 39.2914 34.5406 102.9966 0.0000 -3.0761 0.0000
# 4 0.0000 0.0000 0.0000 35.6247 0.0000 -0.0059
# 5 -5.9521 -5.1185 -3.0761 0.0000 16.3122 0.0000
# 6 0.0000 0.0000 0.0000 -0.0059 0.0000 22.4347
#
#
#
# Elastic Compliance Matrix: (Units=1/GPa)
#
#
# Indices 1 2 3 4 5 6 
#
# 1 0.010030 -0.004005 -0.002425 0.000000 0.001946 0.000000
# 2 -0.004005 0.011832 -0.002386 0.000000 0.001801 0.000000
# 3 -0.002425 -0.002386 0.011450 0.000000 0.000526 0.000000
# 4 0.000000 0.000000 0.000000 0.028070 0.000000 0.000007
# 5 0.001946 0.001801 0.000526 0.000000 0.062678 0.000000
# 6 0.000000 0.000000 0.000000 0.000007 0.000000 0.044574
#
#
# Mechanical properties :
#
#
# Convention : Reuss Voigt Hill
#
# Bulk Modulus (GPa) = 63.77885 66.61048 65.19466
# Shear Modulus (GPa) = 26.11065 29.39324 27.75194
#
# Velocity S-wave (km/s) = 3.73269 3.96038 3.84822
# Velocity P-wave (km/s) = 7.25331 7.51379 7.38470
#
# Compressibility (1/GPa) = 0.01567918
#
# Stress axis : x y z
#
# Youngs Moduli (GPa) = 99.70279 84.51875 87.33576
#
# Poissons Ratio (x) = 0.33850 0.21179
# Poissons Ratio (y) = 0.39931 0.20840
# Poissons Ratio (z) = 0.24178 0.20168
#
# Static dielectric constant tensor:
#      x y z
#    x 3.252220 0.000000 -0.000330 
#    y 0.000000 3.641010 0.000000 
#    z -0.000330 0.000000 3.491910 
# 
# 
# High freq. dielectric constant tensor:
#      x y z
#    x 1.691480 0.000000 -0.001840 
#    y 0.000000 1.737300 0.000000 
#    z -0.001840 0.000000 1.739150 
# 
# From -- ./inp_files/180537.got.cif
#   From: 2010.06.25/outbox.cif.g09.slc.cpg/sg15_91_cif.got.tgz:180537.got - 2010.06.28 07:06:18.
