data_PCOD8136971
_publ_section_title
;
Structure prediction by ZEFSAII (Michael W. Deem and Ramdas Pophale) SiO2 
 PCOD8136971
Probable space group: C 2/C
;
_chemical_formula_sum "Si O2"
_cell_formula_units_Z 56
_cell_length_a 15.865462
_cell_length_b 9.259493
_cell_length_c 24.024458
_cell_angle_alpha 90.000000
_cell_angle_beta 53.809479
_cell_angle_gamma 90.000000
_cell_volume 2848.382325
_symmetry_space_group_name_H-M "C 2/C"
_symmetry_group_IT_number 15
_symmetry_cell_setting 'monoclinic'
loop_
_space_group_symop_operation_xyz
x,y,z
-x,y,1/2-z
-x,-y,-z
x,-y,1/2+z
1/2+x,1/2+y,z
1/2-x,1/2+y,1/2-z
1/2-x,1/2-y,-z
1/2+x,1/2-y,1/2+z
loop_
_atom_site_type_symbol
_atom_site_label
_atom_site_fract_x
_atom_site_fract_y
_atom_site_fract_z
Si Si1 0.515451 0.283221 0.144851
Si Si2 0.417186 0.995158 0.332896
Si Si3 0.856825 0.780252 0.925733
Si Si4 0.499974 0.490944 0.565180
Si Si5 0.712424 0.363135 0.237771
Si Si6 0.394325 0.516762 0.314556
Si Si7 0.762845 0.060525 0.178403
O O1 0.549430 0.363807 0.074066
O O2 0.391475 0.288387 0.198401
O O3 0.568612 0.363685 0.175836
O O4 0.550783 0.118290 0.135460
O O5 0.500000 0.976846 0.250000
O O6 0.407345 0.858760 0.376963
O O7 0.304540 0.035245 0.350717
O O8 0.834433 0.889889 0.883955
O O9 0.939075 0.849432 0.936887
O O10 0.750000 0.750000 0.000000
O O11 0.500000 0.500000 0.500000
O O12 0.380847 0.488571 0.628367
O O13 0.687979 0.486515 0.201787
O O14 0.775372 0.229014 0.188402
O O15 0.780951 0.450870 0.256780
O O16 0.500000 0.596369 0.250000
#
# Coordination Sequence:
#
# PCOD8136971 Si02
#       7
#     8   8   8   8   8   8   8
#     4   9  18  39  64  88 120 158 201 251 299 374
#     4  12  22  39  65  98 124 156 207 267 309 365
#     4  11  25  41  61  89 126 164 211 254 308 373
#     4  10  23  45  62  83 123 172 206 246 311 378
#     4  10  20  35  57  94 125 152 198 254 313 357
#     4   9  17  38  63  86 118 164 201 242 307 376
#     4  11  23  35  63  91 127 154 202 255 314 363
#
# _framework density 19.660281999999999
#
# number of rings (size 3 to 8) (size 9 to 14) (size 15 to 20)
#    0.000    1.714    2.857    2.571    4.000    0.000 
#    2.571    2.857    0.000    0.000    0.000    0.000 
#    0.000    0.000    0.000    0.000    0.000    0.000 
#
# Total GULP energy -346999.826684 kJ/mol
# GULP energy per Si atom -12392.850953 kJ/mol
# Density = 1.961553 g / cm^3
# Si number density = 19.660282 Si / 1000 Ang^3
#
#
#
# Elastic Constant Matrix: (Units=GPa)
#
#
# Indices 1 2 3 4 5 6 
#
# 1 95.6351 48.1006 38.2322 0.0000 18.3179 0.0001
# 2 48.1006 132.0472 59.6039 0.0000 13.8322 0.0004
# 3 38.2322 59.6039 90.7863 0.0000 17.5603 0.0000
# 4 0.0000 0.0000 0.0000 23.1202 0.0000 0.0920
# 5 18.3179 13.8322 17.5603 0.0000 34.3770 0.0000
# 6 0.0001 0.0004 0.0000 0.0920 0.0000 21.3544
#
#
#
# Elastic Compliance Matrix: (Units=1/GPa)
#
#
# Indices 1 2 3 4 5 6 
#
# 1 0.014210 -0.003399 -0.002832 0.000000 -0.004757 0.000000
# 2 -0.003399 0.011596 -0.006246 0.000000 0.000336 0.000000
# 3 -0.002832 -0.006246 0.017233 0.000000 -0.004781 0.000000
# 4 0.000000 0.000000 0.000000 0.043253 0.000000 -0.000186
# 5 -0.004757 0.000336 -0.004781 0.000000 0.033931 0.000000
# 6 0.000000 0.000000 0.000000 -0.000186 0.000000 0.046830
#
#
# Mechanical properties :
#
#
# Convention : Reuss Voigt Hill
#
# Bulk Modulus (GPa) = 55.30154 67.81579 61.55866
# Shear Modulus (GPa) = 25.24810 27.27244 26.26027
#
# Velocity S-wave (km/s) = 3.58749 3.72853 3.65869
# Velocity P-wave (km/s) = 6.73422 7.28729 7.01621
#
# Compressibility (1/GPa) = 0.01808268
#
# Stress axis : x y z
#
# Youngs Moduli (GPa) = 70.37538 86.23943 58.02793
#
# Poissons Ratio (x) = 0.29317 0.16433
# Poissons Ratio (y) = 0.23924 0.36246
# Poissons Ratio (z) = 0.19930 0.53868
#
# Static dielectric constant tensor:
#      x y z
#    x 3.540320 0.000000 0.039680 
#    y 0.000000 3.590930 0.000000 
#    z 0.039680 0.000000 3.266510 
# 
# 
# High freq. dielectric constant tensor:
#      x y z
#    x 1.768710 0.000000 0.012960 
#    y 0.000000 1.771080 0.000000 
#    z 0.012960 0.000000 1.746730 
# 
# From -- ./inp_files/273061.got.cif
#   From: 2010.06.25/outbox.cif.g09.slc.cpg/sg15_137_cif.got.tgz:273061.got - 2010.06.28 07:06:18.
