data_PCOD8136024
_publ_section_title
;
Structure prediction by ZEFSAII (Michael W. Deem and Ramdas Pophale) SiO2 
 PCOD8136024
Probable space group: C 2/C
;
_chemical_formula_sum "Si O2"
_cell_formula_units_Z 40
_cell_length_a 11.598266
_cell_length_b 18.740882
_cell_length_c 16.467183
_cell_angle_alpha 90.000000
_cell_angle_beta 150.109381
_cell_angle_gamma 90.000000
_cell_volume 1783.746781
_symmetry_space_group_name_H-M "C 2/C"
_symmetry_group_IT_number 15
_symmetry_cell_setting 'monoclinic'
loop_
_space_group_symop_operation_xyz
x,y,z
-x,y,1/2-z
-x,-y,-z
x,-y,1/2+z
1/2+x,1/2+y,z
1/2-x,1/2+y,1/2-z
1/2-x,1/2-y,-z
1/2+x,1/2-y,1/2+z
loop_
_atom_site_type_symbol
_atom_site_label
_atom_site_fract_x
_atom_site_fract_y
_atom_site_fract_z
Si Si1 0.042639 0.123353 0.421977
Si Si2 0.651837 0.344942 0.263237
Si Si3 0.000000 0.214387 0.250000
Si Si4 0.531427 0.263240 0.036251
Si Si5 0.500000 0.048046 0.750000
Si Si6 0.692238 0.491483 0.188202
O O1 0.277060 0.096672 0.605431
O O2 0.122328 0.164752 0.391013
O O3 0.915195 0.175971 0.408376
O O4 0.858677 0.060460 0.286547
O O5 0.500000 0.358060 0.250000
O O6 0.524576 0.288936 0.125522
O O7 0.897164 0.311514 0.442497
O O8 0.684188 0.419936 0.236659
O O9 0.798918 0.259646 0.169987
O O10 0.555763 0.001792 0.702602
O O11 0.500000 0.500000 0.000000
#
# Coordination Sequence:
#
# PCOD8136024 Si02
#       6
#     8   8   4   8   4   8
#     4  11  23  42  67 103 134 174 235 282 356 405
#     4  12  26  46  70 101 145 187 235 282 347 423
#     4  12  25  40  72 108 135 174 234 300 341 416
#     4  12  24  46  71 103 141 184 231 290 350 413
#     4  10  19  42  70  90 131 178 224 284 341 414
#     4  10  22  43  68  97 132 181 225 283 346 406
#
# _framework density 22.424707000000001
#
# number of rings (size 3 to 8) (size 9 to 14) (size 15 to 20)
#    0.000    0.800    6.000    3.000    1.400    0.000 
#    9.000    2.000    0.000    0.000    0.000    0.000 
#    0.000    0.000    0.000    0.000    0.000    0.000 
#
# Total GULP energy -247809.083206 kJ/mol
# GULP energy per Si atom -12390.454160 kJ/mol
# Density = 2.237367 g / cm^3
# Si number density = 22.424707 Si / 1000 Ang^3
#
#
#
# Elastic Constant Matrix: (Units=GPa)
#
#
# Indices 1 2 3 4 5 6 
#
# 1 164.3949 59.4039 35.3626 0.0048 6.8461 0.0088
# 2 59.4039 135.3379 41.3668 0.0091 12.8138 0.0257
# 3 35.3626 41.3668 48.3967 0.0219 3.7851 0.0271
# 4 0.0048 0.0091 0.0219 32.8503 0.0081 -8.4698
# 5 6.8461 12.8138 3.7851 0.0081 37.9573 0.0059
# 6 0.0088 0.0257 0.0271 -8.4698 0.0059 3.9471
#
#
#
# Elastic Compliance Matrix: (Units=1/GPa)
#
#
# Indices 1 2 3 4 5 6 
#
# 1 0.007693 -0.002219 -0.003703 0.000018 -0.000269 0.000061
# 2 -0.002219 0.010892 -0.007491 0.000000 -0.002530 -0.000010
# 3 -0.003703 -0.007491 0.029753 -0.000124 0.000230 -0.000413
# 4 0.000018 0.000000 -0.000124 0.068142 -0.000028 0.146222
# 5 -0.000269 -0.002530 0.000230 -0.000028 0.027225 -0.000086
# 6 0.000061 -0.000010 -0.000413 0.146222 -0.000086 0.567127
#
#
# Mechanical properties :
#
#
# Convention : Reuss Voigt Hill
#
# Bulk Modulus (GPa) = 46.48505 68.93291 57.70898
# Shear Modulus (GPa) = 6.71296 29.08402 17.89849
#
# Velocity S-wave (km/s) = 1.73207 3.60524 2.82824
# Velocity P-wave (km/s) = 4.97740 6.93807 6.03785
#
# Compressibility (1/GPa) = 0.02151229
#
# Stress axis : x y z
#
# Youngs Moduli (GPa) = 129.99585 91.81026 33.60996
#
# Poissons Ratio (x) = 0.20375 0.12446
# Poissons Ratio (y) = 0.28849 0.25176
# Poissons Ratio (z) = 0.48137 0.68771
#
# Static dielectric constant tensor:
#      x y z
#    x 5.139020 -0.000050 0.316500 
#    y -0.000050 4.692560 -0.000040 
#    z 0.316500 -0.000040 4.060740 
# 
# 
# High freq. dielectric constant tensor:
#      x y z
#    x 1.894800 0.000000 -0.006670 
#    y 0.000000 1.891490 0.000000 
#    z -0.006670 0.000000 1.858880 
# 
# From -- ./inp_files/88282.got.cif
#   From: 2010.06.25/outbox.cif.g09.slc.cpg/sg15_45_cif.got.tgz:88282.got - 2010.06.28 07:06:18.
