data_PCOD8136157
_publ_section_title
;
Structure prediction by ZEFSAII (Michael W. Deem and Ramdas Pophale) SiO2 
 PCOD8136157
Probable space group: C 2/C
;
_chemical_formula_sum "Si O2"
_cell_formula_units_Z 56
_cell_length_a 24.088921
_cell_length_b 15.472556
_cell_length_c 9.626187
_cell_angle_alpha 90.000000
_cell_angle_beta 57.461709
_cell_angle_gamma 90.000000
_cell_volume 3024.669008
_symmetry_space_group_name_H-M "C 2/C"
_symmetry_group_IT_number 15
_symmetry_cell_setting 'monoclinic'
loop_
_space_group_symop_operation_xyz
x,y,z
-x,y,1/2-z
-x,-y,-z
x,-y,1/2+z
1/2+x,1/2+y,z
1/2-x,1/2+y,1/2-z
1/2-x,1/2-y,-z
1/2+x,1/2-y,1/2+z
loop_
_atom_site_type_symbol
_atom_site_label
_atom_site_fract_x
_atom_site_fract_y
_atom_site_fract_z
Si Si1 0.698937 0.032315 0.343469
Si Si2 0.693457 0.786519 0.979214
Si Si3 0.740570 0.895618 0.509762
Si Si4 0.939865 0.335530 0.227453
Si Si5 0.929069 0.483055 0.653245
Si Si6 0.028782 0.698440 0.352556
Si Si7 0.336275 0.734329 0.779527
O O1 0.710429 0.114199 0.426138
O O2 0.742000 0.042194 0.143271
O O3 0.622483 0.027296 0.402513
O O4 0.719091 0.947492 0.401060
O O5 0.622090 0.775931 0.149285
O O6 0.750000 0.750000 0.000000
O O7 0.692675 0.733540 0.836998
O O8 0.688635 0.818257 0.602671
O O9 0.812342 0.853409 0.387407
O O10 0.911715 0.434519 0.272487
O O11 0.000000 0.322930 0.250000
O O12 0.967314 0.310109 0.039742
O O13 0.934312 0.393008 0.729050
O O14 0.000000 0.500000 0.500000
O O15 0.084265 0.764499 0.333818
O O16 0.000000 0.736768 0.250000
#
# Coordination Sequence:
#
# PCOD8136157 Si02
#       7
#     8   8   8   8   8   8   8
#     4  11  22  39  56  89 115 161 202 237 293 360
#     4  11  23  37  59  88 121 158 203 248 294 353
#     4  10  23  37  61  77 121 156 195 249 294 340
#     4  11  21  36  55  82 121 160 200 238 281 356
#     4  10  20  32  50  82 121 155 193 227 270 351
#     4  11  22  35  56  83 118 163 197 231 300 353
#     4  10  22  41  54  84 123 157 198 252 297 338
#
# _framework density 18.514423000000001
#
# number of rings (size 3 to 8) (size 9 to 14) (size 15 to 20)
#    0.000    1.429    4.286    2.143    8.000    2.286 
#    0.000    0.000    0.000    0.000    0.000    5.000 
#    0.000    0.000    0.000    0.000    0.000    0.000 
#
# Total GULP energy -347079.736794 kJ/mol
# GULP energy per Si atom -12395.704886 kJ/mol
# Density = 1.847228 g / cm^3
# Si number density = 18.514423 Si / 1000 Ang^3
#
#
#
# Elastic Constant Matrix: (Units=GPa)
#
#
# Indices 1 2 3 4 5 6 
#
# 1 129.9180 51.5567 52.0361 0.0000 7.9643 0.0000
# 2 51.5567 54.7555 45.6102 0.0000 -0.4851 0.0000
# 3 52.0361 45.6102 115.1079 0.0000 4.8377 0.0000
# 4 0.0000 0.0000 0.0000 30.3992 0.0000 2.4266
# 5 7.9643 -0.4851 4.8377 0.0000 32.8196 0.0000
# 6 0.0000 0.0000 0.0000 2.4266 0.0000 31.9432
#
#
#
# Elastic Compliance Matrix: (Units=1/GPa)
#
#
# Indices 1 2 3 4 5 6 
#
# 1 0.012751 -0.010955 -0.001295 0.000000 -0.003065 0.000000
# 2 -0.010955 0.036804 -0.009827 0.000000 0.004651 0.000000
# 3 -0.001295 -0.009827 0.013241 0.000000 -0.001783 0.000000
# 4 0.000000 0.000000 0.000000 0.033096 0.000000 -0.002514
# 5 -0.003065 0.004651 -0.001783 0.000000 0.031545 0.000000
# 6 0.000000 0.000000 0.000000 -0.002514 0.000000 0.031497
#
#
# Mechanical properties :
#
#
# Convention : Reuss Voigt Hill
#
# Bulk Modulus (GPa) = 53.63465 66.46526 60.04996
# Shear Modulus (GPa) = 23.88903 29.07095 26.47999
#
# Velocity S-wave (km/s) = 3.59596 3.96685 3.78595
# Velocity P-wave (km/s) = 6.80245 7.54707 7.18441
#
# Compressibility (1/GPa) = 0.01864466
#
# Stress axis : x y z
#
# Youngs Moduli (GPa) = 78.42588 27.17081 75.52087
#
# Poissons Ratio (x) = 0.29765 0.09778
# Poissons Ratio (y) = 0.85913 0.74211
# Poissons Ratio (z) = 0.10154 0.26699
#
# Static dielectric constant tensor:
#      x y z
#    x 3.357110 0.000000 -0.015110 
#    y 0.000000 3.786850 0.000000 
#    z -0.015110 0.000000 4.174150 
# 
# 
# High freq. dielectric constant tensor:
#      x y z
#    x 1.709840 0.000000 0.003510 
#    y 0.000000 1.676780 0.000000 
#    z 0.003510 0.000000 1.733140 
# 
# From -- ./inp_files/61482.got.cif
#   From: 2010.06.25/outbox.cif.g09.slc.cpg/sg15_31_cif.got.tgz:61482.got - 2010.06.28 07:06:18.
