data_PCOD8136978
_publ_section_title
;
Structure prediction by ZEFSAII (Michael W. Deem and Ramdas Pophale) SiO2 
 PCOD8136978
Probable space group: C 2/C
;
_chemical_formula_sum "Si O2"
_cell_formula_units_Z 56
_cell_length_a 21.502298
_cell_length_b 16.379670
_cell_length_c 8.648889
_cell_angle_alpha 90.000000
_cell_angle_beta 99.868777
_cell_angle_gamma 90.000000
_cell_volume 3001.069248
_symmetry_space_group_name_H-M "C 2/C"
_symmetry_group_IT_number 15
_symmetry_cell_setting 'monoclinic'
loop_
_space_group_symop_operation_xyz
x,y,z
-x,y,1/2-z
-x,-y,-z
x,-y,1/2+z
1/2+x,1/2+y,z
1/2-x,1/2+y,1/2-z
1/2-x,1/2-y,-z
1/2+x,1/2-y,1/2+z
loop_
_atom_site_type_symbol
_atom_site_label
_atom_site_fract_x
_atom_site_fract_y
_atom_site_fract_z
Si Si1 0.905828 0.825806 0.366913
Si Si2 0.528401 0.331140 0.594531
Si Si3 0.744391 0.483499 0.741916
Si Si4 0.437079 0.499911 0.286401
Si Si5 0.852119 0.222808 0.529701
Si Si6 0.227844 0.381354 0.010600
Si Si7 0.835521 0.922859 0.532962
O O1 0.886515 0.773241 0.211222
O O2 0.851770 0.829091 0.480017
O O3 0.975826 0.800618 0.449174
O O4 0.898999 0.924210 0.337984
O O5 0.500000 0.306763 0.750000
O O6 0.541194 0.428211 0.585909
O O7 0.595523 0.289517 0.581743
O O8 0.792306 0.432666 0.651778
O O9 0.776597 0.560640 0.840620
O O10 0.716956 0.418895 0.854819
O O11 0.688563 0.514563 0.608370
O O12 0.500000 0.457108 0.250000
O O13 0.399985 0.540929 0.129568
O O14 0.821065 0.309468 0.481299
O O15 0.799217 0.152078 0.512939
#
# Coordination Sequence:
#
# PCOD8136978 Si02
#       7
#     8   8   8   8   8   8   8
#     4  12  21  32  49  80 114 160 184 223 271 332
#     4  11  23  34  51  79 117 156 191 225 268 335
#     4  10  20  35  58  78 107 148 195 237 271 319
#     4  11  20  27  44  73 112 154 196 205 245 318
#     4  11  23  38  54  83 119 153 183 227 287 334
#     4  10  22  39  61  81 110 148 192 240 279 327
#     4  11  18  29  48  77 109 143 183 225 259 320
#
# _framework density 18.660017
#
# number of rings (size 3 to 8) (size 9 to 14) (size 15 to 20)
#    0.000    1.143    5.714    3.429    4.000    0.000 
#    0.000    3.571    0.000    0.000    0.000    7.000 
#    0.000    0.000    0.000    0.000    0.000    0.000 
#
# Total GULP energy -346865.574230 kJ/mol
# GULP energy per Si atom -12388.056222 kJ/mol
# Density = 1.861755 g / cm^3
# Si number density = 18.660017 Si / 1000 Ang^3
#
#
#
# Elastic Constant Matrix: (Units=GPa)
#
#
# Indices 1 2 3 4 5 6 
#
# 1 69.1342 29.9814 27.6904 0.0000 -5.8322 0.0000
# 2 29.9814 61.7942 27.6921 0.0000 -2.3464 0.0000
# 3 27.6904 27.6921 89.5233 0.0000 2.7495 0.0000
# 4 0.0000 0.0000 0.0000 21.4825 0.0000 -0.3871
# 5 -5.8322 -2.3464 2.7495 0.0000 24.7214 0.0000
# 6 0.0000 0.0000 0.0000 -0.3871 0.0000 23.5687
#
#
#
# Elastic Compliance Matrix: (Units=1/GPa)
#
#
# Indices 1 2 3 4 5 6 
#
# 1 0.019700 -0.007665 -0.003856 0.000000 0.004349 0.000000
# 2 -0.007665 0.021917 -0.004432 0.000000 0.000765 0.000000
# 3 -0.003856 -0.004432 0.013822 0.000000 -0.002868 0.000000
# 4 0.000000 0.000000 0.000000 0.046563 0.000000 0.000765
# 5 0.004349 0.000765 -0.002868 0.000000 0.041868 0.000000
# 6 0.000000 0.000000 0.000000 0.000765 0.000000 0.042442
#
#
# Mechanical properties :
#
#
# Convention : Reuss Voigt Hill
#
# Bulk Modulus (GPa) = 42.49399 43.46439 42.97919
# Shear Modulus (GPa) = 22.11775 22.96035 22.53905
#
# Velocity S-wave (km/s) = 3.44656 3.51159 3.47923
# Velocity P-wave (km/s) = 6.21776 6.30754 6.26281
#
# Compressibility (1/GPa) = 0.02353274
#
# Stress axis : x y z
#
# Youngs Moduli (GPa) = 50.76144 45.62693 72.34821
#
# Poissons Ratio (x) = 0.34973 0.27897
# Poissons Ratio (y) = 0.38908 0.32066
# Poissons Ratio (z) = 0.19573 0.20223
#
# Static dielectric constant tensor:
#      x y z
#    x 3.274470 0.000000 -0.090100 
#    y 0.000000 2.975690 0.000000 
#    z -0.090100 0.000000 3.802320 
# 
# 
# High freq. dielectric constant tensor:
#      x y z
#    x 1.704320 0.000000 -0.005780 
#    y 0.000000 1.660080 0.000000 
#    z -0.005780 0.000000 1.751080 
# 
# From -- ./inp_files/56130.got.cif
#   From: 2010.06.25/outbox.cif.g09.slc.cpg/sg15_29_cif.got.tgz:56130.got - 2010.06.28 07:06:18.
