data_PCOD8136756
_publ_section_title
;
Structure prediction by ZEFSAII (Michael W. Deem and Ramdas Pophale) SiO2 
 PCOD8136756
Probable space group: C 2/C
;
_chemical_formula_sum "Si O2"
_cell_formula_units_Z 56
_cell_length_a 19.589729
_cell_length_b 15.367315
_cell_length_c 17.461271
_cell_angle_alpha 90.000000
_cell_angle_beta 149.913094
_cell_angle_gamma 90.000000
_cell_volume 2635.185840
_symmetry_space_group_name_H-M "C 2/C"
_symmetry_group_IT_number 15
_symmetry_cell_setting 'monoclinic'
loop_
_space_group_symop_operation_xyz
x,y,z
-x,y,1/2-z
-x,-y,-z
x,-y,1/2+z
1/2+x,1/2+y,z
1/2-x,1/2+y,1/2-z
1/2-x,1/2-y,-z
1/2+x,1/2-y,1/2+z
loop_
_atom_site_type_symbol
_atom_site_label
_atom_site_fract_x
_atom_site_fract_y
_atom_site_fract_z
Si Si1 0.926040 0.788210 0.826145
Si Si2 0.515384 0.655575 0.854901
Si Si3 0.365519 0.168798 0.396059
Si Si4 0.049008 0.031731 0.213350
Si Si5 0.000000 0.595464 0.250000
Si Si6 0.360598 0.044636 0.520427
Si Si7 0.000000 0.684735 0.750000
Si Si8 0.315670 0.198591 0.181034
O O1 0.770435 0.787924 0.701621
O O2 0.981066 0.887355 0.872100
O O3 0.931221 0.742708 0.748548
O O4 0.014110 0.738774 0.975396
O O5 0.500000 0.649731 0.750000
O O6 0.520050 0.555519 0.889303
O O7 0.383884 0.706651 0.759737
O O8 0.653459 0.706027 0.012284
O O9 0.400909 0.079109 0.474864
O O10 0.347250 0.145080 0.289227
O O11 0.207922 0.011962 0.374676
O O12 0.000000 0.056106 0.250000
O O13 0.048298 0.537497 0.368204
O O14 0.120438 0.654527 0.332734
O O15 0.380706 0.124369 0.599387
#
# Coordination Sequence:
#
# PCOD8136756 Si02
#       8
#     8   8   8   8   4   8   4   8
#     4  10  20  38  63  94 131 170 200 255 306 377
#     4  11  24  42  66  94 119 158 221 261 303 362
#     4  10  23  41  60  93 133 160 205 248 324 370
#     4  10  20  34  62  94 127 154 209 258 309 350
#     4  11  22  40  69  86 120 162 221 250 314 355
#     4   9  21  38  60  95 127 161 205 260 302 375
#     4   9  18  34  65  94 126 170 213 240 300 377
#     4  12  25  43  67  89 121 167 207 265 311 377
#
# _framework density 21.250874
#
# number of rings (size 3 to 8) (size 9 to 14) (size 15 to 20)
#    0.000    1.714    1.429    3.000    4.000    2.286 
#    2.571    6.429    0.000    0.000    0.000    0.000 
#    0.000    0.000    0.000    0.000    0.000    0.000 
#
# Total GULP energy -347181.484360 kJ/mol
# GULP energy per Si atom -12399.338727 kJ/mol
# Density = 2.120251 g / cm^3
# Si number density = 21.250874 Si / 1000 Ang^3
#
#
#
# Elastic Constant Matrix: (Units=GPa)
#
#
# Indices 1 2 3 4 5 6 
#
# 1 54.8206 13.2533 15.1226 -0.0002 -7.1401 -0.0001
# 2 13.2533 79.7505 22.8488 -0.0003 4.3761 0.0000
# 3 15.1226 22.8488 84.6017 -0.0002 1.8898 -0.0002
# 4 -0.0002 -0.0003 -0.0002 36.4081 -0.0004 19.4061
# 5 -7.1401 4.3761 1.8898 -0.0004 38.3103 -0.0003
# 6 -0.0001 0.0000 -0.0002 19.4061 -0.0003 34.6276
#
#
#
# Elastic Compliance Matrix: (Units=1/GPa)
#
#
# Indices 1 2 3 4 5 6 
#
# 1 0.020280 -0.002750 -0.002977 0.000000 0.004241 0.000000
# 2 -0.002750 0.014036 -0.003256 0.000000 -0.001955 0.000000
# 3 -0.002977 -0.003256 0.013250 0.000000 -0.000837 0.000000
# 4 0.000000 0.000000 0.000000 0.039166 0.000000 -0.021949
# 5 0.004241 -0.001955 -0.000837 0.000000 0.027158 0.000000
# 6 0.000000 0.000000 0.000000 -0.021949 0.000000 0.041180
#
#
# Mechanical properties :
#
#
# Convention : Reuss Voigt Hill
#
# Bulk Modulus (GPa) = 33.78277 35.73582 34.75929
# Shear Modulus (GPa) = 27.33717 33.06575 30.20146
#
# Velocity S-wave (km/s) = 3.59054 3.94886 3.77395
# Velocity P-wave (km/s) = 5.75508 6.13547 5.94831
#
# Compressibility (1/GPa) = 0.02960089
#
# Stress axis : x y z
#
# Youngs Moduli (GPa) = 49.31038 71.24476 75.47068
#
# Poissons Ratio (x) = 0.19592 0.22468
# Poissons Ratio (y) = 0.13560 0.24570
# Poissons Ratio (z) = 0.14680 0.23194
#
# Static dielectric constant tensor:
#      x y z
#    x 3.767740 0.000000 0.018360 
#    y 0.000000 4.044730 0.000000 
#    z 0.018360 0.000000 3.916420 
# 
# 
# High freq. dielectric constant tensor:
#      x y z
#    x 1.823460 0.000000 0.002360 
#    y 0.000000 1.834750 0.000000 
#    z 0.002360 0.000000 1.832240 
# 
# From -- ./inp_files/215754.got.cif
#   From: 2010.06.25/outbox.cif.g09.slc.cpg/sg15_108_cif.got.tgz:215754.got - 2010.06.28 07:06:18.
