data_PCOD8136289
_publ_section_title
;
Structure prediction by ZEFSAII (Michael W. Deem and Ramdas Pophale) SiO2 
 PCOD8136289
Probable space group: C 2/C
;
_chemical_formula_sum "Si O2"
_cell_formula_units_Z 56
_cell_length_a 26.375035
_cell_length_b 7.972852
_cell_length_c 15.914359
_cell_angle_alpha 90.000000
_cell_angle_beta 51.483426
_cell_angle_gamma 90.000000
_cell_volume 2618.426023
_symmetry_space_group_name_H-M "C 2/C"
_symmetry_group_IT_number 15
_symmetry_cell_setting 'monoclinic'
loop_
_space_group_symop_operation_xyz
x,y,z
-x,y,1/2-z
-x,-y,-z
x,-y,1/2+z
1/2+x,1/2+y,z
1/2-x,1/2+y,1/2-z
1/2-x,1/2-y,-z
1/2+x,1/2-y,1/2+z
loop_
_atom_site_type_symbol
_atom_site_label
_atom_site_fract_x
_atom_site_fract_y
_atom_site_fract_z
Si Si1 0.656385 0.699403 0.066148
Si Si2 0.863990 0.087561 0.035173
Si Si3 0.558652 0.375659 0.431740
Si Si4 0.074703 0.587963 0.537456
Si Si5 0.700117 0.097045 0.840935
Si Si6 0.493985 0.235210 0.352618
Si Si7 0.722519 0.688025 0.160807
O O1 0.659666 0.676367 0.164158
O O2 0.649985 0.515106 0.033939
O O3 0.597645 0.821979 0.100306
O O4 0.719112 0.785783 0.962818
O O5 0.806289 0.222776 0.105198
O O6 0.873810 0.966596 0.108436
O O7 0.931540 0.179490 0.956086
O O8 0.500000 0.500000 0.500000
O O9 0.542303 0.223979 0.511104
O O10 0.558192 0.300294 0.336866
O O11 0.134291 0.507067 0.422936
O O12 0.017467 0.462587 0.622880
O O13 0.712228 0.150432 0.731468
O O14 0.762106 0.987044 0.806207
O O15 0.500000 0.285182 0.250000
#
# Coordination Sequence:
#
# PCOD8136289 Si02
#       7
#     8   8   8   8   8   8   8
#     4   9  19  36  54  75 105 135 172 219 262 304
#     4   9  19  36  53  74 105 138 174 216 258 304
#     4   9  18  35  56  74 101 141 176 211 260 314
#     4   9  19  36  54  76 106 138 173 217 264 311
#     4  10  20  34  54  77 105 138 174 213 258 317
#     4  10  20  33  52  79 106 135 175 216 259 309
#     4  10  20  34  54  79 104 137 174 212 261 313
#
# _framework density 21.386893000000001
#
# number of rings (size 3 to 8) (size 9 to 14) (size 15 to 20)
#    0.000    2.571    0.000    1.286    0.000    2.857 
#    0.000    9.286    0.000    0.000    0.000    0.000 
#    0.000    0.000    0.000    0.000    0.000    0.000 
#
# Total GULP energy -346873.503545 kJ/mol
# GULP energy per Si atom -12388.339412 kJ/mol
# Density = 2.133822 g / cm^3
# Si number density = 21.386893 Si / 1000 Ang^3
#
#
#
# Elastic Constant Matrix: (Units=GPa)
#
#
# Indices 1 2 3 4 5 6 
#
# 1 106.8713 61.9275 39.9252 -0.0001 47.8316 -0.0001
# 2 61.9275 127.6943 26.5550 -0.0004 29.7281 -0.0004
# 3 39.9252 26.5550 61.6849 -0.0001 32.0119 0.0000
# 4 -0.0001 -0.0004 -0.0001 15.5069 0.0000 9.3379
# 5 47.8316 29.7281 32.0119 0.0000 38.6969 0.0000
# 6 -0.0001 -0.0004 0.0000 9.3379 0.0000 27.6834
#
#
#
# Elastic Compliance Matrix: (Units=1/GPa)
#
#
# Indices 1 2 3 4 5 6 
#
# 1 0.023980 -0.005760 0.000078 0.000000 -0.025280 0.000000
# 2 -0.005760 0.010931 -0.000551 0.000000 -0.000821 0.000000
# 3 0.000078 -0.000551 0.028436 0.000000 -0.023197 0.000000
# 4 0.000000 0.000000 0.000000 0.080925 0.000000 -0.027297
# 5 -0.025280 -0.000821 -0.023197 0.000000 0.076910 0.000000
# 6 0.000000 0.000000 0.000000 -0.027297 0.000000 0.045330
#
#
# Mechanical properties :
#
#
# Convention : Reuss Voigt Hill
#
# Bulk Modulus (GPa) = 19.65380 61.45177 40.55278
# Shear Modulus (GPa) = 16.89532 27.56696 22.23114
#
# Velocity S-wave (km/s) = 2.81372 3.59411 3.22759
# Velocity P-wave (km/s) = 4.44585 6.78375 5.73519
#
# Compressibility (1/GPa) = 0.05088074
#
# Stress axis : x y z
#
# Youngs Moduli (GPa) = 41.70085 91.48632 35.16612
#
# Poissons Ratio (x) = 0.52701 -0.00275
# Poissons Ratio (y) = 0.24022 0.01938
# Poissons Ratio (z) = -0.00326 0.05041
#
# Static dielectric constant tensor:
#      x y z
#    x 4.261210 0.000000 0.357290 
#    y 0.000000 4.303180 0.000000 
#    z 0.357290 0.000000 3.571400 
# 
# 
# High freq. dielectric constant tensor:
#      x y z
#    x 1.832550 0.000000 0.016850 
#    y 0.000000 1.854690 0.000000 
#    z 0.016850 0.000000 1.810950 
# 
# From -- ./inp_files/176240.got.cif
#   From: 2010.06.25/outbox.cif.g09.slc.cpg/sg15_89_cif.got.tgz:176240.got - 2010.06.28 07:06:18.
