data_PCOD8136186
_publ_section_title
;
Structure prediction by ZEFSAII (Michael W. Deem and Ramdas Pophale) SiO2 
 PCOD8136186
Probable space group: C 2/C
;
_chemical_formula_sum "Si O2"
_cell_formula_units_Z 56
_cell_length_a 10.586464
_cell_length_b 23.946980
_cell_length_c 11.505785
_cell_angle_alpha 90.000000
_cell_angle_beta 74.482051
_cell_angle_gamma 90.000000
_cell_volume 2810.545976
_symmetry_space_group_name_H-M "C 2/C"
_symmetry_group_IT_number 15
_symmetry_cell_setting 'monoclinic'
loop_
_space_group_symop_operation_xyz
x,y,z
-x,y,1/2-z
-x,-y,-z
x,-y,1/2+z
1/2+x,1/2+y,z
1/2-x,1/2+y,1/2-z
1/2-x,1/2-y,-z
1/2+x,1/2-y,1/2+z
loop_
_atom_site_type_symbol
_atom_site_label
_atom_site_fract_x
_atom_site_fract_y
_atom_site_fract_z
Si Si1 0.519666 0.301987 0.990837
Si Si2 0.000000 0.222832 0.750000
Si Si3 0.212853 0.314803 0.695604
Si Si4 0.048936 0.568439 0.866686
Si Si5 0.500000 0.902614 0.750000
Si Si6 0.850379 0.536739 0.090804
Si Si7 0.472393 0.815635 0.390712
Si Si8 0.282811 0.644659 0.426458
O O1 0.667433 0.316525 0.922671
O O2 0.495867 0.236792 0.968058
O O3 0.425914 0.342849 0.940662
O O4 0.493077 0.313797 0.133893
O O5 0.866690 0.257709 0.795376
O O6 0.121177 0.365248 0.678248
O O7 0.261076 0.318861 0.816680
O O8 0.176856 0.527886 0.859310
O O9 0.000000 0.576940 0.750000
O O10 0.067780 0.632565 0.907165
O O11 0.925144 0.535691 0.950776
O O12 0.542941 0.939726 0.846094
O O13 0.725786 0.578353 0.107537
O O14 0.500000 0.798095 0.250000
O O15 0.323975 0.837661 0.449582
#
# Coordination Sequence:
#
# PCOD8136186 Si02
#       8
#     8   4   8   8   4   8   8   8
#     4  12  23  37  55  82 122 155 195 227 288 362
#     4  11  24  38  52  76 122 154 188 242 287 336
#     4  10  21  37  54  81 109 155 195 227 281 348
#     4   9  17  30  49  83 112 140 189 232 299 324
#     4   9  18  34  58  80 120 142 186 242 285 332
#     4   9  17  32  54  79 113 144 180 245 284 332
#     4  10  20  32  55  83 116 152 184 241 281 338
#     4  10  20  36  56  79 112 155 194 234 285 342
#
# _framework density 19.924952999999999
#
# number of rings (size 3 to 8) (size 9 to 14) (size 15 to 20)
#    0.000    2.000    2.143    2.143    4.000    0.000 
#    0.000    0.000    0.000    0.000    0.000    9.000 
#   25.714    0.000    0.000    0.000    0.000    0.000 
#
# Total GULP energy -346876.623621 kJ/mol
# GULP energy per Si atom -12388.450844 kJ/mol
# Density = 1.987960 g / cm^3
# Si number density = 19.924953 Si / 1000 Ang^3
#
#
#
# Elastic Constant Matrix: (Units=GPa)
#
#
# Indices 1 2 3 4 5 6 
#
# 1 96.5969 41.3663 30.7883 0.0000 -6.0478 0.0000
# 2 41.3663 103.9956 12.6464 0.0000 0.5195 0.0000
# 3 30.7883 12.6464 91.3056 0.0000 0.9751 0.0000
# 4 0.0000 0.0000 0.0000 2.4308 0.0000 -10.5239
# 5 -6.0478 0.5195 0.9751 0.0000 30.5499 0.0000
# 6 0.0000 0.0000 0.0000 -10.5239 0.0000 3.5933
#
#
#
# Elastic Compliance Matrix: (Units=1/GPa)
#
#
# Indices 1 2 3 4 5 6 
#
# 1 0.014013 -0.005096 -0.004051 0.000000 0.002990 0.000000
# 2 -0.005096 0.011634 0.000120 0.000000 -0.001211 0.000000
# 3 -0.004051 0.000120 0.012315 0.000000 -0.001197 0.000000
# 4 0.000000 0.000000 0.000000 -0.035222 0.000000 -0.103157
# 5 0.002990 -0.001211 -0.001197 0.000000 0.033384 0.000000
# 6 0.000000 0.000000 0.000000 -0.103157 0.000000 -0.023827
#
#
# Mechanical properties :
#
#
# Convention : Reuss Voigt Hill
#
# Bulk Modulus (GPa) = 50.23412 51.27781 50.75596
# Shear Modulus (GPa) = 135.17717 21.12126 78.14922
#
# Velocity S-wave (km/s) = 8.24563 3.25936 6.26952
# Velocity P-wave (km/s) = 10.76663 6.32107 8.82826
#
# Compressibility (1/GPa) = 0.01990679
#
# Stress axis : x y z
#
# Youngs Moduli (GPa) = 71.36119 85.95198 81.20505
#
# Poissons Ratio (x) = 0.43804 0.32899
# Poissons Ratio (y) = 0.36368 -0.00974
# Poissons Ratio (z) = 0.28911 -0.01031
#
# Static dielectric constant tensor:
#      x y z
#    x 3.396950 0.000000 0.193210 
#    y 0.000000 3.932380 0.000000 
#    z 0.193210 0.000000 3.833570 
# 
# 
# High freq. dielectric constant tensor:
#      x y z
#    x 1.735240 0.000000 0.017100 
#    y 0.000000 1.771110 0.000000 
#    z 0.017100 0.000000 1.790140 
# 
# From -- ./inp_files/90747.got.cif
#   From: 2010.06.25/outbox.cif.g09.slc.cpg/sg15_46_cif.got.tgz:90747.got - 2010.06.28 07:06:18.
