data_PCOD8136986
_publ_section_title
;
Structure prediction by ZEFSAII (Michael W. Deem and Ramdas Pophale) SiO2 
 PCOD8136986
Probable space group: C 2/C
;
_chemical_formula_sum "Si O2"
_cell_formula_units_Z 52
_cell_length_a 8.170704
_cell_length_b 15.595512
_cell_length_c 27.468330
_cell_angle_alpha 90.000000
_cell_angle_beta 42.168973
_cell_angle_gamma 90.000000
_cell_volume 2349.743853
_symmetry_space_group_name_H-M "C 2/C"
_symmetry_group_IT_number 15
_symmetry_cell_setting 'monoclinic'
loop_
_space_group_symop_operation_xyz
x,y,z
-x,y,1/2-z
-x,-y,-z
x,-y,1/2+z
1/2+x,1/2+y,z
1/2-x,1/2+y,1/2-z
1/2-x,1/2-y,-z
1/2+x,1/2-y,1/2+z
loop_
_atom_site_type_symbol
_atom_site_label
_atom_site_fract_x
_atom_site_fract_y
_atom_site_fract_z
Si Si1 0.767714 0.665683 0.102752
Si Si2 0.673436 0.161947 0.941767
Si Si3 0.054703 0.008042 0.660819
Si Si4 0.000000 0.758733 0.250000
Si Si5 0.986358 0.328605 0.384656
Si Si6 0.496355 0.180344 0.150693
Si Si7 0.597382 0.994464 0.323015
O O1 0.597720 0.584848 0.126173
O O2 0.665794 0.748597 0.098656
O O3 0.779877 0.684047 0.158206
O O4 0.043248 0.649253 0.022501
O O5 0.876744 0.087203 0.890039
O O6 0.456307 0.155492 0.949130
O O7 0.786540 0.257775 0.914298
O O8 0.230650 0.007026 0.668035
O O9 0.768711 0.014050 0.737477
O O10 0.220137 0.818174 0.184584
O O11 0.900257 0.704911 0.225742
O O12 0.916996 0.412179 0.367502
O O13 0.570536 0.079826 0.139864
#
# Coordination Sequence:
#
# PCOD8136986 Si02
#       7
#     8   8   8   4   8   8   8
#     4  11  21  35  56  85 109 142 187 225 263 325
#     4  10  20  37  55  80 114 150 178 216 276 330
#     4   9  18  32  57  79 105 143 187 227 259 317
#     4  10  20  38  56  78 108 146 180 226 288 318
#     4  10  20  35  58  81 111 144 181 227 270 325
#     4  10  21  36  57  79 111 145 180 227 273 323
#     4   9  17  34  54  81 107 140 183 225 275 315
#
# _framework density 22.130071000000001
#
# number of rings (size 3 to 8) (size 9 to 14) (size 15 to 20)
#    0.000    2.154    0.000    5.077    0.000    1.846 
#    0.000    6.923    0.000    0.000    0.000    0.000 
#    0.000    0.000    0.000    0.000    0.000    0.000 
#
# Total GULP energy -322202.079872 kJ/mol
# GULP energy per Si atom -12392.387687 kJ/mol
# Density = 2.207970 g / cm^3
# Si number density = 22.130071 Si / 1000 Ang^3
#
#
#
# Elastic Constant Matrix: (Units=GPa)
#
#
# Indices 1 2 3 4 5 6 
#
# 1 45.9585 16.4437 8.1433 -0.0033 17.2779 0.0035
# 2 16.4437 182.1470 32.2975 -0.0022 2.4851 0.0033
# 3 8.1433 32.2975 67.5047 -0.0052 9.2200 0.0089
# 4 -0.0033 -0.0022 -0.0052 32.2216 0.0051 -5.5175
# 5 17.2779 2.4851 9.2200 0.0051 22.1039 -0.0054
# 6 0.0035 0.0033 0.0089 -5.5175 -0.0054 29.6926
#
#
#
# Elastic Compliance Matrix: (Units=1/GPa)
#
#
# Indices 1 2 3 4 5 6 
#
# 1 0.031995 -0.002698 0.000854 0.000006 -0.025062 -0.000007
# 2 -0.002698 0.006233 -0.003021 -0.000001 0.002668 0.000001
# 3 0.000854 -0.003021 0.017180 0.000003 -0.007494 -0.000006
# 4 0.000006 -0.000001 0.000003 0.032055 -0.000012 0.005957
# 5 -0.025062 0.002668 -0.007494 -0.000012 0.067657 0.000015
# 6 -0.000007 0.000001 -0.000006 0.005957 0.000015 0.034785
#
#
# Mechanical properties :
#
#
# Convention : Reuss Voigt Hill
#
# Bulk Modulus (GPa) = 21.89243 45.48659 33.68951
# Shear Modulus (GPa) = 23.27089 32.71865 27.99477
#
# Velocity S-wave (km/s) = 3.24628 3.84926 3.56056
# Velocity P-wave (km/s) = 4.89543 6.35252 5.67097
#
# Compressibility (1/GPa) = 0.04567789
#
# Stress axis : x y z
#
# Youngs Moduli (GPa) = 31.25508 160.43855 58.20808
#
# Poissons Ratio (x) = 0.43285 -0.04972
# Poissons Ratio (y) = 0.08432 0.17585
# Poissons Ratio (z) = -0.02670 0.48470
#
# Static dielectric constant tensor:
#      x y z
#    x 3.584800 -0.000010 0.413220 
#    y -0.000010 4.537040 0.000020 
#    z 0.413220 0.000020 3.954470 
# 
# 
# High freq. dielectric constant tensor:
#      x y z
#    x 1.823300 0.000000 0.027840 
#    y 0.000000 1.896240 0.000000 
#    z 0.027840 0.000000 1.857890 
# 
# From -- ./inp_files/190526.got.cif
#   From: 2010.06.25/outbox.cif.g09.slc.cpg/sg15_96_cif.got.tgz:190526.got - 2010.06.28 07:06:18.
