data_PCOD8136915
_publ_section_title
;
Structure prediction by ZEFSAII (Michael W. Deem and Ramdas Pophale) SiO2 
 PCOD8136915
Probable space group: C 2/C
;
_chemical_formula_sum "Si O2"
_cell_formula_units_Z 52
_cell_length_a 15.990347
_cell_length_b 20.088739
_cell_length_c 8.538007
_cell_angle_alpha 90.000000
_cell_angle_beta 67.317892
_cell_angle_gamma 90.000000
_cell_volume 2530.510147
_symmetry_space_group_name_H-M "C 2/C"
_symmetry_group_IT_number 15
_symmetry_cell_setting 'monoclinic'
loop_
_space_group_symop_operation_xyz
x,y,z
-x,y,1/2-z
-x,-y,-z
x,-y,1/2+z
1/2+x,1/2+y,z
1/2-x,1/2+y,1/2-z
1/2-x,1/2-y,-z
1/2+x,1/2-y,1/2+z
loop_
_atom_site_type_symbol
_atom_site_label
_atom_site_fract_x
_atom_site_fract_y
_atom_site_fract_z
Si Si1 0.382920 0.950817 0.952995
Si Si2 0.932068 0.418922 0.575606
Si Si3 0.334825 0.680692 0.566356
Si Si4 0.284185 0.825095 0.636775
Si Si5 0.500000 0.353620 0.750000
Si Si6 0.680966 0.563228 0.686839
Si Si7 0.859131 0.921694 0.631587
O O1 0.384162 0.944296 0.767249
O O2 0.460687 0.906478 0.980997
O O3 0.287352 0.926094 0.084477
O O4 0.407780 0.027629 0.961352
O O5 0.887325 0.349966 0.559691
O O6 0.297762 0.747938 0.675120
O O7 0.255024 0.660457 0.506534
O O8 0.426772 0.691454 0.396708
O O9 0.353584 0.622377 0.676631
O O10 0.219339 0.865171 0.802792
O O11 0.449804 0.399033 0.655941
O O12 0.670281 0.491488 0.772803
O O13 0.623973 0.566908 0.565953
#
# Coordination Sequence:
#
# PCOD8136915 Si02
#       7
#     8   8   8   8   4   8   8
#     4  10  20  35  56  93 122 156 205 244 305 361
#     4  10  20  35  58  86 130 160 199 253 298 368
#     4  10  25  41  66  86 130 160 223 250 325 367
#     4  10  20  44  60  89 123 173 197 261 306 385
#     4  10  24  48  60  94 118 166 210 278 302 384
#     4  12  22  40  65  98 121 173 199 270 306 386
#     4  11  23  39  71  89 131 156 217 254 324 362
#
# _framework density 20.549216000000001
#
# number of rings (size 3 to 8) (size 9 to 14) (size 15 to 20)
#    0.000    1.538    3.077    1.846    2.154    3.692 
#    8.308    1.538    0.000    0.000    0.000    0.000 
#    0.000    0.000    0.000    0.000    0.000    0.000 
#
# Total GULP energy -322273.757647 kJ/mol
# GULP energy per Si atom -12395.144525 kJ/mol
# Density = 2.050245 g / cm^3
# Si number density = 20.549216 Si / 1000 Ang^3
#
#
#
# Elastic Constant Matrix: (Units=GPa)
#
#
# Indices 1 2 3 4 5 6 
#
# 1 103.3560 29.9166 31.5001 0.0000 5.2124 0.0000
# 2 29.9166 102.0422 46.8876 0.0000 9.5151 0.0000
# 3 31.5001 46.8876 87.0877 0.0000 7.7086 0.0000
# 4 0.0000 0.0000 0.0000 22.5936 0.0000 -1.5966
# 5 5.2124 9.5151 7.7086 0.0000 25.7932 0.0000
# 6 0.0000 0.0000 0.0000 -1.5966 0.0000 26.2260
#
#
#
# Elastic Compliance Matrix: (Units=1/GPa)
#
#
# Indices 1 2 3 4 5 6 
#
# 1 0.011150 -0.001833 -0.002985 0.000000 -0.000685 0.000000
# 2 -0.001833 0.013520 -0.006376 0.000000 -0.002711 0.000000
# 3 -0.002985 -0.006376 0.016161 0.000000 -0.001875 0.000000
# 4 0.000000 0.000000 0.000000 0.044452 0.000000 0.002706
# 5 -0.000685 -0.002711 -0.001875 0.000000 0.040469 0.000000
# 6 0.000000 0.000000 0.000000 0.002706 0.000000 0.038295
#
#
# Mechanical properties :
#
#
# Convention : Reuss Voigt Hill
#
# Bulk Modulus (GPa) = 54.22405 56.56606 55.39505
# Shear Modulus (GPa) = 25.96275 27.20133 26.58204
#
# Velocity S-wave (km/s) = 3.55835 3.64224 3.60054
# Velocity P-wave (km/s) = 6.58234 6.72865 6.65590
#
# Compressibility (1/GPa) = 0.01844200
#
# Stress axis : x y z
#
# Youngs Moduli (GPa) = 89.68286 73.96508 61.87652
#
# Poissons Ratio (x) = 0.13561 0.18473
# Poissons Ratio (y) = 0.16443 0.39452
# Poissons Ratio (z) = 0.26774 0.47159
#
# Static dielectric constant tensor:
#      x y z
#    x 3.998780 0.000000 0.015060 
#    y 0.000000 3.604930 0.000000 
#    z 0.015060 0.000000 3.701410 
# 
# 
# High freq. dielectric constant tensor:
#      x y z
#    x 1.821850 0.000000 0.004760 
#    y 0.000000 1.784780 0.000000 
#    z 0.004760 0.000000 1.795150 
# 
# From -- ./inp_files/48953.got.cif
#   From: 2010.06.25/outbox.cif.g09.slc.cpg/sg15_25_cif.got.tgz:48953.got - 2010.06.28 07:06:18.
