data_PCOD8136369
_publ_section_title
;
Structure prediction by ZEFSAII (Michael W. Deem and Ramdas Pophale) SiO2 
 PCOD8136369
Probable space group: C 2/C
;
_chemical_formula_sum "Si O2"
_cell_formula_units_Z 56
_cell_length_a 21.300494
_cell_length_b 11.225554
_cell_length_c 13.116120
_cell_angle_alpha 90.000000
_cell_angle_beta 114.911739
_cell_angle_gamma 90.000000
_cell_volume 2844.394878
_symmetry_space_group_name_H-M "C 2/C"
_symmetry_group_IT_number 15
_symmetry_cell_setting 'monoclinic'
loop_
_space_group_symop_operation_xyz
x,y,z
-x,y,1/2-z
-x,-y,-z
x,-y,1/2+z
1/2+x,1/2+y,z
1/2-x,1/2+y,1/2-z
1/2-x,1/2-y,-z
1/2+x,1/2-y,1/2+z
loop_
_atom_site_type_symbol
_atom_site_label
_atom_site_fract_x
_atom_site_fract_y
_atom_site_fract_z
Si Si1 0.316139 0.779300 0.976744
Si Si2 0.671416 0.062100 0.204534
Si Si3 0.815506 0.212090 0.670095
Si Si4 0.189574 0.051283 0.653036
Si Si5 0.546058 0.093856 0.881998
Si Si6 0.935104 0.607566 0.966209
Si Si7 0.163464 0.806948 0.546736
O O1 0.296919 0.876049 0.876074
O O2 0.334774 0.652657 0.941242
O O3 0.250000 0.750000 0.000000
O O4 0.382793 0.830720 0.084013
O O5 0.647259 0.166707 0.265810
O O6 0.728312 0.976987 0.295865
O O7 0.605417 0.981483 0.137475
O O8 0.831975 0.096378 0.749541
O O9 0.840750 0.174446 0.576772
O O10 0.733581 0.238008 0.622345
O O11 0.151359 0.930464 0.596600
O O12 0.500000 0.109453 0.750000
O O13 0.507416 0.137275 0.959559
O O14 0.560248 0.954426 0.918329
O O15 0.899914 0.732561 0.956083
#
# Coordination Sequence:
#
# PCOD8136369 Si02
#       7
#     8   8   8   8   8   8   8
#     4  10  23  38  60  91 123 158 209 252 304 367
#     4   9  19  33  59  87 122 161 193 259 305 363
#     4   9  19  33  52  89 124 158 204 248 305 360
#     4  10  20  35  55  90 125 156 202 257 305 360
#     4  10  24  40  63  89 124 164 205 256 307 375
#     4  10  21  40  59  91 122 158 210 249 310 373
#     4  10  20  33  58  84 122 164 202 252 304 374
#
# _framework density 19.687843999999998
#
# number of rings (size 3 to 8) (size 9 to 14) (size 15 to 20)
#    0.000    2.286    1.429    0.000    6.000    2.286 
#    0.000    0.714    0.000    0.857    0.000    0.000 
#    0.000    0.000    0.000    0.000    0.000    0.000 
#
# Total GULP energy -347008.992594 kJ/mol
# GULP energy per Si atom -12393.178307 kJ/mol
# Density = 1.964303 g / cm^3
# Si number density = 19.687844 Si / 1000 Ang^3
#
#
#
# Elastic Constant Matrix: (Units=GPa)
#
#
# Indices 1 2 3 4 5 6 
#
# 1 82.7756 42.8214 27.3409 0.0000 -0.3072 0.0000
# 2 42.8214 114.4360 51.7301 0.0000 -5.7424 0.0000
# 3 27.3409 51.7301 114.4359 0.0000 0.8651 0.0000
# 4 0.0000 0.0000 0.0000 36.7356 0.0000 14.6822
# 5 -0.3072 -5.7424 0.8651 0.0000 24.3121 0.0000
# 6 0.0000 0.0000 0.0000 14.6822 0.0000 35.0728
#
#
#
# Elastic Compliance Matrix: (Units=1/GPa)
#
#
# Indices 1 2 3 4 5 6 
#
# 1 0.015162 -0.005138 -0.001292 0.000000 -0.000976 0.000000
# 2 -0.005138 0.012914 -0.004634 0.000000 0.003150 0.000000
# 3 -0.001292 -0.004634 0.011153 0.000000 -0.001508 0.000000
# 4 0.000000 0.000000 0.000000 0.032691 0.000000 -0.013685
# 5 -0.000976 0.003150 -0.001508 0.000000 0.041917 0.000000
# 6 0.000000 0.000000 0.000000 -0.013685 0.000000 0.034241
#
#
# Mechanical properties :
#
#
# Convention : Reuss Voigt Hill
#
# Bulk Modulus (GPa) = 58.47814 61.71470 60.09642
# Shear Modulus (GPa) = 28.42383 31.87444 30.14914
#
# Velocity S-wave (km/s) = 3.80376 4.02803 3.91750
# Velocity P-wave (km/s) = 7.00418 7.28341 7.14516
#
# Compressibility (1/GPa) = 0.01710041
#
# Stress axis : x y z
#
# Youngs Moduli (GPa) = 65.95300 77.43487 89.65866
#
# Poissons Ratio (x) = 0.39789 0.11587
# Poissons Ratio (y) = 0.33890 0.41547
# Poissons Ratio (z) = 0.08524 0.35882
#
# Static dielectric constant tensor:
#      x y z
#    x 3.307900 0.000000 0.012010 
#    y 0.000000 3.645270 0.000000 
#    z 0.012010 0.000000 3.803970 
# 
# 
# High freq. dielectric constant tensor:
#      x y z
#    x 1.736630 0.000000 -0.004930 
#    y 0.000000 1.767700 0.000000 
#    z -0.004930 0.000000 1.773910 
# 
# From -- ./inp_files/167295.got.cif
#   From: 2010.06.25/outbox.cif.g09.slc.cpg/sg15_84_cif.got.tgz:167295.got - 2010.06.28 07:06:18.
