data_PCOD8136923
_publ_section_title
;
Structure prediction by ZEFSAII (Michael W. Deem and Ramdas Pophale) SiO2 
 PCOD8136923
Probable space group: C 2/C
;
_chemical_formula_sum "Si O2"
_cell_formula_units_Z 56
_cell_length_a 11.599858
_cell_length_b 29.519908
_cell_length_c 9.970153
_cell_angle_alpha 90.000000
_cell_angle_beta 127.392112
_cell_angle_gamma 90.000000
_cell_volume 2712.454302
_symmetry_space_group_name_H-M "C 2/C"
_symmetry_group_IT_number 15
_symmetry_cell_setting 'monoclinic'
loop_
_space_group_symop_operation_xyz
x,y,z
-x,y,1/2-z
-x,-y,-z
x,-y,1/2+z
1/2+x,1/2+y,z
1/2-x,1/2+y,1/2-z
1/2-x,1/2-y,-z
1/2+x,1/2-y,1/2+z
loop_
_atom_site_type_symbol
_atom_site_label
_atom_site_fract_x
_atom_site_fract_y
_atom_site_fract_z
Si Si1 0.136417 0.401809 0.052808
Si Si2 0.831217 0.476388 0.641353
Si Si3 0.309794 0.907994 0.841442
Si Si4 0.977220 0.859314 0.887606
Si Si5 0.928853 0.784591 0.055955
Si Si6 0.767540 0.927111 0.420750
Si Si7 0.127521 0.311574 0.932335
O O1 0.163628 0.418593 0.221679
O O2 0.201824 0.438244 0.994522
O O3 0.199253 0.351405 0.074042
O O4 0.967224 0.392340 0.906550
O O5 0.791702 0.457573 0.761371
O O6 0.722456 0.518851 0.546767
O O7 0.000000 0.492137 0.750000
O O8 0.187325 0.874393 0.698209
O O9 0.304750 0.907087 0.997852
O O10 0.000000 0.844784 0.750000
O O11 0.011088 0.815526 0.003317
O O12 0.077702 0.902944 0.994173
O O13 0.940557 0.730725 0.030488
O O14 0.000000 0.794963 0.250000
O O15 0.757628 0.794110 0.931264
O O16 0.000000 0.331777 0.750000
#
# Coordination Sequence:
#
# PCOD8136923 Si02
#       7
#     8   8   8   8   8   8   8
#     4  11  20  35  60  83 106 140 191 237 272 321
#     4  10  20  35  57  81 108 145 189 235 278 322
#     4  10  21  37  54  75 110 147 181 227 280 328
#     4  10  22  38  54  78 117 154 179 218 282 343
#     4  10  20  37  60  83 110 142 184 231 278 328
#     4  11  22  35  53  80 112 147 184 223 275 332
#     4  10  20  35  60  87 108 138 184 237 281 323
#
# _framework density 20.645508
#
# number of rings (size 3 to 8) (size 9 to 14) (size 15 to 20)
#    0.000    1.714    0.000    6.000    0.000    2.857 
#    0.000    2.857    0.000   11.143    0.000    0.000 
#    0.000    0.000    0.000    0.000    0.000    0.000 
#
# Total GULP energy -347014.388254 kJ/mol
# GULP energy per Si atom -12393.371009 kJ/mol
# Density = 2.059852 g / cm^3
# Si number density = 20.645508 Si / 1000 Ang^3
#
#
#
# Elastic Constant Matrix: (Units=GPa)
#
#
# Indices 1 2 3 4 5 6 
#
# 1 60.7411 41.9941 30.0968 0.0000 -4.7262 0.0000
# 2 41.9941 164.3070 59.9861 0.0000 -17.8541 0.0000
# 3 30.0968 59.9861 89.6177 0.0000 -7.2261 0.0000
# 4 0.0000 0.0000 0.0000 25.6523 0.0000 -2.4683
# 5 -4.7262 -17.8541 -7.2261 0.0000 22.4942 0.0000
# 6 0.0000 0.0000 0.0000 -2.4683 0.0000 29.4531
#
#
#
# Elastic Compliance Matrix: (Units=1/GPa)
#
#
# Indices 1 2 3 4 5 6 
#
# 1 0.021373 -0.003760 -0.004660 0.000000 0.000009 0.000000
# 2 -0.003760 0.009251 -0.004518 0.000000 0.005101 0.000000
# 3 -0.004660 -0.004518 0.015789 0.000000 0.000507 0.000000
# 4 0.000000 0.000000 0.000000 0.039300 0.000000 0.003293
# 5 0.000009 0.005101 0.000507 0.000000 0.048670 0.000000
# 6 0.000000 0.000000 0.000000 0.003293 0.000000 0.034228
#
#
# Mechanical properties :
#
#
# Convention : Reuss Voigt Hill
#
# Bulk Modulus (GPa) = 48.69589 64.31332 56.50461
# Shear Modulus (GPa) = 24.83461 27.69251 26.26356
#
# Velocity S-wave (km/s) = 3.47206 3.66639 3.57055
# Velocity P-wave (km/s) = 6.30170 7.01015 6.66534
#
# Compressibility (1/GPa) = 0.02053561
#
# Stress axis : x y z
#
# Youngs Moduli (GPa) = 46.78861 108.09623 63.33684
#
# Poissons Ratio (x) = 0.40646 0.29515
# Poissons Ratio (y) = 0.17593 0.28616
# Poissons Ratio (z) = 0.21804 0.48839
#
# Static dielectric constant tensor:
#      x y z
#    x 3.571670 0.000000 0.024670 
#    y 0.000000 3.913530 0.000000 
#    z 0.024670 0.000000 3.691480 
# 
# 
# High freq. dielectric constant tensor:
#      x y z
#    x 1.791830 0.000000 0.000390 
#    y 0.000000 1.814500 0.000000 
#    z 0.000390 0.000000 1.802610 
# 
# From -- ./inp_files/35757.got.cif
#   From: 2010.06.25/outbox.cif.g09.slc.cpg/sg15_18_cif.got.tgz:35757.got - 2010.06.28 07:06:18.
