data_PCOD8136945
_publ_section_title
;
Structure prediction by ZEFSAII (Michael W. Deem and Ramdas Pophale) SiO2 
 PCOD8136945
Probable space group: C 2/C
;
_chemical_formula_sum "Si O2"
_cell_formula_units_Z 64
_cell_length_a 22.604385
_cell_length_b 17.661044
_cell_length_c 20.449125
_cell_angle_alpha 90.000000
_cell_angle_beta 157.560832
_cell_angle_gamma 90.000000
_cell_volume 3116.079962
_symmetry_space_group_name_H-M "C 2/C"
_symmetry_group_IT_number 15
_symmetry_cell_setting 'monoclinic'
loop_
_space_group_symop_operation_xyz
x,y,z
-x,y,1/2-z
-x,-y,-z
x,-y,1/2+z
1/2+x,1/2+y,z
1/2-x,1/2+y,1/2-z
1/2-x,1/2-y,-z
1/2+x,1/2-y,1/2+z
loop_
_atom_site_type_symbol
_atom_site_label
_atom_site_fract_x
_atom_site_fract_y
_atom_site_fract_z
Si Si1 0.181685 0.085712 0.930733
Si Si2 0.655057 0.178862 0.787354
Si Si3 0.318441 0.085731 0.808484
Si Si4 0.338591 0.822731 0.703264
Si Si5 0.814088 0.584344 0.303592
Si Si6 0.819404 0.427528 0.068703
Si Si7 0.708090 0.158502 0.086933
Si Si8 0.295367 0.158371 0.919538
O O1 0.240185 0.098509 0.916979
O O2 0.000000 0.099088 0.750000
O O3 0.266635 0.145718 0.063526
O O4 0.225378 0.000745 0.996519
O O5 0.734149 0.135643 0.807213
O O6 0.711766 0.139664 0.911893
O O7 0.471819 0.176916 0.594655
O O8 0.699383 0.265903 0.833467
O O9 0.248982 0.123594 0.802295
O O10 0.250729 0.001084 0.731239
O O11 0.502709 0.082551 0.000324
O O12 0.267348 0.868306 0.691800
O O13 0.297450 0.735435 0.667186
O O14 0.522404 0.829200 0.887988
O O15 0.735746 0.623098 0.286919
O O16 0.000000 0.449456 0.250000
O O17 0.756455 0.401576 0.933949
#
# Coordination Sequence:
#
# PCOD8136945 Si02
#       8
#     8   8   8   8   8   8   8   8
#     4  12  25  40  59  84 113 144 185 236 287 338
#     4  10  20  35  57  85 116 151 190 231 277 330
#     4   9  18  34  57  83 112 149 191 232 276 329
#     4  11  22  38  60  84 114 150 189 232 279 334
#     4   9  18  34  57  83 112 149 191 232 276 329
#     4  10  21  38  60  84 113 152 192 228 275 334
#     4  10  20  35  57  85 116 151 190 231 277 330
#     4  11  22  38  60  84 114 150 189 232 279 334
#
# _framework density 20.538626000000001
#
# number of rings (size 3 to 8) (size 9 to 14) (size 15 to 20)
#    0.000    1.750    0.000    4.875    0.000    5.000 
#    0.000    1.250    0.000    5.250    0.000    0.000 
#    0.000    0.000    0.000    0.000    0.000    0.000 
#
# Total GULP energy -396964.337120 kJ/mol
# GULP energy per Si atom -12405.135535 kJ/mol
# Density = 2.049188 g / cm^3
# Si number density = 20.538626 Si / 1000 Ang^3
#
#
#
# Elastic Constant Matrix: (Units=GPa)
#
#
# Indices 1 2 3 4 5 6 
#
# 1 110.2049 16.0768 21.9334 0.0114 -12.4617 0.0061
# 2 16.0768 101.0703 8.4513 0.0040 5.2132 0.0030
# 3 21.9334 8.4513 38.9704 0.0141 0.1600 0.0059
# 4 0.0114 0.0040 0.0141 23.9754 0.0127 3.5864
# 5 -12.4617 5.2132 0.1600 0.0127 20.1997 0.0046
# 6 0.0061 0.0030 0.0059 3.5864 0.0046 46.7992
#
#
#
# Elastic Compliance Matrix: (Units=1/GPa)
#
#
# Indices 1 2 3 4 5 6 
#
# 1 0.011376 -0.001689 -0.006067 -0.000005 0.007502 -0.000001
# 2 -0.001689 0.010464 -0.001303 0.000002 -0.003732 0.000000
# 3 -0.006067 -0.001303 0.029373 -0.000012 -0.003639 -0.000002
# 4 -0.000005 0.000002 -0.000012 0.042193 -0.000029 -0.003233
# 5 0.007502 -0.003732 -0.003639 -0.000029 0.055126 -0.000003
# 6 -0.000001 0.000000 -0.000002 -0.003233 -0.000003 0.021616
#
#
# Mechanical properties :
#
#
# Convention : Reuss Voigt Hill
#
# Bulk Modulus (GPa) = 30.21709 38.12986 34.17347
# Shear Modulus (GPa) = 25.08790 31.78048 28.43419
#
# Velocity S-wave (km/s) = 3.49879 3.93791 3.72482
# Velocity P-wave (km/s) = 5.57371 6.26749 5.93075
#
# Compressibility (1/GPa) = 0.03309386
#
# Stress axis : x y z
#
# Youngs Moduli (GPa) = 87.90192 95.56295 34.04504
#
# Poissons Ratio (x) = 0.16143 0.20656
# Poissons Ratio (y) = 0.14849 0.04437
# Poissons Ratio (z) = 0.53333 0.12455
#
# Static dielectric constant tensor:
#      x y z
#    x 3.985430 -0.000030 -0.196590 
#    y -0.000030 3.787290 -0.000030 
#    z -0.196590 -0.000030 3.434760 
# 
# 
# High freq. dielectric constant tensor:
#      x y z
#    x 1.817570 0.000000 -0.014900 
#    y 0.000000 1.817980 0.000000 
#    z -0.014900 0.000000 1.775700 
# 
# From -- ./inp_files/256019.got.cif
#   From: 2010.06.25/outbox.cif.g09.slc.cpg/sg15_129_cif.got.tgz:256019.got - 2010.06.28 07:06:18.
