data_PCOD8136348
_publ_section_title
;
Structure prediction by ZEFSAII (Michael W. Deem and Ramdas Pophale) SiO2 
 PCOD8136348
Probable space group: C 2/C
;
_chemical_formula_sum "Si O2"
_cell_formula_units_Z 56
_cell_length_a 10.989577
_cell_length_b 27.159602
_cell_length_c 9.899726
_cell_angle_alpha 90.000000
_cell_angle_beta 67.426535
_cell_angle_gamma 90.000000
_cell_volume 2728.423760
_symmetry_space_group_name_H-M "C 2/C"
_symmetry_group_IT_number 15
_symmetry_cell_setting 'monoclinic'
loop_
_space_group_symop_operation_xyz
x,y,z
-x,y,1/2-z
-x,-y,-z
x,-y,1/2+z
1/2+x,1/2+y,z
1/2-x,1/2+y,1/2-z
1/2-x,1/2-y,-z
1/2+x,1/2-y,1/2+z
loop_
_atom_site_type_symbol
_atom_site_label
_atom_site_fract_x
_atom_site_fract_y
_atom_site_fract_z
Si Si1 0.523240 0.222299 0.018364
Si Si2 0.237820 0.693623 0.459811
Si Si3 0.000000 0.198534 0.750000
Si Si4 0.741767 0.148945 0.937705
Si Si5 0.650773 0.113445 0.707265
Si Si6 0.637612 0.554048 0.525101
Si Si7 0.340821 0.467875 0.180892
Si Si8 0.000000 0.776843 0.750000
O O1 0.389873 0.189117 0.084725
O O2 0.501582 0.270858 0.112893
O O3 0.650504 0.194098 0.030467
O O4 0.540863 0.239956 0.855278
O O5 0.250000 0.750000 0.500000
O O6 0.215480 0.657007 0.592837
O O7 0.378505 0.685122 0.327005
O O8 0.128598 0.165294 0.697355
O O9 0.648705 0.125763 0.865576
O O10 0.788666 0.107232 0.025496
O O11 0.500000 0.101932 0.750000
O O12 0.733318 0.064161 0.647559
O O13 0.672741 0.521791 0.378961
O O14 0.684058 0.528891 0.646888
O O15 0.479961 0.559100 0.594875
#
# Coordination Sequence:
#
# PCOD8136348 Si02
#       8
#     8   8   4   8   8   8   8   4
#     4  11  21  37  55  83 120 163 204 249 296 354
#     4  10  20  33  56  85 118 156 202 250 289 343
#     4  12  24  36  56  85 122 165 204 248 298 356
#     4  11  20  36  59  84 118 163 203 244 302 364
#     4  11  20  37  63  90 118 160 205 244 300 369
#     4   9  19  37  64  88 118 149 197 251 302 359
#     4   9  19  38  61  91 114 152 194 250 303 360
#     4  10  20  36  58  83 116 161 210 254 290 344
#
# _framework density 20.52467
#
# number of rings (size 3 to 8) (size 9 to 14) (size 15 to 20)
#    0.000    1.714    1.429    6.429    1.000    0.000 
#    0.000    8.571    1.571    0.000    0.000    0.000 
#    0.000    0.000    0.000    0.000    0.000    0.000 
#
# Total GULP energy -346927.021342 kJ/mol
# GULP energy per Si atom -12390.250762 kJ/mol
# Density = 2.047796 g / cm^3
# Si number density = 20.524670 Si / 1000 Ang^3
#
#
#
# Elastic Constant Matrix: (Units=GPa)
#
#
# Indices 1 2 3 4 5 6 
#
# 1 141.3929 50.7007 27.4570 0.0000 -17.1451 0.0000
# 2 50.7007 85.4389 25.7905 0.0000 -1.6041 0.0000
# 3 27.4570 25.7905 59.5515 0.0000 -0.7936 0.0000
# 4 0.0000 0.0000 0.0000 28.8902 0.0000 4.5183
# 5 -17.1451 -1.6041 -0.7936 0.0000 30.6709 0.0000
# 6 0.0000 0.0000 0.0000 4.5183 0.0000 23.8438
#
#
#
# Elastic Compliance Matrix: (Units=1/GPa)
#
#
# Indices 1 2 3 4 5 6 
#
# 1 0.010003 -0.005138 -0.002317 0.000000 0.005263 0.000000
# 2 -0.005138 0.016113 -0.004638 0.000000 -0.002149 0.000000
# 3 -0.002317 -0.004638 0.019855 0.000000 -0.001024 0.000000
# 4 0.000000 0.000000 0.000000 0.035671 0.000000 -0.006759
# 5 0.005263 -0.002149 -0.001024 0.000000 0.035407 0.000000
# 6 0.000000 0.000000 0.000000 -0.006759 0.000000 0.043220
#
#
# Mechanical properties :
#
#
# Convention : Reuss Voigt Hill
#
# Bulk Modulus (GPa) = 45.90089 54.91999 50.41044
# Shear Modulus (GPa) = 26.08021 28.84334 27.46178
#
# Velocity S-wave (km/s) = 3.56852 3.75280 3.66182
# Velocity P-wave (km/s) = 6.27626 6.75234 6.51865
#
# Compressibility (1/GPa) = 0.02178607
#
# Stress axis : x y z
#
# Youngs Moduli (GPa) = 99.97163 62.06284 50.36438
#
# Poissons Ratio (x) = 0.31886 0.11668
# Poissons Ratio (y) = 0.51362 0.23359
# Poissons Ratio (z) = 0.23161 0.28784
#
# Static dielectric constant tensor:
#      x y z
#    x 4.452080 0.000000 -0.283740 
#    y 0.000000 3.638000 0.000000 
#    z -0.283740 0.000000 3.650560 
# 
# 
# High freq. dielectric constant tensor:
#      x y z
#    x 1.824400 0.000000 -0.000590 
#    y 0.000000 1.781360 0.000000 
#    z -0.000590 0.000000 1.776980 
# 
# From -- ./inp_files/34253.got.cif
#   From: 2010.06.25/outbox.cif.g09.slc.cpg/sg15_18_cif.got.tgz:34253.got - 2010.06.28 07:06:18.
