data_PCOD8136231
_publ_section_title
;
Structure prediction by ZEFSAII (Michael W. Deem and Ramdas Pophale) SiO2 
 PCOD8136231
Probable space group: C 2/C
;
_chemical_formula_sum "Si O2"
_cell_formula_units_Z 48
_cell_length_a 15.880533
_cell_length_b 28.276150
_cell_length_c 16.420791
_cell_angle_alpha 90.000000
_cell_angle_beta 154.698576
_cell_angle_gamma 90.000000
_cell_volume 3151.330538
_symmetry_space_group_name_H-M "C 2/C"
_symmetry_group_IT_number 15
_symmetry_cell_setting 'monoclinic'
loop_
_space_group_symop_operation_xyz
x,y,z
-x,y,1/2-z
-x,-y,-z
x,-y,1/2+z
1/2+x,1/2+y,z
1/2-x,1/2+y,1/2-z
1/2-x,1/2-y,-z
1/2+x,1/2-y,1/2+z
loop_
_atom_site_type_symbol
_atom_site_label
_atom_site_fract_x
_atom_site_fract_y
_atom_site_fract_z
Si Si1 0.319917 0.809555 0.641805
Si Si2 0.987527 0.448200 0.028329
Si Si3 0.706973 0.104454 0.284708
Si Si4 0.799827 0.994879 0.613526
Si Si5 0.413024 0.544714 0.876781
Si Si6 0.500000 0.281289 0.250000
Si Si7 0.500000 0.052443 0.250000
O O1 0.500000 0.833524 0.750000
O O2 0.290937 0.838287 0.700831
O O3 0.362546 0.752923 0.687747
O O4 0.124591 0.815701 0.416211
O O5 0.214553 0.435970 0.248941
O O6 0.897061 0.408404 0.890618
O O7 0.840226 0.452207 0.976511
O O8 0.000000 0.500000 0.000000
O O9 0.580391 0.082879 0.246411
O O10 0.930861 0.086779 0.483389
O O11 0.858509 0.031335 0.736602
O O12 0.682316 0.021207 0.439856
O O13 0.000000 0.973372 0.750000
O O14 0.500000 0.500000 0.000000
#
# Coordination Sequence:
#
# PCOD8136231 Si02
#       7
#     8   8   8   8   8   4   4
#     4   9  18  30  50  66  91 123 153 195 241 298
#     4  10  20  33  42  59  95 125 146 206 251 261
#     4  12  20  29  48  68  90 120 172 200 226 287
#     4  11  21  29  45  59  82 127 160 193 240 276
#     4  11  19  33  45  60  92 126 156 202 252 271
#     4   8  17  36  46  64 102 120 144 200 278 269
#     4  12  19  28  40  68  88 110 166 206 222 265
#
# _framework density 15.231661000000001
#
# number of rings (size 3 to 8) (size 9 to 14) (size 15 to 20)
#    0.500    1.000    9.167    0.000    0.000    2.667 
#    0.000    0.000    0.000    0.000    0.000    0.000 
#    0.000    0.000    0.000    1.500    0.000    0.667 
#
# Total GULP energy -297345.763602 kJ/mol
# GULP energy per Si atom -12389.406817 kJ/mol
# Density = 1.519699 g / cm^3
# Si number density = 15.231661 Si / 1000 Ang^3
#
#
#
# Elastic Constant Matrix: (Units=GPa)
#
#
# Indices 1 2 3 4 5 6 
#
# 1 66.8213 12.5731 22.1634 0.0000 22.9909 0.0001
# 2 12.5731 45.7303 17.1569 -0.0001 -1.0955 0.0000
# 3 22.1634 17.1569 99.1740 0.0002 16.8325 0.0004
# 4 0.0000 -0.0001 0.0002 5.7254 0.0001 -15.7190
# 5 22.9909 -1.0955 16.8325 0.0001 33.7847 0.0002
# 6 0.0001 0.0000 0.0004 -15.7190 0.0002 11.9212
#
#
#
# Elastic Compliance Matrix: (Units=1/GPa)
#
#
# Indices 1 2 3 4 5 6 
#
# 1 0.021310 -0.005665 -0.001409 0.000000 -0.013983 0.000000
# 2 -0.005665 0.025179 -0.004241 0.000000 0.006785 0.000000
# 3 -0.001409 -0.004241 0.012008 0.000000 -0.005161 0.000000
# 4 0.000000 0.000000 0.000000 -0.066661 0.000000 -0.087898
# 5 -0.013983 0.006785 -0.005161 0.000000 0.041907 0.000000
# 6 0.000000 0.000000 0.000000 -0.087898 0.000000 -0.032015
#
#
# Mechanical properties :
#
#
# Convention : Reuss Voigt Hill
#
# Bulk Modulus (GPa) = 27.88209 35.05692 31.46951
# Shear Modulus (GPa) = 137.69300 20.94173 79.31737
#
# Velocity S-wave (km/s) = 9.51816 3.71196 7.22406
# Velocity P-wave (km/s) = 11.79572 6.43718 9.50201
#
# Compressibility (1/GPa) = 0.03586532
#
# Stress axis : x y z
#
# Youngs Moduli (GPa) = 46.92684 39.71601 83.27828
#
# Poissons Ratio (x) = 0.22500 0.11733
# Poissons Ratio (y) = 0.26586 0.35321
# Poissons Ratio (z) = 0.06611 0.16845
#
# Static dielectric constant tensor:
#      x y z
#    x 2.543020 0.000010 0.173730 
#    y 0.000010 2.612620 0.000000 
#    z 0.173730 0.000000 3.296870 
# 
# 
# High freq. dielectric constant tensor:
#      x y z
#    x 1.558700 0.000000 0.021950 
#    y 0.000000 1.532490 0.000000 
#    z 0.021950 0.000000 1.608670 
# 
# From -- ./inp_files/157407.got.cif
#   From: 2010.06.25/outbox.cif.g09.slc.cpg/sg15_79_cif.got.tgz:157407.got - 2010.06.28 07:06:18.
