data_PCOD8136325
_publ_section_title
;
Structure prediction by ZEFSAII (Michael W. Deem and Ramdas Pophale) SiO2 
 PCOD8136325
Probable space group: C 2/C
;
_chemical_formula_sum "Si O2"
_cell_formula_units_Z 56
_cell_length_a 24.015099
_cell_length_b 14.598673
_cell_length_c 9.022558
_cell_angle_alpha 90.000000
_cell_angle_beta 124.684726
_cell_angle_gamma 90.000000
_cell_volume 2601.090731
_symmetry_space_group_name_H-M "C 2/C"
_symmetry_group_IT_number 15
_symmetry_cell_setting 'monoclinic'
loop_
_space_group_symop_operation_xyz
x,y,z
-x,y,1/2-z
-x,-y,-z
x,-y,1/2+z
1/2+x,1/2+y,z
1/2-x,1/2+y,1/2-z
1/2-x,1/2-y,-z
1/2+x,1/2-y,1/2+z
loop_
_atom_site_type_symbol
_atom_site_label
_atom_site_fract_x
_atom_site_fract_y
_atom_site_fract_z
Si Si1 0.528171 0.186035 0.085667
Si Si2 0.000000 0.837033 0.250000
Si Si3 0.701246 0.481845 0.427854
Si Si4 0.000000 0.477388 0.750000
Si Si5 0.623905 0.202053 0.705123
Si Si6 0.878119 0.388250 0.001581
Si Si7 0.290991 0.946886 0.301289
Si Si8 0.870813 0.104837 0.410201
O O1 0.548070 0.266570 0.230512
O O2 0.516783 0.085390 0.135036
O O3 0.456972 0.211654 0.902374
O O4 0.590705 0.182824 0.068239
O O5 0.048736 0.897671 0.428117
O O6 0.752121 0.426546 0.396334
O O7 0.741635 0.559117 0.583614
O O8 0.643995 0.528754 0.237262
O O9 0.668002 0.412427 0.494400
O O10 0.064833 0.541074 0.861117
O O11 0.650907 0.172609 0.907419
O O12 0.647641 0.125263 0.621860
O O13 0.653508 0.298560 0.694936
O O14 0.816937 0.447621 0.842040
#
# Coordination Sequence:
#
# PCOD8136325 Si02
#       8
#     8   4   8   4   8   8   8   8
#     4  10  20  33  54  95 141 160 210 256 306 384
#     4   9  22  42  68  97 116 156 208 277 330 380
#     4  10  24  46  63  88 126 165 221 271 310 365
#     4  11  18  28  54  85 136 190 198 237 308 376
#     4  11  21  37  62  94 131 172 213 256 312 377
#     4  12  20  32  57  96 140 181 202 240 311 386
#     4  11  22  38  63  94 131 177 213 243 302 388
#     4  10  24  47  70  91 120 158 209 283 329 376
#
# _framework density 21.529430000000001
#
# number of rings (size 3 to 8) (size 9 to 14) (size 15 to 20)
#    0.000    1.429    4.286    1.286    0.000    1.714 
#    5.143    0.000    0.000    0.000    0.000    0.000 
#    0.000    0.000    0.000    0.000    0.000    0.000 
#
# Total GULP energy -347113.288282 kJ/mol
# GULP energy per Si atom -12396.903153 kJ/mol
# Density = 2.148043 g / cm^3
# Si number density = 21.529430 Si / 1000 Ang^3
#
#
#
# Elastic Constant Matrix: (Units=GPa)
#
#
# Indices 1 2 3 4 5 6 
#
# 1 111.3332 51.4573 41.7535 0.0000 -29.4359 0.0000
# 2 51.4573 77.8333 36.3428 0.0000 -15.1861 0.0000
# 3 41.7535 36.3428 91.5534 0.0000 -9.9973 0.0000
# 4 0.0000 0.0000 0.0000 27.8074 0.0000 -4.5504
# 5 -29.4359 -15.1861 -9.9973 0.0000 40.7944 0.0000
# 6 0.0000 0.0000 0.0000 -4.5504 0.0000 24.3652
#
#
#
# Elastic Compliance Matrix: (Units=1/GPa)
#
#
# Indices 1 2 3 4 5 6 
#
# 1 0.015668 -0.007245 -0.003421 0.000000 0.007770 0.000000
# 2 -0.007245 0.019951 -0.004496 0.000000 0.001097 0.000000
# 3 -0.003421 -0.004496 0.014195 0.000000 -0.000663 0.000000
# 4 0.000000 0.000000 0.000000 0.037095 0.000000 0.006928
# 5 0.007770 0.001097 -0.000663 0.000000 0.030366 0.000000
# 6 0.000000 0.000000 0.000000 0.006928 0.000000 0.042336
#
#
# Mechanical properties :
#
#
# Convention : Reuss Voigt Hill
#
# Bulk Modulus (GPa) = 51.30726 59.98079 55.64402
# Shear Modulus (GPa) = 25.45412 28.67114 27.06263
#
# Velocity S-wave (km/s) = 3.44218 3.65323 3.54927
# Velocity P-wave (km/s) = 6.29929 6.76130 6.53438
#
# Compressibility (1/GPa) = 0.01949042
#
# Stress axis : x y z
#
# Youngs Moduli (GPa) = 63.82420 50.12237 70.44745
#
# Poissons Ratio (x) = 0.36314 0.24101
# Poissons Ratio (y) = 0.46241 0.31672
# Poissons Ratio (z) = 0.21835 0.22534
#
# Static dielectric constant tensor:
#      x y z
#    x 3.890560 0.000000 -0.094840 
#    y 0.000000 3.645530 0.000000 
#    z -0.094840 0.000000 4.047410 
# 
# 
# High freq. dielectric constant tensor:
#      x y z
#    x 1.839820 0.000000 -0.009500 
#    y 0.000000 1.816010 0.000000 
#    z -0.009500 0.000000 1.852650 
# 
# From -- ./inp_files/62037.got.cif
#   From: 2010.06.25/outbox.cif.g09.slc.cpg/sg15_32_cif.got.tgz:62037.got - 2010.06.28 07:06:18.
