data_PCOD8136722
_publ_section_title
;
Structure prediction by ZEFSAII (Michael W. Deem and Ramdas Pophale) SiO2 
 PCOD8136722
Probable space group: C 2/C
;
_chemical_formula_sum "Si O2"
_cell_formula_units_Z 60
_cell_length_a 15.768437
_cell_length_b 11.120483
_cell_length_c 13.880817
_cell_angle_alpha 90.000000
_cell_angle_beta 91.830080
_cell_angle_gamma 90.000000
_cell_volume 2432.796321
_symmetry_space_group_name_H-M "C 2/C"
_symmetry_group_IT_number 15
_symmetry_cell_setting 'monoclinic'
loop_
_space_group_symop_operation_xyz
x,y,z
-x,y,1/2-z
-x,-y,-z
x,-y,1/2+z
1/2+x,1/2+y,z
1/2-x,1/2+y,1/2-z
1/2-x,1/2-y,-z
1/2+x,1/2-y,1/2+z
loop_
_atom_site_type_symbol
_atom_site_label
_atom_site_fract_x
_atom_site_fract_y
_atom_site_fract_z
Si Si1 0.581530 0.710054 0.557615
Si Si2 0.745218 0.308203 0.169340
Si Si3 0.629653 0.615197 0.369050
Si Si4 0.408944 0.108843 0.199216
Si Si5 0.846277 0.574789 0.830036
Si Si6 0.139628 0.452793 0.473275
Si Si7 0.500000 0.222322 0.750000
Si Si8 0.569505 0.361348 0.331414
O O1 0.643019 0.694904 0.654140
O O2 0.618252 0.616733 0.482579
O O3 0.583345 0.847447 0.518870
O O4 0.485682 0.670900 0.575278
O O5 0.779985 0.172664 0.154655
O O6 0.770367 0.348885 0.278400
O O7 0.784141 0.394194 0.086216
O O8 0.553650 0.693692 0.322049
O O9 0.630919 0.476045 0.339776
O O10 0.500000 0.131638 0.250000
O O11 0.371810 0.242587 0.179112
O O12 0.346112 0.051576 0.274039
O O13 0.418244 0.028131 0.103361
O O14 0.828873 0.546529 0.942247
O O15 0.937401 0.639274 0.811996
O O16 0.500000 0.393249 0.250000
#
# Coordination Sequence:
#
# PCOD8136722 Si02
#       8
#     8   8   8   8   8   8   4   8
#     4  11  23  40  64  91 124 165 214 263 312 384
#     4   9  22  44  61  93 123 163 220 258 307 392
#     4  10  20  40  62  86 122 167 204 256 314 376
#     4  10  21  35  57  97 131 150 204 263 314 374
#     4  10  20  37  63  92 123 156 208 272 303 373
#     4  10  20  37  67  89 122 167 202 256 328 361
#     4  10  20  34  60  96 124 146 222 260 300 372
#     4  11  23  39  60  92 129 165 199 256 325 379
#
# _framework density 24.662979
#
# number of rings (size 3 to 8) (size 9 to 14) (size 15 to 20)
#    0.000    1.867    1.333    4.400    1.867    1.067 
#    4.800    0.000    0.000    4.000    0.000    0.000 
#    0.000    0.000    0.000    0.000    0.000    0.000 
#
# Total GULP energy -371821.823705 kJ/mol
# GULP energy per Si atom -12394.060790 kJ/mol
# Density = 2.460685 g / cm^3
# Si number density = 24.662979 Si / 1000 Ang^3
#
#
#
# Elastic Constant Matrix: (Units=GPa)
#
#
# Indices 1 2 3 4 5 6 
#
# 1 69.3757 27.0218 9.8750 0.0000 -0.1849 0.0000
# 2 27.0218 160.1056 35.0099 0.0000 1.5663 0.0000
# 3 9.8750 35.0099 109.7261 0.0000 6.4202 0.0000
# 4 0.0000 0.0000 0.0000 34.5937 0.0000 1.7852
# 5 -0.1849 1.5663 6.4202 0.0000 23.5046 0.0000
# 6 0.0000 0.0000 0.0000 1.7852 0.0000 7.7696
#
#
#
# Elastic Compliance Matrix: (Units=1/GPa)
#
#
# Indices 1 2 3 4 5 6 
#
# 1 0.015470 -0.002478 -0.000628 0.000000 0.000458 0.000000
# 2 -0.002478 0.007112 -0.002050 0.000000 0.000067 0.000000
# 3 -0.000628 -0.002050 0.009976 0.000000 -0.002593 0.000000
# 4 0.000000 0.000000 0.000000 0.029254 0.000000 -0.006722
# 5 0.000458 0.000067 -0.002593 0.000000 0.043252 0.000000
# 6 0.000000 0.000000 0.000000 -0.006722 0.000000 0.130251
#
#
# Mechanical properties :
#
#
# Convention : Reuss Voigt Hill
#
# Bulk Modulus (GPa) = 44.95406 53.66896 49.31151
# Shear Modulus (GPa) = 19.75945 30.99363 25.37654
#
# Velocity S-wave (km/s) = 2.83358 3.54882 3.21118
# Velocity P-wave (km/s) = 5.38261 6.21292 5.81261
#
# Compressibility (1/GPa) = 0.02224493
#
# Stress axis : x y z
#
# Youngs Moduli (GPa) = 64.64064 140.61290 100.24085
#
# Poissons Ratio (x) = 0.34844 0.06299
# Poissons Ratio (y) = 0.16018 0.20549
# Poissons Ratio (z) = 0.04062 0.28826
#
# Static dielectric constant tensor:
#      x y z
#    x 4.144130 0.000000 0.074050 
#    y 0.000000 4.624600 0.000000 
#    z 0.074050 0.000000 4.746010 
# 
# 
# High freq. dielectric constant tensor:
#      x y z
#    x 1.967370 0.000000 -0.007050 
#    y 0.000000 1.986460 0.000000 
#    z -0.007050 0.000000 1.987000 
# 
# From -- ./inp_files/160978.got.cif
#   From: 2010.06.25/outbox.cif.g09.slc.cpg/sg15_81_cif.got.tgz:160978.got - 2010.06.28 07:06:18.
