data_PCOD8136420
_publ_section_title
;
Structure prediction by ZEFSAII (Michael W. Deem and Ramdas Pophale) SiO2 
 PCOD8136420
Probable space group: C 2/C
;
_chemical_formula_sum "Si O2"
_cell_formula_units_Z 60
_cell_length_a 15.093543
_cell_length_b 12.355899
_cell_length_c 22.121214
_cell_angle_alpha 90.000000
_cell_angle_beta 129.513346
_cell_angle_gamma 90.000000
_cell_volume 3182.710583
_symmetry_space_group_name_H-M "C 2/C"
_symmetry_group_IT_number 15
_symmetry_cell_setting 'monoclinic'
loop_
_space_group_symop_operation_xyz
x,y,z
-x,y,1/2-z
-x,-y,-z
x,-y,1/2+z
1/2+x,1/2+y,z
1/2-x,1/2+y,1/2-z
1/2-x,1/2-y,-z
1/2+x,1/2-y,1/2+z
loop_
_atom_site_type_symbol
_atom_site_label
_atom_site_fract_x
_atom_site_fract_y
_atom_site_fract_z
Si Si1 0.107348 0.675369 0.088515
Si Si2 0.000000 0.555154 0.250000
Si Si3 0.623062 0.588239 0.601008
Si Si4 0.519240 0.988974 0.127916
Si Si5 0.115066 0.015125 0.976246
Si Si6 0.750996 0.384879 0.633629
Si Si7 0.123186 0.326952 0.085523
Si Si8 0.210206 0.486809 0.545314
O O1 0.164663 0.789602 0.133550
O O2 0.076006 0.603758 0.133471
O O3 0.199023 0.611891 0.087299
O O4 0.992422 0.701071 0.000835
O O5 0.985423 0.478545 0.301928
O O6 0.888040 0.630738 0.193074
O O7 0.508373 0.568139 0.590713
O O8 0.595176 0.581772 0.516378
O O9 0.717337 0.494655 0.657200
O O10 0.594320 0.891082 0.134263
O O11 0.391269 0.980508 0.047179
O O12 0.168612 0.973946 0.936585
O O13 0.203086 0.102951 0.044138
O O14 0.691172 0.279673 0.636107
O O15 0.205116 0.399969 0.078787
#
# Coordination Sequence:
#
# PCOD8136420 Si02
#       8
#     8   4   8   8   8   8   8   8
#     4   9  16  31  54  81 106 128 167 218 275 314
#     4  12  22  38  52  74 106 142 194 210 236 334
#     4   9  17  31  48  76 108 134 162 213 276 312
#     4   9  19  33  52  77 105 138 171 212 260 309
#     4   9  16  29  46  77 105 132 165 209 270 304
#     4  10  20  34  50  76 103 140 175 210 260 310
#     4   9  17  33  54  77 104 132 167 223 276 300
#     4   9  17  29  53  83 105 127 166 222 269 309
#
# _framework density 18.851856999999999
#
# number of rings (size 3 to 8) (size 9 to 14) (size 15 to 20)
#    0.800    1.867    2.667    1.600    0.000    2.133 
#    2.400    1.333    0.000    0.000    0.000    0.000 
#    0.000    0.000    0.000    0.000    0.000    0.000 
#
# Total GULP energy -371764.398103 kJ/mol
# GULP energy per Si atom -12392.146603 kJ/mol
# Density = 1.880895 g / cm^3
# Si number density = 18.851857 Si / 1000 Ang^3
#
#
#
# Elastic Constant Matrix: (Units=GPa)
#
#
# Indices 1 2 3 4 5 6 
#
# 1 143.2366 52.4994 29.5161 0.0000 -6.7438 0.0000
# 2 52.4994 134.3177 20.3540 0.0000 5.9342 0.0000
# 3 29.5161 20.3540 44.0702 0.0000 -5.8371 0.0000
# 4 0.0000 0.0000 0.0000 5.6189 0.0000 1.2703
# 5 -6.7438 5.9342 -5.8371 0.0000 30.8460 0.0000
# 6 0.0000 0.0000 0.0000 1.2703 0.0000 18.1701
#
#
#
# Elastic Compliance Matrix: (Units=1/GPa)
#
#
# Indices 1 2 3 4 5 6 
#
# 1 0.009063 -0.002937 -0.004489 0.000000 0.001697 0.000000
# 2 -0.002937 0.009119 -0.002628 0.000000 -0.002894 0.000000
# 3 -0.004489 -0.002628 0.027538 0.000000 0.004735 0.000000
# 4 0.000000 0.000000 0.000000 0.180829 0.000000 -0.012642
# 5 0.001697 -0.002894 0.004735 0.000000 0.034243 0.000000
# 6 0.000000 0.000000 0.000000 -0.012642 0.000000 0.055919
#
#
# Mechanical properties :
#
#
# Convention : Reuss Voigt Hill
#
# Bulk Modulus (GPa) = 39.04255 58.48485 48.76370
# Shear Modulus (GPa) = 14.47784 25.54401 20.01092
#
# Velocity S-wave (km/s) = 2.77425 3.68501 3.26158
# Velocity P-wave (km/s) = 5.56930 7.01402 6.33299
#
# Compressibility (1/GPa) = 0.02561308
#
# Stress axis : x y z
#
# Youngs Moduli (GPa) = 110.34124 109.66017 36.31326
#
# Poissons Ratio (x) = 0.32208 0.16299
# Poissons Ratio (y) = 0.32408 0.09543
# Poissons Ratio (z) = 0.49527 0.28817
#
# Static dielectric constant tensor:
#      x y z
#    x 3.435640 0.000000 -0.020810 
#    y 0.000000 3.323000 0.000000 
#    z -0.020810 0.000000 2.941080 
# 
# 
# High freq. dielectric constant tensor:
#      x y z
#    x 1.735580 0.000000 -0.000180 
#    y 0.000000 1.720510 0.000000 
#    z -0.000180 0.000000 1.678480 
# 
# From -- ./inp_files/273656.got.cif
#   From: 2010.06.25/outbox.cif.g09.slc.cpg/sg15_137_cif.got.tgz:273656.got - 2010.06.28 07:06:18.
