data_PCOD8136090
_publ_section_title
;
Structure prediction by ZEFSAII (Michael W. Deem and Ramdas Pophale) SiO2 
 PCOD8136090
Probable space group: C 2/C
;
_chemical_formula_sum "Si O2"
_cell_formula_units_Z 48
_cell_length_a 16.442815
_cell_length_b 24.840497
_cell_length_c 11.017265
_cell_angle_alpha 90.000000
_cell_angle_beta 147.470083
_cell_angle_gamma 90.000000
_cell_volume 2419.816974
_symmetry_space_group_name_H-M "C 2/C"
_symmetry_group_IT_number 15
_symmetry_cell_setting 'monoclinic'
loop_
_space_group_symop_operation_xyz
x,y,z
-x,y,1/2-z
-x,-y,-z
x,-y,1/2+z
1/2+x,1/2+y,z
1/2-x,1/2+y,1/2-z
1/2-x,1/2-y,-z
1/2+x,1/2-y,1/2+z
loop_
_atom_site_type_symbol
_atom_site_label
_atom_site_fract_x
_atom_site_fract_y
_atom_site_fract_z
Si Si1 0.293456 0.867604 0.146459
Si Si2 0.972170 0.716574 0.571833
Si Si3 0.420794 0.017830 0.775414
Si Si4 0.382733 0.514219 0.691395
Si Si5 0.652194 0.318058 0.729796
Si Si6 0.540070 0.413873 0.999770
O O1 0.421154 0.827418 0.360527
O O2 0.391084 0.918859 0.229191
O O3 0.164522 0.882221 0.079652
O O4 0.211099 0.835986 0.935268
O O5 0.793231 0.703092 0.325117
O O6 0.000000 0.716002 0.750000
O O7 0.020444 0.773596 0.576664
O O8 0.500000 0.000187 0.750000
O O9 0.264725 0.986034 0.576644
O O10 0.500000 0.000000 0.000000
O O11 0.500000 0.543045 0.750000
O O12 0.363965 0.549479 0.787712
O O13 0.433463 0.452785 0.785101
O O14 0.569086 0.370865 0.569447
#
# Coordination Sequence:
#
# PCOD8136090 Si02
#       6
#     8   8   8   8   8   8
#     4  11  20  35  53  85 117 165 194 253 309 361
#     4  10  20  30  52  85 124 160 197 243 316 369
#     4  12  25  40  59  88 126 162 207 260 311 366
#     4  11  23  39  59  86 115 167 208 252 299 372
#     4  11  19  34  54  86 124 159 195 250 307 371
#     4  11  21  36  60  82 121 159 212 242 306 368
#
# _framework density 19.836212
#
# number of rings (size 3 to 8) (size 9 to 14) (size 15 to 20)
#    0.000    1.000    3.333    7.000    2.333    0.000 
#    0.000    0.000    0.000    0.000    0.000   11.667 
#    0.000    0.000    0.000    0.000    0.000    0.000 
#
# Total GULP energy -297414.590591 kJ/mol
# GULP energy per Si atom -12392.274608 kJ/mol
# Density = 1.979106 g / cm^3
# Si number density = 19.836212 Si / 1000 Ang^3
#
#
#
# Elastic Constant Matrix: (Units=GPa)
#
#
# Indices 1 2 3 4 5 6 
#
# 1 79.6633 46.7056 53.6469 0.0000 17.0955 0.0000
# 2 46.7056 102.7352 46.5987 0.0000 18.6427 0.0000
# 3 53.6469 46.5987 114.5659 0.0000 10.3771 0.0000
# 4 0.0000 0.0000 0.0000 5.9522 0.0000 -3.8996
# 5 17.0955 18.6427 10.3771 0.0000 31.3054 0.0000
# 6 0.0000 0.0000 0.0000 -3.8996 0.0000 19.8280
#
#
#
# Elastic Compliance Matrix: (Units=1/GPa)
#
#
# Indices 1 2 3 4 5 6 
#
# 1 0.022280 -0.005524 -0.007611 0.000000 -0.006355 0.000000
# 2 -0.005524 0.014368 -0.002841 0.000000 -0.004598 0.000000
# 3 -0.007611 -0.002841 0.013318 0.000000 0.001433 0.000000
# 4 0.000000 0.000000 0.000000 0.192855 0.000000 0.037929
# 5 -0.006355 -0.004598 0.001433 0.000000 0.037677 0.000000
# 6 0.000000 0.000000 0.000000 0.037929 0.000000 0.057893
#
#
# Mechanical properties :
#
#
# Convention : Reuss Voigt Hill
#
# Bulk Modulus (GPa) = 55.50801 65.65187 60.57994
# Shear Modulus (GPa) = 13.28561 21.41801 17.35181
#
# Velocity S-wave (km/s) = 2.59079 3.28951 2.96083
# Velocity P-wave (km/s) = 6.08223 6.89903 6.50347
#
# Compressibility (1/GPa) = 0.01801542
#
# Stress axis : x y z
#
# Youngs Moduli (GPa) = 44.88278 69.59902 75.08586
#
# Poissons Ratio (x) = 0.38446 0.57145
# Poissons Ratio (y) = 0.24793 0.21332
# Poissons Ratio (z) = 0.34159 0.19773
#
# Static dielectric constant tensor:
#      x y z
#    x 3.556420 0.000000 0.507440 
#    y 0.000000 3.833360 0.000000 
#    z 0.507440 0.000000 3.724590 
# 
# 
# High freq. dielectric constant tensor:
#      x y z
#    x 1.757530 0.000000 0.046310 
#    y 0.000000 1.781610 0.000000 
#    z 0.046310 0.000000 1.751070 
# 
# From -- ./inp_files/108128.got.cif
#   From: 2010.06.25/outbox.cif.g09.slc.cpg/sg15_55_cif.got.tgz:108128.got - 2010.06.28 07:06:18.
