data_PCOD8136836
_publ_section_title
;
Structure prediction by ZEFSAII (Michael W. Deem and Ramdas Pophale) SiO2 
 PCOD8136836
Probable space group: C 2/C
;
_chemical_formula_sum "Si O2"
_cell_formula_units_Z 40
_cell_length_a 31.500197
_cell_length_b 8.273235
_cell_length_c 25.941031
_cell_angle_alpha 90.000000
_cell_angle_beta 163.573428
_cell_angle_gamma 90.000000
_cell_volume 1911.763956
_symmetry_space_group_name_H-M "C 2/C"
_symmetry_group_IT_number 15
_symmetry_cell_setting 'monoclinic'
loop_
_space_group_symop_operation_xyz
x,y,z
-x,y,1/2-z
-x,-y,-z
x,-y,1/2+z
1/2+x,1/2+y,z
1/2-x,1/2+y,1/2-z
1/2-x,1/2-y,-z
1/2+x,1/2-y,1/2+z
loop_
_atom_site_type_symbol
_atom_site_label
_atom_site_fract_x
_atom_site_fract_y
_atom_site_fract_z
Si Si1 0.106188 0.633508 0.224458
Si Si2 0.584582 0.784686 0.899808
Si Si3 0.890427 0.854877 0.362748
Si Si4 0.984047 0.719811 0.574215
Si Si5 0.268439 0.074053 0.393559
O O1 0.286717 0.653142 0.438214
O O2 0.042081 0.735641 0.101713
O O3 0.072908 0.447438 0.173902
O O4 0.034970 0.704787 0.193361
O O5 0.500000 0.729519 0.750000
O O6 0.657432 0.965225 0.975219
O O7 0.875268 0.754618 0.398380
O O8 0.740788 0.942357 0.165549
O O9 0.000000 0.000000 0.500000
O O10 0.107733 0.860975 0.724821
O O11 0.876441 0.717782 0.499253
#
# Coordination Sequence:
#
# PCOD8136836 Si02
#       5
#     8   8   8   8   8
#     4  10  21  35  57  84 106 139 185 221 267 327
#     4  10  21  40  58  77 106 142 183 232 273 312
#     4   9  19  34  53  79 114 146 170 212 268 322
#     4  10  20  35  54  82 113 143 177 219 266 324
#     4   9  21  36  54  80 110 146 182 216 266 325
#
# _framework density 20.923083999999999
#
# number of rings (size 3 to 8) (size 9 to 14) (size 15 to 20)
#    0.000    2.400    0.000    1.200    0.000   16.000 
#    0.000    5.000    0.000    0.000    0.000    0.000 
#    0.000    0.000    0.000    0.000    0.000    0.000 
#
# Total GULP energy -247814.086157 kJ/mol
# GULP energy per Si atom -12390.704308 kJ/mol
# Density = 2.087546 g / cm^3
# Si number density = 20.923084 Si / 1000 Ang^3
#
#
#
# Elastic Constant Matrix: (Units=GPa)
#
#
# Indices 1 2 3 4 5 6 
#
# 1 20.8226 -0.3023 3.0743 -0.0001 1.2705 -0.0001
# 2 -0.3023 53.4352 15.4389 -0.0004 -1.7994 -0.0003
# 3 3.0743 15.4389 70.6139 -0.0005 -2.2433 -0.0004
# 4 -0.0001 -0.0004 -0.0005 31.7084 -0.0003 4.9400
# 5 1.2705 -1.7994 -2.2433 -0.0003 30.0252 -0.0002
# 6 -0.0001 -0.0003 -0.0004 4.9400 -0.0002 27.1083
#
#
#
# Elastic Compliance Matrix: (Units=1/GPa)
#
#
# Indices 1 2 3 4 5 6 
#
# 1 0.048521 0.000888 -0.002376 0.000000 -0.002177 0.000000
# 2 0.000888 0.020015 -0.004388 0.000000 0.000834 0.000000
# 3 -0.002376 -0.004388 0.015255 0.000000 0.000977 0.000000
# 4 0.000000 0.000000 0.000000 0.032459 0.000000 -0.005915
# 5 -0.002177 0.000834 0.000977 0.000000 0.033521 0.000000
# 6 0.000000 0.000000 0.000000 -0.005915 0.000000 0.037967
#
#
# Mechanical properties :
#
#
# Convention : Reuss Voigt Hill
#
# Bulk Modulus (GPa) = 13.88135 20.14374 17.01255
# Shear Modulus (GPa) = 22.37095 26.21243 24.29169
#
# Velocity S-wave (km/s) = 3.27341 3.54333 3.41104
# Velocity P-wave (km/s) = 4.57557 5.13699 4.86439
#
# Compressibility (1/GPa) = 0.07203910
#
# Stress axis : x y z
#
# Youngs Moduli (GPa) = 20.60956 49.96193 65.55044
#
# Poissons Ratio (x) = -0.04434 0.15572
# Poissons Ratio (y) = -0.01829 0.28765
# Poissons Ratio (z) = 0.04896 0.21925
#
# Static dielectric constant tensor:
#      x y z
#    x 3.656420 0.000000 -0.278790 
#    y 0.000000 3.888120 0.000000 
#    z -0.278790 0.000000 4.638810 
# 
# 
# High freq. dielectric constant tensor:
#      x y z
#    x 1.793990 0.000000 0.007450 
#    y 0.000000 1.821030 0.000000 
#    z 0.007450 0.000000 1.822320 
# 
# From -- ./inp_files/60036.got.cif
#   From: 2010.06.25/outbox.cif.g09.slc.cpg/sg15_31_cif.got.tgz:60036.got - 2010.06.28 07:06:18.
