data_PCOD8136515
_publ_section_title
;
Structure prediction by ZEFSAII (Michael W. Deem and Ramdas Pophale) SiO2 
 PCOD8136515
Probable space group: C 2/C
;
_chemical_formula_sum "Si O2"
_cell_formula_units_Z 56
_cell_length_a 20.030955
_cell_length_b 18.260069
_cell_length_c 8.886307
_cell_angle_alpha 90.000000
_cell_angle_beta 117.509443
_cell_angle_gamma 90.000000
_cell_volume 2882.816762
_symmetry_space_group_name_H-M "C 2/C"
_symmetry_group_IT_number 15
_symmetry_cell_setting 'monoclinic'
loop_
_space_group_symop_operation_xyz
x,y,z
-x,y,1/2-z
-x,-y,-z
x,-y,1/2+z
1/2+x,1/2+y,z
1/2-x,1/2+y,1/2-z
1/2-x,1/2-y,-z
1/2+x,1/2-y,1/2+z
loop_
_atom_site_type_symbol
_atom_site_label
_atom_site_fract_x
_atom_site_fract_y
_atom_site_fract_z
Si Si1 0.803646 0.586913 0.299286
Si Si2 0.876205 0.473021 0.588591
Si Si3 0.433376 0.190823 0.463591
Si Si4 0.425260 0.455404 0.264165
Si Si5 0.991522 0.847359 0.572214
Si Si6 0.500000 0.863538 0.750000
Si Si7 0.500000 0.917915 0.250000
Si Si8 0.632556 0.590617 0.102019
O O1 0.826198 0.512172 0.409445
O O2 0.819680 0.567322 0.143195
O O3 0.848514 0.660072 0.397849
O O4 0.717425 0.609224 0.235951
O O5 0.937983 0.413384 0.596481
O O6 0.926770 0.535358 0.720795
O O7 0.447655 0.270638 0.545920
O O8 0.455486 0.191216 0.312313
O O9 0.488398 0.131896 0.593461
O O10 0.500000 0.476068 0.250000
O O11 0.439606 0.396444 0.410210
O O12 0.395042 0.524943 0.320979
O O13 0.367163 0.426682 0.076842
O O14 0.000000 0.879772 0.750000
O O15 0.074982 0.842488 0.581572
#
# Coordination Sequence:
#
# PCOD8136515 Si02
#       8
#     8   8   8   8   8   4   4   8
#     4  10  20  34  55  85 116 143 176 227 278 325
#     4   9  17  31  54  81 114 141 185 226 272 312
#     4  10  20  34  55  79 113 147 189 218 269 322
#     4  10  21  37  61  87 105 138 186 227 269 325
#     4  11  22  38  59  78 108 147 189 227 264 324
#     4   9  18  30  54  82 107 148 190 224 261 322
#     4   9  16  32  54  80 105 152 186 226 255 324
#     4  11  21  37  60  84 112 140 180 228 280 318
#
# _framework density 19.425446000000001
#
# number of rings (size 3 to 8) (size 9 to 14) (size 15 to 20)
#    0.000    2.000    0.714    4.714    3.000    3.429 
#    0.000    1.429    6.286    0.000    0.000    0.000 
#    0.000    0.000    0.000    0.000    0.000    0.000 
#
# Total GULP energy -346895.108501 kJ/mol
# GULP energy per Si atom -12389.111018 kJ/mol
# Density = 1.938123 g / cm^3
# Si number density = 19.425446 Si / 1000 Ang^3
#
#
#
# Elastic Constant Matrix: (Units=GPa)
#
#
# Indices 1 2 3 4 5 6 
#
# 1 84.7706 32.9246 32.7141 0.0000 15.1772 0.0000
# 2 32.9246 71.7352 19.3836 0.0000 2.9738 0.0000
# 3 32.7141 19.3836 95.6740 0.0000 1.0309 0.0000
# 4 0.0000 0.0000 0.0000 -0.3029 0.0000 -9.8830
# 5 15.1772 2.9738 1.0309 0.0000 33.1988 0.0000
# 6 0.0000 0.0000 0.0000 -9.8830 0.0000 14.8881
#
#
#
# Elastic Compliance Matrix: (Units=1/GPa)
#
#
# Indices 1 2 3 4 5 6 
#
# 1 0.017341 -0.006431 -0.004549 0.000000 -0.007210 0.000000
# 2 -0.006431 0.017183 -0.001298 0.000000 0.001441 0.000000
# 3 -0.004549 -0.001298 0.012251 0.000000 0.001815 0.000000
# 4 0.000000 0.000000 0.000000 -0.145700 0.000000 -0.096718
# 5 -0.007210 0.001441 0.001815 0.000000 0.033232 0.000000
# 6 0.000000 0.000000 0.000000 -0.096718 0.000000 0.002964
#
#
# Mechanical properties :
#
#
# Convention : Reuss Voigt Hill
#
# Bulk Modulus (GPa) = 45.00586 46.91384 45.95985
# Shear Modulus (GPa) = -162.50605 20.70064 -70.90271
#
# Velocity S-wave (km/s) = -9.15630 3.26796 -6.04807
# Velocity P-wave (km/s) = 9.41090 6.20021 5.00612
#
# Compressibility (1/GPa) = 0.02221933
#
# Stress axis : x y z
#
# Youngs Moduli (GPa) = 57.66817 58.19802 81.62663
#
# Poissons Ratio (x) = 0.37426 0.37130
# Poissons Ratio (y) = 0.37086 0.10594
# Poissons Ratio (z) = 0.26232 0.07553
#
# Static dielectric constant tensor:
#      x y z
#    x 3.445120 0.000000 0.018490 
#    y 0.000000 3.353760 0.000000 
#    z 0.018490 0.000000 3.795240 
# 
# 
# High freq. dielectric constant tensor:
#      x y z
#    x 1.742670 0.000000 -0.006640 
#    y 0.000000 1.736290 0.000000 
#    z -0.006640 0.000000 1.761840 
# 
# From -- ./inp_files/56532.got.cif
#   From: 2010.06.25/outbox.cif.g09.slc.cpg/sg15_29_cif.got.tgz:56532.got - 2010.06.28 07:06:18.
