data_PCOD8136255
_publ_section_title
;
Structure prediction by ZEFSAII (Michael W. Deem and Ramdas Pophale) SiO2 
 PCOD8136255
Probable space group: C 2/C
;
_chemical_formula_sum "Si O2"
_cell_formula_units_Z 64
_cell_length_a 27.805883
_cell_length_b 15.665404
_cell_length_c 8.812409
_cell_angle_alpha 90.000000
_cell_angle_beta 65.804174
_cell_angle_gamma 90.000000
_cell_volume 3501.379521
_symmetry_space_group_name_H-M "C 2/C"
_symmetry_group_IT_number 15
_symmetry_cell_setting 'monoclinic'
loop_
_space_group_symop_operation_xyz
x,y,z
-x,y,1/2-z
-x,-y,-z
x,-y,1/2+z
1/2+x,1/2+y,z
1/2-x,1/2+y,1/2-z
1/2-x,1/2-y,-z
1/2+x,1/2-y,1/2+z
loop_
_atom_site_type_symbol
_atom_site_label
_atom_site_fract_x
_atom_site_fract_y
_atom_site_fract_z
Si Si1 0.192875 0.604783 0.217552
Si Si2 0.304340 0.441467 0.624818
Si Si3 0.861643 0.739615 0.036921
Si Si4 0.199718 0.784211 0.656616
Si Si5 0.438443 0.899699 0.342007
Si Si6 0.175634 0.106407 0.740148
Si Si7 0.885891 0.527247 0.622827
Si Si8 0.204637 0.643175 0.881921
O O1 0.242473 0.540125 0.169909
O O2 0.185076 0.670254 0.367816
O O3 0.140156 0.551242 0.252753
O O4 0.201001 0.666802 0.063685
O O5 0.298479 0.377172 0.773761
O O6 0.338347 0.520542 0.646000
O O7 0.330236 0.407080 0.434138
O O8 0.849748 0.783973 0.892759
O O9 0.915641 0.685282 0.954315
O O10 0.862976 0.815019 0.162402
O O11 0.250000 0.750000 0.500000
O O12 0.186002 0.724005 0.813835
O O13 0.500000 0.885345 0.250000
O O14 0.413930 0.909024 0.204472
O O15 0.427602 0.986797 0.450180
O O16 0.234354 0.122532 0.728342
O O17 0.836103 0.567349 0.600092
#
# Coordination Sequence:
#
# PCOD8136255 Si02
#       8
#     8   8   8   8   8   8   8   8
#     4  10  20  33  50  78 112 156 184 224 271 335
#     4  11  22  33  53  79 121 150 191 224 271 337
#     4  11  22  36  55  76 112 149 194 236 286 334
#     4  12  21  32  51  78 112 152 193 228 276 338
#     4  11  24  40  59  82 111 149 198 248 288 327
#     4  11  22  34  52  81 114 156 189 226 278 343
#     4  11  20  35  57  82 110 148 189 230 282 343
#     4  11  20  31  51  75 116 149 186 219 276 344
#
# _framework density 18.278510000000001
#
# number of rings (size 3 to 8) (size 9 to 14) (size 15 to 20)
#    0.000    1.000    6.250    1.875    0.000    2.000 
#    0.000    0.000    0.000    0.000    0.000    3.500 
#    0.000    0.000    0.000    0.000    0.000    0.000 
#
# Total GULP energy -396466.836867 kJ/mol
# GULP energy per Si atom -12389.588652 kJ/mol
# Density = 1.823691 g / cm^3
# Si number density = 18.278510 Si / 1000 Ang^3
#
#
#
# Elastic Constant Matrix: (Units=GPa)
#
#
# Indices 1 2 3 4 5 6 
#
# 1 51.6765 24.6752 37.1862 0.0000 -1.7404 0.0000
# 2 24.6752 85.0947 34.6058 0.0000 -8.2942 0.0000
# 3 37.1862 34.6058 73.7249 0.0000 0.0527 0.0000
# 4 0.0000 0.0000 0.0000 35.6620 0.0000 5.0027
# 5 -1.7404 -8.2942 0.0527 0.0000 25.0846 0.0000
# 6 0.0000 0.0000 0.0000 5.0027 0.0000 20.4958
#
#
#
# Elastic Compliance Matrix: (Units=1/GPa)
#
#
# Indices 1 2 3 4 5 6 
#
# 1 0.031124 -0.003124 -0.014233 0.000000 0.001156 0.000000
# 2 -0.003124 0.015444 -0.005677 0.000000 0.004902 0.000000
# 3 -0.014233 -0.005677 0.023410 0.000000 -0.002914 0.000000
# 4 0.000000 0.000000 0.000000 0.029035 0.000000 -0.007087
# 5 0.001156 0.004902 -0.002914 0.000000 0.041572 0.000000
# 6 0.000000 0.000000 0.000000 -0.007087 0.000000 0.050520
#
#
# Mechanical properties :
#
#
# Convention : Reuss Voigt Hill
#
# Bulk Modulus (GPa) = 41.82469 44.82561 43.32515
# Shear Modulus (GPa) = 20.39624 23.85039 22.12332
#
# Velocity S-wave (km/s) = 3.34407 3.61617 3.48278
# Velocity P-wave (km/s) = 6.15158 6.48170 6.31880
#
# Compressibility (1/GPa) = 0.02390932
#
# Stress axis : x y z
#
# Youngs Moduli (GPa) = 32.12974 64.75007 42.71738
#
# Poissons Ratio (x) = 0.20229 0.60799
# Poissons Ratio (y) = 0.10038 0.24250
# Poissons Ratio (z) = 0.45730 0.36758
#
# Static dielectric constant tensor:
#      x y z
#    x 2.956340 0.000000 0.234640 
#    y 0.000000 3.456080 0.000000 
#    z 0.234640 0.000000 3.505380 
# 
# 
# High freq. dielectric constant tensor:
#      x y z
#    x 1.652910 0.000000 0.031490 
#    y 0.000000 1.707580 0.000000 
#    z 0.031490 0.000000 1.717710 
# 
# From -- ./inp_files/61924.got.cif
#   From: 2010.06.25/outbox.cif.g09.slc.cpg/sg15_31_cif.got.tgz:61924.got - 2010.06.28 07:06:18.
