data_PCOD8136929
_publ_section_title
;
Structure prediction by ZEFSAII (Michael W. Deem and Ramdas Pophale) SiO2 
 PCOD8136929
Probable space group: C 2/C
;
_chemical_formula_sum "Si O2"
_cell_formula_units_Z 64
_cell_length_a 31.695428
_cell_length_b 18.084400
_cell_length_c 19.063550
_cell_angle_alpha 90.000000
_cell_angle_beta 17.545427
_cell_angle_gamma 90.000000
_cell_volume 3294.100746
_symmetry_space_group_name_H-M "C 2/C"
_symmetry_group_IT_number 15
_symmetry_cell_setting 'monoclinic'
loop_
_space_group_symop_operation_xyz
x,y,z
-x,y,1/2-z
-x,-y,-z
x,-y,1/2+z
1/2+x,1/2+y,z
1/2-x,1/2+y,1/2-z
1/2-x,1/2-y,-z
1/2+x,1/2-y,1/2+z
loop_
_atom_site_type_symbol
_atom_site_label
_atom_site_fract_x
_atom_site_fract_y
_atom_site_fract_z
Si Si1 0.106802 0.562496 0.637427
Si Si2 0.103136 0.298368 0.787828
Si Si3 0.119303 0.471741 0.756838
Si Si4 0.406299 0.274431 0.335777
Si Si5 0.096457 0.730275 0.661109
Si Si6 0.089744 0.216197 0.322451
Si Si7 0.422270 0.433913 0.587508
Si Si8 0.572221 0.554496 0.703659
O O1 0.091539 0.509722 0.727399
O O2 0.059671 0.644797 0.736675
O O3 0.257354 0.559993 0.361719
O O4 0.000000 0.530905 0.750000
O O5 0.115959 0.384171 0.750212
O O6 0.242111 0.253002 0.592106
O O7 0.030648 0.255735 0.836900
O O8 0.998003 0.288654 0.018728
O O9 0.281411 0.490556 0.519360
O O10 0.000000 0.500000 0.000000
O O11 0.500000 0.239262 0.250000
O O12 0.395673 0.361240 0.364207
O O13 0.082197 0.786120 0.749732
O O14 0.258868 0.730199 0.383569
O O15 0.000000 0.759706 0.750000
O O16 0.024473 0.142005 0.460278
O O17 0.500000 0.500000 0.500000
O O18 0.463893 0.442578 0.440195
O O19 0.500000 0.517463 0.750000
#
# Coordination Sequence:
#
# PCOD8136929 Si02
#       8
#     8   8   8   8   8   8   8   8
#     4  10  22  39  62  86 119 156 200 242 290 354
#     4  10  20  35  57  82 114 148 187 236 283 348
#     4  11  23  38  58  85 122 158 192 241 298 350
#     4   9  19  35  56  83 110 142 187 239 286 337
#     4   9  20  39  61  86 112 153 199 240 283 343
#     4  10  20  37  61  84 116 149 193 242 288 344
#     4  11  21  39  64  86 117 155 193 246 298 346
#     4  10  21  39  62  86 113 153 205 243 289 352
#
# _framework density 19.428671000000001
#
# number of rings (size 3 to 8) (size 9 to 14) (size 15 to 20)
#    0.000    2.000    2.500    0.750    1.750    1.500 
#    6.750    1.875    0.000    0.000    0.000    0.000 
#    0.000    0.000    0.000    0.000    0.000    0.000 
#
# Total GULP energy -396436.520560 kJ/mol
# GULP energy per Si atom -12388.641268 kJ/mol
# Density = 1.938445 g / cm^3
# Si number density = 19.428671 Si / 1000 Ang^3
#
#
#
# Elastic Constant Matrix: (Units=GPa)
#
#
# Indices 1 2 3 4 5 6 
#
# 1 160.8069 40.0062 70.3439 0.0003 -12.1188 0.0001
# 2 40.0062 52.4234 30.0608 0.0000 -1.9613 0.0002
# 3 70.3439 30.0608 105.0722 0.0009 8.0697 0.0003
# 4 0.0003 0.0000 0.0009 27.8105 -0.0001 1.6030
# 5 -12.1188 -1.9613 8.0697 -0.0001 33.8242 -0.0002
# 6 0.0001 0.0002 0.0003 1.6030 -0.0002 25.9201
#
#
#
# Elastic Compliance Matrix: (Units=1/GPa)
#
#
# Indices 1 2 3 4 5 6 
#
# 1 0.010279 -0.004187 -0.006059 0.000000 0.004886 0.000000
# 2 -0.004187 0.024814 -0.004371 0.000000 0.000982 0.000000
# 3 -0.006059 -0.004371 0.015291 0.000000 -0.006072 0.000000
# 4 0.000000 0.000000 0.000000 0.036086 0.000000 -0.002232
# 5 0.004886 0.000982 -0.006072 0.000000 0.032821 0.000000
# 6 0.000000 0.000000 0.000000 -0.002232 0.000000 0.038718
#
#
# Mechanical properties :
#
#
# Convention : Reuss Voigt Hill
#
# Bulk Modulus (GPa) = 47.28389 66.56936 56.92663
# Shear Modulus (GPa) = 25.73429 29.37039 27.55234
#
# Velocity S-wave (km/s) = 3.64339 3.89228 3.76989
# Velocity P-wave (km/s) = 6.48761 7.38496 6.95078
#
# Compressibility (1/GPa) = 0.02114885
#
# Stress axis : x y z
#
# Youngs Moduli (GPa) = 97.28643 40.29952 65.39975
#
# Poissons Ratio (x) = 0.16874 0.39625
# Poissons Ratio (y) = 0.40735 0.28589
# Poissons Ratio (z) = 0.58944 0.17617
#
# Static dielectric constant tensor:
#      x y z
#    x 3.656220 0.000000 -0.257540 
#    y 0.000000 3.407550 0.000010 
#    z -0.257540 0.000010 3.637610 
# 
# 
# High freq. dielectric constant tensor:
#      x y z
#    x 1.759490 0.000000 -0.001170 
#    y 0.000000 1.739660 0.000000 
#    z -0.001170 0.000000 1.763410 
# 
# From -- ./inp_files/225880.got.cif
#   From: 2010.06.25/outbox.cif.g09.slc.cpg/sg15_113_cif.got.tgz:225880.got - 2010.06.28 07:06:18.
