data_PCOD8136020
_publ_section_title
;
Structure prediction by ZEFSAII (Michael W. Deem and Ramdas Pophale) SiO2 
 PCOD8136020
Probable space group: C 2/C
;
_chemical_formula_sum "Si O2"
_cell_formula_units_Z 60
_cell_length_a 11.526305
_cell_length_b 16.831962
_cell_length_c 20.670153
_cell_angle_alpha 90.000000
_cell_angle_beta 39.770433
_cell_angle_gamma 90.000000
_cell_volume 2565.392481
_symmetry_space_group_name_H-M "C 2/C"
_symmetry_group_IT_number 15
_symmetry_cell_setting 'monoclinic'
loop_
_space_group_symop_operation_xyz
x,y,z
-x,y,1/2-z
-x,-y,-z
x,-y,1/2+z
1/2+x,1/2+y,z
1/2-x,1/2+y,1/2-z
1/2-x,1/2-y,-z
1/2+x,1/2-y,1/2+z
loop_
_atom_site_type_symbol
_atom_site_label
_atom_site_fract_x
_atom_site_fract_y
_atom_site_fract_z
Si Si1 0.897622 0.152049 0.478442
Si Si2 0.702971 0.471294 0.671877
Si Si3 0.626306 0.764585 0.454942
Si Si4 0.000000 0.292849 0.750000
Si Si5 0.477563 0.237770 0.832742
Si Si6 0.007589 0.366082 0.878317
Si Si7 0.791343 0.488895 0.486983
Si Si8 0.626589 0.885389 0.347782
O O1 0.704838 0.188829 0.578544
O O2 0.970871 0.182656 0.377868
O O3 0.876519 0.055950 0.477633
O O4 0.037827 0.178919 0.474190
O O5 0.500000 0.439729 0.750000
O O6 0.784784 0.488262 0.566952
O O7 0.701893 0.557089 0.710616
O O8 0.823491 0.405480 0.656759
O O9 0.841733 0.761056 0.349000
O O10 0.566324 0.787042 0.553338
O O11 0.552151 0.836188 0.441803
O O12 0.923169 0.345423 0.723484
O O13 0.500000 0.265174 0.750000
O O14 0.649684 0.181503 0.781156
O O15 0.826021 0.420920 0.949362
O O16 0.972669 0.444029 0.389043
#
# Coordination Sequence:
#
# PCOD8136020 Si02
#       8
#     8   8   8   4   8   8   8   8
#     4   9  21  36  62 100 134 169 224 289 337 410
#     4  11  22  37  72 104 132 175 241 280 340 416
#     4  11  22  44  69  94 139 176 234 284 349 405
#     4  12  30  44  70  98 132 186 236 274 338 438
#     4   9  18  34  59  94 139 176 216 277 352 399
#     4  11  24  49  70  96 142 191 222 292 354 410
#     4  10  19  42  68  92 137 180 217 287 356 396
#     4   9  18  38  61  94 130 177 222 279 331 417
#
# _framework density 23.388235000000002
#
# number of rings (size 3 to 8) (size 9 to 14) (size 15 to 20)
#    0.000    1.867    2.667    2.000    2.800    2.667 
#   10.800    2.000    0.000    0.000    0.000    0.000 
#    0.000    0.000    0.000    0.000    0.000    0.000 
#
# Total GULP energy -371658.262285 kJ/mol
# GULP energy per Si atom -12388.608743 kJ/mol
# Density = 2.333500 g / cm^3
# Si number density = 23.388235 Si / 1000 Ang^3
#
#
#
# Elastic Constant Matrix: (Units=GPa)
#
#
# Indices 1 2 3 4 5 6 
#
# 1 81.8073 53.0384 52.9932 0.0008 -0.0815 0.0012
# 2 53.0384 80.4212 41.9882 0.0027 -2.0012 -0.0006
# 3 52.9932 41.9882 87.0215 0.0056 17.1669 -0.0028
# 4 0.0008 0.0027 0.0056 21.4384 -0.0021 -3.5748
# 5 -0.0815 -2.0012 17.1669 -0.0021 42.0499 -0.0008
# 6 0.0012 -0.0006 -0.0028 -3.5748 -0.0008 20.7236
#
#
#
# Elastic Compliance Matrix: (Units=1/GPa)
#
#
# Indices 1 2 3 4 5 6 
#
# 1 0.027724 -0.011908 -0.012002 0.000004 0.004387 -0.000003
# 2 -0.011908 0.022529 -0.004160 -0.000001 0.002748 0.000001
# 3 -0.012002 -0.004160 0.022678 -0.000005 -0.009480 0.000002
# 4 0.000004 -0.000001 -0.000005 0.048027 0.000005 0.008284
# 5 0.004387 0.002748 -0.009480 0.000005 0.027791 0.000000
# 6 -0.000003 0.000001 0.000002 0.008284 0.000000 0.049683
#
#
# Mechanical properties :
#
#
# Convention : Reuss Voigt Hill
#
# Bulk Modulus (GPa) = 59.56636 60.58773 60.07705
# Shear Modulus (GPa) = 19.21825 23.59106 21.40465
#
# Velocity S-wave (km/s) = 2.86965 3.17941 3.02849
# Velocity P-wave (km/s) = 6.04183 6.28010 6.16211
#
# Compressibility (1/GPa) = 0.01678800
#
# Stress axis : x y z
#
# Youngs Moduli (GPa) = 36.07016 44.38779 44.09568
#
# Poissons Ratio (x) = 0.52858 0.52926
# Poissons Ratio (y) = 0.42954 0.18346
# Poissons Ratio (z) = 0.43293 0.18467
#
# Static dielectric constant tensor:
#      x y z
#    x 4.380270 0.000000 0.015370 
#    y 0.000000 4.513890 0.000000 
#    z 0.015370 0.000000 3.915020 
# 
# 
# High freq. dielectric constant tensor:
#      x y z
#    x 1.914940 0.000000 0.001930 
#    y 0.000000 1.921630 0.000000 
#    z 0.001930 0.000000 1.899920 
# 
# From -- ./inp_files/239963.got.cif
#   From: 2010.06.25/outbox.cif.g09.slc.cpg/sg15_120_cif.got.tgz:239963.got - 2010.06.28 07:06:18.
