data_PCOD8136275
_publ_section_title
;
Structure prediction by ZEFSAII (Michael W. Deem and Ramdas Pophale) SiO2 
 PCOD8136275
Probable space group: C 2/C
;
_chemical_formula_sum "Si O2"
_cell_formula_units_Z 56
_cell_length_a 13.305210
_cell_length_b 28.699910
_cell_length_c 9.193060
_cell_angle_alpha 90.000000
_cell_angle_beta 119.173609
_cell_angle_gamma 90.000000
_cell_volume 3065.134799
_symmetry_space_group_name_H-M "C 2/C"
_symmetry_group_IT_number 15
_symmetry_cell_setting 'monoclinic'
loop_
_space_group_symop_operation_xyz
x,y,z
-x,y,1/2-z
-x,-y,-z
x,-y,1/2+z
1/2+x,1/2+y,z
1/2-x,1/2+y,1/2-z
1/2-x,1/2-y,-z
1/2+x,1/2-y,1/2+z
loop_
_atom_site_type_symbol
_atom_site_label
_atom_site_fract_x
_atom_site_fract_y
_atom_site_fract_z
Si Si1 0.619072 0.450311 0.158692
Si Si2 0.746641 0.799213 0.079094
Si Si3 0.144412 0.965424 0.503710
Si Si4 0.575851 0.347826 0.101674
Si Si5 0.669500 0.315905 0.884121
Si Si6 0.377875 0.787695 0.225189
Si Si7 0.183345 0.133209 0.100439
O O1 0.654543 0.469251 0.339614
O O2 0.484169 0.455096 0.032047
O O3 0.650942 0.395779 0.164915
O O4 0.687052 0.484645 0.096026
O O5 0.863813 0.808385 0.255715
O O6 0.640142 0.801807 0.118017
O O7 0.750000 0.750000 0.000000
O O8 0.729752 0.837779 0.941084
O O9 0.217620 0.921214 0.613089
O O10 0.570846 0.331947 0.928531
O O11 0.444291 0.356495 0.057827
O O12 0.633557 0.267837 0.785604
O O13 0.691761 0.353433 0.774530
O O14 0.785917 0.312385 0.058064
O O15 0.500000 0.804320 0.250000
#
# Coordination Sequence:
#
# PCOD8136275 Si02
#       7
#     8   8   8   8   8   8   8
#     4   9  17  30  43  71  99 143 174 206 254 313
#     4  11  21  34  50  75 102 139 187 220 253 308
#     4   9  18  28  46  67 106 136 175 208 250 314
#     4  10  20  33  52  72 109 146 176 213 266 311
#     4  10  21  33  52  75  98 132 182 210 249 322
#     4  10  21  39  52  70 102 136 171 220 265 299
#     4  11  19  34  50  77 106 144 176 217 257 308
#
# _framework density 18.269997
#
# number of rings (size 3 to 8) (size 9 to 14) (size 15 to 20)
#    0.000    2.000    2.857    1.714    2.000    0.000 
#    2.571    0.714    0.000    0.000    0.000    0.000 
#    0.000   18.286    0.000    0.000    0.000    0.000 
#
# Total GULP energy -347101.044257 kJ/mol
# GULP energy per Si atom -12396.465866 kJ/mol
# Density = 1.822841 g / cm^3
# Si number density = 18.269997 Si / 1000 Ang^3
#
#
#
# Elastic Constant Matrix: (Units=GPa)
#
#
# Indices 1 2 3 4 5 6 
#
# 1 69.6035 19.4511 17.5402 0.0000 -18.0918 0.0000
# 2 19.4511 122.8928 45.9825 0.0000 -15.4462 0.0000
# 3 17.5402 45.9825 58.7505 0.0000 -22.8535 0.0000
# 4 0.0000 0.0000 0.0000 30.0586 0.0000 -7.6118
# 5 -18.0918 -15.4462 -22.8535 0.0000 24.5968 0.0000
# 6 0.0000 0.0000 0.0000 -7.6118 0.0000 20.9057
#
#
#
# Elastic Compliance Matrix: (Units=1/GPa)
#
#
# Indices 1 2 3 4 5 6 
#
# 1 0.017974 -0.001553 0.000959 0.000000 0.013136 0.000000
# 2 -0.001553 0.011692 -0.009827 0.000000 -0.002931 0.000000
# 3 0.000959 -0.009827 0.034921 0.000000 0.026981 0.000000
# 4 0.000000 0.000000 0.000000 0.036647 0.000000 0.013343
# 5 0.013136 -0.002931 0.026981 0.000000 0.073546 0.000000
# 6 0.000000 0.000000 0.000000 0.013343 0.000000 0.052692
#
#
# Mechanical properties :
#
#
# Convention : Reuss Voigt Hill
#
# Bulk Modulus (GPa) = 22.85955 46.35494 34.60724
# Shear Modulus (GPa) = 19.01893 26.33040 22.67467
#
# Velocity S-wave (km/s) = 3.22994 3.80041 3.52673
# Velocity P-wave (km/s) = 5.14289 6.68466 5.96381
#
# Compressibility (1/GPa) = 0.04374540
#
# Stress axis : x y z
#
# Youngs Moduli (GPa) = 55.63648 85.53177 28.63566
#
# Poissons Ratio (x) = 0.13279 -0.02746
# Poissons Ratio (y) = 0.08638 0.28141
# Poissons Ratio (z) = -0.05335 0.84053
#
# Static dielectric constant tensor:
#      x y z
#    x 3.144840 0.000000 -0.321590 
#    y 0.000000 3.614280 0.000000 
#    z -0.321590 0.000000 3.322260 
# 
# 
# High freq. dielectric constant tensor:
#      x y z
#    x 1.658190 0.000000 -0.041170 
#    y 0.000000 1.710340 0.000000 
#    z -0.041170 0.000000 1.709070 
# 
# From -- ./inp_files/35313.got.cif
#   From: 2010.06.25/outbox.cif.g09.slc.cpg/sg15_18_cif.got.tgz:35313.got - 2010.06.28 07:06:18.
