data_PCOD8136013
_publ_section_title
;
Structure prediction by ZEFSAII (Michael W. Deem and Ramdas Pophale) SiO2 
 PCOD8136013
Probable space group: C 2/C
;
_chemical_formula_sum "Si O2"
_cell_formula_units_Z 52
_cell_length_a 13.779280
_cell_length_b 28.733558
_cell_length_c 8.531080
_cell_angle_alpha 90.000000
_cell_angle_beta 136.070805
_cell_angle_gamma 90.000000
_cell_volume 2343.337112
_symmetry_space_group_name_H-M "C 2/C"
_symmetry_group_IT_number 15
_symmetry_cell_setting 'monoclinic'
loop_
_space_group_symop_operation_xyz
x,y,z
-x,y,1/2-z
-x,-y,-z
x,-y,1/2+z
1/2+x,1/2+y,z
1/2-x,1/2+y,1/2-z
1/2-x,1/2-y,-z
1/2+x,1/2-y,1/2+z
loop_
_atom_site_type_symbol
_atom_site_label
_atom_site_fract_x
_atom_site_fract_y
_atom_site_fract_z
Si Si1 0.472370 0.705914 0.035805
Si Si2 0.945336 0.887160 0.011738
Si Si3 0.640709 0.930499 0.609113
Si Si4 0.799920 0.493426 0.550125
Si Si5 0.500000 0.142345 0.750000
Si Si6 0.821283 0.283146 0.206185
Si Si7 0.388135 0.537016 0.923248
O O1 0.500000 0.694933 0.250000
O O2 0.543154 0.755517 0.066786
O O3 0.548415 0.667611 0.016499
O O4 0.302162 0.705704 0.810241
O O5 0.000000 0.897677 0.250000
O O6 0.045075 0.911664 0.997962
O O7 0.794389 0.910102 0.816638
O O8 0.617474 0.964260 0.433436
O O9 0.541644 0.887164 0.453808
O O10 0.604178 0.961723 0.721549
O O11 0.668730 0.519895 0.477372
O O12 0.741807 0.460074 0.347687
O O13 0.629193 0.171859 0.833196
O O14 0.750000 0.250000 0.000000
O O15 0.500000 0.500000 0.000000
#
# Coordination Sequence:
#
# PCOD8136013 Si02
#       7
#     8   8   8   8   4   8   8
#     4  10  22  37  67  96 126 162 214 271 327 391
#     4  12  23  36  60  98 134 165 218 271 326 373
#     4  11  24  38  62  91 125 181 211 272 307 384
#     4  10  21  36  56  85 130 167 215 256 325 365
#     4  12  24  40  66  94 132 158 226 262 324 384
#     4  10  19  42  66  96 122 162 208 272 325 386
#     4  11  18  32  55  88 124 164 205 270 316 365
#
# _framework density 22.190574000000002
#
# number of rings (size 3 to 8) (size 9 to 14) (size 15 to 20)
#    0.000    1.231    6.923    2.308    4.308    0.615 
#    0.000    0.769    0.000    1.846    0.000    0.000 
#    0.000    0.000    0.000    0.000    0.000    0.000 
#
# Total GULP energy -322114.565158 kJ/mol
# GULP energy per Si atom -12389.021737 kJ/mol
# Density = 2.214007 g / cm^3
# Si number density = 22.190574 Si / 1000 Ang^3
#
#
#
# Elastic Constant Matrix: (Units=GPa)
#
#
# Indices 1 2 3 4 5 6 
#
# 1 45.6657 22.1402 32.4944 0.0000 9.2603 0.0000
# 2 22.1402 116.6240 43.2154 0.0000 2.7013 0.0000
# 3 32.4944 43.2154 81.3520 0.0000 11.1614 0.0000
# 4 0.0000 0.0000 0.0000 36.3046 0.0000 9.4132
# 5 9.2603 2.7013 11.1614 0.0000 26.0655 0.0000
# 6 0.0000 0.0000 0.0000 9.4132 0.0000 25.9354
#
#
#
# Elastic Compliance Matrix: (Units=1/GPa)
#
#
# Indices 1 2 3 4 5 6 
#
# 1 0.031826 -0.001881 -0.010824 0.000000 -0.006477 0.000000
# 2 -0.001881 0.010836 -0.005251 0.000000 0.001794 0.000000
# 3 -0.010824 -0.005251 0.019977 0.000000 -0.004164 0.000000
# 4 0.000000 0.000000 0.000000 0.030406 0.000000 -0.011036
# 5 -0.006477 0.001794 -0.004164 0.000000 0.042263 0.000000
# 6 0.000000 0.000000 0.000000 -0.011036 0.000000 0.042563
#
#
# Mechanical properties :
#
#
# Convention : Reuss Voigt Hill
#
# Bulk Modulus (GPa) = 37.41708 48.81576 43.11642
# Shear Modulus (GPa) = 22.45255 27.38054 24.91654
#
# Velocity S-wave (km/s) = 3.18434 3.51648 3.35452
# Velocity P-wave (km/s) = 5.51528 6.20755 5.87163
#
# Compressibility (1/GPa) = 0.02672576
#
# Stress axis : x y z
#
# Youngs Moduli (GPa) = 31.42089 92.28610 50.05844
#
# Poissons Ratio (x) = 0.17358 0.54186
# Poissons Ratio (y) = 0.05910 0.26286
# Poissons Ratio (z) = 0.34012 0.48459
#
# Static dielectric constant tensor:
#      x y z
#    x 4.418060 0.000000 0.542650 
#    y 0.000000 3.701670 0.000000 
#    z 0.542650 0.000000 3.814940 
# 
# 
# High freq. dielectric constant tensor:
#      x y z
#    x 1.859540 0.000000 0.018860 
#    y 0.000000 1.875960 0.000000 
#    z 0.018860 0.000000 1.863650 
# 
# From -- ./inp_files/43674.got.cif
#   From: 2010.06.25/outbox.cif.g09.slc.cpg/sg15_22_cif.got.tgz:43674.got - 2010.06.28 07:06:18.
