data_PCOD8136179
_publ_section_title
;
Structure prediction by ZEFSAII (Michael W. Deem and Ramdas Pophale) SiO2 
 PCOD8136179
Probable space group: C 2/C
;
_chemical_formula_sum "Si O2"
_cell_formula_units_Z 64
_cell_length_a 9.280197
_cell_length_b 30.614193
_cell_length_c 14.684313
_cell_angle_alpha 90.000000
_cell_angle_beta 123.431725
_cell_angle_gamma 90.000000
_cell_volume 3481.627685
_symmetry_space_group_name_H-M "C 2/C"
_symmetry_group_IT_number 15
_symmetry_cell_setting 'monoclinic'
loop_
_space_group_symop_operation_xyz
x,y,z
-x,y,1/2-z
-x,-y,-z
x,-y,1/2+z
1/2+x,1/2+y,z
1/2-x,1/2+y,1/2-z
1/2-x,1/2-y,-z
1/2+x,1/2-y,1/2+z
loop_
_atom_site_type_symbol
_atom_site_label
_atom_site_fract_x
_atom_site_fract_y
_atom_site_fract_z
Si Si1 0.001800 0.735573 0.355604
Si Si2 0.116041 0.909538 0.707450
Si Si3 0.693966 0.052458 0.808891
Si Si4 0.645391 0.689769 0.022575
Si Si5 0.348362 0.688997 0.266250
Si Si6 0.668004 0.017251 0.153568
Si Si7 0.530642 0.406864 0.475239
Si Si8 0.226417 0.512864 0.485394
O O1 0.154182 0.700689 0.426928
O O2 0.023182 0.779319 0.420986
O O3 0.000000 0.749417 0.250000
O O4 0.822236 0.714375 0.323569
O O5 0.195096 0.862162 0.755827
O O6 0.269688 0.944367 0.757764
O O7 0.010742 0.910873 0.577025
O O8 0.000000 0.924939 0.750000
O O9 0.500000 0.072168 0.750000
O O10 0.838482 0.090393 0.864210
O O11 0.699020 0.028998 0.713303
O O12 0.745161 0.017699 0.904425
O O13 0.597155 0.699188 0.110991
O O14 0.613600 0.639947 0.980489
O O15 0.500000 0.702793 0.250000
O O16 0.468426 0.029365 0.070312
O O17 0.768910 0.014730 0.092006
O O18 0.648382 0.445580 0.477011
#
# Coordination Sequence:
#
# PCOD8136179 Si02
#       8
#     8   8   8   8   8   8   8   8
#     4   9  18  38  60  80 114 143 175 223 282 326
#     4  10  20  32  54  81 109 138 179 231 275 311
#     4  10  21  37  51  72 109 148 178 227 271 312
#     4   9  20  36  58  84 110 144 178 229 274 326
#     4   9  19  34  56  88 110 139 180 224 273 333
#     4  10  21  34  51  76 108 145 180 226 273 306
#     4  11  21  35  57  80 105 144 192 222 264 332
#     4  10  21  35  52  77 107 143 190 222 262 323
#
# _framework density 18.382206
#
# number of rings (size 3 to 8) (size 9 to 14) (size 15 to 20)
#    0.000    2.250    1.250    1.125    3.500    0.500 
#    2.250    0.625    0.000    0.000    0.000    0.000 
#    0.000    0.000    0.000    0.000    0.000    0.000 
#
# Total GULP energy -396747.387553 kJ/mol
# GULP energy per Si atom -12398.355861 kJ/mol
# Density = 1.834037 g / cm^3
# Si number density = 18.382206 Si / 1000 Ang^3
#
#
#
# Elastic Constant Matrix: (Units=GPa)
#
#
# Indices 1 2 3 4 5 6 
#
# 1 92.9620 43.7199 39.5413 0.0000 7.9152 0.0000
# 2 43.7199 81.6152 42.4003 0.0000 19.1459 0.0000
# 3 39.5413 42.4003 89.0699 0.0000 17.1838 0.0000
# 4 0.0000 0.0000 0.0000 31.9032 0.0000 2.0342
# 5 7.9152 19.1459 17.1838 0.0000 29.3350 0.0000
# 6 0.0000 0.0000 0.0000 2.0342 0.0000 20.0439
#
#
#
# Elastic Compliance Matrix: (Units=1/GPa)
#
#
# Indices 1 2 3 4 5 6 
#
# 1 0.015480 -0.006751 -0.004174 0.000000 0.002675 0.000000
# 2 -0.006751 0.020547 -0.005128 0.000000 -0.008585 0.000000
# 3 -0.004174 -0.005128 0.016526 0.000000 -0.005207 0.000000
# 4 0.000000 0.000000 0.000000 0.031549 0.000000 -0.003202
# 5 0.002675 -0.008585 -0.005207 0.000000 0.042021 0.000000
# 6 0.000000 0.000000 0.000000 -0.003202 0.000000 0.050215
#
#
# Mechanical properties :
#
#
# Convention : Reuss Voigt Hill
#
# Bulk Modulus (GPa) = 48.90843 57.21890 53.06366
# Shear Modulus (GPa) = 23.22771 25.45545 24.34158
#
# Velocity S-wave (km/s) = 3.55857 3.72531 3.64289
# Velocity P-wave (km/s) = 6.59914 7.04974 6.82816
#
# Compressibility (1/GPa) = 0.02044637
#
# Stress axis : x y z
#
# Youngs Moduli (GPa) = 64.59962 48.66894 60.51109
#
# Poissons Ratio (x) = 0.32857 0.25259
# Poissons Ratio (y) = 0.43612 0.31028
# Poissons Ratio (z) = 0.26966 0.24956
#
# Static dielectric constant tensor:
#      x y z
#    x 3.411250 0.000000 0.003060 
#    y 0.000000 3.222040 0.000000 
#    z 0.003060 0.000000 3.539190 
# 
# 
# High freq. dielectric constant tensor:
#      x y z
#    x 1.712280 0.000000 -0.001330 
#    y 0.000000 1.692550 0.000000 
#    z -0.001330 0.000000 1.720780 
# 
# From -- ./inp_files/139532.got.cif
#   From: 2010.06.25/outbox.cif.g09.slc.cpg/sg15_70_cif.got.tgz:139532.got - 2010.06.28 07:06:18.
