data_PCOD8136538
_publ_section_title
;
Structure prediction by ZEFSAII (Michael W. Deem and Ramdas Pophale) SiO2 
 PCOD8136538
Probable space group: C 2/C
;
_chemical_formula_sum "Si O2"
_cell_formula_units_Z 64
_cell_length_a 12.021282
_cell_length_b 22.963420
_cell_length_c 13.196886
_cell_angle_alpha 90.000000
_cell_angle_beta 97.924899
_cell_angle_gamma 90.000000
_cell_volume 3608.205117
_symmetry_space_group_name_H-M "C 2/C"
_symmetry_group_IT_number 15
_symmetry_cell_setting 'monoclinic'
loop_
_space_group_symop_operation_xyz
x,y,z
-x,y,1/2-z
-x,-y,-z
x,-y,1/2+z
1/2+x,1/2+y,z
1/2-x,1/2+y,1/2-z
1/2-x,1/2-y,-z
1/2+x,1/2-y,1/2+z
loop_
_atom_site_type_symbol
_atom_site_label
_atom_site_fract_x
_atom_site_fract_y
_atom_site_fract_z
Si Si1 0.884136 0.240585 0.185672
Si Si2 0.374250 0.764278 0.556458
Si Si3 0.204827 0.641681 0.866382
Si Si4 0.083104 0.431518 0.673291
Si Si5 0.990294 0.375473 0.473730
Si Si6 0.672404 0.806358 0.725822
Si Si7 0.381665 0.055310 0.790953
Si Si8 0.093876 0.783727 0.047346
O O1 0.843748 0.305683 0.208068
O O2 0.806038 0.196390 0.237555
O O3 0.000000 0.226659 0.250000
O O4 0.879139 0.232713 0.064565
O O5 0.250000 0.750000 0.500000
O O6 0.433531 0.815362 0.500617
O O7 0.375323 0.781822 0.674633
O O8 0.458697 0.708496 0.549228
O O9 0.210802 0.584021 0.796523
O O10 0.331666 0.658620 0.918659
O O11 0.116212 0.634053 0.946442
O O12 0.150191 0.374320 0.711841
O O13 0.158756 0.490841 0.676352
O O14 0.000000 0.448781 0.750000
O O15 0.007980 0.421727 0.565075
O O16 0.897908 0.403237 0.389157
O O17 0.625771 0.770171 0.624547
O O18 0.500000 0.054630 0.750000
#
# Coordination Sequence:
#
# PCOD8136538 Si02
#       8
#     8   8   8   8   8   8   8   8
#     4  11  20  33  56  81 108 141 179 225 272 325
#     4  12  24  34  52  82 116 148 180 222 281 335
#     4  10  20  34  56  80 108 140 185 226 268 324
#     4  11  18  34  50  76 111 142 181 221 277 324
#     4  11  19  35  52  79 115 141 181 223 272 327
#     4  11  21  34  53  79 110 147 179 225 272 333
#     4   9  21  32  53  79 105 142 182 231 269 317
#     4  11  21  36  54  79 112 145 178 218 277 330
#
# _framework density 17.737349999999999
#
# number of rings (size 3 to 8) (size 9 to 14) (size 15 to 20)
#    0.000    1.250    3.750    4.875    3.500    0.000 
#    0.000    0.000    0.000    0.000    3.250    1.750 
#    0.000    0.000    0.000    0.000    0.000    0.000 
#
# Total GULP energy -396429.205618 kJ/mol
# GULP energy per Si atom -12388.412676 kJ/mol
# Density = 1.769698 g / cm^3
# Si number density = 17.737350 Si / 1000 Ang^3
#
#
#
# Elastic Constant Matrix: (Units=GPa)
#
#
# Indices 1 2 3 4 5 6 
#
# 1 93.6920 32.9632 22.9336 0.0000 1.4517 0.0000
# 2 32.9632 88.5126 42.7398 0.0000 6.3701 0.0000
# 3 22.9336 42.7398 90.3297 0.0000 -3.7295 0.0000
# 4 0.0000 0.0000 0.0000 24.1665 0.0000 3.2618
# 5 1.4517 6.3701 -3.7295 0.0000 24.3369 0.0000
# 6 0.0000 0.0000 0.0000 3.2618 0.0000 19.6586
#
#
#
# Elastic Compliance Matrix: (Units=1/GPa)
#
#
# Indices 1 2 3 4 5 6 
#
# 1 0.012390 -0.004027 -0.001235 0.000000 0.000126 0.000000
# 2 -0.004027 0.016563 -0.007028 0.000000 -0.005172 0.000000
# 3 -0.001235 -0.007028 0.014883 0.000000 0.004194 0.000000
# 4 0.000000 0.000000 0.000000 0.042327 0.000000 -0.007023
# 5 0.000126 -0.005172 0.004194 0.000000 0.043079 0.000000
# 6 0.000000 0.000000 0.000000 -0.007023 0.000000 0.052033
#
#
# Mechanical properties :
#
#
# Convention : Reuss Voigt Hill
#
# Bulk Modulus (GPa) = 51.93222 52.20083 52.06653
# Shear Modulus (GPa) = 23.55425 25.22559 24.38992
#
# Velocity S-wave (km/s) = 3.64805 3.77526 3.71220
# Velocity P-wave (km/s) = 6.86195 6.96400 6.91316
#
# Compressibility (1/GPa) = 0.01925587
#
# Stress axis : x y z
#
# Youngs Moduli (GPa) = 80.70727 60.37395 67.19193
#
# Poissons Ratio (x) = 0.24312 0.08300
# Poissons Ratio (y) = 0.32500 0.47224
# Poissons Ratio (z) = 0.09969 0.42432
#
# Static dielectric constant tensor:
#      x y z
#    x 3.182690 0.000000 -0.278900 
#    y 0.000000 3.489030 0.000000 
#    z -0.278900 0.000000 3.385170 
# 
# 
# High freq. dielectric constant tensor:
#      x y z
#    x 1.663090 0.000000 -0.000850 
#    y 0.000000 1.666120 0.000000 
#    z -0.000850 0.000000 1.706450 
# 
# From -- ./inp_files/90821.got.cif
#   From: 2010.06.25/outbox.cif.g09.slc.cpg/sg15_46_cif.got.tgz:90821.got - 2010.06.28 07:06:18.
