data_PCOD8136866
_publ_section_title
;
Structure prediction by ZEFSAII (Michael W. Deem and Ramdas Pophale) SiO2 
 PCOD8136866
Probable space group: C 2/C
;
_chemical_formula_sum "Si O2"
_cell_formula_units_Z 56
_cell_length_a 14.446643
_cell_length_b 14.705826
_cell_length_c 26.790553
_cell_angle_alpha 90.000000
_cell_angle_beta 149.867444
_cell_angle_gamma 90.000000
_cell_volume 2857.220122
_symmetry_space_group_name_H-M "C 2/C"
_symmetry_group_IT_number 15
_symmetry_cell_setting 'monoclinic'
loop_
_space_group_symop_operation_xyz
x,y,z
-x,y,1/2-z
-x,-y,-z
x,-y,1/2+z
1/2+x,1/2+y,z
1/2-x,1/2+y,1/2-z
1/2-x,1/2-y,-z
1/2+x,1/2-y,1/2+z
loop_
_atom_site_type_symbol
_atom_site_label
_atom_site_fract_x
_atom_site_fract_y
_atom_site_fract_z
Si Si1 0.762096 0.178300 0.184248
Si Si2 0.824083 0.397344 0.036825
Si Si3 0.308352 0.343638 0.137548
Si Si4 0.899355 0.225951 0.529087
Si Si5 0.347817 0.262903 0.615052
Si Si6 0.554898 0.446687 0.395359
Si Si7 0.691234 0.973628 0.168888
O O1 0.589596 0.223324 0.131898
O O2 0.790528 0.229570 0.145455
O O3 0.950745 0.193330 0.302859
O O4 0.718331 0.072054 0.156356
O O5 0.848685 0.344070 0.100756
O O6 0.995837 0.462895 0.104928
O O7 0.805301 0.318540 0.986827
O O8 0.641972 0.458654 0.953085
O O9 0.500000 0.306939 0.250000
O O10 0.339692 0.407270 0.104025
O O11 0.202319 0.401228 0.129578
O O12 0.179823 0.257573 0.061917
O O13 0.750000 0.250000 0.500000
O O14 0.934043 0.118340 0.550708
O O15 0.342487 0.460001 0.282224
#
# Coordination Sequence:
#
# PCOD8136866 Si02
#       7
#     8   8   8   8   8   8   8
#     4  11  21  38  60  88 116 156 198 251 300 352
#     4  11  21  38  57  88 118 156 190 246 297 364
#     4   9  19  32  53  85 117 146 189 244 294 344
#     4  10  20  35  55  84 120 155 189 247 301 357
#     4  10  23  37  59  86 125 151 196 243 309 357
#     4  10  20  35  55  82 115 147 196 236 294 354
#     4  11  20  33  62  89 112 149 199 250 293 348
#
# _framework density 19.59947
#
# number of rings (size 3 to 8) (size 9 to 14) (size 15 to 20)
#    0.000    1.714    1.429    4.286    4.000    1.714 
#    0.000    0.714    3.143    0.000    0.000    0.000 
#    0.000    0.000    0.000    0.000    0.000    0.000 
#
# Total GULP energy -347155.161467 kJ/mol
# GULP energy per Si atom -12398.398624 kJ/mol
# Density = 1.955486 g / cm^3
# Si number density = 19.599470 Si / 1000 Ang^3
#
#
#
# Elastic Constant Matrix: (Units=GPa)
#
#
# Indices 1 2 3 4 5 6 
#
# 1 60.1698 41.0693 41.7138 0.0007 6.5025 0.0002
# 2 41.0693 102.3336 55.2746 0.0002 -13.6882 0.0002
# 3 41.7138 55.2746 99.7173 0.0007 6.5114 0.0008
# 4 0.0007 0.0002 0.0007 43.5832 0.0006 -4.7405
# 5 6.5025 -13.6882 6.5114 0.0006 29.2676 0.0002
# 6 0.0002 0.0002 0.0008 -4.7405 0.0002 27.4119
#
#
#
# Elastic Compliance Matrix: (Units=1/GPa)
#
#
# Indices 1 2 3 4 5 6 
#
# 1 0.028120 -0.009269 -0.006022 0.000000 -0.009243 0.000000
# 2 -0.009269 0.019363 -0.007693 0.000000 0.012827 0.000000
# 3 -0.006022 -0.007693 0.017209 0.000000 -0.006089 0.000000
# 4 0.000000 0.000000 0.000000 0.023384 0.000000 0.004044
# 5 -0.009243 0.012827 -0.006089 0.000000 0.043575 0.000000
# 6 0.000000 0.000000 0.000000 0.004044 0.000000 0.037180
#
#
# Mechanical properties :
#
#
# Convention : Reuss Voigt Hill
#
# Bulk Modulus (GPa) = 53.40654 59.81514 56.61084
# Shear Modulus (GPa) = 22.62026 28.33006 25.47516
#
# Velocity S-wave (km/s) = 3.40093 3.80603 3.60917
# Velocity P-wave (km/s) = 6.53681 7.06396 6.80549
#
# Compressibility (1/GPa) = 0.01872430
#
# Stress axis : x y z
#
# Youngs Moduli (GPa) = 35.56225 51.64454 58.10765
#
# Poissons Ratio (x) = 0.47870 0.34990
# Poissons Ratio (y) = 0.32963 0.44704
# Poissons Ratio (z) = 0.21414 0.39732
#
# Static dielectric constant tensor:
#      x y z
#    x 3.314890 0.000000 0.055300 
#    y 0.000000 3.710160 0.000000 
#    z 0.055300 0.000000 3.879370 
# 
# 
# High freq. dielectric constant tensor:
#      x y z
#    x 1.734230 0.000000 0.015710 
#    y 0.000000 1.755360 0.000000 
#    z 0.015710 0.000000 1.780780 
# 
# From -- ./inp_files/296610.got.cif
#   From: 2010.06.25/outbox.cif.g09.slc.cpg/sg15_149_cif.got.tgz:296610.got - 2010.06.28 07:06:18.
