data_PCOD8136637
_publ_section_title
;
Structure prediction by ZEFSAII (Michael W. Deem and Ramdas Pophale) SiO2 
 PCOD8136637
Probable space group: C 2/C
;
_chemical_formula_sum "Si O2"
_cell_formula_units_Z 64
_cell_length_a 20.269669
_cell_length_b 21.226495
_cell_length_c 11.838752
_cell_angle_alpha 90.000000
_cell_angle_beta 140.820394
_cell_angle_gamma 90.000000
_cell_volume 3217.943940
_symmetry_space_group_name_H-M "C 2/C"
_symmetry_group_IT_number 15
_symmetry_cell_setting 'monoclinic'
loop_
_space_group_symop_operation_xyz
x,y,z
-x,y,1/2-z
-x,-y,-z
x,-y,1/2+z
1/2+x,1/2+y,z
1/2-x,1/2+y,1/2-z
1/2-x,1/2-y,-z
1/2+x,1/2-y,1/2+z
loop_
_atom_site_type_symbol
_atom_site_label
_atom_site_fract_x
_atom_site_fract_y
_atom_site_fract_z
Si Si1 0.316123 0.663704 0.050275
Si Si2 0.261595 0.657753 0.726765
Si Si3 0.879832 0.934311 0.251499
Si Si4 0.352908 0.217179 0.302029
Si Si5 0.663029 0.639193 0.030169
Si Si6 0.445364 0.227610 0.064153
Si Si7 0.619920 0.798933 0.404841
Si Si8 0.401379 0.424192 0.839888
O O1 0.317481 0.647050 0.920723
O O2 0.197589 0.654402 0.940822
O O3 0.366084 0.732268 0.139587
O O4 0.394700 0.619928 0.222534
O O5 0.277619 0.593880 0.677754
O O6 0.314739 0.712543 0.721394
O O7 0.142443 0.677422 0.585407
O O8 0.982708 0.916660 0.457779
O O9 0.869357 0.009112 0.243041
O O10 0.886758 0.904654 0.134292
O O11 0.277544 0.164958 0.142879
O O12 0.473185 0.215699 0.428233
O O13 0.335506 0.206745 0.410899
O O14 0.674729 0.595677 0.157617
O O15 0.592589 0.700249 0.970806
O O16 0.500000 0.204439 0.250000
O O17 0.500000 0.822550 0.250000
#
# Coordination Sequence:
#
# PCOD8136637 Si02
#       8
#     8   8   8   8   8   8   8   8
#     4  10  22  37  56  87 119 154 192 243 292 348
#     4  10  22  37  58  90 122 149 197 243 293 357
#     4  11  25  40  60  86 115 163 202 241 293 349
#     4  10  20  35  61  90 119 155 187 241 311 351
#     4  11  22  41  60  88 126 153 199 248 294 357
#     4  11  21  35  62  92 123 155 191 239 305 360
#     4  10  20  34  58  88 119 152 188 236 300 356
#     4  11  24  40  61  83 118 158 204 242 290 347
#
# _framework density 19.888476000000001
#
# number of rings (size 3 to 8) (size 9 to 14) (size 15 to 20)
#    0.000    1.500    1.250    4.125    8.750    2.000 
#    0.000    0.000    0.000    3.000    0.000    0.000 
#    0.000    0.000    0.000    0.000    0.000    0.000 
#
# Total GULP energy -396644.270029 kJ/mol
# GULP energy per Si atom -12395.133438 kJ/mol
# Density = 1.984321 g / cm^3
# Si number density = 19.888476 Si / 1000 Ang^3
#
#
#
# Elastic Constant Matrix: (Units=GPa)
#
#
# Indices 1 2 3 4 5 6 
#
# 1 93.7652 38.8285 18.7012 0.0000 10.0181 0.0000
# 2 38.8285 95.7399 51.1155 0.0000 -9.0180 0.0000
# 3 18.7012 51.1155 81.0390 0.0000 -6.4726 0.0000
# 4 0.0000 0.0000 0.0000 31.8999 0.0000 -3.4079
# 5 10.0181 -9.0180 -6.4726 0.0000 40.4917 0.0000
# 6 0.0000 0.0000 0.0000 -3.4079 0.0000 20.7809
#
#
#
# Elastic Compliance Matrix: (Units=1/GPa)
#
#
# Indices 1 2 3 4 5 6 
#
# 1 0.013650 -0.006176 0.000371 0.000000 -0.004693 0.000000
# 2 -0.006176 0.018695 -0.010040 0.000000 0.004087 0.000000
# 3 0.000371 -0.010040 0.018639 0.000000 0.000652 0.000000
# 4 0.000000 0.000000 0.000000 0.031907 0.000000 0.005232
# 5 -0.004693 0.004087 0.000652 0.000000 0.026872 0.000000
# 6 0.000000 0.000000 0.000000 0.005232 0.000000 0.048979
#
#
# Mechanical properties :
#
#
# Convention : Reuss Voigt Hill
#
# Bulk Modulus (GPa) = 51.83214 54.20382 53.01798
# Shear Modulus (GPa) = 25.39815 29.42777 27.41296
#
# Velocity S-wave (km/s) = 3.57743 3.85078 3.71662
# Velocity P-wave (km/s) = 6.57130 6.86181 6.71812
#
# Compressibility (1/GPa) = 0.01929305
#
# Stress axis : x y z
#
# Youngs Moduli (GPa) = 73.26070 53.48976 53.65008
#
# Poissons Ratio (x) = 0.33034 -0.01988
# Poissons Ratio (y) = 0.45244 0.53867
# Poissons Ratio (z) = -0.02715 0.53706
#
# Static dielectric constant tensor:
#      x y z
#    x 3.690690 0.000000 -0.007810 
#    y 0.000000 3.427650 0.000000 
#    z -0.007810 0.000000 3.668810 
# 
# 
# High freq. dielectric constant tensor:
#      x y z
#    x 1.785120 0.000000 -0.010430 
#    y 0.000000 1.738920 0.000000 
#    z -0.010430 0.000000 1.782100 
# 
# From -- ./inp_files/114268.got.cif
#   From: 2010.06.25/outbox.cif.g09.slc.cpg/sg15_58_cif.got.tgz:114268.got - 2010.06.28 07:06:18.
