data_PCOD8136994
_publ_section_title
;
Structure prediction by ZEFSAII (Michael W. Deem and Ramdas Pophale) SiO2 
 PCOD8136994
Probable space group: C 2/C
;
_chemical_formula_sum "Si O2"
_cell_formula_units_Z 52
_cell_length_a 9.172371
_cell_length_b 18.576308
_cell_length_c 22.620261
_cell_angle_alpha 90.000000
_cell_angle_beta 46.463944
_cell_angle_gamma 90.000000
_cell_volume 2794.095971
_symmetry_space_group_name_H-M "C 2/C"
_symmetry_group_IT_number 15
_symmetry_cell_setting 'monoclinic'
loop_
_space_group_symop_operation_xyz
x,y,z
-x,y,1/2-z
-x,-y,-z
x,-y,1/2+z
1/2+x,1/2+y,z
1/2-x,1/2+y,1/2-z
1/2-x,1/2-y,-z
1/2+x,1/2-y,1/2+z
loop_
_atom_site_type_symbol
_atom_site_label
_atom_site_fract_x
_atom_site_fract_y
_atom_site_fract_z
Si Si1 0.039767 0.271201 0.135659
Si Si2 0.000000 0.382228 0.250000
Si Si3 0.456198 0.416889 0.953162
Si Si4 0.637462 0.829483 0.980460
Si Si5 0.212574 0.695549 0.167817
Si Si6 0.412860 0.423111 0.099019
Si Si7 0.780563 0.805864 0.439643
O O1 0.835830 0.224041 0.190639
O O2 0.005166 0.335100 0.189875
O O3 0.238343 0.224953 0.097554
O O4 0.072782 0.291546 0.058687
O O5 0.201052 0.430252 0.193031
O O6 0.286040 0.395065 0.953541
O O7 0.663452 0.371978 0.893126
O O8 0.483427 0.499836 0.929921
O O9 0.371172 0.401653 0.042610
O O10 0.429189 0.851345 0.007030
O O11 0.171468 0.759833 0.132445
O O12 0.000000 0.665712 0.250000
O O13 0.545809 0.363440 0.095345
O O14 0.750000 0.750000 0.500000
#
# Coordination Sequence:
#
# PCOD8136994 Si02
#       7
#     8   4   8   8   8   8   8
#     4   9  18  32  55  86 110 148 181 235 293 335
#     4  12  20  34  58  88 114 144 190 246 272 338
#     4  10  21  40  55  79 115 158 185 225 294 353
#     4   9  18  36  58  78 119 149 184 228 297 343
#     4  10  20  35  58  83 114 143 189 240 285 334
#     4  11  23  35  57  85 113 148 197 232 283 344
#     4  11  20  35  58  91 110 144 193 244 276 341
#
# _framework density 18.610671
#
# number of rings (size 3 to 8) (size 9 to 14) (size 15 to 20)
#    0.000    1.846    3.077    2.769    1.077    0.615 
#    0.000    0.000    0.000    0.000   32.000    0.000 
#    0.000    0.000    0.000    0.000    0.000    0.000 
#
# Total GULP energy -322188.688725 kJ/mol
# GULP energy per Si atom -12391.872643 kJ/mol
# Density = 1.856831 g / cm^3
# Si number density = 18.610671 Si / 1000 Ang^3
#
#
#
# Elastic Constant Matrix: (Units=GPa)
#
#
# Indices 1 2 3 4 5 6 
#
# 1 79.2184 28.2273 38.5069 0.0004 -20.1236 -0.0008
# 2 28.2273 68.7900 27.0394 -0.0004 -6.8076 0.0004
# 3 38.5069 27.0394 110.5879 -0.0035 -25.3523 0.0020
# 4 0.0004 -0.0004 -0.0035 17.9576 0.0005 5.8707
# 5 -20.1236 -6.8076 -25.3523 0.0005 28.1053 0.0000
# 6 -0.0008 0.0004 0.0020 5.8707 0.0000 14.9478
#
#
#
# Elastic Compliance Matrix: (Units=1/GPa)
#
#
# Indices 1 2 3 4 5 6 
#
# 1 0.018322 -0.005454 -0.002952 -0.000002 0.009135 0.000002
# 2 -0.005454 0.017710 -0.002954 0.000000 -0.002280 0.000000
# 3 -0.002952 -0.002954 0.012789 0.000003 0.008707 -0.000003
# 4 -0.000002 0.000000 0.000003 0.063890 0.000000 -0.025093
# 5 0.009135 -0.002280 0.008707 0.000000 0.049423 -0.000001
# 6 0.000002 0.000000 -0.000003 -0.025093 -0.000001 0.076755
#
#
# Mechanical properties :
#
#
# Convention : Reuss Voigt Hill
#
# Bulk Modulus (GPa) = 38.31195 49.57149 43.94172
# Shear Modulus (GPa) = 18.49732 23.19032 20.84382
#
# Velocity S-wave (km/s) = 3.15605 3.53381 3.35026
# Velocity P-wave (km/s) = 5.82337 6.58364 6.21514
#
# Compressibility (1/GPa) = 0.02610152
#
# Stress axis : x y z
#
# Youngs Moduli (GPa) = 54.57870 56.46395 78.19333
#
# Poissons Ratio (x) = 0.30795 0.23084
# Poissons Ratio (y) = 0.29767 0.23097
# Poissons Ratio (z) = 0.16112 0.16679
#
# Static dielectric constant tensor:
#      x y z
#    x 3.639360 0.000000 -0.296530 
#    y 0.000000 3.223730 0.000000 
#    z -0.296530 0.000000 3.595400 
# 
# 
# High freq. dielectric constant tensor:
#      x y z
#    x 1.721270 0.000000 -0.019870 
#    y 0.000000 1.703330 0.000000 
#    z -0.019870 0.000000 1.727070 
# 
# From -- ./inp_files/266040.got.cif
#   From: 2010.06.25/outbox.cif.g09.slc.cpg/sg15_134_cif.got.tgz:266040.got - 2010.06.28 07:06:18.
