data_PCOD8136426
_publ_section_title
;
Structure prediction by ZEFSAII (Michael W. Deem and Ramdas Pophale) SiO2 
 PCOD8136426
Probable space group: C 2/C
;
_chemical_formula_sum "Si O2"
_cell_formula_units_Z 56
_cell_length_a 19.320292
_cell_length_b 19.520306
_cell_length_c 9.353373
_cell_angle_alpha 90.000000
_cell_angle_beta 113.348281
_cell_angle_gamma 90.000000
_cell_volume 3238.654178
_symmetry_space_group_name_H-M "C 2/C"
_symmetry_group_IT_number 15
_symmetry_cell_setting 'monoclinic'
loop_
_space_group_symop_operation_xyz
x,y,z
-x,y,1/2-z
-x,-y,-z
x,-y,1/2+z
1/2+x,1/2+y,z
1/2-x,1/2+y,1/2-z
1/2-x,1/2-y,-z
1/2+x,1/2-y,1/2+z
loop_
_atom_site_type_symbol
_atom_site_label
_atom_site_fract_x
_atom_site_fract_y
_atom_site_fract_z
Si Si1 0.909510 0.723229 0.495094
Si Si2 0.156687 0.866788 0.111440
Si Si3 0.215437 0.670360 0.294339
Si Si4 0.416931 0.763061 0.324277
Si Si5 0.213031 0.318888 0.110711
Si Si6 0.649221 0.618586 0.275140
Si Si7 0.444563 0.481538 0.333669
O O1 0.887418 0.795848 0.411028
O O2 0.862631 0.668154 0.361478
O O3 0.888142 0.713876 0.643985
O O4 0.999234 0.715938 0.562680
O O5 0.238519 0.870024 0.252345
O O6 0.106365 0.919194 0.158634
O O7 0.172956 0.879405 0.959117
O O8 0.204140 0.645306 0.447915
O O9 0.244068 0.747070 0.341006
O O10 0.276357 0.622863 0.262925
O O11 0.370219 0.806400 0.399465
O O12 0.406597 0.680374 0.319146
O O13 0.607951 0.546823 0.231311
O O14 0.500000 0.461170 0.250000
O O15 0.500000 0.500000 0.500000
#
# Coordination Sequence:
#
# PCOD8136426 Si02
#       7
#     8   8   8   8   8   8   8
#     4   9  17  31  50  73  98 130 168 202 252 298
#     4  10  20  35  49  69  98 137 172 204 244 297
#     4   9  18  31  47  71  97 127 163 208 254 298
#     4   9  17  30  52  72  97 131 167 207 246 300
#     4   9  18  31  47  71  97 126 165 207 255 295
#     4  10  20  34  51  67  99 137 172 205 243 295
#     4  12  24  36  50  74 103 136 175 210 243 290
#
# _framework density 17.291134
#
# number of rings (size 3 to 8) (size 9 to 14) (size 15 to 20)
#    0.000    2.286    1.429    1.714    4.000    4.000 
#    5.143    0.000    0.000    0.000    0.000    1.000 
#    0.000    0.000    0.000    0.000    0.000    0.000 
#
# Total GULP energy -346879.586285 kJ/mol
# GULP energy per Si atom -12388.556653 kJ/mol
# Density = 1.725178 g / cm^3
# Si number density = 17.291134 Si / 1000 Ang^3
#
#
#
# Elastic Constant Matrix: (Units=GPa)
#
#
# Indices 1 2 3 4 5 6 
#
# 1 108.5157 28.4632 50.0170 0.0000 -18.4551 0.0000
# 2 28.4632 30.9050 17.0694 0.0000 -7.7477 0.0000
# 3 50.0170 17.0694 101.2900 0.0000 -6.0918 0.0000
# 4 0.0000 0.0000 0.0000 14.6414 0.0000 -1.3499
# 5 -18.4551 -7.7477 -6.0918 0.0000 34.5100 0.0000
# 6 0.0000 0.0000 0.0000 -1.3499 0.0000 29.4414
#
#
#
# Elastic Compliance Matrix: (Units=1/GPa)
#
#
# Indices 1 2 3 4 5 6 
#
# 1 0.015148 -0.009639 -0.005558 0.000000 0.004956 0.000000
# 2 -0.009639 0.043579 -0.002331 0.000000 0.004218 0.000000
# 3 -0.005558 -0.002331 0.012937 0.000000 -0.001212 0.000000
# 4 0.000000 0.000000 0.000000 0.068589 0.000000 0.003145
# 5 0.004956 0.004218 -0.001212 0.000000 0.032360 0.000000
# 6 0.000000 0.000000 0.000000 0.003145 0.000000 0.034110
#
#
# Mechanical properties :
#
#
# Convention : Reuss Voigt Hill
#
# Bulk Modulus (GPa) = 27.31533 47.97888 37.64711
# Shear Modulus (GPa) = 19.68646 25.39596 22.54121
#
# Velocity S-wave (km/s) = 3.37787 3.83656 3.61450
# Velocity P-wave (km/s) = 5.57180 6.88720 6.26412
#
# Compressibility (1/GPa) = 0.03660947
#
# Stress axis : x y z
#
# Youngs Moduli (GPa) = 66.01528 22.94668 77.29843
#
# Poissons Ratio (x) = 0.22119 0.42960
# Poissons Ratio (y) = 0.63633 0.18015
# Poissons Ratio (z) = 0.36689 0.05348
#
# Static dielectric constant tensor:
#      x y z
#    x 3.278310 0.000000 -0.068920 
#    y 0.000000 2.840840 0.000000 
#    z -0.068920 0.000000 3.573010 
# 
# 
# High freq. dielectric constant tensor:
#      x y z
#    x 1.670700 0.000000 -0.003150 
#    y 0.000000 1.617280 0.000000 
#    z -0.003150 0.000000 1.687400 
# 
# From -- ./inp_files/56484.got.cif
#   From: 2010.06.25/outbox.cif.g09.slc.cpg/sg15_29_cif.got.tgz:56484.got - 2010.06.28 07:06:18.
