data_PCOD8136991
_publ_section_title
;
Structure prediction by ZEFSAII (Michael W. Deem and Ramdas Pophale) SiO2 
 PCOD8136991
Probable space group: C 2/C
;
_chemical_formula_sum "Si O2"
_cell_formula_units_Z 64
_cell_length_a 21.422056
_cell_length_b 17.684925
_cell_length_c 22.072973
_cell_angle_alpha 90.000000
_cell_angle_beta 155.134053
_cell_angle_gamma 90.000000
_cell_volume 3516.314764
_symmetry_space_group_name_H-M "C 2/C"
_symmetry_group_IT_number 15
_symmetry_cell_setting 'monoclinic'
loop_
_space_group_symop_operation_xyz
x,y,z
-x,y,1/2-z
-x,-y,-z
x,-y,1/2+z
1/2+x,1/2+y,z
1/2-x,1/2+y,1/2-z
1/2-x,1/2-y,-z
1/2+x,1/2-y,1/2+z
loop_
_atom_site_type_symbol
_atom_site_label
_atom_site_fract_x
_atom_site_fract_y
_atom_site_fract_z
Si Si1 0.541745 0.923375 0.722077
Si Si2 0.343158 0.615631 0.740810
Si Si3 0.887673 0.829449 0.857502
Si Si4 0.416352 0.957000 0.341954
Si Si5 0.806443 0.706446 0.989900
Si Si6 0.782456 0.464334 0.833944
Si Si7 0.658075 0.648204 0.047061
Si Si8 0.273066 0.679299 0.807895
O O1 0.500000 0.958023 0.750000
O O2 0.433925 0.853633 0.614107
O O3 0.706185 0.889468 0.868281
O O4 0.529576 0.993459 0.666556
O O5 0.324802 0.663430 0.662454
O O6 0.263091 0.534673 0.663488
O O7 0.275307 0.660661 0.738328
O O8 0.514909 0.597794 0.905251
O O9 0.848007 0.901839 0.780777
O O10 0.811222 0.845971 0.854701
O O11 0.810559 0.758381 0.757481
O O12 0.063618 0.817253 0.018880
O O13 0.563112 0.928998 0.506559
O O14 0.322457 0.883398 0.239712
O O15 0.308095 0.007537 0.287980
O O16 0.877601 0.768009 0.008254
O O17 0.750000 0.750000 0.000000
#
# Coordination Sequence:
#
# PCOD8136991 Si02
#       8
#     8   8   8   8   8   8   8   8
#     4  12  24  39  56  81 112 163 205 240 281 339
#     4  10  22  36  53  82 115 160 193 242 292 342
#     4  11  21  35  57  87 117 149 186 238 301 358
#     4  10  21  37  56  80 116 153 193 242 295 347
#     4  12  23  39  53  78 116 162 208 237 272 334
#     4  10  20  35  58  82 116 153 193 240 299 354
#     4  11  23  33  54  77 120 152 198 241 282 342
#     4  10  22  34  57  85 117 150 191 237 302 361
#
# _framework density 18.200873000000001
#
# number of rings (size 3 to 8) (size 9 to 14) (size 15 to 20)
#    0.000    1.250    5.000    1.500    3.500    1.500 
#    0.000    0.000    0.000    0.000    0.000    3.500 
#    0.000    0.000    0.000    0.000    0.000    0.000 
#
# Total GULP energy -396796.280548 kJ/mol
# GULP energy per Si atom -12399.883767 kJ/mol
# Density = 1.815945 g / cm^3
# Si number density = 18.200873 Si / 1000 Ang^3
#
#
#
# Elastic Constant Matrix: (Units=GPa)
#
#
# Indices 1 2 3 4 5 6 
#
# 1 64.9080 38.1964 15.3046 -0.0014 0.0207 -0.0057
# 2 38.1964 112.9796 54.7450 0.0071 0.7921 -0.0008
# 3 15.3046 54.7450 93.6178 -0.0360 11.6228 -0.0218
# 4 -0.0014 0.0071 -0.0360 37.5028 -0.0087 1.6015
# 5 0.0207 0.7921 11.6228 -0.0087 21.5393 -0.0061
# 6 -0.0057 -0.0008 -0.0218 1.6015 -0.0061 30.9350
#
#
#
# Elastic Compliance Matrix: (Units=1/GPa)
#
#
# Indices 1 2 3 4 5 6 
#
# 1 0.019291 -0.006989 0.000969 0.000003 -0.000284 0.000004
# 2 -0.006989 0.015163 -0.008206 -0.000010 0.003877 -0.000005
# 3 0.000969 -0.008206 0.016382 0.000015 -0.008539 0.000009
# 4 0.000003 -0.000010 0.000015 0.026724 0.000003 -0.001383
# 5 -0.000284 0.003877 -0.008539 0.000003 0.050892 0.000004
# 6 0.000004 -0.000005 0.000009 -0.001383 0.000004 0.032398
#
#
# Mechanical properties :
#
#
# Convention : Reuss Voigt Hill
#
# Bulk Modulus (GPa) = 44.67559 54.22194 49.44876
# Shear Modulus (GPa) = 25.41123 28.87936 27.14529
#
# Velocity S-wave (km/s) = 3.74057 3.98766 3.86609
# Velocity P-wave (km/s) = 6.57685 7.14545 6.86704
#
# Compressibility (1/GPa) = 0.02238359
#
# Stress axis : x y z
#
# Youngs Moduli (GPa) = 51.83721 65.94968 61.04303
#
# Poissons Ratio (x) = 0.46095 -0.05914
# Poissons Ratio (y) = 0.36231 0.50090
# Poissons Ratio (z) = -0.05022 0.54116
#
# Static dielectric constant tensor:
#      x y z
#    x 3.168990 -0.000020 0.043160 
#    y -0.000020 3.362300 -0.000030 
#    z 0.043160 -0.000030 3.404550 
# 
# 
# High freq. dielectric constant tensor:
#      x y z
#    x 1.662110 0.000000 0.007170 
#    y 0.000000 1.702710 0.000000 
#    z 0.007170 0.000000 1.720840 
# 
# From -- ./inp_files/282247.got.cif
#   From: 2010.06.25/outbox.cif.g09.slc.cpg/sg15_142_cif.got.tgz:282247.got - 2010.06.28 07:06:18.
