data_PCOD8136658
_publ_section_title
;
Structure prediction by ZEFSAII (Michael W. Deem and Ramdas Pophale) SiO2 
 PCOD8136658
Probable space group: C 2/C
;
_chemical_formula_sum "Si O2"
_cell_formula_units_Z 64
_cell_length_a 11.707606
_cell_length_b 18.720385
_cell_length_c 14.010175
_cell_angle_alpha 90.000000
_cell_angle_beta 95.370000
_cell_angle_gamma 90.000000
_cell_volume 3057.145903
_symmetry_space_group_name_H-M "C 2/C"
_symmetry_group_IT_number 15
_symmetry_cell_setting 'monoclinic'
loop_
_space_group_symop_operation_xyz
x,y,z
-x,y,1/2-z
-x,-y,-z
x,-y,1/2+z
1/2+x,1/2+y,z
1/2-x,1/2+y,1/2-z
1/2-x,1/2-y,-z
1/2+x,1/2-y,1/2+z
loop_
_atom_site_type_symbol
_atom_site_label
_atom_site_fract_x
_atom_site_fract_y
_atom_site_fract_z
Si Si1 0.407071 0.599925 0.517969
Si Si2 0.206412 0.660112 0.395166
Si Si3 0.238650 0.572871 0.220717
Si Si4 0.891611 0.196836 0.677561
Si Si5 0.981006 0.584967 0.400509
Si Si6 0.306103 0.907048 0.268968
Si Si7 0.448548 0.541593 0.140041
Si Si8 0.535405 0.927263 0.386015
O O1 0.281375 0.636500 0.492478
O O2 0.458852 0.659062 0.593998
O O3 0.470443 0.589280 0.421810
O O4 0.404400 0.526729 0.577188
O O5 0.267424 0.611812 0.320436
O O6 0.199188 0.742509 0.363539
O O7 0.074467 0.645538 0.405852
O O8 0.120948 0.607873 0.176472
O O9 0.238239 0.487900 0.234081
O O10 0.337813 0.590500 0.151738
O O11 0.805656 0.141719 0.724928
O O12 0.000000 0.223326 0.750000
O O13 0.928901 0.580411 0.502009
O O14 0.035285 0.511937 0.364089
O O15 0.407202 0.896456 0.355935
O O16 0.366699 0.890826 0.171340
O O17 0.500000 0.521859 0.250000
#
# Coordination Sequence:
#
# PCOD8136658 Si02
#       8
#     8   8   8   8   8   8   8   8
#     4  11  25  41  69  96 132 182 220 274 330 401
#     4  12  24  43  65  93 134 179 217 276 338 400
#     4  11  21  37  65  91 131 167 213 275 336 390
#     4  12  26  43  65  95 135 178 229 276 327 406
#     4  10  20  34  58  94 124 159 213 266 330 392
#     4  10  20  38  60  91 127 169 217 272 333 385
#     4  11  23  43  65 103 135 167 226 276 332 387
#     4   9  19  34  60  91 124 159 212 274 325 387
#
# _framework density 20.934559
#
# number of rings (size 3 to 8) (size 9 to 14) (size 15 to 20)
#    0.000    1.250    3.750    2.625    3.500    1.000 
#    0.000    3.750    0.000    3.000    0.000    0.000 
#    0.000    0.000    0.000    0.000    0.000    0.000 
#
# Total GULP energy -396419.401389 kJ/mol
# GULP energy per Si atom -12388.106293 kJ/mol
# Density = 2.088691 g / cm^3
# Si number density = 20.934559 Si / 1000 Ang^3
#
#
#
# Elastic Constant Matrix: (Units=GPa)
#
#
# Indices 1 2 3 4 5 6 
#
# 1 94.1963 41.6929 31.2956 0.0000 -7.2055 0.0000
# 2 41.6929 61.7808 23.3311 0.0000 5.6597 0.0000
# 3 31.2956 23.3311 90.7375 0.0000 -5.6597 0.0000
# 4 0.0000 0.0000 0.0000 13.1491 0.0000 7.6655
# 5 -7.2055 5.6597 -5.6597 0.0000 29.7667 0.0000
# 6 0.0000 0.0000 0.0000 7.6655 0.0000 26.4203
#
#
#
# Elastic Compliance Matrix: (Units=1/GPa)
#
#
# Indices 1 2 3 4 5 6 
#
# 1 0.016691 -0.010780 -0.002636 0.000000 0.005589 0.000000
# 2 -0.010780 0.025461 -0.003333 0.000000 -0.008084 0.000000
# 3 -0.002636 -0.003333 0.012940 0.000000 0.002456 0.000000
# 4 0.000000 0.000000 0.000000 0.091533 0.000000 -0.026557
# 5 0.005589 -0.008084 0.002456 0.000000 0.036952 0.000000
# 6 0.000000 0.000000 0.000000 -0.026557 0.000000 0.045555
#
#
# Mechanical properties :
#
#
# Convention : Reuss Voigt Hill
#
# Bulk Modulus (GPa) = 46.31100 48.81710 47.56405
# Shear Modulus (GPa) = 18.53035 23.89355 21.21195
#
# Velocity S-wave (km/s) = 2.97838 3.38204 3.18661
# Velocity P-wave (km/s) = 5.83074 6.21454 6.02570
#
# Compressibility (1/GPa) = 0.02159314
#
# Stress axis : x y z
#
# Youngs Moduli (GPa) = 59.91203 39.27626 77.27886
#
# Poissons Ratio (x) = 0.42342 0.20373
# Poissons Ratio (y) = 0.64588 0.25754
# Poissons Ratio (z) = 0.15794 0.13089
#
# Static dielectric constant tensor:
#      x y z
#    x 3.904070 0.000000 0.012830 
#    y 0.000000 3.485390 0.000000 
#    z 0.012830 0.000000 4.037660 
# 
# 
# High freq. dielectric constant tensor:
#      x y z
#    x 1.823640 0.000000 0.000860 
#    y 0.000000 1.781730 0.000000 
#    z 0.000860 0.000000 1.840120 
# 
# From -- ./inp_files/146095.got.cif
#   From: 2010.06.25/outbox.cif.g09.slc.cpg/sg15_74_cif.got.tgz:146095.got - 2010.06.28 07:06:18.
