data_PCOD8136258
_publ_section_title
;
Structure prediction by ZEFSAII (Michael W. Deem and Ramdas Pophale) SiO2 
 PCOD8136258
Probable space group: C 2/C
;
_chemical_formula_sum "Si O2"
_cell_formula_units_Z 64
_cell_length_a 29.546610
_cell_length_b 13.398832
_cell_length_c 9.384798
_cell_angle_alpha 90.000000
_cell_angle_beta 95.461644
_cell_angle_gamma 90.000000
_cell_volume 3698.481109
_symmetry_space_group_name_H-M "C 2/C"
_symmetry_group_IT_number 15
_symmetry_cell_setting 'monoclinic'
loop_
_space_group_symop_operation_xyz
x,y,z
-x,y,1/2-z
-x,-y,-z
x,-y,1/2+z
1/2+x,1/2+y,z
1/2-x,1/2+y,1/2-z
1/2-x,1/2-y,-z
1/2+x,1/2-y,1/2+z
loop_
_atom_site_type_symbol
_atom_site_label
_atom_site_fract_x
_atom_site_fract_y
_atom_site_fract_z
Si Si1 0.136559 0.285257 0.188136
Si Si2 0.457871 0.920310 0.647148
Si Si3 0.289126 0.800919 0.816717
Si Si4 0.357860 0.129085 0.101815
Si Si5 0.686426 0.925978 0.408538
Si Si6 0.713109 0.426325 0.119806
Si Si7 0.458239 0.876510 0.315106
Si Si8 0.807882 0.894653 0.703650
O O1 0.162090 0.377036 0.268079
O O2 0.083031 0.299354 0.196523
O O3 0.150073 0.177316 0.249743
O O4 0.149724 0.292166 0.026400
O O5 0.500000 0.871531 0.750000
O O6 0.410544 0.863909 0.665251
O O7 0.468002 0.916838 0.479234
O O8 0.450189 0.031699 0.703857
O O9 0.325730 0.842499 0.720115
O O10 0.287898 0.681989 0.808405
O O11 0.238829 0.839809 0.767306
O O12 0.305339 0.838342 0.975320
O O13 0.344374 0.017383 0.043462
O O14 0.735393 0.967397 0.374489
O O15 0.685208 0.503501 0.207340
O O16 0.689561 0.422776 0.960123
O O17 0.500000 0.818380 0.250000
#
# Coordination Sequence:
#
# PCOD8136258 Si02
#       8
#     8   8   8   8   8   8   8   8
#     4  11  22  36  53  80 113 140 186 229 264 326
#     4  10  20  33  50  80 112 142 184 217 265 329
#     4  11  22  36  54  79 111 149 191 219 272 324
#     4  11  23  32  55  83 109 156 178 223 268 327
#     4  11  19  36  52  77 114 149 188 218 268 316
#     4  11  23  37  55  76 109 151 187 229 272 307
#     4  10  20  34  54  78 108 146 176 220 276 329
#     4  11  23  39  55  79 109 144 188 235 267 322
#
# _framework density 17.304400000000001
#
# number of rings (size 3 to 8) (size 9 to 14) (size 15 to 20)
#    0.000    1.250    5.000    3.000    5.250    1.500 
#    0.000    0.000    0.000    0.000    0.000    1.750 
#    0.000    0.000    0.000    0.000    0.000    0.000 
#
# Total GULP energy -396714.142595 kJ/mol
# GULP energy per Si atom -12397.316956 kJ/mol
# Density = 1.726501 g / cm^3
# Si number density = 17.304400 Si / 1000 Ang^3
#
#
#
# Elastic Constant Matrix: (Units=GPa)
#
#
# Indices 1 2 3 4 5 6 
#
# 1 78.8825 25.0106 43.5574 0.0000 7.7143 0.0000
# 2 25.0106 89.6833 36.6411 0.0000 7.0431 0.0000
# 3 43.5574 36.6411 63.6735 0.0000 3.4356 0.0000
# 4 0.0000 0.0000 0.0000 19.7493 0.0000 -0.8551
# 5 7.7143 7.0431 3.4356 0.0000 27.6483 0.0000
# 6 0.0000 0.0000 0.0000 -0.8551 0.0000 21.0773
#
#
#
# Elastic Compliance Matrix: (Units=1/GPa)
#
#
# Indices 1 2 3 4 5 6 
#
# 1 0.020824 0.000321 -0.014207 0.000000 -0.004127 0.000000
# 2 0.000321 0.014784 -0.008577 0.000000 -0.002790 0.000000
# 3 -0.014207 -0.008577 0.030230 0.000000 0.002392 0.000000
# 4 0.000000 0.000000 0.000000 0.050724 0.000000 0.002058
# 5 -0.004127 -0.002790 0.002392 0.000000 0.037733 0.000000
# 6 0.000000 0.000000 0.000000 0.002058 0.000000 0.047528
#
#
# Mechanical properties :
#
#
# Convention : Reuss Voigt Hill
#
# Bulk Modulus (GPa) = 47.81773 49.18417 48.50095
# Shear Modulus (GPa) = 19.70681 22.16365 20.93523
#
# Velocity S-wave (km/s) = 3.37832 3.58272 3.48202
# Velocity P-wave (km/s) = 6.55062 6.75272 6.65244
#
# Compressibility (1/GPa) = 0.02091275
#
# Stress axis : x y z
#
# Youngs Moduli (GPa) = 48.02219 67.64082 33.07936
#
# Poissons Ratio (x) = -0.02174 0.46997
# Poissons Ratio (y) = -0.01543 0.28371
# Poissons Ratio (z) = 0.68226 0.58014
#
# Static dielectric constant tensor:
#      x y z
#    x 3.412130 0.000000 0.023840 
#    y 0.000000 3.012720 0.000000 
#    z 0.023840 0.000000 3.332910 
# 
# 
# High freq. dielectric constant tensor:
#      x y z
#    x 1.661180 0.000000 -0.000750 
#    y 0.000000 1.639430 0.000000 
#    z -0.000750 0.000000 1.682350 
# 
# From -- ./inp_files/66239.got.cif
#   From: 2010.06.25/outbox.cif.g09.slc.cpg/sg15_34_cif.got.tgz:66239.got - 2010.06.28 07:06:18.
