data_PCOD8136673
_publ_section_title
;
Structure prediction by ZEFSAII (Michael W. Deem and Ramdas Pophale) SiO2 
 PCOD8136673
Probable space group: C 2/C
;
_chemical_formula_sum "Si O2"
_cell_formula_units_Z 56
_cell_length_a 10.984419
_cell_length_b 8.941093
_cell_length_c 29.703529
_cell_angle_alpha 90.000000
_cell_angle_beta 59.849836
_cell_angle_gamma 90.000000
_cell_volume 2522.593312
_symmetry_space_group_name_H-M "C 2/C"
_symmetry_group_IT_number 15
_symmetry_cell_setting 'monoclinic'
loop_
_space_group_symop_operation_xyz
x,y,z
-x,y,1/2-z
-x,-y,-z
x,-y,1/2+z
1/2+x,1/2+y,z
1/2-x,1/2+y,1/2-z
1/2-x,1/2-y,-z
1/2+x,1/2-y,1/2+z
loop_
_atom_site_type_symbol
_atom_site_label
_atom_site_fract_x
_atom_site_fract_y
_atom_site_fract_z
Si Si1 0.115584 0.342238 0.692646
Si Si2 0.020451 0.441650 0.923182
Si Si3 0.882228 0.068330 0.052804
Si Si4 0.303647 0.889377 0.037177
Si Si5 0.390501 0.899666 0.368199
Si Si6 0.928161 0.862803 0.643823
Si Si7 0.522201 0.668421 0.622920
O O1 0.094357 0.517293 0.682971
O O2 0.269578 0.305097 0.684580
O O3 0.100477 0.255747 0.648282
O O4 0.000000 0.291307 0.750000
O O5 0.006216 0.547700 0.883027
O O6 0.064436 0.278992 0.894397
O O7 0.138012 0.505071 0.934000
O O8 0.870990 0.436718 0.977288
O O9 0.820237 0.211611 0.039237
O O10 0.949692 0.132432 0.086082
O O11 0.765871 0.938140 0.084253
O O12 0.000000 0.000000 0.000000
O O13 0.136790 0.915711 0.069639
O O14 0.443612 0.726743 0.354807
O O15 0.927697 0.036170 0.661129
#
# Coordination Sequence:
#
# PCOD8136673 Si02
#       7
#     8   8   8   8   8   8   8
#     4  10  23  45  66  88 119 152 203 265 315 369
#     4  10  20  34  59  83 121 168 205 237 295 350
#     4  11  22  35  55  88 127 165 207 249 291 358
#     4  11  20  35  55  87 120 163 206 241 284 359
#     4  10  21  40  60  86 127 164 202 255 306 363
#     4  11  23  40  61  91 123 157 207 251 306 368
#     4  11  22  39  62  85 120 159 196 251 307 355
#
# _framework density 22.199377999999999
#
# number of rings (size 3 to 8) (size 9 to 14) (size 15 to 20)
#    0.000    1.429    5.714    1.286    2.000    6.286 
#    0.000    0.714    0.000    0.000    0.000    0.000 
#    0.000    0.000    0.000    0.000    0.000    0.000 
#
# Total GULP energy -346896.860277 kJ/mol
# GULP energy per Si atom -12389.173581 kJ/mol
# Density = 2.214885 g / cm^3
# Si number density = 22.199378 Si / 1000 Ang^3
#
#
#
# Elastic Constant Matrix: (Units=GPa)
#
#
# Indices 1 2 3 4 5 6 
#
# 1 55.5977 29.7471 7.4316 0.0000 -10.7134 0.0000
# 2 29.7471 94.7239 9.3396 0.0000 -9.0392 0.0000
# 3 7.4316 9.3396 72.0341 0.0000 -24.5495 0.0000
# 4 0.0000 0.0000 0.0000 15.3241 0.0000 1.2616
# 5 -10.7134 -9.0392 -24.5495 0.0000 29.3146 0.0000
# 6 0.0000 0.0000 0.0000 1.2616 0.0000 40.2545
#
#
#
# Elastic Compliance Matrix: (Units=1/GPa)
#
#
# Indices 1 2 3 4 5 6 
#
# 1 0.022730 -0.006555 0.000906 0.000000 0.007044 0.000000
# 2 -0.006555 0.012775 -0.000635 0.000000 0.001011 0.000000
# 3 0.000906 -0.000635 0.019476 0.000000 0.016445 0.000000
# 4 0.000000 0.000000 0.000000 0.065425 0.000000 -0.002050
# 5 0.007044 0.001011 0.016445 0.000000 0.050771 0.000000
# 6 0.000000 0.000000 0.000000 -0.002050 0.000000 0.024906
#
#
# Mechanical properties :
#
#
# Convention : Reuss Voigt Hill
#
# Bulk Modulus (GPa) = 23.57908 35.04359 29.31133
# Shear Modulus (GPa) = 22.44268 28.70115 25.57192
#
# Velocity S-wave (km/s) = 3.18301 3.59957 3.39768
# Velocity P-wave (km/s) = 4.91460 5.75291 5.35020
#
# Compressibility (1/GPa) = 0.04241048
#
# Stress axis : x y z
#
# Youngs Moduli (GPa) = 43.99470 78.27934 51.34578
#
# Poissons Ratio (x) = 0.51314 -0.04650
# Poissons Ratio (y) = 0.28840 0.03262
# Poissons Ratio (z) = -0.03984 0.04973
#
# Static dielectric constant tensor:
#      x y z
#    x 4.032240 0.000000 -0.066350 
#    y 0.000000 4.244560 0.000000 
#    z -0.066350 0.000000 3.754430 
# 
# 
# High freq. dielectric constant tensor:
#      x y z
#    x 1.875150 0.000000 0.002350 
#    y 0.000000 1.875670 0.000000 
#    z 0.002350 0.000000 1.837080 
# 
# From -- ./inp_files/310205.got.cif
#   From: 2010.06.25/outbox.cif.g09.slc.cpg/sg15_156_cif.got.tgz:310205.got - 2010.06.28 07:06:18.
