data_PCOD8136635
_publ_section_title
;
Structure prediction by ZEFSAII (Michael W. Deem and Ramdas Pophale) SiO2 
 PCOD8136635
Probable space group: C 2/C
;
_chemical_formula_sum "Si O2"
_cell_formula_units_Z 60
_cell_length_a 10.859118
_cell_length_b 17.707941
_cell_length_c 15.766915
_cell_angle_alpha 90.000000
_cell_angle_beta 90.000000
_cell_angle_gamma 90.000000
_cell_volume 3031.861408
_symmetry_space_group_name_H-M "C 2/C"
_symmetry_group_IT_number 15
_symmetry_cell_setting 'monoclinic'
loop_
_space_group_symop_operation_xyz
x,y,z
-x,y,1/2-z
-x,-y,-z
x,-y,1/2+z
1/2+x,1/2+y,z
1/2-x,1/2+y,1/2-z
1/2-x,1/2-y,-z
1/2+x,1/2-y,1/2+z
loop_
_atom_site_type_symbol
_atom_site_label
_atom_site_fract_x
_atom_site_fract_y
_atom_site_fract_z
Si Si1 0.500000 0.438179 0.750000
Si Si2 0.247173 0.844057 0.580873
Si Si3 0.232679 0.411915 0.750000
Si Si4 0.856045 0.578853 0.750000
Si Si5 0.500000 0.437365 0.569587
Si Si6 0.357816 0.182259 0.592065
Si Si7 0.857816 0.317741 0.407936
Si Si8 0.247173 0.155943 0.419127
O O1 0.377242 0.386378 0.750000
O O2 0.500000 0.482791 0.660396
O O3 0.321243 0.877863 0.662497
O O4 0.225746 0.756223 0.600281
O O5 0.334228 0.856099 0.499334
O O6 0.119480 0.885560 0.560806
O O7 0.221402 0.502026 0.750000
O O8 0.178757 0.377863 0.662497
O O9 0.818559 0.625075 0.666308
O O10 0.818560 0.625075 0.833692
O O11 0.000000 0.558117 0.750000
O O12 0.500000 0.500000 0.500000
O O13 0.380520 0.385559 0.560806
O O14 0.500000 0.204472 0.601639
O O15 0.334228 0.143901 0.500667
O O16 0.274254 0.256223 0.600281
#
# Coordination Sequence:
#
# PCOD8136635 Si02
#       8
#     4   8   8   8   8   8   8   8
#     4   8  20  34  52  80 110 146 172 226 284 336
#     4  10  21  37  61  82 114 151 187 236 283 339
#     4  10  21  37  57  86 110 144 190 232 289 328
#     4  10  23  38  59  82 113 149 189 233 275 340
#     4  10  20  34  58  88 114 143 189 238 285 333
#     4  10  21  39  58  83 112 151 192 227 279 346
#     4  10  21  39  58  83 112 151 192 227 279 346
#     4  10  21  37  61  82 114 151 187 236 283 339
#
# _framework density 19.789822999999998
#
# number of rings (size 3 to 8) (size 9 to 14) (size 15 to 20)
#    0.000    2.133    1.333    0.800    7.467    1.067 
#    0.000    2.667    0.000    0.000    0.000    0.000 
#    0.000    0.000    0.000    0.000    0.000    0.000 
#
# Total GULP energy -371834.069285 kJ/mol
# GULP energy per Si atom -12394.468976 kJ/mol
# Density = 1.974478 g / cm^3
# Si number density = 19.789823 Si / 1000 Ang^3
#
#
#
# Elastic Constant Matrix: (Units=GPa)
#
#
# Indices 1 2 3 4 5 6 
#
# 1 27.9063 11.7419 11.1397 0.0000 0.0000 0.0000
# 2 11.7419 98.3992 73.3631 0.0000 -0.0002 0.0000
# 3 11.1397 73.3631 194.8211 0.0000 -0.0002 0.0000
# 4 0.0000 0.0000 0.0000 40.9868 0.0000 0.0001
# 5 0.0000 -0.0002 -0.0002 0.0000 27.2371 0.0000
# 6 0.0000 0.0000 0.0000 0.0001 0.0000 13.7388
#
#
#
# Elastic Compliance Matrix: (Units=1/GPa)
#
#
# Indices 1 2 3 4 5 6 
#
# 1 0.037786 -0.004029 -0.000643 0.000000 0.000000 0.000000
# 2 -0.004029 0.014559 -0.005252 0.000000 0.000000 0.000000
# 3 -0.000643 -0.005252 0.007147 0.000000 0.000000 0.000000
# 4 0.000000 0.000000 0.000000 0.024398 0.000000 0.000000
# 5 0.000000 0.000000 0.000000 0.000000 0.036715 0.000000
# 6 0.000000 0.000000 0.000000 0.000000 0.000000 0.072786
#
#
# Mechanical properties :
#
#
# Convention : Reuss Voigt Hill
#
# Bulk Modulus (GPa) = 25.22477 57.06846 41.14661
# Shear Modulus (GPa) = 22.07927 31.38467 26.73197
#
# Velocity S-wave (km/s) = 3.34382 3.98666 3.67930
# Velocity P-wave (km/s) = 5.26138 7.07751 6.23591
#
# Compressibility (1/GPa) = 0.03964358
#
# Stress axis : x y z
#
# Youngs Moduli (GPa) = 26.46449 68.68431 139.90933
#
# Poissons Ratio (x) = 0.27676 0.08999
# Poissons Ratio (y) = 0.10664 0.73483
# Poissons Ratio (z) = 0.01702 0.36074
#
# Static dielectric constant tensor:
#      x y z
#    x 3.437400 0.000000 0.000000 
#    y 0.000000 3.368830 0.000000 
#    z 0.000000 0.000000 4.141610 
# 
# 
# High freq. dielectric constant tensor:
#      x y z
#    x 1.750380 0.000000 0.000000 
#    y 0.000000 1.754570 0.000000 
#    z 0.000000 0.000000 1.801530 
# 
# From -- ./inp_files/145670.got.cif
#   From: 2010.06.25/outbox.cif.g09.slc.cpg/sg15_73_cif.got.tgz:145670.got - 2010.06.28 07:06:18.
