data_PCOD8136576
_publ_section_title
;
Structure prediction by ZEFSAII (Michael W. Deem and Ramdas Pophale) SiO2 
 PCOD8136576
Probable space group: C 2/C
;
_chemical_formula_sum "Si O2"
_cell_formula_units_Z 52
_cell_length_a 19.157994
_cell_length_b 14.151417
_cell_length_c 22.581121
_cell_angle_alpha 90.000000
_cell_angle_beta 26.781365
_cell_angle_gamma 90.000000
_cell_volume 2758.508457
_symmetry_space_group_name_H-M "C 2/C"
_symmetry_group_IT_number 15
_symmetry_cell_setting 'monoclinic'
loop_
_space_group_symop_operation_xyz
x,y,z
-x,y,1/2-z
-x,-y,-z
x,-y,1/2+z
1/2+x,1/2+y,z
1/2-x,1/2+y,1/2-z
1/2-x,1/2-y,-z
1/2+x,1/2-y,1/2+z
loop_
_atom_site_type_symbol
_atom_site_label
_atom_site_fract_x
_atom_site_fract_y
_atom_site_fract_z
Si Si1 0.722251 0.979791 0.934149
Si Si2 0.000000 0.154467 0.250000
Si Si3 0.415728 0.174288 0.036998
Si Si4 0.449326 0.032729 0.725129
Si Si5 0.849803 0.679631 0.534542
Si Si6 0.899139 0.272913 0.215147
Si Si7 0.918993 0.675551 0.249376
O O1 0.640804 0.928961 0.940355
O O2 0.856261 0.916006 0.860176
O O3 0.763414 0.087572 0.885118
O O4 0.607222 0.994328 0.074543
O O5 0.990967 0.219724 0.198453
O O6 0.265964 0.228861 0.175072
O O7 0.536403 0.160559 0.997353
O O8 0.488978 0.232149 0.926434
O O9 0.500000 0.070963 0.750000
O O10 0.360408 0.117808 0.760113
O O11 0.356708 0.933380 0.795469
O O12 0.738739 0.765548 0.635620
O O13 0.957219 0.700714 0.395927
O O14 0.000000 0.698718 0.250000
#
# Coordination Sequence:
#
# PCOD8136576 Si02
#       7
#     8   4   8   8   8   8   8
#     4   9  21  34  56  81 113 147 184 224 280 334
#     4  10  20  34  56  92 110 140 188 240 276 316
#     4  10  21  36  55  85 111 155 181 219 283 338
#     4   9  18  34  54  79 111 144 176 227 286 325
#     4  11  21  40  58  77 117 148 186 231 270 342
#     4  10  20  34  58  84 116 143 188 229 277 332
#     4  10  22  38  58  82 104 147 191 232 281 321
#
# _framework density 18.850766
#
# number of rings (size 3 to 8) (size 9 to 14) (size 15 to 20)
#    0.000    2.154    0.769    1.846    3.231    1.846 
#    0.000    0.769    0.000    0.000    0.000    0.000 
#    0.000    0.000    0.000    0.000    0.000    0.000 
#
# Total GULP energy -322223.333895 kJ/mol
# GULP energy per Si atom -12393.205150 kJ/mol
# Density = 1.880786 g / cm^3
# Si number density = 18.850766 Si / 1000 Ang^3
#
#
#
# Elastic Constant Matrix: (Units=GPa)
#
#
# Indices 1 2 3 4 5 6 
#
# 1 56.7103 34.4250 11.4591 -0.0085 -1.9636 0.0010
# 2 34.4250 112.4355 45.2080 -0.0057 -9.7728 0.0014
# 3 11.4591 45.2080 58.3296 -0.0103 0.9600 0.0017
# 4 -0.0085 -0.0057 -0.0103 31.3778 0.0037 0.1566
# 5 -1.9636 -9.7728 0.9600 0.0037 29.1660 -0.0007
# 6 0.0010 0.0014 0.0017 0.1566 -0.0007 16.9732
#
#
#
# Elastic Compliance Matrix: (Units=1/GPa)
#
#
# Indices 1 2 3 4 5 6 
#
# 1 0.021755 -0.007321 0.001417 0.000005 -0.001035 -0.000001
# 2 -0.007321 0.016050 -0.011088 -0.000003 0.005250 0.000000
# 3 0.001417 -0.011088 0.025532 0.000007 -0.004460 -0.000002
# 4 0.000005 -0.000003 0.000007 0.031871 -0.000005 -0.000294
# 5 -0.001035 0.005250 -0.004460 -0.000005 0.036123 0.000002
# 6 -0.000001 0.000000 -0.000002 -0.000294 0.000002 0.058919
#
#
# Mechanical properties :
#
#
# Convention : Reuss Voigt Hill
#
# Bulk Modulus (GPa) = 34.06589 45.51772 39.79181
# Shear Modulus (GPa) = 21.36592 24.59561 22.98077
#
# Velocity S-wave (km/s) = 3.37029 3.61606 3.49533
# Velocity P-wave (km/s) = 5.76678 6.45238 6.11919
#
# Compressibility (1/GPa) = 0.02935487
#
# Stress axis : x y z
#
# Youngs Moduli (GPa) = 45.96610 62.30632 39.16605
#
# Poissons Ratio (x) = 0.45612 -0.05549
# Poissons Ratio (y) = 0.33650 0.43425
# Poissons Ratio (z) = -0.06513 0.69082
#
# Static dielectric constant tensor:
#      x y z
#    x 3.466830 -0.000010 0.115960 
#    y -0.000010 3.722310 0.000020 
#    z 0.115960 0.000020 3.417250 
# 
# 
# High freq. dielectric constant tensor:
#      x y z
#    x 1.730080 0.000000 0.013700 
#    y 0.000000 1.745920 0.000000 
#    z 0.013700 0.000000 1.722840 
# 
# From -- ./inp_files/55347.got.cif
#   From: 2010.06.25/outbox.cif.g09.slc.cpg/sg15_28_cif.got.tgz:55347.got - 2010.06.28 07:06:18.
