data_PCOD8136669
_publ_section_title
;
Structure prediction by ZEFSAII (Michael W. Deem and Ramdas Pophale) SiO2 
 PCOD8136669
Probable space group: C 2/C
;
_chemical_formula_sum "Si O2"
_cell_formula_units_Z 48
_cell_length_a 18.168172
_cell_length_b 9.400871
_cell_length_c 29.467065
_cell_angle_alpha 90.000000
_cell_angle_beta 29.951881
_cell_angle_gamma 90.000000
_cell_volume 2512.776475
_symmetry_space_group_name_H-M "C 2/C"
_symmetry_group_IT_number 15
_symmetry_cell_setting 'monoclinic'
loop_
_space_group_symop_operation_xyz
x,y,z
-x,y,1/2-z
-x,-y,-z
x,-y,1/2+z
1/2+x,1/2+y,z
1/2-x,1/2+y,1/2-z
1/2-x,1/2-y,-z
1/2+x,1/2-y,1/2+z
loop_
_atom_site_type_symbol
_atom_site_label
_atom_site_fract_x
_atom_site_fract_y
_atom_site_fract_z
Si Si1 0.578679 0.820107 0.840761
Si Si2 0.124196 0.009867 0.306284
Si Si3 0.451332 0.150658 0.042777
Si Si4 0.105202 0.804135 0.735379
Si Si5 0.576297 0.977308 0.757127
Si Si6 0.913230 0.101004 0.078799
O O1 0.712588 0.927419 0.778011
O O2 0.629355 0.661155 0.800279
O O3 0.493011 0.818380 0.934896
O O4 0.493987 0.891125 0.842555
O O5 0.050711 0.080631 0.301427
O O6 0.034471 0.060937 0.398372
O O7 0.276733 0.177971 0.130878
O O8 0.540969 0.241660 0.958492
O O9 0.500000 0.000000 0.000000
O O10 0.079734 0.644349 0.767306
O O11 0.000000 0.836374 0.750000
O O12 0.500000 0.946894 0.750000
O O13 0.739637 0.916319 0.665739
O O14 0.000000 0.000000 0.000000
#
# Coordination Sequence:
#
# PCOD8136669 Si02
#       6
#     8   8   8   8   8   8
#     4  10  20  36  56  85 112 150 194 225 281 345
#     4  10  20  34  59  82 112 154 189 230 280 343
#     4  11  23  36  59  88 113 147 193 238 278 333
#     4  10  22  41  59  83 115 152 192 230 284 345
#     4  10  22  39  60  83 115 155 189 231 287 341
#     4  11  19  38  59  82 114 147 186 235 285 328
#
# _framework density 19.102376
#
# number of rings (size 3 to 8) (size 9 to 14) (size 15 to 20)
#    0.000    1.667    3.333    3.000   11.667    0.667 
#    0.000    3.333    0.000    0.000    0.000    0.000 
#    0.000    0.000    0.000    0.000    0.000    0.000 
#
# Total GULP energy -297382.178466 kJ/mol
# GULP energy per Si atom -12390.924103 kJ/mol
# Density = 1.905890 g / cm^3
# Si number density = 19.102376 Si / 1000 Ang^3
#
#
#
# Elastic Constant Matrix: (Units=GPa)
#
#
# Indices 1 2 3 4 5 6 
#
# 1 137.5118 67.5237 36.6710 0.0000 14.2427 0.0006
# 2 67.5237 161.5639 20.3887 0.0000 16.9276 0.0017
# 3 36.6710 20.3887 48.8463 -0.0001 13.3498 -0.0002
# 4 0.0000 0.0000 -0.0001 30.7854 0.0001 13.3299
# 5 14.2427 16.9276 13.3498 0.0001 23.9062 -0.0004
# 6 0.0006 0.0017 -0.0002 13.3299 -0.0004 36.0011
#
#
#
# Elastic Compliance Matrix: (Units=1/GPa)
#
#
# Indices 1 2 3 4 5 6 
#
# 1 0.010851 -0.003688 -0.006554 0.000000 -0.000194 0.000000
# 2 -0.003688 0.008070 0.000426 0.000000 -0.003756 0.000000
# 3 -0.006554 0.000426 0.028594 0.000000 -0.012365 0.000000
# 4 0.000000 0.000000 0.000000 0.038685 -0.000001 -0.014324
# 5 -0.000194 -0.003756 -0.012365 -0.000001 0.051509 0.000001
# 6 0.000000 0.000000 0.000000 -0.014324 0.000001 0.033081
#
#
# Mechanical properties :
#
#
# Convention : Reuss Voigt Hill
#
# Bulk Modulus (GPa) = 35.86215 66.34319 51.10267
# Shear Modulus (GPa) = 25.03560 33.02777 29.03169
#
# Velocity S-wave (km/s) = 3.62415 4.16262 3.90268
# Velocity P-wave (km/s) = 6.02719 7.60979 6.86425
#
# Compressibility (1/GPa) = 0.02788455
#
# Stress axis : x y z
#
# Youngs Moduli (GPa) = 92.16034 123.91011 34.97219
#
# Poissons Ratio (x) = 0.45692 0.22921
# Poissons Ratio (y) = 0.33984 -0.01490
# Poissons Ratio (z) = 0.60401 -0.05281
#
# Static dielectric constant tensor:
#      x y z
#    x 4.210410 -0.000050 0.644120 
#    y -0.000050 5.641900 -0.000140 
#    z 0.644120 -0.000140 3.138060 
# 
# 
# High freq. dielectric constant tensor:
#      x y z
#    x 1.744690 0.000000 0.034000 
#    y 0.000000 1.764500 0.000000 
#    z 0.034000 0.000000 1.716620 
# 
# From -- ./inp_files/224549.got.cif
#   From: 2010.06.25/outbox.cif.g09.slc.cpg/sg15_113_cif.got.tgz:224549.got - 2010.06.28 07:06:18.
