data_PCOD8136643
_publ_section_title
;
Structure prediction by ZEFSAII (Michael W. Deem and Ramdas Pophale) SiO2 
 PCOD8136643
Probable space group: C 2/C
;
_chemical_formula_sum "Si O2"
_cell_formula_units_Z 56
_cell_length_a 11.933083
_cell_length_b 20.994168
_cell_length_c 11.062618
_cell_angle_alpha 90.000000
_cell_angle_beta 84.345148
_cell_angle_gamma 90.000000
_cell_volume 2757.976760
_symmetry_space_group_name_H-M "C 2/C"
_symmetry_group_IT_number 15
_symmetry_cell_setting 'monoclinic'
loop_
_space_group_symop_operation_xyz
x,y,z
-x,y,1/2-z
-x,-y,-z
x,-y,1/2+z
1/2+x,1/2+y,z
1/2-x,1/2+y,1/2-z
1/2-x,1/2-y,-z
1/2+x,1/2-y,1/2+z
loop_
_atom_site_type_symbol
_atom_site_label
_atom_site_fract_x
_atom_site_fract_y
_atom_site_fract_z
Si Si1 0.932179 0.495931 0.131220
Si Si2 0.249558 0.899617 0.177958
Si Si3 0.371050 0.478280 0.117454
Si Si4 0.079055 0.818530 0.630006
Si Si5 0.111788 0.672636 0.664027
Si Si6 0.930284 0.098897 0.991152
Si Si7 0.779646 0.405445 0.551476
O O1 0.866576 0.429535 0.122238
O O2 0.848847 0.556933 0.146541
O O3 0.000000 0.495352 0.250000
O O4 0.000000 0.500000 0.000000
O O5 0.186650 0.957583 0.252640
O O6 0.278836 0.839311 0.261254
O O7 0.174111 0.874119 0.075570
O O8 0.384813 0.555258 0.107792
O O9 0.494266 0.446678 0.100962
O O10 0.295254 0.456558 0.012395
O O11 0.107580 0.744485 0.617811
O O12 0.198293 0.854419 0.624393
O O13 0.000000 0.835140 0.750000
O O14 0.005747 0.840875 0.522613
O O15 0.128377 0.627553 0.546495
O O16 0.000000 0.654195 0.750000
#
# Coordination Sequence:
#
# PCOD8136643 Si02
#       7
#     8   8   8   8   8   8   8
#     4  12  25  39  59  92 124 163 206 256 319 380
#     4  11  21  36  61  85 120 160 199 250 317 373
#     4   9  19  34  55  90 124 149 185 253 326 373
#     4  10  23  38  60  86 119 163 207 257 312 373
#     4  10  21  42  60  81 119 171 212 250 307 373
#     4  10  20  34  58  90 118 151 198 252 309 378
#     4  10  20  39  60  87 119 162 201 258 314 371
#
# _framework density 20.304738
#
# number of rings (size 3 to 8) (size 9 to 14) (size 15 to 20)
#    0.000    1.714    1.429    3.857    2.000    0.000 
#    0.000    4.286    0.000    0.000    0.000    0.000 
#    0.000    0.000    0.000    0.000    0.000    0.000 
#
# Total GULP energy -347085.897064 kJ/mol
# GULP energy per Si atom -12395.924895 kJ/mol
# Density = 2.025852 g / cm^3
# Si number density = 20.304738 Si / 1000 Ang^3
#
#
#
# Elastic Constant Matrix: (Units=GPa)
#
#
# Indices 1 2 3 4 5 6 
#
# 1 107.6680 47.0817 39.9776 0.0000 18.3655 0.0000
# 2 47.0817 112.9305 26.1026 0.0000 18.5859 0.0000
# 3 39.9776 26.1026 70.9471 0.0000 12.6970 0.0000
# 4 0.0000 0.0000 0.0000 19.0683 0.0000 -0.2819
# 5 18.3655 18.5859 12.6970 0.0000 46.9695 0.0000
# 6 0.0000 0.0000 0.0000 -0.2819 0.0000 27.2712
#
#
#
# Elastic Compliance Matrix: (Units=1/GPa)
#
#
# Indices 1 2 3 4 5 6 
#
# 1 0.013531 -0.003948 -0.005785 0.000000 -0.002165 0.000000
# 2 -0.003948 0.011253 -0.001466 0.000000 -0.002513 0.000000
# 3 -0.005785 -0.001466 0.018269 0.000000 -0.002097 0.000000
# 4 0.000000 0.000000 0.000000 0.052451 0.000000 0.000542
# 5 -0.002165 -0.002513 -0.002097 0.000000 0.023698 0.000000
# 6 0.000000 0.000000 0.000000 0.000542 0.000000 0.036674
#
#
# Mechanical properties :
#
#
# Convention : Reuss Voigt Hill
#
# Bulk Modulus (GPa) = 48.41066 57.54104 52.97585
# Shear Modulus (GPa) = 27.00364 30.55406 28.77885
#
# Velocity S-wave (km/s) = 3.65076 3.88335 3.76885
# Velocity P-wave (km/s) = 6.45481 6.96473 6.71461
#
# Compressibility (1/GPa) = 0.02065661
#
# Stress axis : x y z
#
# Youngs Moduli (GPa) = 73.90227 88.86232 54.73698
#
# Poissons Ratio (x) = 0.35083 0.31664
# Poissons Ratio (y) = 0.29176 0.08024
# Poissons Ratio (z) = 0.42751 0.13027
#
# Static dielectric constant tensor:
#      x y z
#    x 3.998620 0.000000 -0.079160 
#    y 0.000000 3.554100 0.000000 
#    z -0.079160 0.000000 3.538680 
# 
# 
# High freq. dielectric constant tensor:
#      x y z
#    x 1.810070 0.000000 -0.010230 
#    y 0.000000 1.774530 0.000000 
#    z -0.010230 0.000000 1.780670 
# 
# From -- ./inp_files/88973.got.cif
#   From: 2010.06.25/outbox.cif.g09.slc.cpg/sg15_45_cif.got.tgz:88973.got - 2010.06.28 07:06:18.
