data_PCOD8136607
_publ_section_title
;
Structure prediction by ZEFSAII (Michael W. Deem and Ramdas Pophale) SiO2 
 PCOD8136607
Probable space group: C 2/C
;
_chemical_formula_sum "Si O2"
_cell_formula_units_Z 52
_cell_length_a 8.911913
_cell_length_b 15.188518
_cell_length_c 21.413263
_cell_angle_alpha 90.000000
_cell_angle_beta 87.494165
_cell_angle_gamma 90.000000
_cell_volume 2895.700941
_symmetry_space_group_name_H-M "C 2/C"
_symmetry_group_IT_number 15
_symmetry_cell_setting 'monoclinic'
loop_
_space_group_symop_operation_xyz
x,y,z
-x,y,1/2-z
-x,-y,-z
x,-y,1/2+z
1/2+x,1/2+y,z
1/2-x,1/2+y,1/2-z
1/2-x,1/2-y,-z
1/2+x,1/2-y,1/2+z
loop_
_atom_site_type_symbol
_atom_site_label
_atom_site_fract_x
_atom_site_fract_y
_atom_site_fract_z
Si Si1 0.392640 0.583851 0.066754
Si Si2 0.927248 0.417491 0.870583
Si Si3 0.895235 0.580962 0.632309
Si Si4 0.091551 0.741039 0.423688
Si Si5 0.933945 0.261286 0.431891
Si Si6 0.500000 0.995677 0.250000
Si Si7 0.921437 0.919760 0.422260
O O1 0.231678 0.606329 0.097568
O O2 0.505308 0.663225 0.077896
O O3 0.460907 0.496602 0.097227
O O4 0.367913 0.568779 0.994074
O O5 0.904379 0.439313 0.797209
O O6 0.004709 0.503321 0.901573
O O7 0.039148 0.335644 0.878275
O O8 0.899309 0.568228 0.707788
O O9 0.722572 0.571964 0.618297
O O10 0.962127 0.674040 0.609960
O O11 0.062619 0.710649 0.495541
O O12 0.265464 0.763148 0.408765
O O13 0.998068 0.827000 0.408222
#
# Coordination Sequence:
#
# PCOD8136607 Si02
#       7
#     8   8   8   8   8   4   8
#     4  10  20  34  58  92 119 143 178 225 290 354
#     4  10  20  38  58  74 118 148 193 235 275 317
#     4  10  20  38  58  74 118 148 193 235 275 317
#     4  10  20  34  57  91 120 143 178 227 291 351
#     4  10  20  34  57  91 120 143 178 227 291 351
#     4   8  24  40  56  76 110 148 214 234 256 328
#     4  10  20  34  58  92 119 143 178 225 290 354
#
# _framework density 17.957656
#
# number of rings (size 3 to 8) (size 9 to 14) (size 15 to 20)
#    0.923    1.231    0.000    3.692    0.000    7.385 
#    0.000    3.846    0.000    0.000    0.000    0.000 
#    0.000    0.000    0.000    0.000    0.000    0.000 
#
# Total GULP energy -322322.951349 kJ/mol
# GULP energy per Si atom -12397.036590 kJ/mol
# Density = 1.791678 g / cm^3
# Si number density = 17.957656 Si / 1000 Ang^3
#
#
#
# Elastic Constant Matrix: (Units=GPa)
#
#
# Indices 1 2 3 4 5 6 
#
# 1 97.6824 15.5505 32.0060 0.0000 21.4257 0.0000
# 2 15.5505 83.4683 38.1241 0.0000 11.7444 0.0000
# 3 32.0060 38.1241 62.8150 0.0000 23.2140 0.0000
# 4 0.0000 0.0000 0.0000 29.3698 0.0000 0.1384
# 5 21.4257 11.7444 23.2140 0.0000 19.6053 0.0000
# 6 0.0000 0.0000 0.0000 0.1384 0.0000 30.1387
#
#
#
# Elastic Compliance Matrix: (Units=1/GPa)
#
#
# Indices 1 2 3 4 5 6 
#
# 1 0.013705 0.000420 -0.002863 0.000000 -0.011840 0.000000
# 2 0.000420 0.016727 -0.011545 0.000000 0.003191 0.000000
# 3 -0.002863 -0.011545 0.036758 0.000000 -0.033480 0.000000
# 4 0.000000 0.000000 0.000000 0.034049 0.000000 -0.000156
# 5 -0.011840 0.003191 -0.033480 0.000000 0.101677 0.000000
# 6 0.000000 0.000000 0.000000 -0.000156 0.000000 0.033181
#
#
# Mechanical properties :
#
#
# Convention : Reuss Voigt Hill
#
# Bulk Modulus (GPa) = 25.50060 46.14744 35.82402
# Shear Modulus (GPa) = 18.04114 26.37510 22.20812
#
# Velocity S-wave (km/s) = 3.17306 3.83657 3.52048
# Velocity P-wave (km/s) = 5.25886 6.73642 6.04297
#
# Compressibility (1/GPa) = 0.03921476
#
# Stress axis : x y z
#
# Youngs Moduli (GPa) = 72.96433 59.78501 27.20467
#
# Poissons Ratio (x) = -0.02511 0.07787
# Poissons Ratio (y) = -0.03065 0.31409
# Poissons Ratio (z) = 0.20886 0.69024
#
# Static dielectric constant tensor:
#      x y z
#    x 3.237860 0.000000 0.086060 
#    y 0.000000 3.369270 0.000000 
#    z 0.086060 0.000000 3.054040 
# 
# 
# High freq. dielectric constant tensor:
#      x y z
#    x 1.701060 0.000000 0.007500 
#    y 0.000000 1.707800 0.000000 
#    z 0.007500 0.000000 1.662070 
# 
# From -- ./inp_files/287677.got.cif
#   From: 2010.06.25/outbox.cif.g09.slc.cpg/sg15_144_cif.got.tgz:287677.got - 2010.06.28 07:06:18.
