data_PCOD8136610
_publ_section_title
;
Structure prediction by ZEFSAII (Michael W. Deem and Ramdas Pophale) SiO2 
 PCOD8136610
Probable space group: C 2/C
;
_chemical_formula_sum "Si O2"
_cell_formula_units_Z 60
_cell_length_a 10.474671
_cell_length_b 20.921585
_cell_length_c 14.724007
_cell_angle_alpha 90.000000
_cell_angle_beta 67.080053
_cell_angle_gamma 90.000000
_cell_volume 2971.968074
_symmetry_space_group_name_H-M "C 2/C"
_symmetry_group_IT_number 15
_symmetry_cell_setting 'monoclinic'
loop_
_space_group_symop_operation_xyz
x,y,z
-x,y,1/2-z
-x,-y,-z
x,-y,1/2+z
1/2+x,1/2+y,z
1/2-x,1/2+y,1/2-z
1/2-x,1/2-y,-z
1/2+x,1/2-y,1/2+z
loop_
_atom_site_type_symbol
_atom_site_label
_atom_site_fract_x
_atom_site_fract_y
_atom_site_fract_z
Si Si1 0.000000 0.198245 0.750000
Si Si2 0.742817 0.033540 0.377939
Si Si3 0.728339 0.139264 0.638645
Si Si4 0.233209 0.387269 0.339629
Si Si5 0.945201 0.627204 0.988826
Si Si6 0.173411 0.727794 0.340784
Si Si7 0.125096 0.872567 0.783835
Si Si8 0.547642 0.568120 0.023624
O O1 0.871308 0.154102 0.816949
O O2 0.955740 0.243417 0.679143
O O3 0.590302 0.060868 0.447698
O O4 0.791525 0.064161 0.269797
O O5 0.845336 0.058652 0.425713
O O6 0.755697 0.958522 0.367628
O O7 0.684270 0.112074 0.748757
O O8 0.614278 0.121118 0.596446
O O9 0.737452 0.215694 0.639904
O O10 0.879474 0.108773 0.575791
O O11 0.109054 0.360221 0.436490
O O12 0.877365 0.685451 0.061520
O O13 0.271454 0.687996 0.244736
O O14 0.000000 0.856216 0.750000
O O15 0.076351 0.888491 0.900143
O O16 0.500000 0.500000 0.000000
#
# Coordination Sequence:
#
# PCOD8136610 Si02
#       8
#     4   8   8   8   8   8   8   8
#     4  10  26  38  56  88 118 172 194 242 296 382
#     4   9  20  36  60  86 118 149 198 248 303 362
#     4  10  22  36  59  91 116 151 204 256 289 354
#     4  11  22  38  61  83 124 159 195 244 310 358
#     4  10  21  40  62  87 115 159 199 257 296 352
#     4  10  22  41  57  85 126 150 209 239 298 367
#     4   9  19  36  62  85 111 156 191 251 307 343
#     4  10  20  34  57  92 119 150 204 247 303 357
#
# _framework density 20.188642999999999
#
# number of rings (size 3 to 8) (size 9 to 14) (size 15 to 20)
#    0.000    2.133    0.000    2.800    6.533    4.800 
#    2.400    0.000   11.733    0.000    0.000    0.000 
#    0.000    0.000    0.000    0.000    0.000    0.000 
#
# Total GULP energy -371921.251839 kJ/mol
# GULP energy per Si atom -12397.375061 kJ/mol
# Density = 2.014269 g / cm^3
# Si number density = 20.188643 Si / 1000 Ang^3
#
#
#
# Elastic Constant Matrix: (Units=GPa)
#
#
# Indices 1 2 3 4 5 6 
#
# 1 72.3686 21.4360 26.8228 0.0000 -20.6058 0.0000
# 2 21.4360 100.9569 38.6718 0.0000 -13.2346 0.0000
# 3 26.8228 38.6718 97.2459 0.0000 -28.7345 0.0000
# 4 0.0000 0.0000 0.0000 28.5584 0.0000 1.3483
# 5 -20.6058 -13.2346 -28.7345 0.0000 34.3319 0.0000
# 6 0.0000 0.0000 0.0000 1.3483 0.0000 27.9482
#
#
#
# Elastic Compliance Matrix: (Units=1/GPa)
#
#
# Indices 1 2 3 4 5 6 
#
# 1 0.017359 -0.002008 -0.001514 0.000000 0.008378 0.000000
# 2 -0.002008 0.011935 -0.004237 0.000000 -0.000150 0.000000
# 3 -0.001514 -0.004237 0.015457 0.000000 0.010395 0.000000
# 4 0.000000 0.000000 0.000000 0.035096 0.000000 -0.001693
# 5 0.008378 -0.000150 0.010395 0.000000 0.042798 0.000000
# 6 0.000000 0.000000 0.000000 -0.001693 0.000000 0.035862
#
#
# Mechanical properties :
#
#
# Convention : Reuss Voigt Hill
#
# Bulk Modulus (GPa) = 34.20654 49.38138 41.79396
# Shear Modulus (GPa) = 27.20800 30.41043 28.80922
#
# Velocity S-wave (km/s) = 3.67507 3.88534 3.78167
# Velocity P-wave (km/s) = 5.91510 6.68138 6.30989
#
# Compressibility (1/GPa) = 0.02923417
#
# Stress axis : x y z
#
# Youngs Moduli (GPa) = 57.60536 83.78951 64.69451
#
# Poissons Ratio (x) = 0.16821 0.09797
# Poissons Ratio (y) = 0.11565 0.27409
# Poissons Ratio (z) = 0.08723 0.35499
#
# Static dielectric constant tensor:
#      x y z
#    x 3.565030 0.000000 -0.208910 
#    y 0.000000 3.748770 0.000000 
#    z -0.208910 0.000000 3.920740 
# 
# 
# High freq. dielectric constant tensor:
#      x y z
#    x 1.768730 0.000000 -0.014010 
#    y 0.000000 1.794880 0.000000 
#    z -0.014010 0.000000 1.797350 
# 
# From -- ./inp_files/147099.got.cif
#   From: 2010.06.25/outbox.cif.g09.slc.cpg/sg15_74_cif.got.tgz:147099.got - 2010.06.28 07:06:18.
