data_PCOD8136909
_publ_section_title
;
Structure prediction by ZEFSAII (Michael W. Deem and Ramdas Pophale) SiO2 
 PCOD8136909
Probable space group: C 2/C
;
_chemical_formula_sum "Si O2"
_cell_formula_units_Z 56
_cell_length_a 22.741244
_cell_length_b 14.549895
_cell_length_c 8.824285
_cell_angle_alpha 90.000000
_cell_angle_beta 113.420359
_cell_angle_gamma 90.000000
_cell_volume 2679.250826
_symmetry_space_group_name_H-M "C 2/C"
_symmetry_group_IT_number 15
_symmetry_cell_setting 'monoclinic'
loop_
_space_group_symop_operation_xyz
x,y,z
-x,y,1/2-z
-x,-y,-z
x,-y,1/2+z
1/2+x,1/2+y,z
1/2-x,1/2+y,1/2-z
1/2-x,1/2-y,-z
1/2+x,1/2-y,1/2+z
loop_
_atom_site_type_symbol
_atom_site_label
_atom_site_fract_x
_atom_site_fract_y
_atom_site_fract_z
Si Si1 0.930978 0.597856 0.622727
Si Si2 0.279318 0.892855 0.485263
Si Si3 0.426531 0.707344 0.961925
Si Si4 0.440147 0.379866 0.005779
Si Si5 0.158933 0.793907 0.407215
Si Si6 0.069971 0.059399 0.320999
Si Si7 0.648104 0.011302 0.700666
O O1 0.937994 0.703658 0.578633
O O2 0.882738 0.586245 0.716353
O O3 0.907424 0.535287 0.458071
O O4 0.000000 0.561734 0.750000
O O5 0.201817 0.887422 0.428951
O O6 0.298471 0.787744 0.486974
O O7 0.297849 0.943713 0.349699
O O8 0.314104 0.935289 0.665758
O O9 0.490871 0.666576 0.949174
O O10 0.376342 0.735037 0.782696
O O11 0.391733 0.626770 0.025944
O O12 0.392211 0.301876 0.010157
O O13 0.439037 0.454322 0.139993
O O14 0.408131 0.433436 0.830464
O O15 0.000000 0.107683 0.250000
#
# Coordination Sequence:
#
# PCOD8136909 Si02
#       7
#     8   8   8   8   8   8   8
#     4  11  22  40  66  98 130 166 210 267 332 381
#     4  10  24  44  65  87 126 171 215 266 315 367
#     4  11  22  38  62  96 129 164 207 263 321 385
#     4  11  22  38  62  91 130 165 208 262 320 383
#     4  11  23  42  63  91 126 170 215 258 314 386
#     4  10  20  35  56  88 126 161 197 250 310 378
#     4  10  23  45  67  91 129 167 220 273 309 382
#
# _framework density 20.901365999999999
#
# number of rings (size 3 to 8) (size 9 to 14) (size 15 to 20)
#    0.000    1.429    1.429    5.571    4.000    2.286 
#    0.000    2.143    0.000    0.000    0.000    0.000 
#    0.000    0.000    0.000    0.000    0.000    0.000 
#
# Total GULP energy -346983.041590 kJ/mol
# GULP energy per Si atom -12392.251485 kJ/mol
# Density = 2.085379 g / cm^3
# Si number density = 20.901366 Si / 1000 Ang^3
#
#
#
# Elastic Constant Matrix: (Units=GPa)
#
#
# Indices 1 2 3 4 5 6 
#
# 1 74.0477 23.4747 42.1595 0.0000 3.5807 0.0000
# 2 23.4747 86.9008 24.5886 0.0000 -4.2274 0.0000
# 3 42.1595 24.5886 102.0821 0.0000 -12.1912 0.0000
# 4 0.0000 0.0000 0.0000 33.7447 0.0000 -4.3225
# 5 3.5807 -4.2274 -12.1912 0.0000 20.7928 0.0000
# 6 0.0000 0.0000 0.0000 -4.3225 0.0000 28.1504
#
#
#
# Elastic Compliance Matrix: (Units=1/GPa)
#
#
# Indices 1 2 3 4 5 6 
#
# 1 0.019837 -0.003407 -0.008455 0.000000 -0.009066 0.000000
# 2 -0.003407 0.012947 -0.001427 0.000000 0.002383 0.000000
# 3 -0.008455 -0.001427 0.014808 0.000000 0.009848 0.000000
# 4 0.000000 0.000000 0.000000 0.030229 0.000000 0.004642
# 5 -0.009066 0.002383 0.009848 0.000000 0.055913 0.000000
# 6 0.000000 0.000000 0.000000 0.004642 0.000000 0.036236
#
#
# Mechanical properties :
#
#
# Convention : Reuss Voigt Hill
#
# Bulk Modulus (GPa) = 47.58671 49.27514 48.43093
# Shear Modulus (GPa) = 24.56362 28.05809 26.31086
#
# Velocity S-wave (km/s) = 3.43186 3.66786 3.55182
# Velocity P-wave (km/s) = 6.20647 6.44700 6.32788
#
# Compressibility (1/GPa) = 0.02101427
#
# Stress axis : x y z
#
# Youngs Moduli (GPa) = 50.41049 77.23522 67.53320
#
# Poissons Ratio (x) = 0.26317 0.57097
# Poissons Ratio (y) = 0.17177 0.09636
# Poissons Ratio (z) = 0.42620 0.11021
#
# Static dielectric constant tensor:
#      x y z
#    x 3.838230 0.000000 -0.049930 
#    y 0.000000 3.629600 0.000000 
#    z -0.049930 0.000000 4.043230 
# 
# 
# High freq. dielectric constant tensor:
#      x y z
#    x 1.802650 0.000000 -0.009600 
#    y 0.000000 1.817190 0.000000 
#    z -0.009600 0.000000 1.836170 
# 
# From -- ./inp_files/61619.got.cif
#   From: 2010.06.25/outbox.cif.g09.slc.cpg/sg15_31_cif.got.tgz:61619.got - 2010.06.28 07:06:18.
