data_PCOD8136035
_publ_section_title
;
Structure prediction by ZEFSAII (Michael W. Deem and Ramdas Pophale) SiO2 
 PCOD8136035
Probable space group: C 2/C
;
_chemical_formula_sum "Si O2"
_cell_formula_units_Z 40
_cell_length_a 14.534871
_cell_length_b 10.877667
_cell_length_c 12.920420
_cell_angle_alpha 90.000000
_cell_angle_beta 71.657552
_cell_angle_gamma 90.000000
_cell_volume 1939.000466
_symmetry_space_group_name_H-M "C 2/C"
_symmetry_group_IT_number 15
_symmetry_cell_setting 'monoclinic'
loop_
_space_group_symop_operation_xyz
x,y,z
-x,y,1/2-z
-x,-y,-z
x,-y,1/2+z
1/2+x,1/2+y,z
1/2-x,1/2+y,1/2-z
1/2-x,1/2-y,-z
1/2+x,1/2-y,1/2+z
loop_
_atom_site_type_symbol
_atom_site_label
_atom_site_fract_x
_atom_site_fract_y
_atom_site_fract_z
Si Si1 0.457823 0.168670 0.026968
Si Si2 0.395015 0.776626 0.325462
Si Si3 0.021891 0.928177 0.391098
Si Si4 0.135392 0.569317 0.862059
Si Si5 0.154603 0.007952 0.178774
O O1 0.443897 0.290845 0.097455
O O2 0.420144 0.061621 0.116372
O O3 0.398105 0.166360 0.939604
O O4 0.572206 0.157727 0.958539
O O5 0.500000 0.731034 0.250000
O O6 0.356353 0.879125 0.258530
O O7 0.331057 0.652327 0.353448
O O8 0.114115 0.997567 0.309350
O O9 0.923383 0.932234 0.360161
O O10 0.000000 0.000000 0.500000
O O11 0.242430 0.558008 0.870730
#
# Coordination Sequence:
#
# PCOD8136035 Si02
#       5
#     8   8   8   8   8
#     4  10  22  44  65  88 130 170 206 258 317 380
#     4  10  19  43  65  84 130 168 203 254 317 374
#     4  11  21  42  66  93 124 165 212 262 313 372
#     4  10  24  40  61  97 125 166 210 255 321 377
#     4  11  23  39  65  97 122 164 214 265 310 368
#
# _framework density 20.629187000000002
#
# number of rings (size 3 to 8) (size 9 to 14) (size 15 to 20)
#    0.000    1.600    4.000    1.200    2.800    3.200 
#   18.000    0.000    0.000    0.000    0.000    0.000 
#    0.000    0.000    0.000    0.000    0.000    0.000 
#
# Total GULP energy -247948.459056 kJ/mol
# GULP energy per Si atom -12397.422953 kJ/mol
# Density = 2.058223 g / cm^3
# Si number density = 20.629187 Si / 1000 Ang^3
#
#
#
# Elastic Constant Matrix: (Units=GPa)
#
#
# Indices 1 2 3 4 5 6 
#
# 1 107.7341 18.3799 27.3008 0.0000 -7.7146 0.0000
# 2 18.3799 104.1470 28.5419 0.0000 16.6865 0.0000
# 3 27.3008 28.5419 71.7114 0.0000 9.0149 0.0000
# 4 0.0000 0.0000 0.0000 30.6745 0.0000 11.2501
# 5 -7.7146 16.6865 9.0149 0.0000 22.1589 0.0000
# 6 0.0000 0.0000 0.0000 11.2501 0.0000 30.4566
#
#
#
# Elastic Compliance Matrix: (Units=1/GPa)
#
#
# Indices 1 2 3 4 5 6 
#
# 1 0.011241 -0.001920 -0.004415 0.000000 0.007156 0.000000
# 2 -0.001920 0.012145 -0.003023 0.000000 -0.008584 0.000000
# 3 -0.004415 -0.003023 0.017638 0.000000 -0.006436 0.000000
# 4 0.000000 0.000000 0.000000 0.037709 0.000000 -0.013929
# 5 0.007156 -0.008584 -0.006436 0.000000 0.056702 0.000000
# 6 0.000000 0.000000 0.000000 -0.013929 0.000000 0.037979
#
#
# Mechanical properties :
#
#
# Convention : Reuss Voigt Hill
#
# Bulk Modulus (GPa) = 44.83039 48.00419 46.41729
# Shear Modulus (GPa) = 25.05440 30.61600 27.83520
#
# Velocity S-wave (km/s) = 3.48877 3.85659 3.67728
# Velocity P-wave (km/s) = 6.16501 6.56899 6.37020
#
# Compressibility (1/GPa) = 0.02230630
#
# Stress axis : x y z
#
# Youngs Moduli (GPa) = 88.96125 82.34073 56.69617
#
# Poissons Ratio (x) = 0.15813 0.25029
# Poissons Ratio (y) = 0.17084 0.17142
# Poissons Ratio (z) = 0.39273 0.24896
#
# Static dielectric constant tensor:
#      x y z
#    x 3.610570 0.000000 0.001960 
#    y 0.000000 4.777280 0.000000 
#    z 0.001960 0.000000 3.701800 
# 
# 
# High freq. dielectric constant tensor:
#      x y z
#    x 1.794060 0.000000 -0.003830 
#    y 0.000000 1.810240 0.000000 
#    z -0.003830 0.000000 1.807800 
# 
# From -- ./inp_files/94686.got.cif
#   From: 2010.06.25/outbox.cif.g09.slc.cpg/sg15_48_cif.got.tgz:94686.got - 2010.06.28 07:06:18.
