data_PCOD8136334
_publ_section_title
;
Structure prediction by ZEFSAII (Michael W. Deem and Ramdas Pophale) SiO2 
 PCOD8136334
Probable space group: C 2/C
;
_chemical_formula_sum "Si O2"
_cell_formula_units_Z 56
_cell_length_a 11.487018
_cell_length_b 22.371856
_cell_length_c 12.690923
_cell_angle_alpha 90.000000
_cell_angle_beta 117.945494
_cell_angle_gamma 90.000000
_cell_volume 2881.090336
_symmetry_space_group_name_H-M "C 2/C"
_symmetry_group_IT_number 15
_symmetry_cell_setting 'monoclinic'
loop_
_space_group_symop_operation_xyz
x,y,z
-x,y,1/2-z
-x,-y,-z
x,-y,1/2+z
1/2+x,1/2+y,z
1/2-x,1/2+y,1/2-z
1/2-x,1/2-y,-z
1/2+x,1/2-y,1/2+z
loop_
_atom_site_type_symbol
_atom_site_label
_atom_site_fract_x
_atom_site_fract_y
_atom_site_fract_z
Si Si1 0.274482 0.811435 0.876358
Si Si2 0.626517 0.796870 0.368434
Si Si3 0.356885 0.216997 0.185874
Si Si4 0.643019 0.336660 0.447241
Si Si5 0.857533 0.929448 0.639748
Si Si6 0.844792 0.942434 0.192724
Si Si7 0.137827 0.118934 0.589303
O O1 0.148368 0.774521 0.867437
O O2 0.315954 0.777194 0.789337
O O3 0.231813 0.879674 0.840963
O O4 0.391469 0.810593 0.014302
O O5 0.500000 0.818762 0.250000
O O6 0.756620 0.828895 0.379837
O O7 0.500000 0.185039 0.250000
O O8 0.372675 0.281942 0.140297
O O9 0.248817 0.177263 0.081861
O O10 0.704951 0.391851 0.409085
O O11 0.502716 0.351816 0.440381
O O12 0.871889 0.919985 0.520794
O O13 0.000000 0.927111 0.750000
O O14 0.786859 0.993028 0.634517
O O15 0.808313 0.925453 0.297066
O O16 0.000000 0.945664 0.250000
#
# Coordination Sequence:
#
# PCOD8136334 Si02
#       7
#     8   8   8   8   8   8   8
#     4  10  21  35  53  81 110 137 182 227 269 323
#     4  10  21  36  57  80 109 146 178 219 274 327
#     4  11  22  35  56  84 112 142 178 223 278 326
#     4  10  21  36  56  81 111 144 178 224 272 325
#     4  10  20  33  55  83 109 142 181 230 276 311
#     4   9  19  34  55  81 108 143 185 223 269 322
#     4  10  20  37  57  81 111 142 184 223 267 331
#
# _framework density 19.437086999999998
#
# number of rings (size 3 to 8) (size 9 to 14) (size 15 to 20)
#    0.000    2.000    0.000    4.286    0.000   12.000 
#    0.000    0.000    0.000   12.000    0.000    0.000 
#    0.000    0.000    0.000    0.000    0.000    0.000 
#
# Total GULP energy -347093.962247 kJ/mol
# GULP energy per Si atom -12396.212937 kJ/mol
# Density = 1.939285 g / cm^3
# Si number density = 19.437087 Si / 1000 Ang^3
#
#
#
# Elastic Constant Matrix: (Units=GPa)
#
#
# Indices 1 2 3 4 5 6 
#
# 1 65.2455 36.7019 61.2064 0.0000 1.2376 0.0000
# 2 36.7019 122.8069 62.2992 0.0000 -2.8383 0.0000
# 3 61.2064 62.2992 160.8069 0.0000 -4.2589 0.0000
# 4 0.0000 0.0000 0.0000 22.2886 0.0000 -6.6733
# 5 1.2376 -2.8383 -4.2589 0.0000 36.8807 0.0000
# 6 0.0000 0.0000 0.0000 -6.6733 0.0000 14.7153
#
#
#
# Elastic Compliance Matrix: (Units=1/GPa)
#
#
# Indices 1 2 3 4 5 6 
#
# 1 0.025005 -0.003317 -0.008287 0.000000 -0.002051 0.000000
# 2 -0.003317 0.010578 -0.002820 0.000000 0.000600 0.000000
# 3 -0.008287 -0.002820 0.010499 0.000000 0.001273 0.000000
# 4 0.000000 0.000000 0.000000 0.051915 0.000000 0.023543
# 5 -0.002051 0.000600 0.001273 0.000000 0.027377 0.000000
# 6 0.000000 0.000000 0.000000 0.023543 0.000000 0.078633
#
#
# Mechanical properties :
#
#
# Convention : Reuss Voigt Hill
#
# Bulk Modulus (GPa) = 58.01904 74.36381 66.19142
# Shear Modulus (GPa) = 20.95560 27.35371 24.15466
#
# Velocity S-wave (km/s) = 3.28704 3.75546 3.52903
# Velocity P-wave (km/s) = 6.65738 7.55953 7.12275
#
# Compressibility (1/GPa) = 0.01723572
#
# Stress axis : x y z
#
# Youngs Moduli (GPa) = 39.99177 94.53146 95.24650
#
# Poissons Ratio (x) = 0.31351 0.78930
# Poissons Ratio (y) = 0.13263 0.26860
# Poissons Ratio (z) = 0.33141 0.26658
#
# Static dielectric constant tensor:
#      x y z
#    x 3.251560 0.000000 -0.128290 
#    y 0.000000 3.934380 0.000000 
#    z -0.128290 0.000000 3.911980 
# 
# 
# High freq. dielectric constant tensor:
#      x y z
#    x 1.724130 0.000000 -0.013080 
#    y 0.000000 1.755240 0.000000 
#    z -0.013080 0.000000 1.778010 
# 
# From -- ./inp_files/89658.got.cif
#   From: 2010.06.25/outbox.cif.g09.slc.cpg/sg15_45_cif.got.tgz:89658.got - 2010.06.28 07:06:18.
