data_PCOD8136521
_publ_section_title
;
Structure prediction by ZEFSAII (Michael W. Deem and Ramdas Pophale) SiO2 
 PCOD8136521
Probable space group: C 2/C
;
_chemical_formula_sum "Si O2"
_cell_formula_units_Z 52
_cell_length_a 14.225047
_cell_length_b 23.437956
_cell_length_c 8.798892
_cell_angle_alpha 90.000000
_cell_angle_beta 116.111692
_cell_angle_gamma 90.000000
_cell_volume 2634.193519
_symmetry_space_group_name_H-M "C 2/C"
_symmetry_group_IT_number 15
_symmetry_cell_setting 'monoclinic'
loop_
_space_group_symop_operation_xyz
x,y,z
-x,y,1/2-z
-x,-y,-z
x,-y,1/2+z
1/2+x,1/2+y,z
1/2-x,1/2+y,1/2-z
1/2-x,1/2-y,-z
1/2+x,1/2-y,1/2+z
loop_
_atom_site_type_symbol
_atom_site_label
_atom_site_fract_x
_atom_site_fract_y
_atom_site_fract_z
Si Si1 0.234203 0.495913 0.231345
Si Si2 0.853627 0.238030 0.771398
Si Si3 0.807855 0.079862 0.528025
Si Si4 0.500000 0.350805 0.250000
Si Si5 0.455410 0.819667 0.064434
Si Si6 0.108626 0.557204 0.897605
Si Si7 0.340846 0.820169 0.482189
O O1 0.292676 0.547961 0.357021
O O2 0.313349 0.463926 0.173730
O O3 0.195419 0.450586 0.328428
O O4 0.136273 0.519719 0.064505
O O5 0.938327 0.187317 0.828637
O O6 0.737532 0.210954 0.692441
O O7 0.869794 0.276189 0.634212
O O8 0.873271 0.275550 0.934511
O O9 0.918348 0.111756 0.595565
O O10 0.711222 0.123399 0.483459
O O11 0.500000 0.791526 0.250000
O O12 0.392439 0.876716 0.059255
O O13 0.551388 0.836690 0.022637
O O14 0.000000 0.535305 0.750000
#
# Coordination Sequence:
#
# PCOD8136521 Si02
#       7
#     8   8   8   4   8   8   8
#     4  10  21  37  54  84 112 150 184 229 282 330
#     4  10  20  37  59  80 108 145 196 230 272 331
#     4  10  21  36  60  82 113 144 190 233 280 331
#     4  10  20  38  62  80 104 150 198 236 268 330
#     4  11  21  34  54  83 117 146 176 229 286 336
#     4  10  20  34  55  82 115 146 181 225 280 343
#     4  10  20  36  59  82 107 148 189 233 269 334
#
# _framework density 19.740386999999998
#
# number of rings (size 3 to 8) (size 9 to 14) (size 15 to 20)
#    0.000    1.846    1.538    3.231    0.000    2.462 
#    0.000    0.000    6.769    0.000    0.000    0.000 
#    0.000    0.000    0.000    0.000    0.000    0.000 
#
# Total GULP energy -322440.790582 kJ/mol
# GULP energy per Si atom -12401.568869 kJ/mol
# Density = 1.969546 g / cm^3
# Si number density = 19.740387 Si / 1000 Ang^3
#
#
#
# Elastic Constant Matrix: (Units=GPa)
#
#
# Indices 1 2 3 4 5 6 
#
# 1 33.4469 29.8093 34.1451 0.0000 4.6327 0.0000
# 2 29.8093 115.5481 69.2973 0.0000 7.9445 0.0000
# 3 34.1451 69.2973 110.8284 0.0000 1.9384 0.0000
# 4 0.0000 0.0000 0.0000 38.0461 0.0000 8.9992
# 5 4.6327 7.9445 1.9384 0.0000 23.2003 0.0000
# 6 0.0000 0.0000 0.0000 8.9992 0.0000 23.6314
#
#
#
# Elastic Compliance Matrix: (Units=1/GPa)
#
#
# Indices 1 2 3 4 5 6 
#
# 1 0.046580 -0.004831 -0.011213 0.000000 -0.006710 0.000000
# 2 -0.004831 0.014733 -0.007664 0.000000 -0.003440 0.000000
# 3 -0.011213 -0.007664 0.017210 0.000000 0.003426 0.000000
# 4 0.000000 0.000000 0.000000 0.028886 0.000000 -0.011000
# 5 -0.006710 -0.003440 0.003426 0.000000 0.045335 0.000000
# 6 0.000000 0.000000 0.000000 -0.011000 0.000000 0.046506
#
#
# Mechanical properties :
#
#
# Convention : Reuss Voigt Hill
#
# Bulk Modulus (GPa) = 32.14621 58.48075 45.31348
# Shear Modulus (GPa) = 19.45275 25.41367 22.43321
#
# Velocity S-wave (km/s) = 3.14256 3.59192 3.37473
# Velocity P-wave (km/s) = 5.43023 6.84776 6.17977
#
# Compressibility (1/GPa) = 0.03110787
#
# Stress axis : x y z
#
# Youngs Moduli (GPa) = 21.46854 67.87309 58.10718
#
# Poissons Ratio (x) = 0.32787 0.65155
# Poissons Ratio (y) = 0.10371 0.44532
# Poissons Ratio (z) = 0.24073 0.52017
#
# Static dielectric constant tensor:
#      x y z
#    x 3.350930 0.000000 0.084030 
#    y 0.000000 3.712060 0.000000 
#    z 0.084030 0.000000 3.747480 
# 
# 
# High freq. dielectric constant tensor:
#      x y z
#    x 1.747880 0.000000 0.005970 
#    y 0.000000 1.776610 0.000000 
#    z 0.005970 0.000000 1.772280 
# 
# From -- ./inp_files/42314.got.cif
#   From: 2010.06.25/outbox.cif.g09.slc.cpg/sg15_22_cif.got.tgz:42314.got - 2010.06.28 07:06:18.
