data_PCOD8136692
_publ_section_title
;
Structure prediction by ZEFSAII (Michael W. Deem and Ramdas Pophale) SiO2 
 PCOD8136692
Probable space group: C 2/C
;
_chemical_formula_sum "Si O2"
_cell_formula_units_Z 44
_cell_length_a 9.683016
_cell_length_b 15.069049
_cell_length_c 14.684846
_cell_angle_alpha 90.000000
_cell_angle_beta 108.871004
_cell_angle_gamma 90.000000
_cell_volume 2027.549193
_symmetry_space_group_name_H-M "C 2/C"
_symmetry_group_IT_number 15
_symmetry_cell_setting 'monoclinic'
loop_
_space_group_symop_operation_xyz
x,y,z
-x,y,1/2-z
-x,-y,-z
x,-y,1/2+z
1/2+x,1/2+y,z
1/2-x,1/2+y,1/2-z
1/2-x,1/2-y,-z
1/2+x,1/2-y,1/2+z
loop_
_atom_site_type_symbol
_atom_site_label
_atom_site_fract_x
_atom_site_fract_y
_atom_site_fract_z
Si Si1 0.810383 0.825693 0.845695
Si Si2 0.000000 0.630185 0.250000
Si Si3 0.161423 0.366867 0.177785
Si Si4 0.666459 0.587827 0.970560
Si Si5 0.599090 0.479328 0.185097
Si Si6 0.561242 0.003191 0.913135
O O1 0.874539 0.736831 0.813836
O O2 0.861035 0.916572 0.808402
O O3 0.639473 0.808017 0.791594
O O4 0.847106 0.830195 0.961589
O O5 0.017346 0.572419 0.162483
O O6 0.247007 0.381284 0.100353
O O7 0.255856 0.417087 0.276816
O O8 0.995854 0.404706 0.141796
O O9 0.504411 0.549187 0.921029
O O10 0.762702 0.511862 0.046709
O O11 0.500000 0.461318 0.250000
O O12 0.500000 0.000000 0.000000
#
# Coordination Sequence:
#
# PCOD8136692 Si02
#       6
#     8   4   8   8   8   8
#     4  11  21  36  58  87 111 146 199 233 282 344
#     4  10  20  34  60  84 112 150 194 236 286 336
#     4  10  20  37  58  85 115 148 190 235 289 336
#     4   9  20  36  60  80 113 148 190 239 288 332
#     4  10  21  39  55  81 120 154 180 234 290 339
#     4   9  18  37  57  82 115 152 185 235 287 338
#
# _framework density 21.701077000000002
#
# number of rings (size 3 to 8) (size 9 to 14) (size 15 to 20)
#    0.000    2.182    1.818    1.091    3.818    0.000 
#    1.636    0.909    0.000    0.000    0.000    0.000 
#    0.000    0.000    0.000    0.000    0.000    0.000 
#
# Total GULP energy -272537.922084 kJ/mol
# GULP energy per Si atom -12388.087367 kJ/mol
# Density = 2.165168 g / cm^3
# Si number density = 21.701077 Si / 1000 Ang^3
#
#
#
# Elastic Constant Matrix: (Units=GPa)
#
#
# Indices 1 2 3 4 5 6 
#
# 1 47.4204 25.9557 20.0528 0.0000 34.6573 0.0000
# 2 25.9557 150.1833 40.1985 0.0000 33.7964 0.0000
# 3 20.0528 40.1985 117.4027 0.0000 34.8127 0.0000
# 4 0.0000 0.0000 0.0000 22.8911 0.0000 -0.6370
# 5 34.6573 33.7964 34.8127 0.0000 37.9480 0.0000
# 6 0.0000 0.0000 0.0000 -0.6370 0.0000 25.5283
#
#
#
# Elastic Compliance Matrix: (Units=1/GPa)
#
#
# Indices 1 2 3 4 5 6 
#
# 1 0.071206 0.002180 0.009547 0.000000 -0.075732 0.000000
# 2 0.002180 0.008463 -0.000611 0.000000 -0.008968 0.000000
# 3 0.009547 -0.000611 0.013078 0.000000 -0.020173 0.000000
# 4 0.000000 0.000000 0.000000 0.043715 0.000000 0.001091
# 5 -0.075732 -0.008968 -0.020173 0.000000 0.122010 0.000000
# 6 0.000000 0.000000 0.000000 0.001091 0.000000 0.039199
#
#
# Mechanical properties :
#
#
# Convention : Reuss Voigt Hill
#
# Bulk Modulus (GPa) = 8.69709 54.15782 31.42746
# Shear Modulus (GPa) = 15.93552 32.52678 24.23115
#
# Velocity S-wave (km/s) = 2.71277 3.87571 3.34516
# Velocity P-wave (km/s) = 3.71868 6.71108 5.42527
#
# Compressibility (1/GPa) = 0.11498093
#
# Stress axis : x y z
#
# Youngs Moduli (GPa) = 14.04382 118.15564 76.46516
#
# Poissons Ratio (x) = -0.25763 -0.73005
# Poissons Ratio (y) = -0.03062 0.04672
# Poissons Ratio (z) = -0.13408 0.07219
#
# Static dielectric constant tensor:
#      x y z
#    x 3.842690 0.000000 0.398820 
#    y 0.000000 3.657700 0.000000 
#    z 0.398820 0.000000 4.454560 
# 
# 
# High freq. dielectric constant tensor:
#      x y z
#    x 1.841350 0.000000 0.008420 
#    y 0.000000 1.829280 0.000000 
#    z 0.008420 0.000000 1.874930 
# 
# From -- ./inp_files/142315.got.cif
#   From: 2010.06.25/outbox.cif.g09.slc.cpg/sg15_72_cif.got.tgz:142315.got - 2010.06.28 07:06:18.
