data_PCOD8136803
_publ_section_title
;
Structure prediction by ZEFSAII (Michael W. Deem and Ramdas Pophale) SiO2 
 PCOD8136803
Probable space group: C 2/C
;
_chemical_formula_sum "Si O2"
_cell_formula_units_Z 60
_cell_length_a 26.929650
_cell_length_b 11.456187
_cell_length_c 29.192952
_cell_angle_alpha 90.000000
_cell_angle_beta 159.833859
_cell_angle_gamma 90.000000
_cell_volume 3104.880910
_symmetry_space_group_name_H-M "C 2/C"
_symmetry_group_IT_number 15
_symmetry_cell_setting 'monoclinic'
loop_
_space_group_symop_operation_xyz
x,y,z
-x,y,1/2-z
-x,-y,-z
x,-y,1/2+z
1/2+x,1/2+y,z
1/2-x,1/2+y,1/2-z
1/2-x,1/2-y,-z
1/2+x,1/2-y,1/2+z
loop_
_atom_site_type_symbol
_atom_site_label
_atom_site_fract_x
_atom_site_fract_y
_atom_site_fract_z
Si Si1 0.244368 0.931892 0.328015
Si Si2 0.822676 0.812004 0.509908
Si Si3 0.306207 0.677752 0.368222
Si Si4 0.314551 0.966892 0.289326
Si Si5 0.575325 0.314717 0.044403
Si Si6 0.000000 0.239671 0.250000
Si Si7 0.562200 0.507142 0.456579
Si Si8 0.402835 0.873991 0.006577
O O1 0.230254 0.792938 0.321797
O O2 0.337553 0.973159 0.363899
O O3 0.322601 0.000893 0.437118
O O4 0.082880 0.973133 0.193343
O O5 0.935918 0.832295 0.650674
O O6 0.649374 0.811551 0.369180
O O7 0.874573 0.691542 0.530184
O O8 0.835756 0.923904 0.489453
O O9 0.207594 0.597877 0.249511
O O10 0.441360 0.730886 0.457625
O O11 0.349718 0.604287 0.450192
O O12 0.178974 0.879858 0.169474
O O13 0.430153 0.900777 0.357866
O O14 0.515192 0.413053 0.958333
O O15 0.651358 0.210239 0.081984
#
# Coordination Sequence:
#
# PCOD8136803 Si02
#       8
#     8   8   8   8   8   4   8   8
#     4  12  23  33  53  79 122 167 211 243 265 326
#     4  10  23  42  69  95 123 139 192 247 330 382
#     4  11  22  35  50  77 118 173 209 238 272 318
#     4  11  22  34  50  75 121 167 213 243 271 318
#     4  10  20  35  52  74 113 165 209 243 284 317
#     4  10  22  44  70 100 116 138 174 264 336 396
#     4  10  21  38  56  81 114 159 193 245 293 346
#     4  11  25  33  57  88 116 159 200 246 294 346
#
# _framework density 19.324413
#
# number of rings (size 3 to 8) (size 9 to 14) (size 15 to 20)
#    0.000    1.333    4.000    2.000   13.067    0.000 
#    0.000    0.000    0.000    0.000    0.000   15.867 
#    0.000    0.000    0.000    0.000    0.000    0.000 
#
# Total GULP energy -371652.748991 kJ/mol
# GULP energy per Si atom -12388.424966 kJ/mol
# Density = 1.928043 g / cm^3
# Si number density = 19.324413 Si / 1000 Ang^3
#
#
#
# Elastic Constant Matrix: (Units=GPa)
#
#
# Indices 1 2 3 4 5 6 
#
# 1 68.1843 14.0665 24.8583 0.0283 3.0105 -0.0015
# 2 14.0665 87.5231 19.1907 0.0394 4.0416 0.0004
# 3 24.8583 19.1907 80.9622 -0.0018 5.5138 0.0008
# 4 0.0283 0.0394 -0.0018 7.5162 -0.0206 -1.3037
# 5 3.0105 4.0416 5.5138 -0.0206 29.9627 0.0033
# 6 -0.0015 0.0004 0.0008 -1.3037 0.0033 15.4243
#
#
#
# Elastic Compliance Matrix: (Units=1/GPa)
#
#
# Indices 1 2 3 4 5 6 
#
# 1 0.016748 -0.001630 -0.004715 -0.000058 -0.000595 -0.000003
# 2 -0.001630 0.012247 -0.002330 -0.000063 -0.001059 -0.000005
# 3 -0.004715 -0.002330 0.014479 0.000029 -0.001876 0.000002
# 4 -0.000058 -0.000063 0.000029 0.135027 0.000100 0.011412
# 5 -0.000595 -0.001059 -0.001876 0.000100 0.033923 0.000001
# 6 -0.000003 -0.000005 0.000002 0.011412 0.000001 0.065798
#
#
# Mechanical properties :
#
#
# Convention : Reuss Voigt Hill
#
# Bulk Modulus (GPa) = 38.28051 39.21117 38.74584
# Shear Modulus (GPa) = 16.43216 22.48423 19.45819
#
# Velocity S-wave (km/s) = 2.91921 3.41473 3.17665
# Velocity P-wave (km/s) = 5.58702 5.99018 5.79211
#
# Compressibility (1/GPa) = 0.02612295
#
# Stress axis : x y z
#
# Youngs Moduli (GPa) = 59.70929 81.64946 69.06395
#
# Poissons Ratio (x) = 0.13311 0.32565
# Poissons Ratio (y) = 0.09734 0.16094
# Poissons Ratio (z) = 0.28154 0.19027
#
# Static dielectric constant tensor:
#      x y z
#    x 3.385840 0.000090 -0.064950 
#    y 0.000090 3.593670 -0.000030 
#    z -0.064950 -0.000030 3.584380 
# 
# 
# High freq. dielectric constant tensor:
#      x y z
#    x 1.712670 0.000000 -0.001570 
#    y 0.000000 1.750840 -0.000010 
#    z -0.001570 -0.000010 1.760670 
# 
# From -- ./inp_files/319574.got.cif
#   From: 2010.06.25/outbox.cif.g09.slc.cpg/sg15_160_cif.got.tgz:319574.got - 2010.06.28 07:06:18.
