data_PCOD8136622
_publ_section_title
;
Structure prediction by ZEFSAII (Michael W. Deem and Ramdas Pophale) SiO2 
 PCOD8136622
Probable space group: C 2/C
;
_chemical_formula_sum "Si O2"
_cell_formula_units_Z 60
_cell_length_a 8.228237
_cell_length_b 11.648590
_cell_length_c 33.569456
_cell_angle_alpha 90.000000
_cell_angle_beta 104.363465
_cell_angle_gamma 90.000000
_cell_volume 3116.968256
_symmetry_space_group_name_H-M "C 2/C"
_symmetry_group_IT_number 15
_symmetry_cell_setting 'monoclinic'
loop_
_space_group_symop_operation_xyz
x,y,z
-x,y,1/2-z
-x,-y,-z
x,-y,1/2+z
1/2+x,1/2+y,z
1/2-x,1/2+y,1/2-z
1/2-x,1/2-y,-z
1/2+x,1/2-y,1/2+z
loop_
_atom_site_type_symbol
_atom_site_label
_atom_site_fract_x
_atom_site_fract_y
_atom_site_fract_z
Si Si1 0.738683 0.987142 0.484181
Si Si2 0.112523 0.618299 0.550293
Si Si3 0.991082 0.123500 0.449472
Si Si4 0.000000 0.208220 0.750000
Si Si5 0.379083 0.494370 0.618830
Si Si6 0.660302 0.393954 0.184606
Si Si7 0.776729 0.118437 0.273241
Si Si8 0.843388 0.841728 0.689404
O O1 0.569479 0.937899 0.455224
O O2 0.843482 0.886476 0.512660
O O3 0.694096 0.088574 0.512555
O O4 0.850334 0.033402 0.454850
O O5 0.093465 0.753381 0.553015
O O6 0.233300 0.573384 0.592266
O O7 0.045061 0.096021 0.407866
O O8 0.056605 0.126402 0.718329
O O9 0.144730 0.286003 0.777899
O O10 0.530572 0.576909 0.641675
O O11 0.294454 0.422311 0.649457
O O12 0.770896 0.504901 0.204165
O O13 0.773624 0.286979 0.178548
O O14 0.766812 0.101249 0.224691
O O15 0.956992 0.167619 0.296364
#
# Coordination Sequence:
#
# PCOD8136622 Si02
#       8
#     8   8   8   4   8   8   8   8
#     4   9  20  37  58  82 101 134 185 219 256 317
#     4  10  20  36  58  79 107 140 173 220 267 308
#     4  10  20  36  56  79 108 139 175 220 262 311
#     4  10  20  34  58  80  98 136 184 222 258 302
#     4  10  22  35  50  81 113 140 175 210 263 327
#     4  10  20  37  55  75 110 143 172 222 265 305
#     4   9  19  36  57  80 100 135 188 221 256 313
#     4   9  19  37  55  75 110 143 172 219 267 309
#
# _framework density 19.249473999999999
#
# number of rings (size 3 to 8) (size 9 to 14) (size 15 to 20)
#    0.000    2.400    0.000    2.400    0.000    6.400 
#    0.000    9.333    0.000    0.000    0.000    0.000 
#    0.000    0.000    0.000    0.000    0.000    0.000 
#
# Total GULP energy -372003.862022 kJ/mol
# GULP energy per Si atom -12400.128734 kJ/mol
# Density = 1.920566 g / cm^3
# Si number density = 19.249474 Si / 1000 Ang^3
#
#
#
# Elastic Constant Matrix: (Units=GPa)
#
#
# Indices 1 2 3 4 5 6 
#
# 1 52.1896 10.2470 15.9083 0.0000 8.8071 0.0000
# 2 10.2470 80.0580 29.1471 0.0000 11.4433 0.0000
# 3 15.9083 29.1471 80.7482 0.0000 13.8612 0.0000
# 4 0.0000 0.0000 0.0000 16.7494 0.0000 6.6271
# 5 8.8071 11.4433 13.8612 0.0000 24.0489 0.0000
# 6 0.0000 0.0000 0.0000 6.6271 0.0000 18.5458
#
#
#
# Elastic Compliance Matrix: (Units=1/GPa)
#
#
# Indices 1 2 3 4 5 6 
#
# 1 0.021167 -0.000845 -0.002889 0.000000 -0.005684 0.000000
# 2 -0.000845 0.014822 -0.004468 0.000000 -0.004168 0.000000
# 3 -0.002889 -0.004468 0.015559 0.000000 -0.005784 0.000000
# 4 0.000000 0.000000 0.000000 0.069535 0.000000 -0.024847
# 5 -0.005684 -0.004168 -0.005784 0.000000 0.048980 0.000000
# 6 0.000000 0.000000 0.000000 -0.024847 0.000000 0.062799
#
#
# Mechanical properties :
#
#
# Convention : Reuss Voigt Hill
#
# Bulk Modulus (GPa) = 28.45539 35.95563 32.20551
# Shear Modulus (GPa) = 19.15851 22.38171 20.77011
#
# Velocity S-wave (km/s) = 3.15822 3.41356 3.28837
# Velocity P-wave (km/s) = 5.30223 5.85285 5.58433
#
# Compressibility (1/GPa) = 0.03514272
#
# Stress axis : x y z
#
# Youngs Moduli (GPa) = 47.24399 67.46926 64.27115
#
# Poissons Ratio (x) = 0.05700 0.18570
# Poissons Ratio (y) = 0.03991 0.28717
# Poissons Ratio (z) = 0.13651 0.30146
#
# Static dielectric constant tensor:
#      x y z
#    x 3.550290 0.000000 0.033270 
#    y 0.000000 3.453260 0.000000 
#    z 0.033270 0.000000 3.549550 
# 
# 
# High freq. dielectric constant tensor:
#      x y z
#    x 1.750670 0.000000 0.003030 
#    y 0.000000 1.750000 0.000000 
#    z 0.003030 0.000000 1.745250 
# 
# From -- ./inp_files/307204.got.cif
#   From: 2010.06.25/outbox.cif.g09.slc.cpg/sg15_154_cif.got.tgz:307204.got - 2010.06.28 07:06:18.
