data_PCOD8136827
_publ_section_title
;
Structure prediction by ZEFSAII (Michael W. Deem and Ramdas Pophale) SiO2 
 PCOD8136827
Probable space group: C 2/C
;
_chemical_formula_sum "Si O2"
_cell_formula_units_Z 48
_cell_length_a 22.911258
_cell_length_b 9.017681
_cell_length_c 23.072910
_cell_angle_alpha 90.000000
_cell_angle_beta 33.493578
_cell_angle_gamma 90.000000
_cell_volume 2630.644243
_symmetry_space_group_name_H-M "C 2/C"
_symmetry_group_IT_number 15
_symmetry_cell_setting 'monoclinic'
loop_
_space_group_symop_operation_xyz
x,y,z
-x,y,1/2-z
-x,-y,-z
x,-y,1/2+z
1/2+x,1/2+y,z
1/2-x,1/2+y,1/2-z
1/2-x,1/2-y,-z
1/2+x,1/2-y,1/2+z
loop_
_atom_site_type_symbol
_atom_site_label
_atom_site_fract_x
_atom_site_fract_y
_atom_site_fract_z
Si Si1 0.162115 0.991360 0.880578
Si Si2 0.539741 0.896358 0.154924
Si Si3 0.116517 0.101928 0.035210
Si Si4 0.208662 0.395547 0.564144
Si Si5 0.622521 0.104465 0.260157
Si Si6 0.026047 0.882868 0.398445
O O1 0.278759 0.921273 0.778083
O O2 0.131436 0.063959 0.844760
O O3 0.072446 0.868877 0.974014
O O4 0.165304 0.114749 0.929617
O O5 0.500000 0.836227 0.250000
O O6 0.598922 0.764846 0.073621
O O7 0.616542 0.035756 0.101174
O O8 0.443829 0.953080 0.193920
O O9 0.007067 0.006267 0.122429
O O10 0.198834 0.016832 0.008055
O O11 0.250000 0.250000 0.500000
O O12 0.166174 0.343697 0.661856
O O13 0.546625 0.227784 0.350455
#
# Coordination Sequence:
#
# PCOD8136827 Si02
#       6
#     8   8   8   8   8   8
#     4   8  19  37  57  77 113 139 174 228 275 309
#     4  10  21  33  51  80 109 139 180 227 263 320
#     4   9  18  35  54  73 111 142 170 223 278 308
#     4  10  20  35  54  77 110 143 182 223 267 321
#     4  10  20  35  57  80 106 143 184 218 268 325
#     4   9  18  37  60  76 106 145 176 223 271 323
#
# _framework density 18.246480999999999
#
# number of rings (size 3 to 8) (size 9 to 14) (size 15 to 20)
#    1.000    1.667    0.000    1.500    0.000    2.667 
#    0.000    2.500    0.000    0.000    0.000    0.000 
#    0.000    0.000    0.000    0.000    0.000    0.000 
#
# Total GULP energy -297436.347532 kJ/mol
# GULP energy per Si atom -12393.181147 kJ/mol
# Density = 1.820495 g / cm^3
# Si number density = 18.246481 Si / 1000 Ang^3
#
#
#
# Elastic Constant Matrix: (Units=GPa)
#
#
# Indices 1 2 3 4 5 6 
#
# 1 85.5535 14.9494 19.3447 0.0003 -22.8190 -0.0001
# 2 14.9494 65.2327 37.4782 0.0009 1.3459 -0.0005
# 3 19.3447 37.4782 54.0359 0.0003 -5.0604 -0.0002
# 4 0.0003 0.0009 0.0003 35.9014 -0.0001 -1.5819
# 5 -22.8190 1.3459 -5.0604 -0.0001 24.8652 0.0001
# 6 -0.0001 -0.0005 -0.0002 -1.5819 0.0001 16.3517
#
#
#
# Elastic Compliance Matrix: (Units=1/GPa)
#
#
# Indices 1 2 3 4 5 6 
#
# 1 0.016755 -0.002502 -0.002865 0.000000 0.014929 0.000000
# 2 -0.002502 0.026502 -0.018182 -0.000001 -0.007431 0.000001
# 3 -0.002865 -0.018182 0.032610 0.000000 0.004991 0.000000
# 4 0.000000 -0.000001 0.000000 0.027973 0.000000 0.002706
# 5 0.014929 -0.007431 0.004991 0.000000 0.055335 0.000000
# 6 0.000000 0.000001 0.000000 0.002706 0.000000 0.061418
#
#
# Mechanical properties :
#
#
# Convention : Reuss Voigt Hill
#
# Bulk Modulus (GPa) = 34.75799 38.70741 36.73270
# Shear Modulus (GPa) = 18.03225 24.29364 21.16294
#
# Velocity S-wave (km/s) = 3.14707 3.65281 3.40933
# Velocity P-wave (km/s) = 5.68295 6.24903 5.97270
#
# Compressibility (1/GPa) = 0.02877036
#
# Stress axis : x y z
#
# Youngs Moduli (GPa) = 59.68202 37.73256 30.66563
#
# Poissons Ratio (x) = 0.09440 0.08786
# Poissons Ratio (y) = 0.14931 0.55755
# Poissons Ratio (z) = 0.17100 0.68604
#
# Static dielectric constant tensor:
#      x y z
#    x 3.516600 0.000000 -0.200030 
#    y 0.000000 2.941580 0.000000 
#    z -0.200030 0.000000 3.220470 
# 
# 
# High freq. dielectric constant tensor:
#      x y z
#    x 1.723050 0.000000 -0.018650 
#    y 0.000000 1.679950 0.000000 
#    z -0.018650 0.000000 1.686690 
# 
# From -- ./inp_files/251782.got.cif
#   From: 2010.06.25/outbox.cif.g09.slc.cpg/sg15_126_cif.got.tgz:251782.got - 2010.06.28 07:06:18.
