data_PCOD8136816
_publ_section_title
;
Structure prediction by ZEFSAII (Michael W. Deem and Ramdas Pophale) SiO2 
 PCOD8136816
Probable space group: C 2/C
;
_chemical_formula_sum "Si O2"
_cell_formula_units_Z 56
_cell_length_a 29.561470
_cell_length_b 16.069091
_cell_length_c 8.515464
_cell_angle_alpha 90.000000
_cell_angle_beta 129.926241
_cell_angle_gamma 90.000000
_cell_volume 3102.045291
_symmetry_space_group_name_H-M "C 2/C"
_symmetry_group_IT_number 15
_symmetry_cell_setting 'monoclinic'
loop_
_space_group_symop_operation_xyz
x,y,z
-x,y,1/2-z
-x,-y,-z
x,-y,1/2+z
1/2+x,1/2+y,z
1/2-x,1/2+y,1/2-z
1/2-x,1/2-y,-z
1/2+x,1/2-y,1/2+z
loop_
_atom_site_type_symbol
_atom_site_label
_atom_site_fract_x
_atom_site_fract_y
_atom_site_fract_z
Si Si1 0.835946 0.759649 0.121911
Si Si2 0.011652 0.410378 0.957833
Si Si3 0.757767 0.387728 0.515305
Si Si4 0.690883 0.709566 0.301389
Si Si5 0.757580 0.439146 0.865736
Si Si6 0.125278 0.661825 0.832673
Si Si7 0.944742 0.285315 0.029143
O O1 0.797231 0.825655 0.133880
O O2 0.903744 0.775856 0.331277
O O3 0.817470 0.665774 0.130185
O O4 0.825311 0.765432 0.912689
O O5 0.000000 0.407149 0.750000
O O6 0.079244 0.383986 0.119374
O O7 0.000000 0.500000 0.000000
O O8 0.970107 0.349997 0.962806
O O9 0.752293 0.430537 0.669532
O O10 0.755735 0.462434 0.386974
O O11 0.750000 0.750000 0.500000
O O12 0.702541 0.609571 0.328009
O O13 0.638783 0.744188 0.297242
O O14 0.818171 0.396953 0.054283
O O15 0.099205 0.668824 0.948534
O O16 0.000000 0.243304 0.250000
#
# Coordination Sequence:
#
# PCOD8136816 Si02
#       7
#     8   8   8   8   8   8   8
#     4  10  20  38  53  78 115 150 185 233 282 337
#     4  11  23  36  51  76 106 146 193 234 276 328
#     4  10  22  33  55  79 111 147 184 228 287 337
#     4   9  20  35  54  80 111 147 190 225 284 341
#     4  10  21  34  51  84 109 144 187 222 283 341
#     4  10  20  35  53  77 110 146 184 235 273 330
#     4  10  21  37  56  78 107 148 192 227 275 335
#
# _framework density 18.052605
#
# number of rings (size 3 to 8) (size 9 to 14) (size 15 to 20)
#    0.000    2.000    1.429    2.143    8.000    1.143 
#    0.000    0.000    0.000    0.000    0.000   17.000 
#    0.000    0.000    0.000    0.000    0.000    0.000 
#
# Total GULP energy -346896.055751 kJ/mol
# GULP energy per Si atom -12389.144848 kJ/mol
# Density = 1.801152 g / cm^3
# Si number density = 18.052605 Si / 1000 Ang^3
#
#
#
# Elastic Constant Matrix: (Units=GPa)
#
#
# Indices 1 2 3 4 5 6 
#
# 1 81.8415 35.0887 35.5680 0.0000 2.3362 0.0000
# 2 35.0887 95.3205 32.3807 0.0000 5.8969 0.0000
# 3 35.5680 32.3807 137.6408 0.0000 9.0415 0.0000
# 4 0.0000 0.0000 0.0000 17.1704 0.0000 -6.9298
# 5 2.3362 5.8969 9.0415 0.0000 30.2530 0.0000
# 6 0.0000 0.0000 0.0000 -6.9298 0.0000 21.9298
#
#
#
# Elastic Compliance Matrix: (Units=1/GPa)
#
#
# Indices 1 2 3 4 5 6 
#
# 1 0.015512 -0.004752 -0.002930 0.000000 0.000604 0.000000
# 2 -0.004752 0.012921 -0.001704 0.000000 -0.001642 0.000000
# 3 -0.002930 -0.001704 0.008555 0.000000 -0.001998 0.000000
# 4 0.000000 0.000000 0.000000 0.066753 0.000000 0.021094
# 5 0.000604 -0.001642 -0.001998 0.000000 0.033925 0.000000
# 6 0.000000 0.000000 0.000000 0.021094 0.000000 0.052266
#
#
# Mechanical properties :
#
#
# Convention : Reuss Voigt Hill
#
# Bulk Modulus (GPa) = 54.89946 57.87529 56.38737
# Shear Modulus (GPa) = 23.28009 27.98834 25.63421
#
# Velocity S-wave (km/s) = 3.59495 3.94175 3.77234
# Velocity P-wave (km/s) = 6.90713 7.26949 7.09062
#
# Compressibility (1/GPa) = 0.01821512
#
# Stress axis : x y z
#
# Youngs Moduli (GPa) = 64.46417 77.39538 116.89636
#
# Poissons Ratio (x) = 0.36781 0.34254
# Poissons Ratio (y) = 0.30635 0.19916
# Poissons Ratio (z) = 0.18890 0.13186
#
# Static dielectric constant tensor:
#      x y z
#    x 3.513380 0.000000 0.078810 
#    y 0.000000 3.341770 0.000000 
#    z 0.078810 0.000000 3.594000 
# 
# 
# High freq. dielectric constant tensor:
#      x y z
#    x 1.696450 0.000000 -0.010490 
#    y 0.000000 1.671260 0.000000 
#    z -0.010490 0.000000 1.716070 
# 
# From -- ./inp_files/69969.got.cif
#   From: 2010.06.25/outbox.cif.g09.slc.cpg/sg15_35_cif.got.tgz:69969.got - 2010.06.28 07:06:18.
