data_PCOD8136230
_publ_section_title
;
Structure prediction by ZEFSAII (Michael W. Deem and Ramdas Pophale) SiO2 
 PCOD8136230
Probable space group: C 2/C
;
_chemical_formula_sum "Si O2"
_cell_formula_units_Z 52
_cell_length_a 31.294328
_cell_length_b 11.670738
_cell_length_c 12.188771
_cell_angle_alpha 90.000000
_cell_angle_beta 32.850471
_cell_angle_gamma 90.000000
_cell_volume 2414.806488
_symmetry_space_group_name_H-M "C 2/C"
_symmetry_group_IT_number 15
_symmetry_cell_setting 'monoclinic'
loop_
_space_group_symop_operation_xyz
x,y,z
-x,y,1/2-z
-x,-y,-z
x,-y,1/2+z
1/2+x,1/2+y,z
1/2-x,1/2+y,1/2-z
1/2-x,1/2-y,-z
1/2+x,1/2-y,1/2+z
loop_
_atom_site_type_symbol
_atom_site_label
_atom_site_fract_x
_atom_site_fract_y
_atom_site_fract_z
Si Si1 0.500000 0.892411 0.750000
Si Si2 0.356132 0.823848 0.770456
Si Si3 0.469049 0.812613 0.059200
Si Si4 0.662209 0.366202 0.627333
Si Si5 0.293385 0.616695 0.017779
Si Si6 0.735882 0.676120 0.194394
Si Si7 0.627349 0.009757 0.601173
O O1 0.517431 0.816446 0.602556
O O2 0.573597 0.976366 0.613470
O O3 0.450042 0.818953 0.545471
O O4 0.302489 0.884166 0.791971
O O5 0.339467 0.893946 0.917521
O O6 0.329403 0.692096 0.842096
O O7 0.422767 0.696390 0.194254
O O8 0.419478 0.923589 0.201057
O O9 0.663355 0.493631 0.576462
O O10 0.686093 0.373882 0.702411
O O11 0.727514 0.298016 0.416329
O O12 0.316707 0.680358 0.082157
O O13 0.801445 0.586209 0.092738
#
# Coordination Sequence:
#
# PCOD8136230 Si02
#       7
#     4   8   8   8   8   8   8
#     4  10  20  32  66  88 122 158 204 248 318 360
#     4  10  22  40  57  94 121 158 205 258 302 366
#     4  10  23  40  61  91 126 160 206 260 307 362
#     4  10  23  43  59  93 123 161 205 258 299 372
#     4  11  24  38  65  87 127 166 200 254 311 370
#     4  10  23  37  65  86 125 158 207 248 307 367
#     4  10  21  37  59  94 118 156 199 266 296 363
#
# _framework density 21.533816000000002
#
# number of rings (size 3 to 8) (size 9 to 14) (size 15 to 20)
#    0.000    1.846    1.538    1.846   10.769    0.615 
#    0.000    0.000    0.000    0.000    0.000    0.000 
#    0.000    0.000    0.000    0.000    0.000    0.000 
#
# Total GULP energy -322213.082370 kJ/mol
# GULP energy per Si atom -12392.810860 kJ/mol
# Density = 2.148480 g / cm^3
# Si number density = 21.533816 Si / 1000 Ang^3
#
#
#
# Elastic Constant Matrix: (Units=GPa)
#
#
# Indices 1 2 3 4 5 6 
#
# 1 81.8504 21.8468 14.4628 0.0000 -1.0668 0.0000
# 2 21.8468 109.4748 22.6007 0.0000 -1.8770 0.0000
# 3 14.4628 22.6007 56.5809 0.0000 0.0333 0.0000
# 4 0.0000 0.0000 0.0000 25.1704 0.0000 -3.5750
# 5 -1.0668 -1.8770 0.0333 0.0000 28.9710 0.0000
# 6 0.0000 0.0000 0.0000 -3.5750 0.0000 20.7458
#
#
#
# Elastic Compliance Matrix: (Units=1/GPa)
#
#
# Indices 1 2 3 4 5 6 
#
# 1 0.013234 -0.002111 -0.002540 0.000000 0.000354 0.000000
# 2 -0.002111 0.010304 -0.003577 0.000000 0.000594 0.000000
# 3 -0.002540 -0.003577 0.019752 0.000000 -0.000348 0.000000
# 4 0.000000 0.000000 0.000000 0.040726 0.000000 0.007018
# 5 0.000354 0.000594 -0.000348 0.000000 0.034569 0.000000
# 6 0.000000 0.000000 0.000000 0.007018 0.000000 0.049412
#
#
# Mechanical properties :
#
#
# Convention : Reuss Voigt Hill
#
# Bulk Modulus (GPa) = 37.26377 40.63630 38.95003
# Shear Modulus (GPa) = 25.85347 27.57715 26.71531
#
# Velocity S-wave (km/s) = 3.46872 3.58249 3.52607
# Velocity P-wave (km/s) = 5.77798 6.00202 5.89106
#
# Compressibility (1/GPa) = 0.02683572
#
# Stress axis : x y z
#
# Youngs Moduli (GPa) = 75.56194 97.04669 50.62776
#
# Poissons Ratio (x) = 0.20482 0.12859
# Poissons Ratio (y) = 0.15948 0.18109
# Poissons Ratio (z) = 0.19193 0.34712
#
# Static dielectric constant tensor:
#      x y z
#    x 3.919650 0.000000 -0.174260 
#    y 0.000000 3.791600 0.000000 
#    z -0.174260 0.000000 3.797030 
# 
# 
# High freq. dielectric constant tensor:
#      x y z
#    x 1.845750 0.000000 0.000400 
#    y 0.000000 1.840690 0.000000 
#    z 0.000400 0.000000 1.831040 
# 
# From -- ./inp_files/126417.got.cif
#   From: 2010.06.25/outbox.cif.g09.slc.cpg/sg15_64_cif.got.tgz:126417.got - 2010.06.28 07:06:18.
