data_PCOD8136236
_publ_section_title
;
Structure prediction by ZEFSAII (Michael W. Deem and Ramdas Pophale) SiO2 
 PCOD8136236
Probable space group: C 2/C
;
_chemical_formula_sum "Si O2"
_cell_formula_units_Z 48
_cell_length_a 8.750168
_cell_length_b 15.514559
_cell_length_c 28.949229
_cell_angle_alpha 90.000000
_cell_angle_beta 142.599362
_cell_angle_gamma 90.000000
_cell_volume 2387.023343
_symmetry_space_group_name_H-M "C 2/C"
_symmetry_group_IT_number 15
_symmetry_cell_setting 'monoclinic'
loop_
_space_group_symop_operation_xyz
x,y,z
-x,y,1/2-z
-x,-y,-z
x,-y,1/2+z
1/2+x,1/2+y,z
1/2-x,1/2+y,1/2-z
1/2-x,1/2-y,-z
1/2+x,1/2-y,1/2+z
loop_
_atom_site_type_symbol
_atom_site_label
_atom_site_fract_x
_atom_site_fract_y
_atom_site_fract_z
Si Si1 0.639281 0.802880 0.056233
Si Si2 0.217412 0.246047 0.170910
Si Si3 0.326062 0.057233 0.167555
Si Si4 0.942995 0.093401 0.563657
Si Si5 0.558420 0.866953 0.896670
Si Si6 0.754608 0.737929 0.389061
O O1 0.604782 0.807384 0.103327
O O2 0.792081 0.886528 0.074843
O O3 0.802716 0.719396 0.084707
O O4 0.373800 0.795264 0.966093
O O5 0.500000 0.276643 0.250000
O O6 0.206627 0.146672 0.154467
O O7 0.042508 0.254046 0.174419
O O8 0.500000 0.018747 0.250000
O O9 0.490662 0.073218 0.160154
O O10 0.095221 0.994218 0.103740
O O11 0.738461 0.080186 0.474279
O O12 0.129094 0.171645 0.597672
O O13 0.303278 0.835716 0.861576
#
# Coordination Sequence:
#
# PCOD8136236 Si02
#       6
#     8   8   8   8   8   8
#     4   8  16  32  53  77 102 128 170 216 255 307
#     4  10  20  33  48  72 107 141 167 204 261 318
#     4  10  20  33  47  71 108 140 165 206 262 315
#     4   9  17  32  56  78  97 129 173 219 257 303
#     4   8  16  33  54  75  99 133 176 210 253 317
#     4   9  17  33  57  77  94 131 180 219 251 298
#
# _framework density 20.108726999999998
#
# number of rings (size 3 to 8) (size 9 to 14) (size 15 to 20)
#    0.000    3.000    0.000    3.000    0.000    1.333 
#    0.000   17.500    0.000    0.000    0.000    0.000 
#    0.000    0.000    0.000    0.000    0.000    0.000 
#
# Total GULP energy -297428.208033 kJ/mol
# GULP energy per Si atom -12392.842001 kJ/mol
# Density = 2.006296 g / cm^3
# Si number density = 20.108727 Si / 1000 Ang^3
#
#
#
# Elastic Constant Matrix: (Units=GPa)
#
#
# Indices 1 2 3 4 5 6 
#
# 1 113.0670 10.3505 43.2994 0.0001 5.7721 0.0000
# 2 10.3505 27.4904 12.9159 0.0000 -8.7385 0.0000
# 3 43.2994 12.9159 69.6424 0.0001 -6.1129 0.0002
# 4 0.0001 0.0000 0.0001 22.0762 0.0001 1.2798
# 5 5.7721 -8.7385 -6.1129 0.0001 33.4104 0.0001
# 6 0.0000 0.0000 0.0002 1.2798 0.0001 19.8245
#
#
#
# Elastic Compliance Matrix: (Units=1/GPa)
#
#
# Indices 1 2 3 4 5 6 
#
# 1 0.012125 -0.002356 -0.007459 0.000000 -0.004076 0.000000
# 2 -0.002356 0.043311 -0.005628 0.000000 0.010705 0.000000
# 3 -0.007459 -0.005628 0.020351 0.000000 0.003540 0.000000
# 4 0.000000 0.000000 0.000000 0.045468 0.000000 -0.002935
# 5 -0.004076 0.010705 0.003540 0.000000 0.034083 0.000000
# 6 0.000000 0.000000 0.000000 -0.002935 0.000000 0.050632
#
#
# Mechanical properties :
#
#
# Convention : Reuss Voigt Hill
#
# Bulk Modulus (GPa) = 22.27164 38.14795 30.20980
# Shear Modulus (GPa) = 19.85532 24.63781 22.24656
#
# Velocity S-wave (km/s) = 3.14570 3.50413 3.32974
# Velocity P-wave (km/s) = 4.92885 5.94844 5.46248
#
# Compressibility (1/GPa) = 0.04490016
#
# Stress axis : x y z
#
# Youngs Moduli (GPa) = 82.47737 23.08908 49.13720
#
# Poissons Ratio (x) = 0.05440 0.36652
# Poissons Ratio (y) = 0.19432 0.27654
# Poissons Ratio (z) = 0.61521 0.12994
#
# Static dielectric constant tensor:
#      x y z
#    x 4.065740 0.000000 -0.447880 
#    y 0.000000 3.334790 0.000000 
#    z -0.447880 0.000000 3.726350 
# 
# 
# High freq. dielectric constant tensor:
#      x y z
#    x 1.788410 0.000000 -0.011080 
#    y 0.000000 1.750110 0.000000 
#    z -0.011080 0.000000 1.771280 
# 
# From -- ./inp_files/232498.got.cif
#   From: 2010.06.25/outbox.cif.g09.slc.cpg/sg15_117_cif.got.tgz:232498.got - 2010.06.28 07:06:18.
