data_PCOD8136043
_publ_section_title
;
Structure prediction by ZEFSAII (Michael W. Deem and Ramdas Pophale) SiO2 
 PCOD8136043
Probable space group: C 2/C
;
_chemical_formula_sum "Si O2"
_cell_formula_units_Z 40
_cell_length_a 21.266937
_cell_length_b 7.627265
_cell_length_c 14.256520
_cell_angle_alpha 90.000000
_cell_angle_beta 132.082588
_cell_angle_gamma 90.000000
_cell_volume 1716.312201
_symmetry_space_group_name_H-M "C 2/C"
_symmetry_group_IT_number 15
_symmetry_cell_setting 'monoclinic'
loop_
_space_group_symop_operation_xyz
x,y,z
-x,y,1/2-z
-x,-y,-z
x,-y,1/2+z
1/2+x,1/2+y,z
1/2-x,1/2+y,1/2-z
1/2-x,1/2-y,-z
1/2+x,1/2-y,1/2+z
loop_
_atom_site_type_symbol
_atom_site_label
_atom_site_fract_x
_atom_site_fract_y
_atom_site_fract_z
Si Si1 0.638090 0.613222 0.253102
Si Si2 0.400367 0.104384 0.643891
Si Si3 0.900910 0.734918 0.259784
Si Si4 0.949759 0.677748 0.976891
Si Si5 0.678195 0.085647 0.132038
O O1 0.651818 0.766506 0.341376
O O2 0.622795 0.431854 0.294166
O O3 0.556648 0.666432 0.106439
O O4 0.721388 0.593322 0.272954
O O5 0.500000 0.142140 0.750000
O O6 0.367967 0.151909 0.508592
O O7 0.378816 0.905404 0.656854
O O8 0.853375 0.697740 0.310709
O O9 0.003148 0.739273 0.381288
O O10 0.851784 0.617950 0.890533
O O11 0.000000 0.500000 0.000000
#
# Coordination Sequence:
#
# PCOD8136043 Si02
#       5
#     8   8   8   8   8
#     4  12  24  42  70 105 135 179 236 286 352 414
#     4  12  24  46  69  98 144 183 234 286 346 418
#     4  11  24  44  71 100 136 192 234 276 352 424
#     4  10  19  43  68  90 135 182 221 274 340 407
#     4  11  23  44  70 101 144 180 224 302 351 403
#
# _framework density 23.305785
#
# number of rings (size 3 to 8) (size 9 to 14) (size 15 to 20)
#    0.000    0.800    6.000    3.600    0.000    1.600 
#    3.600    0.000    0.000    0.000    0.000    0.000 
#    0.000    0.000    0.000    0.000    0.000    0.000 
#
# Total GULP energy -247782.981275 kJ/mol
# GULP energy per Si atom -12389.149064 kJ/mol
# Density = 2.325274 g / cm^3
# Si number density = 23.305785 Si / 1000 Ang^3
#
#
#
# Elastic Constant Matrix: (Units=GPa)
#
#
# Indices 1 2 3 4 5 6 
#
# 1 77.7846 28.8314 4.7546 0.0000 8.8331 0.0000
# 2 28.8314 127.1246 5.7133 0.0000 12.5011 0.0000
# 3 4.7546 5.7133 59.1731 0.0000 -0.0739 0.0000
# 4 0.0000 0.0000 0.0000 17.0050 0.0000 3.0026
# 5 8.8331 12.5011 -0.0739 0.0000 35.5960 0.0000
# 6 0.0000 0.0000 0.0000 3.0026 0.0000 27.4805
#
#
#
# Elastic Compliance Matrix: (Units=1/GPa)
#
#
# Indices 1 2 3 4 5 6 
#
# 1 0.014289 -0.002955 -0.000866 0.000000 -0.002510 0.000000
# 2 -0.002955 0.008796 -0.000615 0.000000 -0.002357 0.000000
# 3 -0.000866 -0.000615 0.017029 0.000000 0.000466 0.000000
# 4 0.000000 0.000000 0.000000 0.059963 0.000000 -0.006552
# 5 -0.002510 -0.002357 0.000466 0.000000 0.029545 0.000000
# 6 0.000000 0.000000 0.000000 -0.006552 0.000000 0.037105
#
#
# Mechanical properties :
#
#
# Convention : Reuss Voigt Hill
#
# Bulk Modulus (GPa) = 32.00746 38.07567 35.04156
# Shear Modulus (GPa) = 26.87984 31.00183 28.94084
#
# Velocity S-wave (km/s) = 3.39979 3.65118 3.52772
# Velocity P-wave (km/s) = 5.40139 5.84360 5.62684
#
# Compressibility (1/GPa) = 0.03124272
#
# Stress axis : x y z
#
# Youngs Moduli (GPa) = 69.98261 113.68926 58.72303
#
# Poissons Ratio (x) = 0.33595 0.05085
# Poissons Ratio (y) = 0.20680 0.03610
# Poissons Ratio (z) = 0.06060 0.06989
#
# Static dielectric constant tensor:
#      x y z
#    x 4.409220 0.000000 0.190210 
#    y 0.000000 4.335080 0.000000 
#    z 0.190210 0.000000 4.273160 
# 
# 
# High freq. dielectric constant tensor:
#      x y z
#    x 1.917430 0.000000 0.002790 
#    y 0.000000 1.917700 0.000000 
#    z 0.002790 0.000000 1.911950 
# 
# From -- ./inp_files/166497.got.cif
#   From: 2010.06.25/outbox.cif.g09.slc.cpg/sg15_84_cif.got.tgz:166497.got - 2010.06.28 07:06:18.
