data_PCOD8136051
_publ_section_title
;
Structure prediction by ZEFSAII (Michael W. Deem and Ramdas Pophale) SiO2 
 PCOD8136051
Probable space group: C 2/C
;
_chemical_formula_sum "Si O2"
_cell_formula_units_Z 56
_cell_length_a 14.495706
_cell_length_b 11.493033
_cell_length_c 30.731164
_cell_angle_alpha 90.000000
_cell_angle_beta 28.674866
_cell_angle_gamma 90.000000
_cell_volume 2456.678263
_symmetry_space_group_name_H-M "C 2/C"
_symmetry_group_IT_number 15
_symmetry_cell_setting 'monoclinic'
loop_
_space_group_symop_operation_xyz
x,y,z
-x,y,1/2-z
-x,-y,-z
x,-y,1/2+z
1/2+x,1/2+y,z
1/2-x,1/2+y,1/2-z
1/2-x,1/2-y,-z
1/2+x,1/2-y,1/2+z
loop_
_atom_site_type_symbol
_atom_site_label
_atom_site_fract_x
_atom_site_fract_y
_atom_site_fract_z
Si Si1 0.007962 0.635314 0.652577
Si Si2 0.454232 0.396754 0.863332
Si Si3 0.590436 0.531752 0.025497
Si Si4 0.000000 0.315039 0.250000
Si Si5 0.747845 0.970249 0.313701
Si Si6 0.000000 0.224223 0.750000
Si Si7 0.837224 0.831131 0.565329
Si Si8 0.341735 0.850236 0.580092
O O1 0.889582 0.550447 0.670539
O O2 0.961058 0.769315 0.660742
O O3 0.233905 0.620431 0.551571
O O4 0.961112 0.607028 0.722935
O O5 0.576176 0.449527 0.773560
O O6 0.236183 0.389865 0.935124
O O7 0.466504 0.478733 0.900357
O O8 0.649262 0.403254 0.985147
O O9 0.413684 0.585281 0.071947
O O10 0.810636 0.239145 0.336401
O O11 0.835185 0.849776 0.294419
O O12 0.631080 0.037374 0.400004
O O13 0.114147 0.302778 0.667602
O O14 0.953923 0.711325 0.511340
#
# Coordination Sequence:
#
# PCOD8136051 Si02
#       8
#     8   8   8   4   8   4   8   8
#     4  11  24  40  75 102 142 185 240 298 351 435
#     4  11  22  42  70 103 140 182 246 285 347 444
#     4  11  25  44  69 109 134 195 243 288 371 422
#     4  10  19  43  72 102 132 182 249 285 348 428
#     4  12  25  43  73 109 142 190 236 301 366 423
#     4  12  27  49  66 108 152 186 241 307 372 408
#     4  11  27  47  73 101 154 186 242 307 355 431
#     4  11  21  47  73 101 139 193 239 294 349 438
#
# _framework density 22.795006999999998
#
# number of rings (size 3 to 8) (size 9 to 14) (size 15 to 20)
#    0.000    0.857    7.143    1.286    4.000    4.571 
#    0.000    1.429    0.000    0.000    0.000    0.000 
#    0.000    0.000    0.000    0.000    0.000    0.000 
#
# Total GULP energy -347300.203171 kJ/mol
# GULP energy per Si atom -12403.578685 kJ/mol
# Density = 2.274312 g / cm^3
# Si number density = 22.795007 Si / 1000 Ang^3
#
#
#
# Elastic Constant Matrix: (Units=GPa)
#
#
# Indices 1 2 3 4 5 6 
#
# 1 123.9573 38.9970 27.3610 0.0016 28.2454 -0.0009
# 2 38.9970 96.2170 32.1360 -0.0025 7.1333 0.0008
# 3 27.3610 32.1360 96.5623 -0.0029 5.6204 -0.0079
# 4 0.0016 -0.0025 -0.0029 35.1129 -0.0082 7.2775
# 5 28.2454 7.1333 5.6204 -0.0082 32.4967 0.0008
# 6 -0.0009 0.0008 -0.0079 7.2775 0.0008 40.6074
#
#
#
# Elastic Compliance Matrix: (Units=1/GPa)
#
#
# Indices 1 2 3 4 5 6 
#
# 1 0.011571 -0.003489 -0.001593 -0.000003 -0.009016 0.000001
# 2 -0.003489 0.012864 -0.003338 0.000001 0.000786 -0.000001
# 3 -0.001593 -0.003338 0.011915 0.000000 0.000056 0.000002
# 4 -0.000003 0.000001 0.000000 0.029578 0.000010 -0.005301
# 5 -0.009016 0.000786 0.000056 0.000010 0.038426 -0.000003
# 6 0.000001 -0.000001 0.000002 -0.005301 -0.000003 0.025576
#
#
# Mechanical properties :
#
#
# Convention : Reuss Voigt Hill
#
# Bulk Modulus (GPa) = 51.25695 57.08053 54.16874
# Shear Modulus (GPa) = 32.62124 36.19290 34.40707
#
# Velocity S-wave (km/s) = 3.78705 3.98899 3.88933
# Velocity P-wave (km/s) = 6.45424 6.80523 6.63206
#
# Compressibility (1/GPa) = 0.01950955
#
# Stress axis : x y z
#
# Youngs Moduli (GPa) = 86.42308 77.73582 83.92808
#
# Poissons Ratio (x) = 0.27125 0.13366
# Poissons Ratio (y) = 0.30157 0.28017
# Poissons Ratio (z) = 0.13764 0.25950
#
# Static dielectric constant tensor:
#      x y z
#    x 4.111170 0.000000 0.214820 
#    y 0.000000 3.971290 0.000000 
#    z 0.214820 0.000000 4.066940 
# 
# 
# High freq. dielectric constant tensor:
#      x y z
#    x 1.894980 0.000000 0.010760 
#    y 0.000000 1.892940 0.000000 
#    z 0.010760 0.000000 1.902970 
# 
# From -- ./inp_files/313752.got.cif
#   From: 2010.06.25/outbox.cif.g09.slc.cpg/sg15_157_cif.got.tgz:313752.got - 2010.06.28 07:06:18.
