data_PCOD8136857
_publ_section_title
;
Structure prediction by ZEFSAII (Michael W. Deem and Ramdas Pophale) SiO2 
 PCOD8136857
Probable space group: C 2/C
;
_chemical_formula_sum "Si O2"
_cell_formula_units_Z 48
_cell_length_a 10.249986
_cell_length_b 14.803418
_cell_length_c 16.100998
_cell_angle_alpha 90.000000
_cell_angle_beta 75.154079
_cell_angle_gamma 90.000000
_cell_volume 2361.528025
_symmetry_space_group_name_H-M "C 2/C"
_symmetry_group_IT_number 15
_symmetry_cell_setting 'monoclinic'
loop_
_space_group_symop_operation_xyz
x,y,z
-x,y,1/2-z
-x,-y,-z
x,-y,1/2+z
1/2+x,1/2+y,z
1/2-x,1/2+y,1/2-z
1/2-x,1/2-y,-z
1/2+x,1/2-y,1/2+z
loop_
_atom_site_type_symbol
_atom_site_label
_atom_site_fract_x
_atom_site_fract_y
_atom_site_fract_z
Si Si1 0.156244 0.758769 0.412950
Si Si2 0.328209 0.641041 0.075914
Si Si3 0.060506 0.240225 0.109165
Si Si4 0.108905 0.784527 0.114906
Si Si5 0.500000 0.577492 0.750000
Si Si6 0.000000 0.616247 0.750000
Si Si7 0.782868 0.044914 0.656724
O O1 0.108649 0.724356 0.511058
O O2 0.299754 0.711024 0.366203
O O3 0.179161 0.867530 0.403954
O O4 0.037783 0.734671 0.367586
O O5 0.458945 0.656962 0.113422
O O6 0.214173 0.709654 0.125405
O O7 0.278405 0.538865 0.093711
O O8 0.359686 0.663617 0.975798
O O9 0.987456 0.321149 0.170057
O O10 0.108036 0.860282 0.184784
O O11 0.401723 0.521871 0.704437
O O12 0.864680 0.555273 0.776654
#
# Coordination Sequence:
#
# PCOD8136857 Si02
#       7
#     8   8   8   8   4   4   8
#     4   8  17  34  56  77 104 144 180 214 261 320
#     4  10  20  35  55  79 109 144 178 217 268 324
#     4   9  17  32  55  78 104 140 181 213 258 319
#     4   9  19  35  57  78 105 144 182 215 264 327
#     4  10  20  36  56  78 104 138 182 226 264 312
#     4  10  20  36  56  78 110 146 178 224 270 312
#     4  10  21  36  55  81 111 139 175 227 274 309
#
# _framework density 20.325823
#
# number of rings (size 3 to 8) (size 9 to 14) (size 15 to 20)
#    0.000    2.667    0.000    1.000    0.000    7.333 
#    0.000    1.667    0.000   60.000    0.000    0.000 
#    0.000    0.000    0.000    0.000    0.000    0.000 
#
# Total GULP energy -297349.208204 kJ/mol
# GULP energy per Si atom -12389.550342 kJ/mol
# Density = 2.027956 g / cm^3
# Si number density = 20.325823 Si / 1000 Ang^3
#
#
#
# Elastic Constant Matrix: (Units=GPa)
#
#
# Indices 1 2 3 4 5 6 
#
# 1 105.7265 32.7815 37.7033 0.0000 -18.6697 0.0000
# 2 32.7815 75.3444 41.2524 0.0000 -8.9859 0.0000
# 3 37.7033 41.2524 52.4440 0.0000 -5.1621 0.0000
# 4 0.0000 0.0000 0.0000 15.5416 0.0000 6.6259
# 5 -18.6697 -8.9859 -5.1621 0.0000 27.2494 0.0000
# 6 0.0000 0.0000 0.0000 6.6259 0.0000 18.1258
#
#
#
# Elastic Compliance Matrix: (Units=1/GPa)
#
#
# Indices 1 2 3 4 5 6 
#
# 1 0.014235 -0.000125 -0.009354 0.000000 0.007940 0.000000
# 2 -0.000125 0.023817 -0.018220 0.000000 0.004317 0.000000
# 3 -0.009354 -0.018220 0.039641 0.000000 -0.004907 0.000000
# 4 0.000000 0.000000 0.000000 0.076222 0.000000 -0.027863
# 5 0.007940 0.004317 -0.004907 0.000000 0.042632 0.000000
# 6 0.000000 0.000000 0.000000 -0.027863 0.000000 0.065356
#
#
# Mechanical properties :
#
#
# Convention : Reuss Voigt Hill
#
# Bulk Modulus (GPa) = 44.85128 50.77659 47.81393
# Shear Modulus (GPa) = 15.39725 20.30188 17.84956
#
# Velocity S-wave (km/s) = 2.75530 3.16384 2.96661
# Velocity P-wave (km/s) = 5.67770 6.19533 5.94215
#
# Compressibility (1/GPa) = 0.02229591
#
# Stress axis : x y z
#
# Youngs Moduli (GPa) = 70.24998 41.98609 25.22613
#
# Poissons Ratio (x) = 0.00525 0.23596
# Poissons Ratio (y) = 0.00879 0.45962
# Poissons Ratio (z) = 0.65711 0.76498
#
# Static dielectric constant tensor:
#      x y z
#    x 4.249910 0.000000 -0.158630 
#    y 0.000000 3.183230 0.000000 
#    z -0.158630 0.000000 3.653790 
# 
# 
# High freq. dielectric constant tensor:
#      x y z
#    x 1.818220 0.000000 -0.012150 
#    y 0.000000 1.744230 0.000000 
#    z -0.012150 0.000000 1.793040 
# 
# From -- ./inp_files/196541.got.cif
#   From: 2010.06.25/outbox.cif.g09.slc.cpg/sg15_99_cif.got.tgz:196541.got - 2010.06.28 07:06:18.
