data_PCOD8136177
_publ_section_title
;
Structure prediction by ZEFSAII (Michael W. Deem and Ramdas Pophale) SiO2 
 PCOD8136177
Probable space group: C 2/C
;
_chemical_formula_sum "Si O2"
_cell_formula_units_Z 56
_cell_length_a 15.694074
_cell_length_b 24.245966
_cell_length_c 9.589354
_cell_angle_alpha 90.000000
_cell_angle_beta 116.652704
_cell_angle_gamma 90.000000
_cell_volume 3261.194481
_symmetry_space_group_name_H-M "C 2/C"
_symmetry_group_IT_number 15
_symmetry_cell_setting 'monoclinic'
loop_
_space_group_symop_operation_xyz
x,y,z
-x,y,1/2-z
-x,-y,-z
x,-y,1/2+z
1/2+x,1/2+y,z
1/2-x,1/2+y,1/2-z
1/2-x,1/2-y,-z
1/2+x,1/2-y,1/2+z
loop_
_atom_site_type_symbol
_atom_site_label
_atom_site_fract_x
_atom_site_fract_y
_atom_site_fract_z
Si Si1 0.424748 0.445691 0.316643
Si Si2 0.941117 0.931504 0.844857
Si Si3 0.151544 0.827682 0.641328
Si Si4 0.994738 0.264808 0.407235
Si Si5 0.331455 0.755411 0.774996
Si Si6 0.788011 0.856177 0.110528
Si Si7 0.586464 0.171512 0.399583
O O1 0.500000 0.449389 0.250000
O O2 0.480017 0.416201 0.481833
O O3 0.393917 0.508163 0.334715
O O4 0.330210 0.411259 0.210234
O O5 0.856115 0.886718 0.786517
O O6 0.000000 0.927821 0.750000
O O7 0.062121 0.792001 0.624610
O O8 0.248775 0.797931 0.756297
O O9 0.147468 0.838653 0.472972
O O10 0.945855 0.311036 0.469148
O O11 0.000000 0.285046 0.250000
O O12 0.100285 0.253173 0.541780
O O13 0.287648 0.694902 0.717916
O O14 0.383969 0.774878 0.671003
O O15 0.678377 0.868317 0.983308
O O16 0.500000 0.141763 0.250000
#
# Coordination Sequence:
#
# PCOD8136177 Si02
#       7
#     8   8   8   8   8   8   8
#     4  10  20  34  55  75 104 141 177 211 248 313
#     4  10  21  35  49  77 110 138 172 211 262 304
#     4  11  19  34  52  76 105 137 176 219 249 313
#     4  11  21  32  46  73 110 141 162 208 264 308
#     4  10  20  32  54  75 100 138 183 210 251 311
#     4  11  18  33  56  78  96 139 183 214 254 303
#     4   9  18  34  51  73 103 133 174 217 249 303
#
# _framework density 17.171623
#
# number of rings (size 3 to 8) (size 9 to 14) (size 15 to 20)
#    0.000    1.714    4.286    2.143    0.000    0.571 
#    2.571    0.000    0.000    0.000    0.000   10.000 
#    0.000    0.000    0.000    0.000    0.000    0.000 
#
# Total GULP energy -347109.520019 kJ/mol
# GULP energy per Si atom -12396.768572 kJ/mol
# Density = 1.713254 g / cm^3
# Si number density = 17.171623 Si / 1000 Ang^3
#
#
#
# Elastic Constant Matrix: (Units=GPa)
#
#
# Indices 1 2 3 4 5 6 
#
# 1 77.6899 46.3302 50.3633 0.0000 12.5942 0.0000
# 2 46.3302 71.3234 29.3173 0.0000 16.5211 0.0000
# 3 50.3633 29.3173 109.2802 0.0000 8.0342 0.0000
# 4 0.0000 0.0000 0.0000 23.8866 0.0000 4.6601
# 5 12.5942 16.5211 8.0342 0.0000 37.2913 0.0000
# 6 0.0000 0.0000 0.0000 4.6601 0.0000 29.0132
#
#
#
# Elastic Compliance Matrix: (Units=1/GPa)
#
#
# Indices 1 2 3 4 5 6 
#
# 1 0.026708 -0.013548 -0.008588 0.000000 -0.001167 0.000000
# 2 -0.013548 0.024163 0.000216 0.000000 -0.006176 0.000000
# 3 -0.008588 0.000216 0.013051 0.000000 -0.000007 0.000000
# 4 0.000000 0.000000 0.000000 0.043219 0.000000 -0.006942
# 5 -0.001167 -0.006176 -0.000007 0.000000 0.029948 0.000000
# 6 0.000000 0.000000 0.000000 -0.006942 0.000000 0.035582
#
#
# Mechanical properties :
#
#
# Convention : Reuss Voigt Hill
#
# Bulk Modulus (GPa) = 49.79903 56.70167 53.25035
# Shear Modulus (GPa) = 22.40078 26.85705 24.62891
#
# Velocity S-wave (km/s) = 3.61574 3.95908 3.79130
# Velocity P-wave (km/s) = 6.81873 7.34788 7.08825
#
# Compressibility (1/GPa) = 0.02008071
#
# Stress axis : x y z
#
# Youngs Moduli (GPa) = 37.44231 41.38507 76.61979
#
# Poissons Ratio (x) = 0.56070 0.65802
# Poissons Ratio (y) = 0.50728 -0.01651
# Poissons Ratio (z) = 0.32156 -0.00892
#
# Static dielectric constant tensor:
#      x y z
#    x 3.169680 0.000000 0.072940 
#    y 0.000000 3.132840 0.000000 
#    z 0.072940 0.000000 3.283570 
# 
# 
# High freq. dielectric constant tensor:
#      x y z
#    x 1.654120 0.000000 -0.000610 
#    y 0.000000 1.631680 0.000000 
#    z -0.000610 0.000000 1.666570 
# 
# From -- ./inp_files/42108.got.cif
#   From: 2010.06.25/outbox.cif.g09.slc.cpg/sg15_22_cif.got.tgz:42108.got - 2010.06.28 07:06:18.
