data_PCOD8136096
_publ_section_title
;
Structure prediction by ZEFSAII (Michael W. Deem and Ramdas Pophale) SiO2 
 PCOD8136096
Probable space group: C 2/C
;
_chemical_formula_sum "Si O2"
_cell_formula_units_Z 36
_cell_length_a 7.223677
_cell_length_b 21.876922
_cell_length_c 9.707259
_cell_angle_alpha 90.000000
_cell_angle_beta 53.230008
_cell_angle_gamma 90.000000
_cell_volume 1228.847709
_symmetry_space_group_name_H-M "C 2/C"
_symmetry_group_IT_number 15
_symmetry_cell_setting 'monoclinic'
loop_
_space_group_symop_operation_xyz
x,y,z
-x,y,1/2-z
-x,-y,-z
x,-y,1/2+z
1/2+x,1/2+y,z
1/2-x,1/2+y,1/2-z
1/2-x,1/2-y,-z
1/2+x,1/2-y,1/2+z
loop_
_atom_site_type_symbol
_atom_site_label
_atom_site_fract_x
_atom_site_fract_y
_atom_site_fract_z
Si Si1 0.578420 0.601308 0.492550
Si Si2 0.683604 0.176227 0.777736
Si Si3 0.000000 0.792943 0.750000
Si Si4 0.191951 0.486246 0.047328
Si Si5 0.133580 0.379647 0.894173
O O1 0.445957 0.654688 0.634436
O O2 0.734408 0.556390 0.519877
O O3 0.410108 0.554825 0.490715
O O4 0.766488 0.630726 0.302932
O O5 0.500000 0.144817 0.750000
O O6 0.650964 0.249798 0.785361
O O7 0.613192 0.152508 0.963454
O O8 0.183095 0.838541 0.590311
O O9 0.000000 0.484179 0.250000
O O10 0.114848 0.452363 0.938786
#
# Coordination Sequence:
#
# PCOD8136096 Si02
#       5
#     8   8   4   8   8
#     4  11  22  35  56  78 116 159 187 223 287 339
#     4  10  20  35  50  85 118 140 187 228 274 356
#     4  10  20  30  60  84 122 146 174 236 302 342
#     4  11  21  38  52  80 120 150 192 235 262 350
#     4  12  19  36  54  86 119 153 176 231 299 330
#
# _framework density 29.295736999999999
#
# number of rings (size 3 to 8) (size 9 to 14) (size 15 to 20)
#    0.667    0.444    6.667    0.667    3.111    0.889 
#    4.000    0.000    0.000    0.000    0.000    1.556 
#    0.000    1.778    0.000    0.000    0.000    0.000 
#
# Total GULP energy -223029.882073 kJ/mol
# GULP energy per Si atom -12390.549004 kJ/mol
# Density = 2.922906 g / cm^3
# Si number density = 29.295737 Si / 1000 Ang^3
#
#
#
# Elastic Constant Matrix: (Units=GPa)
#
#
# Indices 1 2 3 4 5 6 
#
# 1 58.7832 21.6176 39.2333 0.0000 -18.6003 0.0000
# 2 21.6176 232.2099 105.4260 0.0000 -1.7867 0.0000
# 3 39.2333 105.4260 254.7454 0.0000 -22.4352 0.0000
# 4 0.0000 0.0000 0.0000 37.7703 0.0000 -4.4520
# 5 -18.6003 -1.7867 -22.4352 0.0000 30.6076 0.0000
# 6 0.0000 0.0000 0.0000 -4.4520 0.0000 35.2496
#
#
#
# Elastic Compliance Matrix: (Units=1/GPa)
#
#
# Indices 1 2 3 4 5 6 
#
# 1 0.022593 -0.001132 -0.001933 0.000000 0.012247 0.000000
# 2 -0.001132 0.005415 -0.002244 0.000000 -0.002017 0.000000
# 3 -0.001933 -0.002244 0.005385 0.000000 0.002641 0.000000
# 4 0.000000 0.000000 0.000000 0.026876 0.000000 0.003394
# 5 0.012247 -0.002017 0.002641 0.000000 0.041933 0.000000
# 6 0.000000 0.000000 0.000000 0.003394 0.000000 0.028798
#
#
# Mechanical properties :
#
#
# Convention : Reuss Voigt Hill
#
# Bulk Modulus (GPa) = 43.90687 97.58803 70.74745
# Shear Modulus (GPa) = 33.51018 46.02294 39.76656
#
# Velocity S-wave (km/s) = 3.38577 3.96786 3.68831
# Velocity P-wave (km/s) = 5.50496 7.37397 6.50692
#
# Compressibility (1/GPa) = 0.02277548
#
# Stress axis : x y z
#
# Youngs Moduli (GPa) = 44.26161 184.66263 185.71422
#
# Poissons Ratio (x) = 0.20897 0.35891
# Poissons Ratio (y) = 0.05009 0.41682
# Poissons Ratio (z) = 0.08554 0.41446
#
# Static dielectric constant tensor:
#      x y z
#    x 5.562520 0.000000 -0.509400 
#    y 0.000000 5.781440 0.000000 
#    z -0.509400 0.000000 5.228540 
# 
# 
# High freq. dielectric constant tensor:
#      x y z
#    x 2.180550 0.000000 -0.033930 
#    y 0.000000 2.209230 0.000000 
#    z -0.033930 0.000000 2.198060 
# 
# From -- ./inp_files/147779.got.cif
#   From: 2010.06.25/outbox.cif.g09.slc.cpg/sg15_74_cif.got.tgz:147779.got - 2010.06.28 07:06:18.
