data_PCOD8136234
_publ_section_title
;
Structure prediction by ZEFSAII (Michael W. Deem and Ramdas Pophale) SiO2 
 PCOD8136234
Probable space group: C 2/C
;
_chemical_formula_sum "Si O2"
_cell_formula_units_Z 64
_cell_length_a 25.214548
_cell_length_b 15.634964
_cell_length_c 9.448591
_cell_angle_alpha 90.000000
_cell_angle_beta 74.217710
_cell_angle_gamma 90.000000
_cell_volume 3584.483294
_symmetry_space_group_name_H-M "C 2/C"
_symmetry_group_IT_number 15
_symmetry_cell_setting 'monoclinic'
loop_
_space_group_symop_operation_xyz
x,y,z
-x,y,1/2-z
-x,-y,-z
x,-y,1/2+z
1/2+x,1/2+y,z
1/2-x,1/2+y,1/2-z
1/2-x,1/2-y,-z
1/2+x,1/2-y,1/2+z
loop_
_atom_site_type_symbol
_atom_site_label
_atom_site_fract_x
_atom_site_fract_y
_atom_site_fract_z
Si Si1 0.630621 0.660680 0.117955
Si Si2 0.267262 0.441076 0.827613
Si Si3 0.323810 0.760195 0.853253
Si Si4 0.551983 0.386620 0.905730
Si Si5 0.260584 0.394405 0.514077
Si Si6 0.431872 0.422609 0.070533
Si Si7 0.201554 0.710467 0.444765
Si Si8 0.060128 0.204472 0.686488
O O1 0.678842 0.608627 0.159328
O O2 0.575250 0.660869 0.250600
O O3 0.619660 0.616128 0.975147
O O4 0.646722 0.759702 0.069780
O O5 0.269525 0.442815 0.655897
O O6 0.212049 0.391247 0.923454
O O7 0.263063 0.537307 0.885937
O O8 0.297992 0.844402 0.945910
O O9 0.299642 0.750741 0.712865
O O10 0.390537 0.769016 0.806309
O O11 0.308549 0.675326 0.953426
O O12 0.581701 0.477938 0.900981
O O13 0.486999 0.404779 0.938934
O O14 0.567707 0.324030 0.020804
O O15 0.438087 0.381055 0.219920
O O16 0.250000 0.750000 0.500000
O O17 0.000000 0.249530 0.750000
#
# Coordination Sequence:
#
# PCOD8136234 Si02
#       8
#     8   8   8   8   8   8   8   8
#     4  11  20  31  54  71 103 144 175 218 264 308
#     4  10  23  36  52  82 104 137 182 220 269 330
#     4  10  20  39  56  78 112 145 177 221 273 320
#     4  10  21  32  45  76 105 135 188 211 257 311
#     4  10  23  37  58  79 110 142 179 223 272 327
#     4  10  20  33  47  69 107 145 173 222 252 310
#     4   9  20  36  52  77 107 138 179 224 269 315
#     4  10  20  34  53  75 104 141 181 216 261 323
#
# _framework density 17.854735000000002
#
# number of rings (size 3 to 8) (size 9 to 14) (size 15 to 20)
#    0.000    2.000    1.250    1.875    8.750    3.000 
#    0.000    0.000    0.000    0.000    0.000    5.250 
#    0.000    0.000    0.000    0.000    0.000    0.125 
#
# Total GULP energy -396639.697345 kJ/mol
# GULP energy per Si atom -12394.990542 kJ/mol
# Density = 1.781410 g / cm^3
# Si number density = 17.854735 Si / 1000 Ang^3
#
#
#
# Elastic Constant Matrix: (Units=GPa)
#
#
# Indices 1 2 3 4 5 6 
#
# 1 75.6542 20.1150 22.2357 0.0000 1.5230 0.0000
# 2 20.1150 59.5427 30.0105 0.0000 -2.3032 0.0000
# 3 22.2357 30.0105 83.2603 0.0000 -0.2109 0.0000
# 4 0.0000 0.0000 0.0000 27.5311 0.0000 -6.1466
# 5 1.5230 -2.3032 -0.2109 0.0000 29.8115 0.0000
# 6 0.0000 0.0000 0.0000 -6.1466 0.0000 23.3605
#
#
#
# Elastic Compliance Matrix: (Units=1/GPa)
#
#
# Indices 1 2 3 4 5 6 
#
# 1 0.015025 -0.003780 -0.002653 0.000000 -0.001078 0.000000
# 2 -0.003780 0.021545 -0.006751 0.000000 0.001810 0.000000
# 3 -0.002653 -0.006751 0.015152 0.000000 -0.000279 0.000000
# 4 0.000000 0.000000 0.000000 0.038589 0.000000 0.010154
# 5 -0.001078 0.001810 -0.000279 0.000000 0.033737 0.000000
# 6 0.000000 0.000000 0.000000 0.010154 0.000000 0.045479
#
#
# Mechanical properties :
#
#
# Convention : Reuss Voigt Hill
#
# Bulk Modulus (GPa) = 39.44454 40.35327 39.89891
# Shear Modulus (GPa) = 24.46835 25.88036 25.17436
#
# Velocity S-wave (km/s) = 3.70592 3.81135 3.75901
# Velocity P-wave (km/s) = 6.36017 6.48217 6.42146
#
# Compressibility (1/GPa) = 0.02535205
#
# Stress axis : x y z
#
# Youngs Moduli (GPa) = 66.55792 46.41531 65.99916
#
# Poissons Ratio (x) = 0.17547 0.17507
# Poissons Ratio (y) = 0.25162 0.44559
# Poissons Ratio (z) = 0.17655 0.31337
#
# Static dielectric constant tensor:
#      x y z
#    x 3.488750 0.000000 -0.106140 
#    y 0.000000 3.150550 0.000000 
#    z -0.106140 0.000000 3.467120 
# 
# 
# High freq. dielectric constant tensor:
#      x y z
#    x 1.687750 0.000000 0.004250 
#    y 0.000000 1.647960 0.000000 
#    z 0.004250 0.000000 1.708880 
# 
# From -- ./inp_files/66227.got.cif
#   From: 2010.06.25/outbox.cif.g09.slc.cpg/sg15_34_cif.got.tgz:66227.got - 2010.06.28 07:06:18.
