data_PCOD8136997
_publ_section_title
;
Structure prediction by ZEFSAII (Michael W. Deem and Ramdas Pophale) SiO2 
 PCOD8136997
Probable space group: C 2/C
;
_chemical_formula_sum "Si O2"
_cell_formula_units_Z 24
_cell_length_a 21.442761
_cell_length_b 8.161129
_cell_length_c 11.262434
_cell_angle_alpha 90.000000
_cell_angle_beta 142.889893
_cell_angle_gamma 90.000000
_cell_volume 1189.136112
_symmetry_space_group_name_H-M "C 2/C"
_symmetry_group_IT_number 15
_symmetry_cell_setting 'monoclinic'
loop_
_space_group_symop_operation_xyz
x,y,z
-x,y,1/2-z
-x,-y,-z
x,-y,1/2+z
1/2+x,1/2+y,z
1/2-x,1/2+y,1/2-z
1/2-x,1/2-y,-z
1/2+x,1/2-y,1/2+z
loop_
_atom_site_type_symbol
_atom_site_label
_atom_site_fract_x
_atom_site_fract_y
_atom_site_fract_z
Si Si1 0.369214 0.620615 0.371010
Si Si2 0.730826 0.695940 0.837915
Si Si3 0.478222 0.692641 0.086376
O O1 0.277955 0.502311 0.181550
O O2 0.325865 0.747158 0.400945
O O3 0.421029 0.723845 0.342429
O O4 0.457355 0.504609 0.564394
O O5 0.623614 0.776898 0.626209
O O6 0.750000 0.750000 0.000000
O O7 0.500000 0.765195 0.250000
#
# Coordination Sequence:
#
# PCOD8136997 Si02
#       3
#     8   8   8
#     4   9  20  35  60  79 111 143 186 220 273 326
#     4  10  20  35  58  84 108 144 185 225 268 324
#     4   9  19  35  57  77 109 148 183 213 277 328
#
# _framework density 20.182717
#
# number of rings (size 3 to 8) (size 9 to 14) (size 15 to 20)
#    2.000    0.667    0.000    2.000    0.000    1.333 
#    0.000    1.667    0.000    0.000    0.000    0.000 
#    0.000    0.000    0.000    0.000    0.000    0.000 
#
# Total GULP energy -148661.118226 kJ/mol
# GULP energy per Si atom -12388.426519 kJ/mol
# Density = 2.013678 g / cm^3
# Si number density = 20.182717 Si / 1000 Ang^3
#
#
#
# Elastic Constant Matrix: (Units=GPa)
#
#
# Indices 1 2 3 4 5 6 
#
# 1 220.5835 26.6500 69.8051 0.0000 -4.3179 0.0000
# 2 26.6500 9.6271 9.6030 0.0000 3.8371 0.0000
# 3 69.8051 9.6030 115.7724 0.0000 -27.1650 0.0000
# 4 0.0000 0.0000 0.0000 23.5966 0.0000 11.3324
# 5 -4.3179 3.8371 -27.1650 0.0000 37.4946 0.0000
# 6 0.0000 0.0000 0.0000 11.3324 0.0000 32.2453
#
#
#
# Elastic Compliance Matrix: (Units=1/GPa)
#
#
# Indices 1 2 3 4 5 6 
#
# 1 0.007751 -0.018771 -0.002959 0.000000 0.000670 0.000000
# 2 -0.018771 0.176374 -0.009703 0.000000 -0.027242 0.000000
# 3 -0.002959 -0.009703 0.013711 0.000000 0.010586 0.000000
# 4 0.000000 0.000000 0.000000 0.050984 0.000000 -0.017918
# 5 0.000670 -0.027242 0.010586 0.000000 0.037205 0.000000
# 6 0.000000 0.000000 0.000000 -0.017918 0.000000 0.037309
#
#
# Mechanical properties :
#
#
# Convention : Reuss Voigt Hill
#
# Bulk Modulus (GPa) = 7.40918 62.01100 34.71009
# Shear Modulus (GPa) = 11.59577 34.66230 23.12903
#
# Velocity S-wave (km/s) = 2.39956 4.14868 3.38891
# Velocity P-wave (km/s) = 3.36989 7.33077 5.70510
#
# Compressibility (1/GPa) = 0.13496770
#
# Stress axis : x y z
#
# Youngs Moduli (GPa) = 129.01714 5.66976 72.93606
#
# Poissons Ratio (x) = 0.10643 0.21584
# Poissons Ratio (y) = 2.42183 0.70773
# Poissons Ratio (z) = 0.38180 0.05502
#
# Static dielectric constant tensor:
#      x y z
#    x 3.623250 0.000000 0.054840 
#    y 0.000000 3.102570 0.000000 
#    z 0.054840 0.000000 3.398050 
# 
# 
# High freq. dielectric constant tensor:
#      x y z
#    x 1.804770 0.000000 0.000720 
#    y 0.000000 1.729280 0.000000 
#    z 0.000720 0.000000 1.771790 
# 
# From -- ./inp_files/36244.got.cif
#   From: 2010.06.25/outbox.cif.g09.slc.cpg/sg15_19_cif.got.tgz:36244.got - 2010.06.28 07:06:18.
