data_PCOD8136305
_publ_section_title
;
Structure prediction by ZEFSAII (Michael W. Deem and Ramdas Pophale) SiO2 
 PCOD8136305
Probable space group: C 2/C
;
_chemical_formula_sum "Si O2"
_cell_formula_units_Z 56
_cell_length_a 21.395312
_cell_length_b 15.701296
_cell_length_c 25.297849
_cell_angle_alpha 90.000000
_cell_angle_beta 20.510389
_cell_angle_gamma 90.000000
_cell_volume 2977.649512
_symmetry_space_group_name_H-M "C 2/C"
_symmetry_group_IT_number 15
_symmetry_cell_setting 'monoclinic'
loop_
_space_group_symop_operation_xyz
x,y,z
-x,y,1/2-z
-x,-y,-z
x,-y,1/2+z
1/2+x,1/2+y,z
1/2-x,1/2+y,1/2-z
1/2-x,1/2-y,-z
1/2+x,1/2-y,1/2+z
loop_
_atom_site_type_symbol
_atom_site_label
_atom_site_fract_x
_atom_site_fract_y
_atom_site_fract_z
Si Si1 0.756624 0.753789 0.557159
Si Si2 0.024832 0.988410 0.058372
Si Si3 0.046882 0.281529 0.906678
Si Si4 0.342232 0.056398 0.602542
Si Si5 0.186459 0.563177 0.094699
Si Si6 0.082048 0.136943 0.423316
Si Si7 0.684494 0.572279 0.620993
O O1 0.750000 0.750000 0.500000
O O2 0.673763 0.846102 0.636577
O O3 0.648543 0.672191 0.666433
O O4 0.956085 0.751374 0.424155
O O5 0.829374 0.947477 0.223307
O O6 0.008359 0.087255 0.054086
O O7 0.144051 0.988379 0.017170
O O8 0.126212 0.934471 0.932711
O O9 0.238841 0.318458 0.739774
O O10 0.918544 0.349218 0.037076
O O11 0.055995 0.205122 0.942371
O O12 0.278848 0.023014 0.594597
O O13 0.500000 0.000000 0.500000
O O14 0.000000 0.513488 0.250000
O O15 0.190057 0.573667 0.028970
O O16 0.500000 0.527844 0.750000
#
# Coordination Sequence:
#
# PCOD8136305 Si02
#       7
#     8   8   8   8   8   8   8
#     4   9  20  30  50  77 117 155 194 224 273 349
#     4  11  23  40  58  85 125 160 204 258 302 352
#     4  11  22  37  60  85 120 163 203 246 301 363
#     4  11  22  39  61  88 124 162 204 249 304 362
#     4  11  22  35  56  84 122 162 200 243 299 357
#     4  11  24  38  59  86 119 160 206 252 303 359
#     4  10  20  33  53  82 116 158 201 232 288 357
#
# _framework density 18.806781000000001
#
# number of rings (size 3 to 8) (size 9 to 14) (size 15 to 20)
#    0.000    1.429    4.286    1.286    6.000    1.143 
#    0.000    0.000    0.000    0.000    0.000    5.000 
#    0.000    0.000    0.000    0.000    0.000    0.000 
#
# Total GULP energy -346904.844075 kJ/mol
# GULP energy per Si atom -12389.458717 kJ/mol
# Density = 1.876398 g / cm^3
# Si number density = 18.806781 Si / 1000 Ang^3
#
#
#
# Elastic Constant Matrix: (Units=GPa)
#
#
# Indices 1 2 3 4 5 6 
#
# 1 116.1429 51.1276 38.1045 0.0345 -9.6196 0.0174
# 2 51.1276 71.8803 41.1937 0.0355 -0.5344 0.0017
# 3 38.1045 41.1937 115.8627 -0.0575 -6.6624 0.0077
# 4 0.0345 0.0355 -0.0575 29.1193 -0.0449 1.8358
# 5 -9.6196 -0.5344 -6.6624 -0.0449 29.1201 0.0278
# 6 0.0174 0.0017 0.0077 1.8358 0.0278 27.6601
#
#
#
# Elastic Compliance Matrix: (Units=1/GPa)
#
#
# Indices 1 2 3 4 5 6 
#
# 1 0.013100 -0.008728 -0.000978 0.000000 0.003943 -0.000011
# 2 -0.008728 0.023323 -0.005637 -0.000036 -0.003745 0.000012
# 3 -0.000978 -0.005637 0.011078 0.000034 0.002108 -0.000006
# 4 0.000000 -0.000036 0.000034 0.034486 0.000062 -0.002289
# 5 0.003943 -0.003745 0.002108 0.000062 0.036057 -0.000043
# 6 -0.000011 0.000012 -0.000006 -0.002289 -0.000043 0.036305
#
#
# Mechanical properties :
#
#
# Convention : Reuss Voigt Hill
#
# Bulk Modulus (GPa) = 59.47398 62.74864 61.11131
# Shear Modulus (GPa) = 26.22751 28.74392 27.48572
#
# Velocity S-wave (km/s) = 3.73846 3.91369 3.82708
# Velocity P-wave (km/s) = 7.09416 7.33894 7.21758
#
# Compressibility (1/GPa) = 0.01681408
#
# Stress axis : x y z
#
# Youngs Moduli (GPa) = 76.33756 42.87679 90.26781
#
# Poissons Ratio (x) = 0.37421 0.08832
# Poissons Ratio (y) = 0.66625 0.50885
# Poissons Ratio (z) = 0.07469 0.24170
#
# Static dielectric constant tensor:
#      x y z
#    x 3.666480 -0.000110 0.002660 
#    y -0.000110 3.458370 0.000270 
#    z 0.002660 0.000270 3.362850 
# 
# 
# High freq. dielectric constant tensor:
#      x y z
#    x 1.727660 0.000000 0.004590 
#    y 0.000000 1.687900 0.000020 
#    z 0.004590 0.000020 1.734870 
# 
# From -- ./inp_files/280412.got.cif
#   From: 2010.06.25/outbox.cif.g09.slc.cpg/sg15_141_cif.got.tgz:280412.got - 2010.06.28 07:06:18.
