data_PCOD8136126
_publ_section_title
;
Structure prediction by ZEFSAII (Michael W. Deem and Ramdas Pophale) SiO2 
 PCOD8136126
Probable space group: C 2/C
;
_chemical_formula_sum "Si O2"
_cell_formula_units_Z 64
_cell_length_a 23.201716
_cell_length_b 20.515337
_cell_length_c 9.789348
_cell_angle_alpha 90.000000
_cell_angle_beta 50.648656
_cell_angle_gamma 90.000000
_cell_volume 3603.171965
_symmetry_space_group_name_H-M "C 2/C"
_symmetry_group_IT_number 15
_symmetry_cell_setting 'monoclinic'
loop_
_space_group_symop_operation_xyz
x,y,z
-x,y,1/2-z
-x,-y,-z
x,-y,1/2+z
1/2+x,1/2+y,z
1/2-x,1/2+y,1/2-z
1/2-x,1/2-y,-z
1/2+x,1/2-y,1/2+z
loop_
_atom_site_type_symbol
_atom_site_label
_atom_site_fract_x
_atom_site_fract_y
_atom_site_fract_z
Si Si1 0.220652 0.062566 0.836518
Si Si2 0.790569 0.058990 0.957012
Si Si3 0.202529 0.688671 0.126264
Si Si4 0.332148 0.764204 0.535470
Si Si5 0.068163 0.136698 0.742034
Si Si6 0.086131 0.276842 0.603882
Si Si7 0.815023 0.682278 0.778670
Si Si8 0.571493 0.644218 0.055119
O O1 0.230740 0.040483 0.665301
O O2 0.287958 0.110642 0.776536
O O3 0.138702 0.093432 0.977895
O O4 0.231443 0.000086 0.914051
O O5 0.877664 0.074830 0.842797
O O6 0.751010 0.124647 0.062368
O O7 0.164001 0.698048 0.329174
O O8 0.134802 0.675506 0.124743
O O9 0.250000 0.750000 0.000000
O O10 0.252062 0.730649 0.652128
O O11 0.338745 0.815366 0.401640
O O12 0.400145 0.713214 0.429167
O O13 0.102651 0.202207 0.623958
O O14 0.000000 0.114603 0.750000
O O15 0.047682 0.150559 0.931636
O O16 0.112496 0.291219 0.410389
O O17 0.000000 0.294262 0.750000
O O18 0.500000 0.621508 0.250000
#
# Coordination Sequence:
#
# PCOD8136126 Si02
#       8
#     8   8   8   8   8   8   8   8
#     4  10  23  39  56  82 113 156 199 236 284 349
#     4  11  22  38  60  82 115 154 200 241 281 348
#     4  12  18  38  61  84 116 149 191 242 293 341
#     4  10  20  31  58  84 112 153 188 239 296 331
#     4  10  21  35  55  84 115 156 197 232 282 348
#     4  11  21  35  60  88 114 147 190 239 298 351
#     4  10  20  37  52  84 118 143 191 244 288 343
#     4  10  21  37  53  82 126 157 186 239 289 342
#
# _framework density 17.762127
#
# number of rings (size 3 to 8) (size 9 to 14) (size 15 to 20)
#    0.000    1.500    5.000    0.750    5.250    1.500 
#    0.000    2.500    0.000    0.750    0.000    0.000 
#    0.000    0.000    0.000    0.000    0.000    0.000 
#
# Total GULP energy -396725.156056 kJ/mol
# GULP energy per Si atom -12397.661127 kJ/mol
# Density = 1.772170 g / cm^3
# Si number density = 17.762127 Si / 1000 Ang^3
#
#
#
# Elastic Constant Matrix: (Units=GPa)
#
#
# Indices 1 2 3 4 5 6 
#
# 1 78.3488 29.5614 21.8187 0.0000 5.9203 0.0000
# 2 29.5614 95.0183 44.2224 0.0000 9.8885 0.0000
# 3 21.8187 44.2224 95.4384 0.0000 0.6704 0.0000
# 4 0.0000 0.0000 0.0000 20.7548 0.0000 6.5745
# 5 5.9203 9.8885 0.6704 0.0000 24.1262 0.0000
# 6 0.0000 0.0000 0.0000 6.5745 0.0000 20.4510
#
#
#
# Elastic Compliance Matrix: (Units=1/GPa)
#
#
# Indices 1 2 3 4 5 6 
#
# 1 0.014745 -0.003578 -0.001698 0.000000 -0.002105 0.000000
# 2 -0.003578 0.015008 -0.006100 0.000000 -0.005104 0.000000
# 3 -0.001698 -0.006100 0.013675 0.000000 0.002537 0.000000
# 4 0.000000 0.000000 0.000000 0.053645 0.000000 -0.017246
# 5 -0.002105 -0.005104 0.002537 0.000000 0.043986 0.000000
# 6 0.000000 0.000000 0.000000 -0.017246 0.000000 0.054441
#
#
# Mechanical properties :
#
#
# Convention : Reuss Voigt Hill
#
# Bulk Modulus (GPa) = 48.36741 51.11229 49.73985
# Shear Modulus (GPa) = 22.20790 24.61327 23.41058
#
# Velocity S-wave (km/s) = 3.53979 3.72656 3.63437
# Velocity P-wave (km/s) = 6.63299 6.88148 6.75838
#
# Compressibility (1/GPa) = 0.02067508
#
# Stress axis : x y z
#
# Youngs Moduli (GPa) = 67.81754 66.63269 73.12638
#
# Poissons Ratio (x) = 0.23841 0.12419
# Poissons Ratio (y) = 0.24265 0.44608
# Poissons Ratio (z) = 0.11518 0.40647
#
# Static dielectric constant tensor:
#      x y z
#    x 5.388270 0.000000 -0.989130 
#    y 0.000000 3.105160 0.000000 
#    z -0.989130 0.000000 4.021610 
# 
# 
# High freq. dielectric constant tensor:
#      x y z
#    x 1.692930 0.000000 0.015370 
#    y 0.000000 1.658370 0.000000 
#    z 0.015370 0.000000 1.690720 
# 
# From -- ./inp_files/63402.got.cif
#   From: 2010.06.25/outbox.cif.g09.slc.cpg/sg15_32_cif.got.tgz:63402.got - 2010.06.28 07:06:18.
