data_PCOD8136165
_publ_section_title
;
Structure prediction by ZEFSAII (Michael W. Deem and Ramdas Pophale) SiO2 
 PCOD8136165
Probable space group: C 2/C
;
_chemical_formula_sum "Si O2"
_cell_formula_units_Z 60
_cell_length_a 17.082799
_cell_length_b 24.723904
_cell_length_c 9.307671
_cell_angle_alpha 90.000000
_cell_angle_beta 56.933657
_cell_angle_gamma 90.000000
_cell_volume 3294.439399
_symmetry_space_group_name_H-M "C 2/C"
_symmetry_group_IT_number 15
_symmetry_cell_setting 'monoclinic'
loop_
_space_group_symop_operation_xyz
x,y,z
-x,y,1/2-z
-x,-y,-z
x,-y,1/2+z
1/2+x,1/2+y,z
1/2-x,1/2+y,1/2-z
1/2-x,1/2-y,-z
1/2+x,1/2-y,1/2+z
loop_
_atom_site_type_symbol
_atom_site_label
_atom_site_fract_x
_atom_site_fract_y
_atom_site_fract_z
Si Si1 0.320896 0.897784 0.121331
Si Si2 0.306227 0.704699 0.254588
Si Si3 0.708559 0.314862 0.401003
Si Si4 0.703952 0.883765 0.679826
Si Si5 0.872910 0.521226 0.124330
Si Si6 0.509176 0.835029 0.901002
Si Si7 0.487900 0.729761 0.425875
Si Si8 0.500000 0.991164 0.250000
O O1 0.246776 0.871763 0.305259
O O2 0.336271 0.960302 0.142667
O O3 0.276798 0.890580 0.007812
O O4 0.417761 0.866382 0.044746
O O5 0.278768 0.684596 0.440254
O O6 0.266723 0.765302 0.271881
O O7 0.266346 0.664738 0.174928
O O8 0.416935 0.702841 0.113066
O O9 0.599477 0.310652 0.466904
O O10 0.717549 0.940629 0.752954
O O11 0.595133 0.875359 0.822410
O O12 0.941103 0.527219 0.195812
O O13 0.927171 0.541768 0.924673
O O14 0.500000 0.811779 0.750000
O O15 0.534945 0.785054 0.973657
O O16 0.500000 0.746559 0.250000
#
# Coordination Sequence:
#
# PCOD8136165 Si02
#       8
#     8   8   8   8   8   8   8   4
#     4  11  23  37  55  81 118 153 191 230 275 336
#     4  10  21  37  57  84 111 147 190 231 283 337
#     4  10  21  37  57  84 111 147 190 231 283 337
#     4  11  23  37  55  81 118 153 191 230 275 336
#     4  11  22  38  52  85 116 154 190 233 280 343
#     4  10  20  32  52  80 114 152 181 224 275 329
#     4  10  20  38  55  81 116 144 185 235 277 332
#     4  10  20  36  58  78 124 152 188 226 284 340
#
# _framework density 18.212506999999999
#
# number of rings (size 3 to 8) (size 9 to 14) (size 15 to 20)
#    0.000    1.600    4.000    1.600    3.733    1.600 
#    2.400    0.000    0.000    0.800    0.000    0.000 
#    0.000    0.000    0.000    0.000    0.000    0.000 
#
# Total GULP energy -371879.353817 kJ/mol
# GULP energy per Si atom -12395.978461 kJ/mol
# Density = 1.817105 g / cm^3
# Si number density = 18.212507 Si / 1000 Ang^3
#
#
#
# Elastic Constant Matrix: (Units=GPa)
#
#
# Indices 1 2 3 4 5 6 
#
# 1 80.7718 27.1338 26.2935 0.0000 -0.1023 0.0000
# 2 27.1338 84.8369 32.1272 0.0000 6.7993 0.0000
# 3 26.2935 32.1272 74.1766 0.0000 0.2741 0.0000
# 4 0.0000 0.0000 0.0000 19.8332 0.0000 0.0399
# 5 -0.1023 6.7993 0.2741 0.0000 25.5825 0.0000
# 6 0.0000 0.0000 0.0000 0.0399 0.0000 12.1166
#
#
#
# Elastic Compliance Matrix: (Units=1/GPa)
#
#
# Indices 1 2 3 4 5 6 
#
# 1 0.014740 -0.003366 -0.003771 0.000000 0.000994 0.000000
# 2 -0.003366 0.015224 -0.005386 0.000000 -0.004002 0.000000
# 3 -0.003771 -0.005386 0.017146 0.000000 0.001233 0.000000
# 4 0.000000 0.000000 0.000000 0.050421 0.000000 -0.000166
# 5 0.000994 -0.004002 0.001233 0.000000 0.040144 0.000000
# 6 0.000000 0.000000 0.000000 -0.000166 0.000000 0.082532
#
#
# Mechanical properties :
#
#
# Convention : Reuss Voigt Hill
#
# Bulk Modulus (GPa) = 45.32058 45.65492 45.48775
# Shear Modulus (GPa) = 19.79354 21.78850 20.79102
#
# Velocity S-wave (km/s) = 3.30026 3.46258 3.38239
# Velocity P-wave (km/s) = 6.28177 6.41157 6.34700
#
# Compressibility (1/GPa) = 0.02206503
#
# Stress axis : x y z
#
# Youngs Moduli (GPa) = 67.84235 65.68453 58.32223
#
# Poissons Ratio (x) = 0.22110 0.21991
# Poissons Ratio (y) = 0.22836 0.31412
# Poissons Ratio (z) = 0.25581 0.35377
#
# Static dielectric constant tensor:
#      x y z
#    x 3.448010 0.000000 0.040350 
#    y 0.000000 3.162740 0.000000 
#    z 0.040350 0.000000 3.530680 
# 
# 
# High freq. dielectric constant tensor:
#      x y z
#    x 1.689640 0.000000 0.014060 
#    y 0.000000 1.692510 0.000000 
#    z 0.014060 0.000000 1.709610 
# 
# From -- ./inp_files/50624.got.cif
#   From: 2010.06.25/outbox.cif.g09.slc.cpg/sg15_26_cif.got.tgz:50624.got - 2010.06.28 07:06:18.
