data_PCOD8136808
_publ_section_title
;
Structure prediction by ZEFSAII (Michael W. Deem and Ramdas Pophale) SiO2 
 PCOD8136808
Probable space group: C 2/C
;
_chemical_formula_sum "Si O2"
_cell_formula_units_Z 44
_cell_length_a 14.741556
_cell_length_b 18.124043
_cell_length_c 14.809243
_cell_angle_alpha 90.000000
_cell_angle_beta 140.831137
_cell_angle_gamma 90.000000
_cell_volume 2499.072991
_symmetry_space_group_name_H-M "C 2/C"
_symmetry_group_IT_number 15
_symmetry_cell_setting 'monoclinic'
loop_
_space_group_symop_operation_xyz
x,y,z
-x,y,1/2-z
-x,-y,-z
x,-y,1/2+z
1/2+x,1/2+y,z
1/2-x,1/2+y,1/2-z
1/2-x,1/2-y,-z
1/2+x,1/2-y,1/2+z
loop_
_atom_site_type_symbol
_atom_site_label
_atom_site_fract_x
_atom_site_fract_y
_atom_site_fract_z
Si Si1 0.334142 0.441035 0.137196
Si Si2 0.500000 0.210875 0.250000
Si Si3 0.461406 0.716690 0.537524
Si Si4 0.262757 0.901444 0.624430
Si Si5 0.340919 0.988115 0.342629
Si Si6 0.261488 0.168476 0.798591
O O1 0.500000 0.458403 0.250000
O O2 0.267364 0.500728 0.155897
O O3 0.307836 0.358918 0.158964
O O4 0.248858 0.447247 0.977242
O O5 0.568514 0.260037 0.381972
O O6 0.618705 0.161903 0.291435
O O7 0.389114 0.636478 0.469106
O O8 0.392177 0.775393 0.415376
O O9 0.630937 0.708619 0.644703
O O10 0.305310 0.956488 0.735943
O O11 0.500000 0.000000 0.500000
O O12 0.322524 0.903326 0.292800
#
# Coordination Sequence:
#
# PCOD8136808 Si02
#       6
#     8   4   8   8   8   8
#     4  10  20  35  52  82 116 151 195 236 276 354
#     4  12  20  30  52  92 118 150 188 228 290 372
#     4  12  20  31  55  84 115 157 181 229 296 356
#     4  12  20  33  58  77 120 160 188 230 299 338
#     4  10  23  39  51  80 124 157 198 238 283 358
#     4  10  22  35  52  85 123 148 193 230 280 359
#
# _framework density 17.606528000000001
#
# number of rings (size 3 to 8) (size 9 to 14) (size 15 to 20)
#    1.091    0.000    5.455    3.818    0.000    2.909 
#    0.000    0.000    0.000    0.000    0.000    1.273 
#    8.182    0.000    0.000    0.000    0.000    0.000 
#
# Total GULP energy -272692.491425 kJ/mol
# GULP energy per Si atom -12395.113247 kJ/mol
# Density = 1.756646 g / cm^3
# Si number density = 17.606528 Si / 1000 Ang^3
#
#
#
# Elastic Constant Matrix: (Units=GPa)
#
#
# Indices 1 2 3 4 5 6 
#
# 1 42.0177 23.2257 33.5304 -0.0006 10.7724 -0.0005
# 2 23.2257 88.7229 59.1731 -0.0003 1.4090 -0.0003
# 3 33.5304 59.1731 130.1642 -0.0006 10.7732 -0.0006
# 4 -0.0006 -0.0003 -0.0006 39.8912 -0.0008 -6.3702
# 5 10.7724 1.4090 10.7732 -0.0008 32.1943 -0.0007
# 6 -0.0005 -0.0003 -0.0006 -6.3702 -0.0007 36.6831
#
#
#
# Elastic Compliance Matrix: (Units=1/GPa)
#
#
# Indices 1 2 3 4 5 6 
#
# 1 0.033272 -0.004806 -0.005638 0.000000 -0.009036 0.000000
# 2 -0.004806 0.016972 -0.006736 0.000000 0.003119 0.000000
# 3 -0.005638 -0.006736 0.012359 0.000000 -0.001954 0.000000
# 4 0.000000 0.000000 0.000000 0.025783 0.000001 0.004477
# 5 -0.009036 0.003119 -0.001954 0.000001 0.034602 0.000001
# 6 0.000000 0.000000 0.000000 0.004477 0.000001 0.028038
#
#
# Mechanical properties :
#
#
# Convention : Reuss Voigt Hill
#
# Bulk Modulus (GPa) = 35.40699 54.75147 45.07923
# Shear Modulus (GPa) = 25.66733 31.41877 28.54305
#
# Velocity S-wave (km/s) = 3.82230 4.22891 4.03073
# Velocity P-wave (km/s) = 6.29553 7.41685 6.87908
#
# Compressibility (1/GPa) = 0.02824301
#
# Stress axis : x y z
#
# Youngs Moduli (GPa) = 30.05529 58.92100 80.91409
#
# Poissons Ratio (x) = 0.28318 0.45621
# Poissons Ratio (y) = 0.14445 0.54501
# Poissons Ratio (z) = 0.16946 0.39687
#
# Static dielectric constant tensor:
#      x y z
#    x 2.925440 0.000000 0.178830 
#    y 0.000000 3.149050 0.000000 
#    z 0.178830 0.000000 3.458480 
# 
# 
# High freq. dielectric constant tensor:
#      x y z
#    x 1.635580 0.000000 0.025610 
#    y 0.000000 1.665570 0.000000 
#    z 0.025610 0.000000 1.698140 
# 
# From -- ./inp_files/154996.got.cif
#   From: 2010.06.25/outbox.cif.g09.slc.cpg/sg15_78_cif.got.tgz:154996.got - 2010.06.28 07:06:18.
