data_PCOD8136896
_publ_section_title
;
Structure prediction by ZEFSAII (Michael W. Deem and Ramdas Pophale) SiO2 
 PCOD8136896
Probable space group: C 2/C
;
_chemical_formula_sum "Si O2"
_cell_formula_units_Z 64
_cell_length_a 11.747550
_cell_length_b 20.816484
_cell_length_c 16.939426
_cell_angle_alpha 90.000000
_cell_angle_beta 122.136343
_cell_angle_gamma 90.000000
_cell_volume 3507.731659
_symmetry_space_group_name_H-M "C 2/C"
_symmetry_group_IT_number 15
_symmetry_cell_setting 'monoclinic'
loop_
_space_group_symop_operation_xyz
x,y,z
-x,y,1/2-z
-x,-y,-z
x,-y,1/2+z
1/2+x,1/2+y,z
1/2-x,1/2+y,1/2-z
1/2-x,1/2-y,-z
1/2+x,1/2-y,1/2+z
loop_
_atom_site_type_symbol
_atom_site_label
_atom_site_fract_x
_atom_site_fract_y
_atom_site_fract_z
Si Si1 0.213712 0.267204 0.333352
Si Si2 0.723549 0.411570 0.182421
Si Si3 0.163147 0.388647 0.994004
Si Si4 0.508664 0.241415 0.449288
Si Si5 0.541638 0.362727 0.354706
Si Si6 0.117297 0.491950 0.855534
Si Si7 0.004932 0.268665 0.124371
Si Si8 0.950115 0.414321 0.390082
O O1 0.240919 0.343727 0.345531
O O2 0.350118 0.225583 0.380285
O O3 0.130916 0.246510 0.380947
O O4 0.132311 0.249623 0.224451
O O5 0.566318 0.412180 0.147544
O O6 0.755944 0.470825 0.135858
O O7 0.809885 0.422748 0.292813
O O8 0.311175 0.392254 0.086027
O O9 0.069827 0.424002 0.023874
O O10 0.163603 0.424519 0.910042
O O11 0.105385 0.317115 0.961276
O O12 0.549858 0.297508 0.406478
O O13 0.526090 0.264396 0.546972
O O14 0.500000 0.346260 0.250000
O O15 0.000000 0.478242 0.750000
O O16 0.061050 0.535186 0.905126
O O17 0.992216 0.344426 0.107478
#
# Coordination Sequence:
#
# PCOD8136896 Si02
#       8
#     8   8   8   8   8   8   8   8
#     4   9  16  31  55  83 111 145 178 231 274 315
#     4   9  17  33  58  83 102 138 181 235 271 314
#     4  11  22  36  52  84 111 149 177 219 280 338
#     4  10  22  33  52  82 113 145 186 225 271 332
#     4  11  22  39  58  77 107 148 193 232 269 323
#     4  10  20  35  56  84 109 137 177 231 280 327
#     4   9  16  30  55  85 108 139 185 228 273 319
#     4   9  16  32  57  81 109 129 180 228 271 322
#
# _framework density 18.245408999999999
#
# number of rings (size 3 to 8) (size 9 to 14) (size 15 to 20)
#    0.000    2.250    2.500    1.125    1.750    1.000 
#    2.250    0.000    0.000    0.000    0.000    0.000 
#    0.000    0.000    0.000    0.000    0.000    0.000 
#
# Total GULP energy -396671.648477 kJ/mol
# GULP energy per Si atom -12395.989015 kJ/mol
# Density = 1.820388 g / cm^3
# Si number density = 18.245409 Si / 1000 Ang^3
#
#
#
# Elastic Constant Matrix: (Units=GPa)
#
#
# Indices 1 2 3 4 5 6 
#
# 1 88.0122 26.5497 36.3111 0.0000 -2.7877 0.0000
# 2 26.5497 45.0073 36.9791 0.0000 -9.6517 0.0000
# 3 36.3111 36.9791 97.5472 0.0000 -12.8240 0.0000
# 4 0.0000 0.0000 0.0000 27.9149 0.0000 -7.7063
# 5 -2.7877 -9.6517 -12.8240 0.0000 29.5406 0.0000
# 6 0.0000 0.0000 0.0000 -7.7063 0.0000 18.7448
#
#
#
# Elastic Compliance Matrix: (Units=1/GPa)
#
#
# Indices 1 2 3 4 5 6 
#
# 1 0.014568 -0.006339 -0.003300 0.000000 -0.002129 0.000000
# 2 -0.006339 0.035909 -0.010382 0.000000 0.006627 0.000000
# 3 -0.003300 -0.010382 0.015832 0.000000 0.003170 0.000000
# 4 0.000000 0.000000 0.000000 0.040409 0.000000 0.016613
# 5 -0.002129 0.006627 0.003170 0.000000 0.037192 0.000000
# 6 0.000000 0.000000 0.000000 0.016613 0.000000 0.060178
#
#
# Mechanical properties :
#
#
# Convention : Reuss Voigt Hill
#
# Bulk Modulus (GPa) = 38.06891 47.80519 42.93705
# Shear Modulus (GPa) = 19.77169 23.95517 21.86343
#
# Velocity S-wave (km/s) = 3.29546 3.62739 3.46540
# Velocity P-wave (km/s) = 5.94897 6.61831 6.29255
#
# Compressibility (1/GPa) = 0.02626816
#
# Stress axis : x y z
#
# Youngs Moduli (GPa) = 68.64238 27.84791 63.16303
#
# Poissons Ratio (x) = 0.17653 0.20842
# Poissons Ratio (y) = 0.43514 0.65575
# Poissons Ratio (z) = 0.22650 0.28911
#
# Static dielectric constant tensor:
#      x y z
#    x 3.561670 0.000000 -0.104440 
#    y 0.000000 2.966760 0.000000 
#    z -0.104440 0.000000 3.471430 
# 
# 
# High freq. dielectric constant tensor:
#      x y z
#    x 1.717930 0.000000 -0.007710 
#    y 0.000000 1.664680 0.000000 
#    z -0.007710 0.000000 1.711720 
# 
# From -- ./inp_files/147172.got.cif
#   From: 2010.06.25/outbox.cif.g09.slc.cpg/sg15_74_cif.got.tgz:147172.got - 2010.06.28 07:06:18.
