data_PCOD8136213
_publ_section_title
;
Structure prediction by ZEFSAII (Michael W. Deem and Ramdas Pophale) SiO2 
 PCOD8136213
Probable space group: C 2/C
;
_chemical_formula_sum "Si O2"
_cell_formula_units_Z 52
_cell_length_a 15.724084
_cell_length_b 28.565601
_cell_length_c 9.836387
_cell_angle_alpha 90.000000
_cell_angle_beta 140.582469
_cell_angle_gamma 90.000000
_cell_volume 2805.404105
_symmetry_space_group_name_H-M "C 2/C"
_symmetry_group_IT_number 15
_symmetry_cell_setting 'monoclinic'
loop_
_space_group_symop_operation_xyz
x,y,z
-x,y,1/2-z
-x,-y,-z
x,-y,1/2+z
1/2+x,1/2+y,z
1/2-x,1/2+y,1/2-z
1/2-x,1/2-y,-z
1/2+x,1/2-y,1/2+z
loop_
_atom_site_type_symbol
_atom_site_label
_atom_site_fract_x
_atom_site_fract_y
_atom_site_fract_z
Si Si1 0.296941 0.494086 0.621290
Si Si2 0.012610 0.618297 0.929045
Si Si3 0.683144 0.599913 0.193250
Si Si4 0.118740 0.812224 0.790106
Si Si5 0.404638 0.210900 0.759411
Si Si6 0.868075 0.529890 0.842619
Si Si7 0.000000 0.941432 0.250000
O O1 0.333190 0.443600 0.725598
O O2 0.193455 0.523052 0.585094
O O3 0.236973 0.488434 0.397273
O O4 0.429550 0.525307 0.773919
O O5 0.000000 0.615714 0.750000
O O6 0.974799 0.670494 0.937077
O O7 0.905263 0.583758 0.863679
O O8 0.162268 0.605894 0.157856
O O9 0.622161 0.645811 0.187578
O O10 0.604671 0.591651 0.956689
O O11 0.102571 0.763095 0.684964
O O12 0.000000 0.821838 0.750000
O O13 0.258640 0.809052 0.042606
O O14 0.500000 0.218914 0.750000
O O15 0.000000 0.500000 0.000000
#
# Coordination Sequence:
#
# PCOD8136213 Si02
#       7
#     8   8   8   8   8   8   4
#     4  12  24  40  59  83 125 166 200 255 297 364
#     4  11  18  36  62  90 117 154 199 254 309 358
#     4  12  23  39  60  83 122 164 201 246 311 362
#     4  10  20  32  59  95 122 150 192 257 313 366
#     4   9  17  34  56  92 123 146 195 253 320 351
#     4  12  21  36  61  93 119 156 209 251 304 361
#     4  12  28  42  52  86 124 172 206 246 304 376
#
# _framework density 18.535653
#
# number of rings (size 3 to 8) (size 9 to 14) (size 15 to 20)
#    0.000    0.923    7.692    0.923    1.077    1.231 
#    0.000    0.000    0.000    0.923    4.000    0.000 
#    0.000    0.000    0.000    0.000    0.000    0.000 
#
# Total GULP energy -322329.228340 kJ/mol
# GULP energy per Si atom -12397.278013 kJ/mol
# Density = 1.849347 g / cm^3
# Si number density = 18.535653 Si / 1000 Ang^3
#
#
#
# Elastic Constant Matrix: (Units=GPa)
#
#
# Indices 1 2 3 4 5 6 
#
# 1 91.8107 42.1307 19.2572 0.0000 21.9711 0.0000
# 2 42.1307 159.6471 32.4921 0.0000 3.2711 0.0000
# 3 19.2572 32.4921 96.2797 0.0000 15.3246 0.0000
# 4 0.0000 0.0000 0.0000 21.1250 0.0000 10.7640
# 5 21.9711 3.2711 15.3246 0.0000 23.4082 0.0000
# 6 0.0000 0.0000 0.0000 10.7640 0.0000 30.5811
#
#
#
# Elastic Compliance Matrix: (Units=1/GPa)
#
#
# Indices 1 2 3 4 5 6 
#
# 1 0.016254 -0.004087 0.000520 0.000000 -0.015026 0.000000
# 2 -0.004087 0.007761 -0.002500 0.000000 0.004389 0.000000
# 3 0.000520 -0.002500 0.012445 0.000000 -0.008286 0.000000
# 4 0.000000 0.000000 0.000000 0.057683 0.000000 -0.020303
# 5 -0.015026 0.004389 -0.008286 0.000000 0.061635 0.000000
# 6 0.000000 0.000000 0.000000 -0.020303 0.000000 0.039846
#
#
# Mechanical properties :
#
#
# Convention : Reuss Voigt Hill
#
# Bulk Modulus (GPa) = 41.10963 59.49974 50.30469
# Shear Modulus (GPa) = 23.16225 31.94670 27.55448
#
# Velocity S-wave (km/s) = 3.53881 4.15604 3.85978
# Velocity P-wave (km/s) = 6.23894 7.42968 6.86019
#
# Compressibility (1/GPa) = 0.02432520
#
# Stress axis : x y z
#
# Youngs Moduli (GPa) = 61.52189 128.84200 80.35312
#
# Poissons Ratio (x) = 0.52664 -0.04178
# Poissons Ratio (y) = 0.25147 0.20091
# Poissons Ratio (z) = -0.03199 0.32215
#
# Static dielectric constant tensor:
#      x y z
#    x 3.345510 0.000000 0.376030 
#    y 0.000000 4.029250 0.000000 
#    z 0.376030 0.000000 3.380930 
# 
# 
# High freq. dielectric constant tensor:
#      x y z
#    x 1.707920 0.000000 0.036970 
#    y 0.000000 1.738550 0.000000 
#    z 0.036970 0.000000 1.702300 
# 
# From -- ./inp_files/35083.got.cif
#   From: 2010.06.25/outbox.cif.g09.slc.cpg/sg15_18_cif.got.tgz:35083.got - 2010.06.28 07:06:18.
