data_PCOD8136312
_publ_section_title
;
Structure prediction by ZEFSAII (Michael W. Deem and Ramdas Pophale) SiO2 
 PCOD8136312
Probable space group: C 2/C
;
_chemical_formula_sum "Si O2"
_cell_formula_units_Z 48
_cell_length_a 10.336942
_cell_length_b 30.890836
_cell_length_c 6.712424
_cell_angle_alpha 90.000000
_cell_angle_beta 120.506832
_cell_angle_gamma 90.000000
_cell_volume 1846.677268
_symmetry_space_group_name_H-M "C 2/C"
_symmetry_group_IT_number 15
_symmetry_cell_setting 'monoclinic'
loop_
_space_group_symop_operation_xyz
x,y,z
-x,y,1/2-z
-x,-y,-z
x,-y,1/2+z
1/2+x,1/2+y,z
1/2-x,1/2+y,1/2-z
1/2-x,1/2-y,-z
1/2+x,1/2-y,1/2+z
loop_
_atom_site_type_symbol
_atom_site_label
_atom_site_fract_x
_atom_site_fract_y
_atom_site_fract_z
Si Si1 0.176915 0.118735 0.603532
Si Si2 0.324515 0.202942 0.793828
Si Si3 0.822716 0.461654 0.080459
Si Si4 0.836876 0.135111 0.373860
Si Si5 0.856740 0.284137 0.849620
Si Si6 0.824766 0.442338 0.642869
O O1 0.282223 0.153032 0.796227
O O2 0.241558 0.068487 0.688356
O O3 0.188376 0.125224 0.376938
O O4 0.012904 0.130825 0.556467
O O5 0.194052 0.236318 0.756352
O O6 0.354817 0.210966 0.586004
O O7 0.464859 0.210341 0.054962
O O8 0.765191 0.511312 0.018763
O O9 0.000000 0.463205 0.250000
O O10 0.786154 0.440377 0.845149
O O11 0.755688 0.181502 0.347871
O O12 0.768521 0.100930 0.487470
O O13 0.000000 0.435602 0.750000
#
# Coordination Sequence:
#
# PCOD8136312 Si02
#       6
#     8   8   8   8   8   8
#     4   9  18  29  47  73 106 139 172 221 267 316
#     4   9  16  25  43  70 105 136 172 214 266 316
#     4  10  20  33  54  78 108 141 180 223 272 319
#     4   9  18  31  47  72 105 139 176 216 269 318
#     4   9  16  26  43  70 103 139 171 214 265 317
#     4  10  20  35  54  78 106 142 182 223 268 321
#
# _framework density 25.992629999999998
#
# number of rings (size 3 to 8) (size 9 to 14) (size 15 to 20)
#    0.000    2.667    0.000    3.000    7.000    4.667 
#    0.000    0.000    0.000    3.000    0.000    4.667 
#    0.000    0.000    0.000    0.000    0.000    0.000 
#
# Total GULP energy -297314.762916 kJ/mol
# GULP energy per Si atom -12388.115122 kJ/mol
# Density = 2.593347 g / cm^3
# Si number density = 25.992630 Si / 1000 Ang^3
#
#
#
# Elastic Constant Matrix: (Units=GPa)
#
#
# Indices 1 2 3 4 5 6 
#
# 1 100.6959 86.0064 23.7239 0.0000 45.9563 0.0000
# 2 86.0064 198.9225 26.6764 0.0000 33.2413 0.0000
# 3 23.7239 26.6764 42.3577 0.0000 17.9224 0.0000
# 4 0.0000 0.0000 0.0000 33.5253 0.0000 3.5796
# 5 45.9563 33.2413 17.9224 0.0000 43.7667 0.0000
# 6 0.0000 0.0000 0.0000 3.5796 0.0000 45.0288
#
#
#
# Elastic Compliance Matrix: (Units=1/GPa)
#
#
# Indices 1 2 3 4 5 6 
#
# 1 0.026759 -0.007811 -0.000834 0.000000 -0.021824 0.000000
# 2 -0.007811 0.008204 -0.001967 0.000000 0.002776 0.000000
# 3 -0.000834 -0.001967 0.029407 0.000000 -0.009673 0.000000
# 4 0.000000 0.000000 0.000000 0.030084 0.000000 -0.002392
# 5 -0.021824 0.002776 -0.009673 0.000000 0.047616 0.000000
# 6 0.000000 0.000000 0.000000 -0.002392 0.000000 0.022398
#
#
# Mechanical properties :
#
#
# Convention : Reuss Voigt Hill
#
# Bulk Modulus (GPa) = 23.17671 68.30993 45.74332
# Shear Modulus (GPa) = 24.99093 38.16878 31.57986
#
# Velocity S-wave (km/s) = 3.10411 3.83619 3.48940
# Velocity P-wave (km/s) = 4.66726 6.77933 5.81991
#
# Compressibility (1/GPa) = 0.04314676
#
# Stress axis : x y z
#
# Youngs Moduli (GPa) = 37.37112 121.89159 34.00571
#
# Poissons Ratio (x) = 0.95206 0.02836
# Poissons Ratio (y) = 0.29189 0.06688
# Poissons Ratio (z) = 0.03117 0.23972
#
# Static dielectric constant tensor:
#      x y z
#    x 4.732720 0.000000 -0.233090 
#    y 0.000000 5.081360 0.000000 
#    z -0.233090 0.000000 4.704730 
# 
# 
# High freq. dielectric constant tensor:
#      x y z
#    x 2.038380 0.000000 -0.032180 
#    y 0.000000 2.056640 0.000000 
#    z -0.032180 0.000000 2.061100 
# 
# From -- ./inp_files/33800.got.cif
#   From: 2010.06.25/outbox.cif.g09.slc.cpg/sg15_17_cif.got.tgz:33800.got - 2010.06.28 07:06:18.
