data_PCOD8136103
_publ_section_title
;
Structure prediction by ZEFSAII (Michael W. Deem and Ramdas Pophale) SiO2 
 PCOD8136103
Probable space group: C 2/C
;
_chemical_formula_sum "Si O2"
_cell_formula_units_Z 64
_cell_length_a 15.989844
_cell_length_b 33.998124
_cell_length_c 12.284509
_cell_angle_alpha 90.000000
_cell_angle_beta 147.029859
_cell_angle_gamma 90.000000
_cell_volume 3634.268713
_symmetry_space_group_name_H-M "C 2/C"
_symmetry_group_IT_number 15
_symmetry_cell_setting 'monoclinic'
loop_
_space_group_symop_operation_xyz
x,y,z
-x,y,1/2-z
-x,-y,-z
x,-y,1/2+z
1/2+x,1/2+y,z
1/2-x,1/2+y,1/2-z
1/2-x,1/2-y,-z
1/2+x,1/2-y,1/2+z
loop_
_atom_site_type_symbol
_atom_site_label
_atom_site_fract_x
_atom_site_fract_y
_atom_site_fract_z
Si Si1 0.306744 0.629729 0.452603
Si Si2 0.668502 0.505258 0.236630
Si Si3 0.639372 0.206526 0.264215
Si Si4 0.800854 0.716396 0.915635
Si Si5 0.143998 0.552295 0.226611
Si Si6 0.339228 0.973486 0.126177
Si Si7 0.806730 0.429589 0.306207
Si Si8 0.629893 0.639884 0.725608
O O1 0.190525 0.663084 0.282544
O O2 0.243506 0.585877 0.390289
O O3 0.447940 0.631997 0.520963
O O4 0.338451 0.637570 0.612372
O O5 0.765716 0.537366 0.279091
O O6 0.690409 0.520603 0.384549
O O7 0.744381 0.462653 0.319141
O O8 0.500000 0.500000 0.000000
O O9 0.737334 0.240800 0.312708
O O10 0.665362 0.212527 0.420119
O O11 0.463530 0.210470 0.033911
O O12 0.678163 0.683726 0.741561
O O13 0.114500 0.515500 0.272444
O O14 0.987902 0.573717 0.021516
O O15 0.500000 0.957780 0.250000
O O16 0.277610 0.942585 0.149086
O O17 0.721889 0.389481 0.246504
#
# Coordination Sequence:
#
# PCOD8136103 Si02
#       8
#     8   8   8   8   8   8   8   8
#     4  10  20  31  46  68 103 134 172 214 266 304
#     4  11  22  36  53  76 102 131 172 217 265 312
#     4   9  16  27  43  66  92 136 170 207 250 312
#     4   9  16  27  44  64  96 130 174 205 251 306
#     4  11  21  32  52  74  97 134 174 214 254 318
#     4  11  20  38  56  73 100 140 173 217 269 319
#     4  11  21  34  54  74  99 132 178 216 262 316
#     4  10  20  32  45  71 100 136 171 219 258 312
#
# _framework density 17.610144999999999
#
# number of rings (size 3 to 8) (size 9 to 14) (size 15 to 20)
#    0.000    1.750    2.500    3.750    0.000    7.000 
#    0.000    0.000    0.000    0.000    0.000    0.000 
#    0.000    1.000    0.250    1.250    0.000    3.500 
#
# Total GULP energy -396491.675090 kJ/mol
# GULP energy per Si atom -12390.364847 kJ/mol
# Density = 1.757006 g / cm^3
# Si number density = 17.610145 Si / 1000 Ang^3
#
#
#
# Elastic Constant Matrix: (Units=GPa)
#
#
# Indices 1 2 3 4 5 6 
#
# 1 71.7175 28.4775 29.0175 0.0000 13.5435 0.0000
# 2 28.4775 88.3456 0.4572 0.0000 10.0828 0.0000
# 3 29.0175 0.4572 70.6300 0.0000 12.1361 0.0000
# 4 0.0000 0.0000 0.0000 4.3210 0.0000 -6.5722
# 5 13.5435 10.0828 12.1361 0.0000 30.9553 0.0000
# 6 0.0000 0.0000 0.0000 -6.5722 0.0000 13.8525
#
#
#
# Elastic Compliance Matrix: (Units=1/GPa)
#
#
# Indices 1 2 3 4 5 6 
#
# 1 0.020119 -0.006003 -0.007560 0.000000 -0.003884 0.000000
# 2 -0.006003 0.013573 0.002881 0.000000 -0.002924 0.000000
# 3 -0.007560 0.002881 0.018055 0.000000 -0.004709 0.000000
# 4 0.000000 0.000000 0.000000 0.831299 0.000000 0.394399
# 5 -0.003884 -0.002924 -0.004709 0.000000 0.036802 0.000000
# 6 0.000000 0.000000 0.000000 0.394399 0.000000 0.259307
#
#
# Mechanical properties :
#
#
# Convention : Reuss Voigt Hill
#
# Bulk Modulus (GPa) = 32.91274 38.51081 35.71177
# Shear Modulus (GPa) = 4.13003 21.34183 12.73593
#
# Velocity S-wave (km/s) = 1.53308 3.48502 2.69218
# Velocity P-wave (km/s) = 4.67590 6.17332 5.47603
#
# Compressibility (1/GPa) = 0.03038338
#
# Stress axis : x y z
#
# Youngs Moduli (GPa) = 49.70350 73.67567 55.38758
#
# Poissons Ratio (x) = 0.44227 0.41871
# Poissons Ratio (y) = 0.29837 -0.15956
# Poissons Ratio (z) = 0.37574 -0.21225
#
# Static dielectric constant tensor:
#      x y z
#    x 3.170160 0.000000 0.189960 
#    y 0.000000 3.390130 0.000000 
#    z 0.189960 0.000000 3.048630 
# 
# 
# High freq. dielectric constant tensor:
#      x y z
#    x 1.661140 0.000000 0.037580 
#    y 0.000000 1.679250 0.000000 
#    z 0.037580 0.000000 1.659140 
# 
# From -- ./inp_files/101652.got.cif
#   From: 2010.06.25/outbox.cif.g09.slc.cpg/sg15_51_cif.got.tgz:101652.got - 2010.06.28 07:06:18.
