data_PCOD8136534
_publ_section_title
;
Structure prediction by ZEFSAII (Michael W. Deem and Ramdas Pophale) SiO2 
 PCOD8136534
Probable space group: C 2/C
;
_chemical_formula_sum "Si O2"
_cell_formula_units_Z 64
_cell_length_a 23.778733
_cell_length_b 16.240115
_cell_length_c 10.916389
_cell_angle_alpha 90.000000
_cell_angle_beta 41.596201
_cell_angle_gamma 90.000000
_cell_volume 2798.621676
_symmetry_space_group_name_H-M "C 2/C"
_symmetry_group_IT_number 15
_symmetry_cell_setting 'monoclinic'
loop_
_space_group_symop_operation_xyz
x,y,z
-x,y,1/2-z
-x,-y,-z
x,-y,1/2+z
1/2+x,1/2+y,z
1/2-x,1/2+y,1/2-z
1/2-x,1/2-y,-z
1/2+x,1/2-y,1/2+z
loop_
_atom_site_type_symbol
_atom_site_label
_atom_site_fract_x
_atom_site_fract_y
_atom_site_fract_z
Si Si1 0.649396 0.061940 0.568449
Si Si2 0.809151 0.112476 0.027891
Si Si3 0.054749 0.191570 0.545903
Si Si4 0.366091 0.825502 0.628476
Si Si5 0.467882 0.066229 0.146062
Si Si6 0.863882 0.642822 0.643955
Si Si7 0.719545 0.462970 0.285708
Si Si8 0.902220 0.148013 0.634353
O O1 0.610788 0.124770 0.531731
O O2 0.649009 0.109381 0.697545
O O3 0.588608 0.982042 0.663398
O O4 0.742078 0.026403 0.378968
O O5 0.733811 0.172727 0.187739
O O6 0.782823 0.015793 0.083221
O O7 0.886499 0.119924 0.996898
O O8 0.833045 0.140834 0.854121
O O9 0.118532 0.259431 0.383836
O O10 0.000000 0.227931 0.750000
O O11 0.996883 0.147820 0.535936
O O12 0.413543 0.862841 0.668654
O O13 0.393274 0.731045 0.570244
O O14 0.552989 0.107124 0.061657
O O15 0.500000 0.000000 0.000000
O O16 0.780790 0.616369 0.703650
O O17 0.624775 0.429534 0.407340
#
# Coordination Sequence:
#
# PCOD8136534 Si02
#       8
#     8   8   8   8   8   8   8   8
#     4  10  22  37  58  92 130 163 202 260 311 382
#     4  10  22  41  62  90 123 161 211 260 310 369
#     4  10  23  41  63  90 122 162 205 260 311 371
#     4  11  21  38  61  93 125 166 209 252 319 374
#     4  10  20  34  55  89 130 165 193 243 308 380
#     4  11  22  38  58  92 129 161 205 249 320 375
#     4  11  23  39  65  91 121 168 211 258 313 366
#     4  11  22  42  64  90 122 164 216 260 308 377
#
# _framework density 22.868400999999999
#
# number of rings (size 3 to 8) (size 9 to 14) (size 15 to 20)
#    0.000    1.500    1.250    5.625    1.750    5.500 
#    0.000    6.875    0.000    0.000    0.000    0.000 
#    0.000    0.000    0.000    0.000    0.000    0.000 
#
# Total GULP energy -396543.703011 kJ/mol
# GULP energy per Si atom -12391.990719 kJ/mol
# Density = 2.281635 g / cm^3
# Si number density = 22.868401 Si / 1000 Ang^3
#
#
#
# Elastic Constant Matrix: (Units=GPa)
#
#
# Indices 1 2 3 4 5 6 
#
# 1 94.1238 19.0669 7.5818 0.0000 -7.9386 0.0000
# 2 19.0669 83.6780 20.0992 0.0000 1.3015 0.0000
# 3 7.5818 20.0992 43.7363 0.0000 4.2842 0.0000
# 4 0.0000 0.0000 0.0000 28.3469 0.0000 2.5075
# 5 -7.9386 1.3015 4.2842 0.0000 30.5515 0.0000
# 6 0.0000 0.0000 0.0000 2.5075 0.0000 43.9301
#
#
#
# Elastic Compliance Matrix: (Units=1/GPa)
#
#
# Indices 1 2 3 4 5 6 
#
# 1 0.011478 -0.002373 -0.001218 0.000000 0.003254 0.000000
# 2 -0.002373 0.013927 -0.005952 0.000000 -0.000375 0.000000
# 3 -0.001218 -0.005952 0.026176 0.000000 -0.003734 0.000000
# 4 0.000000 0.000000 0.000000 0.035456 0.000000 -0.002024
# 5 0.003254 -0.000375 -0.003734 0.000000 0.034117 0.000000
# 6 0.000000 0.000000 0.000000 -0.002024 0.000000 0.022879
#
#
# Mechanical properties :
#
#
# Convention : Reuss Voigt Hill
#
# Bulk Modulus (GPa) = 30.77426 35.00376 32.88901
# Shear Modulus (GPa) = 28.74381 32.21838 30.48110
#
# Velocity S-wave (km/s) = 3.54916 3.75755 3.65484
# Velocity P-wave (km/s) = 5.50288 5.84512 5.67658
#
# Compressibility (1/GPa) = 0.03249468
#
# Stress axis : x y z
#
# Youngs Moduli (GPa) = 87.12576 71.80371 38.20246
#
# Poissons Ratio (x) = 0.17042 0.04652
# Poissons Ratio (y) = 0.20679 0.22738
# Poissons Ratio (z) = 0.10610 0.42737
#
# Static dielectric constant tensor:
#      x y z
#    x 3.927260 0.000000 -0.195440 
#    y 0.000000 4.134110 0.000000 
#    z -0.195440 0.000000 4.375490 
# 
# 
# High freq. dielectric constant tensor:
#      x y z
#    x 1.910150 0.000000 -0.005430 
#    y 0.000000 1.894840 0.000000 
#    z -0.005430 0.000000 1.883360 
# 
# From -- ./inp_files/123484.got.cif
#   From: 2010.06.25/outbox.cif.g09.slc.cpg/sg15_62_cif.got.tgz:123484.got - 2010.06.28 07:06:18.
