data_PCOD8136494
_publ_section_title
;
Structure prediction by ZEFSAII (Michael W. Deem and Ramdas Pophale) SiO2 
 PCOD8136494
Probable space group: C 2/C
;
_chemical_formula_sum "Si O2"
_cell_formula_units_Z 56
_cell_length_a 16.705816
_cell_length_b 22.209835
_cell_length_c 11.959791
_cell_angle_alpha 90.000000
_cell_angle_beta 38.363733
_cell_angle_gamma 90.000000
_cell_volume 2754.130354
_symmetry_space_group_name_H-M "C 2/C"
_symmetry_group_IT_number 15
_symmetry_cell_setting 'monoclinic'
loop_
_space_group_symop_operation_xyz
x,y,z
-x,y,1/2-z
-x,-y,-z
x,-y,1/2+z
1/2+x,1/2+y,z
1/2-x,1/2+y,1/2-z
1/2-x,1/2-y,-z
1/2+x,1/2-y,1/2+z
loop_
_atom_site_type_symbol
_atom_site_label
_atom_site_fract_x
_atom_site_fract_y
_atom_site_fract_z
Si Si1 0.464167 0.309752 0.978467
Si Si2 0.509845 0.823055 0.972190
Si Si3 0.846528 0.505634 0.166345
Si Si4 0.129727 0.409555 0.666888
Si Si5 0.614186 0.902940 0.052975
Si Si6 0.247315 0.618601 0.812281
Si Si7 0.687958 0.685644 0.081549
O O1 0.399738 0.318717 0.929704
O O2 0.614181 0.320472 0.782856
O O3 0.452376 0.246315 0.054631
O O4 0.394008 0.358551 0.134751
O O5 0.592807 0.850616 0.779511
O O6 0.546659 0.855078 0.046154
O O7 0.357099 0.831724 0.114623
O O8 0.806344 0.538884 0.325263
O O9 0.775699 0.442133 0.233965
O O10 0.809064 0.545877 0.099391
O O11 0.000000 0.500000 0.000000
O O12 0.234051 0.392683 0.459110
O O13 0.000000 0.434821 0.750000
O O14 0.500000 0.933582 0.250000
O O15 0.708821 0.868001 0.033374
O O16 0.750000 0.750000 0.000000
#
# Coordination Sequence:
#
# PCOD8136494 Si02
#       7
#     8   8   8   8   8   8   8
#     4  11  23  37  55  85 123 162 200 241 308 375
#     4  10  20  34  54  85 119 154 201 250 307 356
#     4  11  21  35  60  94 120 151 203 256 309 353
#     4   9  19  35  56  86 124 151 200 257 303 351
#     4  11  21  33  60  90 117 152 195 255 314 350
#     4  11  22  38  60  87 123 158 201 257 303 372
#     4  11  22  37  59  86 121 157 201 251 302 375
#
# _framework density 20.333096999999999
#
# number of rings (size 3 to 8) (size 9 to 14) (size 15 to 20)
#    0.000    1.429    5.714    2.571    2.000    0.571 
#    0.000    0.714    0.000    0.000    0.000    0.000 
#    0.000    0.000    0.000    0.000    0.000    0.000 
#
# Total GULP energy -347065.228575 kJ/mol
# GULP energy per Si atom -12395.186735 kJ/mol
# Density = 2.028682 g / cm^3
# Si number density = 20.333097 Si / 1000 Ang^3
#
#
#
# Elastic Constant Matrix: (Units=GPa)
#
#
# Indices 1 2 3 4 5 6 
#
# 1 55.8011 36.6129 27.4244 -0.0007 14.3148 0.0022
# 2 36.6129 119.6018 53.7763 0.0002 5.6268 -0.0003
# 3 27.4244 53.7763 143.0201 0.0000 10.3998 0.0003
# 4 -0.0007 0.0002 0.0000 18.8420 0.0001 -2.2779
# 5 14.3148 5.6268 10.3998 0.0001 27.7557 -0.0009
# 6 0.0022 -0.0003 0.0003 -2.2779 -0.0009 35.1911
#
#
#
# Elastic Compliance Matrix: (Units=1/GPa)
#
#
# Indices 1 2 3 4 5 6 
#
# 1 0.026068 -0.006701 -0.001645 0.000001 -0.011470 -0.000002
# 2 -0.006701 0.011796 -0.003318 0.000000 0.002308 0.000001
# 3 -0.001645 -0.003318 0.008681 0.000000 -0.001732 0.000000
# 4 0.000001 0.000000 0.000000 0.053491 0.000000 0.003462
# 5 -0.011470 0.002308 -0.001732 0.000000 0.042125 0.000002
# 6 -0.000002 0.000001 0.000000 0.003462 0.000002 0.028640
#
#
# Mechanical properties :
#
#
# Convention : Reuss Voigt Hill
#
# Bulk Modulus (GPa) = 43.07209 61.56113 52.31661
# Shear Modulus (GPa) = 24.76853 29.73172 27.25012
#
# Velocity S-wave (km/s) = 3.49397 3.82806 3.66483
# Velocity P-wave (km/s) = 6.12424 7.06263 6.61011
#
# Compressibility (1/GPa) = 0.02321689
#
# Stress axis : x y z
#
# Youngs Moduli (GPa) = 38.36074 84.77643 115.19362
#
# Poissons Ratio (x) = 0.56807 0.18950
# Poissons Ratio (y) = 0.25705 0.38223
# Poissons Ratio (z) = 0.06311 0.28130
#
# Static dielectric constant tensor:
#      x y z
#    x 3.701520 0.000000 0.087760 
#    y 0.000000 3.838630 0.000000 
#    z 0.087760 0.000000 4.118500 
# 
# 
# High freq. dielectric constant tensor:
#      x y z
#    x 1.773120 0.000000 0.028000 
#    y 0.000000 1.789530 0.000000 
#    z 0.028000 0.000000 1.788980 
# 
# From -- ./inp_files/107926.got.cif
#   From: 2010.06.25/outbox.cif.g09.slc.cpg/sg15_54_cif.got.tgz:107926.got - 2010.06.28 07:06:18.
