data_PCOD8136451
_publ_section_title
;
Structure prediction by ZEFSAII (Michael W. Deem and Ramdas Pophale) SiO2 
 PCOD8136451
Probable space group: C 2/C
;
_chemical_formula_sum "Si O2"
_cell_formula_units_Z 56
_cell_length_a 21.104079
_cell_length_b 13.156197
_cell_length_c 9.634994
_cell_angle_alpha 90.000000
_cell_angle_beta 92.416887
_cell_angle_gamma 90.000000
_cell_volume 2672.770809
_symmetry_space_group_name_H-M "C 2/C"
_symmetry_group_IT_number 15
_symmetry_cell_setting 'monoclinic'
loop_
_space_group_symop_operation_xyz
x,y,z
-x,y,1/2-z
-x,-y,-z
x,-y,1/2+z
1/2+x,1/2+y,z
1/2-x,1/2+y,1/2-z
1/2-x,1/2-y,-z
1/2+x,1/2-y,1/2+z
loop_
_atom_site_type_symbol
_atom_site_label
_atom_site_fract_x
_atom_site_fract_y
_atom_site_fract_z
Si Si1 0.926045 0.181216 0.779157
Si Si2 0.352263 0.233713 0.512020
Si Si3 0.742481 0.607948 0.117228
Si Si4 0.455113 0.529431 0.369540
Si Si5 0.929380 0.245556 0.295556
Si Si6 0.351109 0.766065 0.522986
Si Si7 0.743170 0.408313 0.943224
O O1 0.883990 0.195915 0.640667
O O2 0.000000 0.194593 0.750000
O O3 0.911070 0.066171 0.829296
O O4 0.906952 0.257911 0.900165
O O5 0.383352 0.236453 0.664336
O O6 0.304843 0.328057 0.493477
O O7 0.314563 0.128674 0.485190
O O8 0.815067 0.642634 0.097110
O O9 0.733894 0.578717 0.277498
O O10 0.697332 0.701450 0.075408
O O11 0.727530 0.513628 0.016423
O O12 0.500000 0.560201 0.250000
O O13 0.500000 0.500000 0.500000
O O14 0.417017 0.635264 0.373555
O O15 0.903988 0.315099 0.421357
O O16 0.000000 0.270659 0.250000
#
# Coordination Sequence:
#
# PCOD8136451 Si02
#       7
#     8   8   8   8   8   8   8
#     4  11  22  38  63  93 134 173 203 256 315 387
#     4  11  24  41  65  95 129 166 216 258 317 384
#     4  11  26  44  66  93 124 167 218 272 316 365
#     4  10  20  34  52  88 132 166 201 234 295 375
#     4  11  22  38  61  95 134 169 204 253 315 387
#     4  11  24  41  65  95 129 166 215 254 318 388
#     4  11  26  44  66  93 124 167 218 272 318 361
#
# _framework density 20.95204
#
# number of rings (size 3 to 8) (size 9 to 14) (size 15 to 20)
#    0.000    1.143    2.857    4.286    8.000    0.000 
#    0.000    0.000    0.000    5.143    0.000    0.000 
#    0.000    0.000    0.000    0.000    0.000    0.000 
#
# Total GULP energy -347043.807011 kJ/mol
# GULP energy per Si atom -12394.421679 kJ/mol
# Density = 2.090435 g / cm^3
# Si number density = 20.952040 Si / 1000 Ang^3
#
#
#
# Elastic Constant Matrix: (Units=GPa)
#
#
# Indices 1 2 3 4 5 6 
#
# 1 60.9277 4.7183 21.4848 0.0000 -8.7594 0.0000
# 2 4.7183 33.3394 12.4833 0.0000 -0.4363 0.0000
# 3 21.4848 12.4833 140.9940 0.0000 4.0464 0.0000
# 4 0.0000 0.0000 0.0000 26.5673 0.0000 2.2701
# 5 -8.7594 -0.4363 4.0464 0.0000 47.6617 0.0000
# 6 0.0000 0.0000 0.0000 2.2701 0.0000 23.0289
#
#
#
# Elastic Compliance Matrix: (Units=1/GPa)
#
#
# Indices 1 2 3 4 5 6 
#
# 1 0.017990 -0.001485 -0.002711 0.000000 0.003523 0.000000
# 2 -0.001485 0.031158 -0.002539 0.000000 0.000228 0.000000
# 3 -0.002711 -0.002539 0.007764 0.000000 -0.001181 0.000000
# 4 0.000000 0.000000 0.000000 0.037960 0.000000 -0.003742
# 5 0.003523 0.000228 -0.001181 0.000000 0.021731 0.000000
# 6 0.000000 0.000000 0.000000 -0.003742 0.000000 0.043792
#
#
# Mechanical properties :
#
#
# Convention : Reuss Voigt Hill
#
# Bulk Modulus (GPa) = 23.01855 34.73712 28.87783
# Shear Modulus (GPa) = 26.54672 32.55657 29.55165
#
# Velocity S-wave (km/s) = 3.56339 3.94618 3.75966
# Velocity P-wave (km/s) = 5.28587 6.11379 5.71485
#
# Compressibility (1/GPa) = 0.04344323
#
# Stress axis : x y z
#
# Youngs Moduli (GPa) = 55.58542 32.09416 128.79482
#
# Poissons Ratio (x) = 0.04766 0.34917
# Poissons Ratio (y) = 0.08254 0.32701
# Poissons Ratio (z) = 0.15069 0.08149
#
# Static dielectric constant tensor:
#      x y z
#    x 4.090340 0.000000 -0.255460 
#    y 0.000000 3.615570 0.000000 
#    z -0.255460 0.000000 3.996180 
# 
# 
# High freq. dielectric constant tensor:
#      x y z
#    x 1.831310 0.000000 -0.010960 
#    y 0.000000 1.777480 0.000000 
#    z -0.010960 0.000000 1.848190 
# 
# From -- ./inp_files/55620.got.cif
#   From: 2010.06.25/outbox.cif.g09.slc.cpg/sg15_28_cif.got.tgz:55620.got - 2010.06.28 07:06:18.
