data_PCOD8136780
_publ_section_title
;
Structure prediction by ZEFSAII (Michael W. Deem and Ramdas Pophale) SiO2 
 PCOD8136780
Probable space group: C 2/C
;
_chemical_formula_sum "Si O2"
_cell_formula_units_Z 48
_cell_length_a 12.044931
_cell_length_b 19.372323
_cell_length_c 15.633046
_cell_angle_alpha 90.000000
_cell_angle_beta 141.986759
_cell_angle_gamma 90.000000
_cell_volume 2246.466948
_symmetry_space_group_name_H-M "C 2/C"
_symmetry_group_IT_number 15
_symmetry_cell_setting 'monoclinic'
loop_
_space_group_symop_operation_xyz
x,y,z
-x,y,1/2-z
-x,-y,-z
x,-y,1/2+z
1/2+x,1/2+y,z
1/2-x,1/2+y,1/2-z
1/2-x,1/2-y,-z
1/2+x,1/2-y,1/2+z
loop_
_atom_site_type_symbol
_atom_site_label
_atom_site_fract_x
_atom_site_fract_y
_atom_site_fract_z
Si Si1 0.853336 0.797758 0.410712
Si Si2 0.276412 0.773670 0.355594
Si Si3 0.000000 0.233881 0.250000
Si Si4 0.767980 0.448567 0.888929
Si Si5 0.000000 0.660441 0.250000
Si Si6 0.543862 0.387958 0.892583
Si Si7 0.107699 0.404551 0.989757
O O1 0.809396 0.799215 0.284664
O O2 0.680110 0.779727 0.363683
O O3 0.912548 0.875154 0.480464
O O4 0.013242 0.743759 0.524254
O O5 0.169908 0.709197 0.331439
O O6 0.264193 0.840197 0.409434
O O7 0.027576 0.187095 0.182191
O O8 0.720189 0.404124 0.943624
O O9 0.610961 0.444736 0.720528
O O10 0.944699 0.414100 0.957436
O O11 0.779256 0.525754 0.931929
O O12 0.038939 0.608553 0.351850
#
# Coordination Sequence:
#
# PCOD8136780 Si02
#       7
#     8   8   4   8   4   8   8
#     4  12  23  39  67 102 138 165 219 268 353 391
#     4  12  25  43  66 102 133 176 218 287 328 399
#     4  10  20  34  64  98 134 172 202 278 342 406
#     4   9  22  44  67  87 135 172 225 266 331 386
#     4  12  26  44  70  94 140 172 238 268 340 386
#     4  10  20  39  64  97 128 171 209 277 329 404
#     4  11  23  45  66  93 128 186 217 279 322 401
#
# _framework density 21.366883999999999
#
# number of rings (size 3 to 8) (size 9 to 14) (size 15 to 20)
#    0.000    1.333    3.333    4.000    2.333    1.333 
#    6.000    0.833    0.000    0.000    0.000    0.000 
#    0.000    0.000    0.000    0.000    0.000    0.000 
#
# Total GULP energy -297442.588331 kJ/mol
# GULP energy per Si atom -12393.441180 kJ/mol
# Density = 2.131825 g / cm^3
# Si number density = 21.366884 Si / 1000 Ang^3
#
#
#
# Elastic Constant Matrix: (Units=GPa)
#
#
# Indices 1 2 3 4 5 6 
#
# 1 44.0764 27.8524 35.7867 0.0000 -2.6819 -0.0002
# 2 27.8524 117.6284 66.7943 -0.0002 -10.0441 -0.0002
# 3 35.7867 66.7943 125.7854 -0.0006 -14.8803 -0.0006
# 4 0.0000 -0.0002 -0.0006 48.5740 -0.0003 3.5388
# 5 -2.6819 -10.0441 -14.8803 -0.0003 38.2245 -0.0003
# 6 -0.0002 -0.0002 -0.0006 3.5388 -0.0003 23.0423
#
#
#
# Elastic Compliance Matrix: (Units=1/GPa)
#
#
# Indices 1 2 3 4 5 6 
#
# 1 0.030437 -0.003317 -0.007074 0.000000 -0.001490 0.000000
# 2 -0.003317 0.012552 -0.005617 0.000000 0.000879 0.000000
# 3 -0.007074 -0.005617 0.013326 0.000000 0.003215 0.000000
# 4 0.000000 0.000000 0.000000 0.020820 0.000000 -0.003197
# 5 -0.001490 0.000879 0.003215 0.000000 0.027539 0.000000
# 6 0.000000 0.000000 0.000000 -0.003197 0.000000 0.043889
#
#
# Mechanical properties :
#
#
# Convention : Reuss Voigt Hill
#
# Bulk Modulus (GPa) = 41.15735 60.92855 51.04295
# Shear Modulus (GPa) = 26.49980 32.43861 29.46920
#
# Velocity S-wave (km/s) = 3.52551 3.90060 3.71779
# Velocity P-wave (km/s) = 5.98968 6.99025 6.50922
#
# Compressibility (1/GPa) = 0.02429700
#
# Stress axis : x y z
#
# Youngs Moduli (GPa) = 32.85451 79.67091 75.04071
#
# Poissons Ratio (x) = 0.26428 0.53087
# Poissons Ratio (y) = 0.10898 0.42154
# Poissons Ratio (z) = 0.23243 0.44755
#
# Static dielectric constant tensor:
#      x y z
#    x 3.813570 0.000000 0.010470 
#    y 0.000000 3.811380 0.000000 
#    z 0.010470 0.000000 4.165480 
# 
# 
# High freq. dielectric constant tensor:
#      x y z
#    x 1.838470 0.000000 0.004130 
#    y 0.000000 1.822330 0.000000 
#    z 0.004130 0.000000 1.843970 
# 
# From -- ./inp_files/147494.got.cif
#   From: 2010.06.25/outbox.cif.g09.slc.cpg/sg15_74_cif.got.tgz:147494.got - 2010.06.28 07:06:18.
