data_PCOD8136868
_publ_section_title
;
Structure prediction by ZEFSAII (Michael W. Deem and Ramdas Pophale) SiO2 
 PCOD8136868
Probable space group: C 2/C
;
_chemical_formula_sum "Si O2"
_cell_formula_units_Z 56
_cell_length_a 15.034768
_cell_length_b 27.146161
_cell_length_c 8.473893
_cell_angle_alpha 90.000000
_cell_angle_beta 126.776515
_cell_angle_gamma 90.000000
_cell_volume 2770.180609
_symmetry_space_group_name_H-M "C 2/C"
_symmetry_group_IT_number 15
_symmetry_cell_setting 'monoclinic'
loop_
_space_group_symop_operation_xyz
x,y,z
-x,y,1/2-z
-x,-y,-z
x,-y,1/2+z
1/2+x,1/2+y,z
1/2-x,1/2+y,1/2-z
1/2-x,1/2-y,-z
1/2+x,1/2-y,1/2+z
loop_
_atom_site_type_symbol
_atom_site_label
_atom_site_fract_x
_atom_site_fract_y
_atom_site_fract_z
Si Si1 0.243175 0.548404 0.668013
Si Si2 0.107147 0.866130 0.259030
Si Si3 0.304116 0.950188 0.745036
Si Si4 0.471557 0.189065 0.535551
Si Si5 0.978508 0.795033 0.910595
Si Si6 0.526196 0.916427 0.094248
Si Si7 0.263731 0.342749 0.807085
O O1 0.349115 0.584953 0.785522
O O2 0.270968 0.492989 0.754759
O O3 0.198473 0.546594 0.444693
O O4 0.149285 0.565213 0.691680
O O5 0.203414 0.842421 0.471969
O O6 0.000000 0.881153 0.250000
O O7 0.076682 0.825384 0.098112
O O8 0.255855 0.899391 0.763427
O O9 0.435168 0.953285 0.923119
O O10 0.500000 0.188051 0.750000
O O11 0.523704 0.239371 0.519680
O O12 0.519905 0.138774 0.511168
O O13 0.341331 0.190454 0.351197
O O14 0.000000 0.792111 0.750000
O O15 0.862344 0.821369 0.808678
O O16 0.500000 0.913653 0.250000
#
# Coordination Sequence:
#
# PCOD8136868 Si02
#       7
#     8   8   8   8   8   8   8
#     4  11  21  36  59  81 111 149 187 236 285 334
#     4   9  21  41  58  81 115 151 195 238 281 337
#     4  10  21  36  54  81 112 148 187 227 286 341
#     4   9  20  35  56  86 115 148 188 230 282 342
#     4  10  21  36  58  85 110 146 194 240 285 334
#     4  10  20  35  55  83 117 148 185 229 280 344
#     4   9  20  40  56  76 119 152 181 238 287 336
#
# _framework density 20.215288000000001
#
# number of rings (size 3 to 8) (size 9 to 14) (size 15 to 20)
#    0.000    2.286    0.000    1.714    0.000    8.571 
#    0.000   18.571    0.000    0.000    0.000    0.000 
#    0.000    0.000    0.000    0.000    0.000    0.000 
#
# Total GULP energy -347039.363330 kJ/mol
# GULP energy per Si atom -12394.262976 kJ/mol
# Density = 2.016928 g / cm^3
# Si number density = 20.215288 Si / 1000 Ang^3
#
#
#
# Elastic Constant Matrix: (Units=GPa)
#
#
# Indices 1 2 3 4 5 6 
#
# 1 69.8811 37.4995 20.0327 0.0000 -2.1632 0.0000
# 2 37.4995 116.7315 24.7704 0.0000 -0.8695 0.0000
# 3 20.0327 24.7704 87.0845 0.0000 11.9534 0.0000
# 4 0.0000 0.0000 0.0000 17.5123 0.0000 10.9248
# 5 -2.1632 -0.8695 11.9534 0.0000 25.2485 0.0000
# 6 0.0000 0.0000 0.0000 10.9248 0.0000 14.9558
#
#
#
# Elastic Compliance Matrix: (Units=1/GPa)
#
#
# Indices 1 2 3 4 5 6 
#
# 1 0.018026 -0.005116 -0.003079 0.000000 0.002826 0.000000
# 2 -0.005116 0.010634 -0.001966 0.000000 0.000858 0.000000
# 3 -0.003079 -0.001966 0.013685 0.000000 -0.006811 0.000000
# 4 0.000000 0.000000 0.000000 0.104909 0.000000 -0.076633
# 5 0.002826 0.000858 -0.006811 0.000000 0.043102 0.000000
# 6 0.000000 0.000000 0.000000 -0.076633 0.000000 0.122842
#
#
# Mechanical properties :
#
#
# Convention : Reuss Voigt Hill
#
# Bulk Modulus (GPa) = 45.40761 48.70025 47.05393
# Shear Modulus (GPa) = 14.66871 24.30296 19.48584
#
# Velocity S-wave (km/s) = 2.69666 3.47105 3.10807
# Velocity P-wave (km/s) = 5.67510 6.34092 6.01723
#
# Compressibility (1/GPa) = 0.02202274
#
# Stress axis : x y z
#
# Youngs Moduli (GPa) = 55.47638 94.04046 73.07080
#
# Poissons Ratio (x) = 0.48113 0.22500
# Poissons Ratio (y) = 0.28383 0.14363
# Poissons Ratio (z) = 0.17082 0.18484
#
# Static dielectric constant tensor:
#      x y z
#    x 3.367020 0.000000 0.101520 
#    y 0.000000 4.257370 0.000000 
#    z 0.101520 0.000000 3.780330 
# 
# 
# High freq. dielectric constant tensor:
#      x y z
#    x 1.761120 0.000000 0.000770 
#    y 0.000000 1.807080 0.000000 
#    z 0.000770 0.000000 1.794450 
# 
# From -- ./inp_files/35773.got.cif
#   From: 2010.06.25/outbox.cif.g09.slc.cpg/sg15_18_cif.got.tgz:35773.got - 2010.06.28 07:06:18.
