data_PCOD8136966
_publ_section_title
;
Structure prediction by ZEFSAII (Michael W. Deem and Ramdas Pophale) SiO2 
 PCOD8136966
Probable space group: C 2/C
;
_chemical_formula_sum "Si O2"
_cell_formula_units_Z 64
_cell_length_a 11.360924
_cell_length_b 21.799889
_cell_length_c 23.360291
_cell_angle_alpha 90.000000
_cell_angle_beta 150.099142
_cell_angle_gamma 90.000000
_cell_volume 2884.111037
_symmetry_space_group_name_H-M "C 2/C"
_symmetry_group_IT_number 15
_symmetry_cell_setting 'monoclinic'
loop_
_space_group_symop_operation_xyz
x,y,z
-x,y,1/2-z
-x,-y,-z
x,-y,1/2+z
1/2+x,1/2+y,z
1/2-x,1/2+y,1/2-z
1/2-x,1/2-y,-z
1/2+x,1/2-y,1/2+z
loop_
_atom_site_type_symbol
_atom_site_label
_atom_site_fract_x
_atom_site_fract_y
_atom_site_fract_z
Si Si1 0.669825 0.499672 0.018479
Si Si2 0.658294 0.697633 0.577504
Si Si3 0.857013 0.331302 0.275349
Si Si4 0.396003 0.817665 0.012355
Si Si5 0.501413 0.373165 0.586301
Si Si6 0.937473 0.944315 0.317239
Si Si7 0.930246 0.430388 0.485024
Si Si8 0.366764 0.942397 0.809861
O O1 0.936605 0.521121 0.144872
O O2 0.500000 0.500000 0.000000
O O3 0.667931 0.432487 0.989684
O O4 0.564433 0.549636 0.931507
O O5 0.657851 0.695544 0.647250
O O6 0.627914 0.768622 0.548288
O O7 0.456443 0.657227 0.459571
O O8 0.898758 0.665863 0.656414
O O9 0.773776 0.396668 0.263847
O O10 0.913495 0.294854 0.358742
O O11 0.139187 0.824083 0.933893
O O12 0.463840 0.883540 0.015583
O O13 0.751197 0.390382 0.720550
O O14 0.144682 0.923950 0.360620
O O15 0.829209 0.009003 0.251545
O O16 0.000000 0.500000 0.500000
O O17 0.025752 0.411802 0.588092
#
# Coordination Sequence:
#
# PCOD8136966 Si02
#       8
#     8   8   8   8   8   8   8   8
#     4  10  20  35  57  90 125 160 201 248 305 371
#     4  10  22  39  62  91 117 157 208 256 300 361
#     4  10  20  38  62  84 118 157 198 252 304 361
#     4  11  23  39  62  91 119 159 211 251 301 371
#     4  10  20  36  59  88 123 157 204 252 299 365
#     4  10  21  36  58  89 122 164 207 241 303 374
#     4  11  23  39  59  91 129 162 203 255 309 370
#     4  10  21  35  57  90 126 160 197 255 307 354
#
# _framework density 22.190545
#
# number of rings (size 3 to 8) (size 9 to 14) (size 15 to 20)
#    0.000    1.750    0.000    6.750    0.000    9.500 
#    0.000    0.625    0.000    9.000    0.000    0.000 
#    0.000    0.000    0.000    0.000    0.000    0.000 
#
# Total GULP energy -396476.392268 kJ/mol
# GULP energy per Si atom -12389.887258 kJ/mol
# Density = 2.214004 g / cm^3
# Si number density = 22.190545 Si / 1000 Ang^3
#
#
#
# Elastic Constant Matrix: (Units=GPa)
#
#
# Indices 1 2 3 4 5 6 
#
# 1 60.7509 18.3660 35.0895 0.0002 -7.4525 0.0003
# 2 18.3660 79.4314 42.6372 0.0025 -9.0452 0.0008
# 3 35.0895 42.6372 132.3259 0.0032 -21.0298 0.0025
# 4 0.0002 0.0025 0.0032 25.8978 0.0035 -5.0182
# 5 -7.4525 -9.0452 -21.0298 0.0035 34.8967 0.0002
# 6 0.0003 0.0008 0.0025 -5.0182 0.0002 25.6074
#
#
#
# Elastic Compliance Matrix: (Units=1/GPa)
#
#
# Indices 1 2 3 4 5 6 
#
# 1 0.019762 -0.002088 -0.004405 0.000001 0.001025 0.000000
# 2 -0.002088 0.015481 -0.004277 -0.000001 0.000989 0.000000
# 3 -0.004405 -0.004277 0.010813 -0.000002 0.004467 -0.000001
# 4 0.000001 -0.000001 -0.000002 0.040137 -0.000005 0.007866
# 5 0.001025 0.000989 0.004467 -0.000005 0.031823 -0.000002
# 6 0.000000 0.000000 -0.000001 0.007866 -0.000002 0.040593
#
#
# Mechanical properties :
#
#
# Convention : Reuss Voigt Hill
#
# Bulk Modulus (GPa) = 40.79029 51.63263 46.21146
# Shear Modulus (GPa) = 26.55039 29.04141 27.79590
#
# Velocity S-wave (km/s) = 3.46276 3.62156 3.54305
# Velocity P-wave (km/s) = 5.86595 6.38795 6.13251
#
# Compressibility (1/GPa) = 0.02451564
#
# Stress axis : x y z
#
# Youngs Moduli (GPa) = 50.60275 64.59587 92.47973
#
# Poissons Ratio (x) = 0.13490 0.40734
# Poissons Ratio (y) = 0.10567 0.39555
# Poissons Ratio (z) = 0.22288 0.27629
#
# Static dielectric constant tensor:
#      x y z
#    x 4.193440 -0.000060 -0.139680 
#    y -0.000060 3.689060 -0.000040 
#    z -0.139680 -0.000040 4.677320 
# 
# 
# High freq. dielectric constant tensor:
#      x y z
#    x 1.851350 0.000000 -0.023500 
#    y 0.000000 1.853600 0.000000 
#    z -0.023500 0.000000 1.886730 
# 
# From -- ./inp_files/271221.got.cif
#   From: 2010.06.25/outbox.cif.g09.slc.cpg/sg15_136_cif.got.tgz:271221.got - 2010.06.28 07:06:18.
