data_PCOD8136846
_publ_section_title
;
Structure prediction by ZEFSAII (Michael W. Deem and Ramdas Pophale) SiO2 
 PCOD8136846
Probable space group: C 2/C
;
_chemical_formula_sum "Si O2"
_cell_formula_units_Z 56
_cell_length_a 21.054966
_cell_length_b 18.661698
_cell_length_c 8.308001
_cell_angle_alpha 90.000000
_cell_angle_beta 119.348590
_cell_angle_gamma 90.000000
_cell_volume 2845.419719
_symmetry_space_group_name_H-M "C 2/C"
_symmetry_group_IT_number 15
_symmetry_cell_setting 'monoclinic'
loop_
_space_group_symop_operation_xyz
x,y,z
-x,y,1/2-z
-x,-y,-z
x,-y,1/2+z
1/2+x,1/2+y,z
1/2-x,1/2+y,1/2-z
1/2-x,1/2-y,-z
1/2+x,1/2-y,1/2+z
loop_
_atom_site_type_symbol
_atom_site_label
_atom_site_fract_x
_atom_site_fract_y
_atom_site_fract_z
Si Si1 0.691177 0.550750 0.253820
Si Si2 0.770662 0.313451 0.799898
Si Si3 0.708098 0.402290 0.136354
Si Si4 0.930207 0.874169 0.060895
Si Si5 0.016389 0.754999 0.585048
Si Si6 0.334617 0.198097 0.713308
Si Si7 0.869679 0.784213 0.263286
O O1 0.750829 0.603550 0.244786
O O2 0.715446 0.468634 0.268157
O O3 0.682755 0.570713 0.430247
O O4 0.615347 0.558385 0.061086
O O5 0.697053 0.274618 0.768545
O O6 0.805002 0.275603 0.683452
O O7 0.831199 0.305576 0.015308
O O8 0.788515 0.366948 0.231968
O O9 0.648932 0.345022 0.126285
O O10 0.877347 0.821622 0.099863
O O11 0.000000 0.901346 0.250000
O O12 0.956676 0.832860 0.936562
O O13 0.079942 0.695718 0.629708
O O14 0.000000 0.759039 0.750000
O O15 0.943305 0.739671 0.393543
#
# Coordination Sequence:
#
# PCOD8136846 Si02
#       7
#     8   8   8   8   8   8   8
#     4  11  20  38  56  76 112 153 182 225 273 327
#     4   9  17  32  58  80 108 138 188 228 276 324
#     4  10  22  37  58  83 114 146 192 224 273 332
#     4  10  22  35  52  84 118 141 183 226 279 334
#     4  11  18  33  58  82 109 146 182 225 278 321
#     4   9  17  33  55  85 107 141 186 232 267 330
#     4  10  20  35  54  87 113 140 182 234 275 332
#
# _framework density 19.680751000000001
#
# number of rings (size 3 to 8) (size 9 to 14) (size 15 to 20)
#    0.000    2.000    2.857    2.571    0.000    0.571 
#    2.571    7.143    0.000    0.857    0.000    0.000 
#    0.000    0.000    0.000    0.000    0.000    0.000 
#
# Total GULP energy -347045.995306 kJ/mol
# GULP energy per Si atom -12394.499832 kJ/mol
# Density = 1.963596 g / cm^3
# Si number density = 19.680751 Si / 1000 Ang^3
#
#
#
# Elastic Constant Matrix: (Units=GPa)
#
#
# Indices 1 2 3 4 5 6 
#
# 1 83.8327 25.8149 22.3515 0.0000 13.7726 0.0000
# 2 25.8149 61.9467 10.5942 0.0000 19.2591 0.0000
# 3 22.3515 10.5942 59.1146 0.0000 13.0244 0.0000
# 4 0.0000 0.0000 0.0000 21.2773 0.0000 -0.1979
# 5 13.7726 19.2591 13.0244 0.0000 23.4642 0.0000
# 6 0.0000 0.0000 0.0000 -0.1979 0.0000 24.1768
#
#
#
# Elastic Compliance Matrix: (Units=1/GPa)
#
#
# Indices 1 2 3 4 5 6 
#
# 1 0.014925 -0.004703 -0.004239 0.000000 -0.002548 0.000000
# 2 -0.004703 0.023155 0.001376 0.000000 -0.017009 0.000000
# 3 -0.004239 0.001376 0.020478 0.000000 -0.010008 0.000000
# 4 0.000000 0.000000 0.000000 0.047002 0.000000 0.000385
# 5 -0.002548 -0.017009 -0.010008 0.000000 0.063629 0.000000
# 6 0.000000 0.000000 0.000000 0.000385 0.000000 0.041365
#
#
# Mechanical properties :
#
#
# Convention : Reuss Voigt Hill
#
# Bulk Modulus (GPa) = 23.02767 35.82393 29.42580
# Shear Modulus (GPa) = 20.81923 23.52589 22.17256
#
# Velocity S-wave (km/s) = 3.25598 3.46117 3.36014
# Velocity P-wave (km/s) = 5.08540 5.84936 5.48070
#
# Compressibility (1/GPa) = 0.04342602
#
# Stress axis : x y z
#
# Youngs Moduli (GPa) = 66.99944 43.18637 48.83399
#
# Poissons Ratio (x) = 0.20310 0.20702
# Poissons Ratio (y) = 0.31509 -0.06719
# Poissons Ratio (z) = 0.28403 -0.05942
#
# Static dielectric constant tensor:
#      x y z
#    x 3.827580 0.000000 -0.002010 
#    y 0.000000 3.365780 0.000000 
#    z -0.002010 0.000000 3.574570 
# 
# 
# High freq. dielectric constant tensor:
#      x y z
#    x 1.771350 0.000000 -0.005820 
#    y 0.000000 1.728610 0.000000 
#    z -0.005820 0.000000 1.767830 
# 
# From -- ./inp_files/56706.got.cif
#   From: 2010.06.25/outbox.cif.g09.slc.cpg/sg15_29_cif.got.tgz:56706.got - 2010.06.28 07:06:18.
