data_PCOD8136730
_publ_section_title
;
Structure prediction by ZEFSAII (Michael W. Deem and Ramdas Pophale) SiO2 
 PCOD8136730
Probable space group: C 2/C
;
_chemical_formula_sum "Si O2"
_cell_formula_units_Z 52
_cell_length_a 14.993179
_cell_length_b 29.253814
_cell_length_c 8.401025
_cell_angle_alpha 90.000000
_cell_angle_beta 46.318353
_cell_angle_gamma 90.000000
_cell_volume 2664.771395
_symmetry_space_group_name_H-M "C 2/C"
_symmetry_group_IT_number 15
_symmetry_cell_setting 'monoclinic'
loop_
_space_group_symop_operation_xyz
x,y,z
-x,y,1/2-z
-x,-y,-z
x,-y,1/2+z
1/2+x,1/2+y,z
1/2-x,1/2+y,1/2-z
1/2-x,1/2-y,-z
1/2+x,1/2-y,1/2+z
loop_
_atom_site_type_symbol
_atom_site_label
_atom_site_fract_x
_atom_site_fract_y
_atom_site_fract_z
Si Si1 0.960700 0.799557 0.115284
Si Si2 0.693049 0.643441 0.301594
Si Si3 0.500000 0.838611 0.750000
Si Si4 0.766528 0.127447 0.904103
Si Si5 0.362299 0.542704 0.614889
Si Si6 0.561807 0.203436 0.501436
Si Si7 0.363226 0.549901 0.245774
O O1 0.832943 0.827317 0.254865
O O2 0.000000 0.786330 0.250000
O O3 0.927652 0.757316 0.041709
O O4 0.071459 0.828543 0.899605
O O5 0.670797 0.621048 0.501685
O O6 0.711098 0.597823 0.174311
O O7 0.806556 0.678399 0.154094
O O8 0.621363 0.868642 0.608685
O O9 0.512704 0.811727 0.565684
O O10 0.779260 0.084095 0.776285
O O11 0.369997 0.539576 0.419900
O O12 0.501824 0.552247 0.504827
O O13 0.299576 0.495037 0.748853
O O14 0.500000 0.193409 0.750000
#
# Coordination Sequence:
#
# PCOD8136730 Si02
#       7
#     8   8   4   8   8   8   8
#     4  10  21  38  62  87 121 158 203 252 304 356
#     4  10  22  38  60  88 121 156 202 248 300 360
#     4  10  24  42  60  82 128 156 214 242 306 364
#     4  10  21  38  62  86 117 164 193 252 304 358
#     4  10  20  34  61  88 125 154 190 250 306 354
#     4  11  25  40  61  87 121 167 203 252 299 358
#     4  10  20  35  57  95 121 151 198 246 302 364
#
# _framework density 19.513869
#
# number of rings (size 3 to 8) (size 9 to 14) (size 15 to 20)
#    0.000    1.846    2.308    0.923    4.308    4.923 
#    0.000    0.000    1.692    2.769    0.000    0.000 
#    0.000    0.000    0.000    0.000    0.000    0.000 
#
# Total GULP energy -322099.677012 kJ/mol
# GULP energy per Si atom -12388.449116 kJ/mol
# Density = 1.946945 g / cm^3
# Si number density = 19.513869 Si / 1000 Ang^3
#
#
#
# Elastic Constant Matrix: (Units=GPa)
#
#
# Indices 1 2 3 4 5 6 
#
# 1 64.3549 46.2916 34.1929 0.0000 1.7261 0.0000
# 2 46.2916 135.6937 46.5592 0.0000 3.3280 0.0000
# 3 34.1929 46.5592 91.9611 0.0000 5.9774 0.0000
# 4 0.0000 0.0000 0.0000 22.0815 0.0000 11.7868
# 5 1.7261 3.3280 5.9774 0.0000 33.5597 0.0000
# 6 0.0000 0.0000 0.0000 11.7868 0.0000 30.1530
#
#
#
# Elastic Compliance Matrix: (Units=1/GPa)
#
#
# Indices 1 2 3 4 5 6 
#
# 1 0.022655 -0.005857 -0.005484 0.000000 0.000392 0.000000
# 2 -0.005857 0.010433 -0.003093 0.000000 -0.000183 0.000000
# 3 -0.005484 -0.003093 0.014610 0.000000 -0.002013 0.000000
# 4 0.000000 0.000000 0.000000 0.057228 0.000000 -0.022370
# 5 0.000392 -0.000183 -0.002013 0.000000 0.030154 0.000000
# 6 0.000000 0.000000 0.000000 -0.022370 0.000000 0.041909
#
#
# Mechanical properties :
#
#
# Convention : Reuss Voigt Hill
#
# Bulk Modulus (GPa) = 53.10284 60.67743 56.89013
# Shear Modulus (GPa) = 23.57025 28.15658 25.86341
#
# Velocity S-wave (km/s) = 3.47922 3.80267 3.64453
# Velocity P-wave (km/s) = 6.58877 7.10229 6.85034
#
# Compressibility (1/GPa) = 0.01883139
#
# Stress axis : x y z
#
# Youngs Moduli (GPa) = 44.14098 95.84806 68.44701
#
# Poissons Ratio (x) = 0.56135 0.37535
# Poissons Ratio (y) = 0.25852 0.21169
# Poissons Ratio (z) = 0.24206 0.29644
#
# Static dielectric constant tensor:
#      x y z
#    x 3.461140 0.000000 0.162940 
#    y 0.000000 3.585550 0.000000 
#    z 0.162940 0.000000 3.470550 
# 
# 
# High freq. dielectric constant tensor:
#      x y z
#    x 1.746970 0.000000 0.016630 
#    y 0.000000 1.767270 0.000000 
#    z 0.016630 0.000000 1.748310 
# 
# From -- ./inp_files/44761.got.cif
#   From: 2010.06.25/outbox.cif.g09.slc.cpg/sg15_23_cif.got.tgz:44761.got - 2010.06.28 07:06:18.
