data_PCOD8136656
_publ_section_title
;
Structure prediction by ZEFSAII (Michael W. Deem and Ramdas Pophale) SiO2 
 PCOD8136656
Probable space group: C 2/C
;
_chemical_formula_sum "Si O2"
_cell_formula_units_Z 48
_cell_length_a 24.186027
_cell_length_b 9.167342
_cell_length_c 12.503637
_cell_angle_alpha 90.000000
_cell_angle_beta 117.645216
_cell_angle_gamma 90.000000
_cell_volume 2455.830992
_symmetry_space_group_name_H-M "C 2/C"
_symmetry_group_IT_number 15
_symmetry_cell_setting 'monoclinic'
loop_
_space_group_symop_operation_xyz
x,y,z
-x,y,1/2-z
-x,-y,-z
x,-y,1/2+z
1/2+x,1/2+y,z
1/2-x,1/2+y,1/2-z
1/2-x,1/2-y,-z
1/2+x,1/2-y,1/2+z
loop_
_atom_site_type_symbol
_atom_site_label
_atom_site_fract_x
_atom_site_fract_y
_atom_site_fract_z
Si Si1 0.637926 0.229777 0.155649
Si Si2 0.072406 0.774331 0.324101
Si Si3 0.274431 0.109803 0.579246
Si Si4 0.347993 0.483740 0.965585
Si Si5 0.137961 0.472117 0.998100
Si Si6 0.782011 0.737019 0.808833
O O1 0.599122 0.249273 0.229038
O O2 0.627690 0.366619 0.066129
O O3 0.710299 0.213233 0.253554
O O4 0.616514 0.082984 0.073086
O O5 0.101720 0.916854 0.407586
O O6 0.081742 0.632080 0.408329
O O7 0.000000 0.806963 0.250000
O O8 0.250000 0.250000 0.500000
O O9 0.296081 0.146817 0.716485
O O10 0.216514 0.998086 0.525821
O O11 0.338035 0.059489 0.582348
O O12 0.329371 0.374357 0.852410
O O13 0.198352 0.373332 0.079911
#
# Coordination Sequence:
#
# PCOD8136656 Si02
#       6
#     8   8   8   8   8   8
#     4  11  21  37  62  85 119 150 192 239 296 347
#     4  11  26  43  58  80 116 161 209 245 273 325
#     4  11  20  32  61  92 122 142 176 232 298 365
#     4  10  22  37  61  89 119 152 188 236 297 349
#     4  11  21  38  59  89 119 155 189 233 294 351
#     4  10  20  34  58  93 125 147 177 233 301 362
#
# _framework density 19.545318000000002
#
# number of rings (size 3 to 8) (size 9 to 14) (size 15 to 20)
#    0.000    1.333    3.333    5.000    2.333    4.000 
#    0.000    0.833    0.000    0.000    0.000    0.000 
#    0.000    0.000    0.000    0.000    0.000    0.000 
#
# Total GULP energy -297471.057374 kJ/mol
# GULP energy per Si atom -12394.627391 kJ/mol
# Density = 1.950083 g / cm^3
# Si number density = 19.545318 Si / 1000 Ang^3
#
#
#
# Elastic Constant Matrix: (Units=GPa)
#
#
# Indices 1 2 3 4 5 6 
#
# 1 65.4275 30.9418 58.8020 0.0000 2.6656 0.0000
# 2 30.9418 106.9728 44.4569 0.0000 9.1043 0.0000
# 3 58.8020 44.4569 99.2031 0.0000 6.7998 0.0000
# 4 0.0000 0.0000 0.0000 28.5911 0.0000 -1.4753
# 5 2.6656 9.1043 6.7998 0.0000 27.3927 0.0000
# 6 0.0000 0.0000 0.0000 -1.4753 0.0000 14.2838
#
#
#
# Elastic Compliance Matrix: (Units=1/GPa)
#
#
# Indices 1 2 3 4 5 6 
#
# 1 0.033086 -0.001891 -0.018908 0.000000 0.002103 0.000000
# 2 -0.001891 0.011778 -0.003969 0.000000 -0.002745 0.000000
# 3 -0.018908 -0.003969 0.023246 0.000000 -0.002611 0.000000
# 4 0.000000 0.000000 0.000000 0.035163 0.000000 0.003632
# 5 0.002103 -0.002745 -0.002611 0.000000 0.037862 0.000000
# 6 0.000000 0.000000 0.000000 0.003632 0.000000 0.070385
#
#
# Mechanical properties :
#
#
# Convention : Reuss Voigt Hill
#
# Bulk Modulus (GPa) = 53.84080 60.00052 56.92066
# Shear Modulus (GPa) = 18.70912 23.21369 20.96141
#
# Velocity S-wave (km/s) = 3.09725 3.45002 3.27838
# Velocity P-wave (km/s) = 6.35587 6.82898 6.59667
#
# Compressibility (1/GPa) = 0.01857327
#
# Stress axis : x y z
#
# Youngs Moduli (GPa) = 30.22392 84.90117 43.01826
#
# Poissons Ratio (x) = 0.16055 0.81341
# Poissons Ratio (y) = 0.05715 0.17075
# Poissons Ratio (z) = 0.57149 0.33700
#
# Static dielectric constant tensor:
#      x y z
#    x 3.149340 0.000000 -0.072000 
#    y 0.000000 3.891590 0.000000 
#    z -0.072000 0.000000 3.615470 
# 
# 
# High freq. dielectric constant tensor:
#      x y z
#    x 1.717440 0.000000 -0.013830 
#    y 0.000000 1.782400 0.000000 
#    z -0.013830 0.000000 1.772100 
# 
# From -- ./inp_files/116725.got.cif
#   From: 2010.06.25/outbox.cif.g09.slc.cpg/sg15_59_cif.got.tgz:116725.got - 2010.06.28 07:06:18.
