data_PCOD8136245
_publ_section_title
;
Structure prediction by ZEFSAII (Michael W. Deem and Ramdas Pophale) SiO2 
 PCOD8136245
Probable space group: C 2/C
;
_chemical_formula_sum "Si O2"
_cell_formula_units_Z 48
_cell_length_a 12.471396
_cell_length_b 17.934578
_cell_length_c 9.980851
_cell_angle_alpha 90.000000
_cell_angle_beta 79.538628
_cell_angle_gamma 90.000000
_cell_volume 2195.301079
_symmetry_space_group_name_H-M "C 2/C"
_symmetry_group_IT_number 15
_symmetry_cell_setting 'monoclinic'
loop_
_space_group_symop_operation_xyz
x,y,z
-x,y,1/2-z
-x,-y,-z
x,-y,1/2+z
1/2+x,1/2+y,z
1/2-x,1/2+y,1/2-z
1/2-x,1/2-y,-z
1/2+x,1/2-y,1/2+z
loop_
_atom_site_type_symbol
_atom_site_label
_atom_site_fract_x
_atom_site_fract_y
_atom_site_fract_z
Si Si1 0.734989 0.461021 0.670765
Si Si2 0.000000 0.186466 0.250000
Si Si3 0.547840 0.638111 0.521744
Si Si4 0.149704 0.272776 0.612242
Si Si5 0.787324 0.428090 0.940721
Si Si6 0.733497 0.712362 0.146091
Si Si7 0.000000 0.972091 0.250000
O O1 0.789996 0.474423 0.802455
O O2 0.804756 0.514843 0.558055
O O3 0.745758 0.375967 0.622703
O O4 0.606447 0.478238 0.704963
O O5 0.993532 0.137658 0.387652
O O6 0.111953 0.234090 0.228393
O O7 0.547673 0.720277 0.593304
O O8 0.670976 0.611348 0.479906
O O9 0.478288 0.580376 0.625816
O O10 0.250000 0.250000 0.500000
O O11 0.123591 0.360574 0.586790
O O12 0.179582 0.259996 0.762818
O O13 0.750000 0.750000 0.000000
#
# Coordination Sequence:
#
# PCOD8136245 Si02
#       7
#     8   4   8   8   8   8   4
#     4  10  20  33  49  84 114 155 193 229 299 361
#     4  12  21  38  56  88 119 160 206 256 291 350
#     4  10  21  34  56  81 123 163 192 235 299 367
#     4   9  17  39  51  76 117 164 199 233 291 350
#     4   9  19  32  52  75 115 155 189 238 285 353
#     4  11  24  37  59  83 124 159 205 253 295 359
#     4  10  23  32  56  90 125 162 180 228 319 386
#
# _framework density 21.864884
#
# number of rings (size 3 to 8) (size 9 to 14) (size 15 to 20)
#    0.000    2.000    5.000    0.500    4.667    4.000 
#    0.000    0.000    0.000    0.000    0.000    2.333 
#    0.000    0.000    0.000    0.000    0.000    0.000 
#
# Total GULP energy -297427.817170 kJ/mol
# GULP energy per Si atom -12392.825715 kJ/mol
# Density = 2.181512 g / cm^3
# Si number density = 21.864884 Si / 1000 Ang^3
#
#
#
# Elastic Constant Matrix: (Units=GPa)
#
#
# Indices 1 2 3 4 5 6 
#
# 1 18.5594 16.9821 10.4038 0.0000 1.7388 0.0000
# 2 16.9821 112.2370 75.6863 0.0000 13.7159 0.0000
# 3 10.4038 75.6863 183.3179 0.0000 15.2582 0.0000
# 4 0.0000 0.0000 0.0000 40.8587 0.0000 2.4270
# 5 1.7388 13.7159 15.2582 0.0000 21.5310 0.0000
# 6 0.0000 0.0000 0.0000 2.4270 0.0000 9.6612
#
#
#
# Elastic Compliance Matrix: (Units=1/GPa)
#
#
# Indices 1 2 3 4 5 6 
#
# 1 0.062589 -0.009889 0.000454 0.000000 0.000923 0.000000
# 2 -0.009889 0.014338 -0.004957 0.000000 -0.004822 0.000000
# 3 0.000454 -0.004957 0.007668 0.000000 -0.002313 0.000000
# 4 0.000000 0.000000 0.000000 0.024845 0.000000 -0.006241
# 5 0.000923 -0.004822 -0.002313 0.000000 0.051081 0.000000
# 6 0.000000 0.000000 0.000000 -0.006241 0.000000 0.105074
#
#
# Mechanical properties :
#
#
# Convention : Reuss Voigt Hill
#
# Bulk Modulus (GPa) = 17.91766 57.80649 37.86208
# Shear Modulus (GPa) = 15.97525 28.47966 22.22746
#
# Velocity S-wave (km/s) = 2.70596 3.61297 3.19185
# Velocity P-wave (km/s) = 4.23975 6.62572 5.56218
#
# Compressibility (1/GPa) = 0.05581085
#
# Stress axis : x y z
#
# Youngs Moduli (GPa) = 15.97731 69.74423 130.40473
#
# Poissons Ratio (x) = 0.68970 -0.05919
# Poissons Ratio (y) = 0.15800 0.64644
# Poissons Ratio (z) = -0.00725 0.34573
#
# Static dielectric constant tensor:
#      x y z
#    x 4.087380 0.000000 -0.188460 
#    y 0.000000 4.712000 0.000000 
#    z -0.188460 0.000000 4.537300 
# 
# 
# High freq. dielectric constant tensor:
#      x y z
#    x 1.803190 0.000000 0.003460 
#    y 0.000000 1.856590 0.000000 
#    z 0.003460 0.000000 1.882560 
# 
# From -- ./inp_files/39675.got.cif
#   From: 2010.06.25/outbox.cif.g09.slc.cpg/sg15_20_cif.got.tgz:39675.got - 2010.06.28 07:06:18.
