data_PCOD8136558
_publ_section_title
;
Structure prediction by ZEFSAII (Michael W. Deem and Ramdas Pophale) SiO2 
 PCOD8136558
Probable space group: C 2/C
;
_chemical_formula_sum "Si O2"
_cell_formula_units_Z 36
_cell_length_a 8.326150
_cell_length_b 20.240480
_cell_length_c 17.958153
_cell_angle_alpha 90.000000
_cell_angle_beta 145.790374
_cell_angle_gamma 90.000000
_cell_volume 1701.511119
_symmetry_space_group_name_H-M "C 2/C"
_symmetry_group_IT_number 15
_symmetry_cell_setting 'monoclinic'
loop_
_space_group_symop_operation_xyz
x,y,z
-x,y,1/2-z
-x,-y,-z
x,-y,1/2+z
1/2+x,1/2+y,z
1/2-x,1/2+y,1/2-z
1/2-x,1/2-y,-z
1/2+x,1/2-y,1/2+z
loop_
_atom_site_type_symbol
_atom_site_label
_atom_site_fract_x
_atom_site_fract_y
_atom_site_fract_z
Si Si1 0.081028 0.817671 0.433496
Si Si2 0.500000 0.728881 0.750000
Si Si3 0.930643 0.194021 0.030343
Si Si4 0.859494 0.448936 0.581141
Si Si5 0.559030 0.554727 0.124431
O O1 0.250000 0.750000 0.500000
O O2 0.930396 0.818398 0.294381
O O3 0.302969 0.878092 0.522513
O O4 0.845391 0.821796 0.410740
O O5 0.752279 0.779978 0.859126
O O6 0.927298 0.128596 0.080087
O O7 0.750000 0.250000 0.000000
O O8 0.708768 0.504581 0.471474
O O9 0.717529 0.453026 0.607205
O O10 0.203801 0.458961 0.720026
#
# Coordination Sequence:
#
# PCOD8136558 Si02
#       5
#     8   4   8   8   8
#     4   9  18  34  56  79 108 148 187 232 284 334
#     4  10  20  36  56  78 114 150 190 240 284 336
#     4  10  20  34  56  85 114 147 190 235 288 345
#     4   9  17  31  53  79 112 148 185 230 283 341
#     4   9  17  31  52  82 113 145 185 232 285 343
#
# _framework density 21.157665000000001
#
# number of rings (size 3 to 8) (size 9 to 14) (size 15 to 20)
#    0.000    2.667    0.000    4.000    0.000    2.667 
#    0.000    4.444    0.000   14.667    0.000    0.000 
#    0.000    0.000    0.000    0.000    0.000    0.000 
#
# Total GULP energy -223002.642372 kJ/mol
# GULP energy per Si atom -12389.035687 kJ/mol
# Density = 2.110951 g / cm^3
# Si number density = 21.157665 Si / 1000 Ang^3
#
#
#
# Elastic Constant Matrix: (Units=GPa)
#
#
# Indices 1 2 3 4 5 6 
#
# 1 54.4907 35.3692 29.7208 -0.0012 -7.1620 -0.0011
# 2 35.3692 171.6497 84.7720 -0.0024 13.2122 -0.0010
# 3 29.7208 84.7720 105.8813 -0.0034 -11.4718 -0.0017
# 4 -0.0012 -0.0024 -0.0034 35.0247 -0.0015 5.5763
# 5 -7.1620 13.2122 -11.4718 -0.0015 27.6948 -0.0011
# 6 -0.0011 -0.0010 -0.0017 5.5763 -0.0011 23.5805
#
#
#
# Elastic Compliance Matrix: (Units=1/GPa)
#
#
# Indices 1 2 3 4 5 6 
#
# 1 0.023289 -0.004094 -0.002507 0.000000 0.006937 0.000001
# 2 -0.004094 0.012510 -0.010081 -0.000001 -0.011203 -0.000001
# 3 -0.002507 -0.010081 0.019547 0.000001 0.012258 0.000001
# 4 0.000000 -0.000001 0.000001 0.029668 0.000002 -0.007016
# 5 0.006937 -0.011203 0.012258 0.000002 0.048324 0.000002
# 6 0.000001 -0.000001 0.000001 -0.007016 0.000002 0.044067
#
#
# Mechanical properties :
#
#
# Convention : Reuss Voigt Hill
#
# Bulk Modulus (GPa) = 45.49276 70.19398 57.84337
# Shear Modulus (GPa) = 22.92558 29.40397 26.16478
#
# Velocity S-wave (km/s) = 3.29532 3.73199 3.52043
# Velocity P-wave (km/s) = 6.00227 7.19854 6.62745
#
# Compressibility (1/GPa) = 0.02198152
#
# Stress axis : x y z
#
# Youngs Moduli (GPa) = 42.93913 79.93464 51.15812
#
# Poissons Ratio (x) = 0.32729 0.12827
# Poissons Ratio (y) = 0.17581 0.51570
# Poissons Ratio (z) = 0.10767 0.80579
#
# Static dielectric constant tensor:
#      x y z
#    x 3.632560 0.000000 -0.647710 
#    y 0.000000 3.920920 -0.000010 
#    z -0.647710 -0.000010 4.393470 
# 
# 
# High freq. dielectric constant tensor:
#      x y z
#    x 1.782840 0.000000 -0.012260 
#    y 0.000000 1.834620 0.000000 
#    z -0.012260 0.000000 1.827480 
# 
# From -- ./inp_files/191841.got.cif
#   From: 2010.06.25/outbox.cif.g09.slc.cpg/sg15_96_cif.got.tgz:191841.got - 2010.06.28 07:06:18.
