data_PCOD8136209
_publ_section_title
;
Structure prediction by ZEFSAII (Michael W. Deem and Ramdas Pophale) SiO2 
 PCOD8136209
Probable space group: C 2/C
;
_chemical_formula_sum "Si O2"
_cell_formula_units_Z 40
_cell_length_a 12.385545
_cell_length_b 20.209219
_cell_length_c 10.145373
_cell_angle_alpha 90.000000
_cell_angle_beta 44.703497
_cell_angle_gamma 90.000000
_cell_volume 1786.317069
_symmetry_space_group_name_H-M "C 2/C"
_symmetry_group_IT_number 15
_symmetry_cell_setting 'monoclinic'
loop_
_space_group_symop_operation_xyz
x,y,z
-x,y,1/2-z
-x,-y,-z
x,-y,1/2+z
1/2+x,1/2+y,z
1/2-x,1/2+y,1/2-z
1/2-x,1/2-y,-z
1/2+x,1/2-y,1/2+z
loop_
_atom_site_type_symbol
_atom_site_label
_atom_site_fract_x
_atom_site_fract_y
_atom_site_fract_z
Si Si1 0.819114 0.045260 0.548384
Si Si2 0.676464 0.561261 0.251975
Si Si3 0.713438 0.303553 0.869570
Si Si4 0.500000 0.241940 0.250000
Si Si5 0.215681 0.811447 0.378032
Si Si6 0.000000 0.748269 0.750000
O O1 0.750682 0.048180 0.457291
O O2 0.774404 0.111653 0.666270
O O3 0.001481 0.040804 0.386122
O O4 0.751081 0.984688 0.694529
O O5 0.703164 0.637197 0.273159
O O6 0.863766 0.309573 0.831562
O O7 0.748391 0.232165 0.777757
O O8 0.454778 0.296036 0.912388
O O9 0.443987 0.293855 0.412201
O O10 0.351723 0.797544 0.364009
#
# Coordination Sequence:
#
# PCOD8136209 Si02
#       6
#     8   8   8   4   8   4
#     4  10  21  36  58  89 122 159 202 249 303 362
#     4  10  21  37  59  88 123 161 202 249 302 362
#     4  11  22  39  61  87 121 160 203 252 304 363
#     4  10  24  38  58  90 122 158 202 252 310 362
#     4  11  20  36  60  88 117 153 198 250 301 357
#     4  10  20  32  58  90 116 140 192 254 302 346
#
# _framework density 22.392440000000001
#
# number of rings (size 3 to 8) (size 9 to 14) (size 15 to 20)
#    0.000    1.600    0.000    7.200    0.000    6.400 
#    0.000    1.000    0.000    7.200    0.000    0.000 
#    0.000    0.000    0.000    0.000    0.000    0.000 
#
# Total GULP energy -247808.155361 kJ/mol
# GULP energy per Si atom -12390.407768 kJ/mol
# Density = 2.234147 g / cm^3
# Si number density = 22.392440 Si / 1000 Ang^3
#
#
#
# Elastic Constant Matrix: (Units=GPa)
#
#
# Indices 1 2 3 4 5 6 
#
# 1 40.6827 36.1310 34.1340 0.0000 21.3553 0.0000
# 2 36.1310 128.7399 56.2644 0.0000 20.3488 0.0000
# 3 34.1340 56.2644 125.1892 0.0000 21.6597 0.0000
# 4 0.0000 0.0000 0.0000 30.5285 0.0000 10.5573
# 5 21.3553 20.3488 21.6597 0.0000 42.7364 0.0000
# 6 0.0000 0.0000 0.0000 10.5573 0.0000 32.8343
#
#
#
# Elastic Compliance Matrix: (Units=1/GPa)
#
#
# Indices 1 2 3 4 5 6 
#
# 1 0.044407 -0.007323 -0.006117 0.000000 -0.015603 0.000000
# 2 -0.007323 0.011152 -0.002992 0.000000 -0.000134 0.000000
# 3 -0.006117 -0.002992 0.011208 0.000000 -0.001199 0.000000
# 4 0.000000 0.000000 0.000000 0.036854 0.000000 -0.011850
# 5 -0.015603 -0.000134 -0.001199 0.000000 0.031868 0.000000
# 6 0.000000 0.000000 0.000000 -0.011850 0.000000 0.034266
#
#
# Mechanical properties :
#
#
# Convention : Reuss Voigt Hill
#
# Bulk Modulus (GPa) = 29.49675 60.85227 45.17451
# Shear Modulus (GPa) = 23.37318 32.42534 27.89926
#
# Velocity S-wave (km/s) = 3.23429 3.80945 3.53359
# Velocity P-wave (km/s) = 5.21045 6.82522 6.07175
#
# Compressibility (1/GPa) = 0.03390204
#
# Stress axis : x y z
#
# Youngs Moduli (GPa) = 22.51883 89.67247 89.22215
#
# Poissons Ratio (x) = 0.65670 0.54579
# Poissons Ratio (y) = 0.16491 0.26695
# Poissons Ratio (z) = 0.13775 0.26830
#
# Static dielectric constant tensor:
#      x y z
#    x 4.515510 0.000000 0.092200 
#    y 0.000000 3.924370 0.000000 
#    z 0.092200 0.000000 4.089630 
# 
# 
# High freq. dielectric constant tensor:
#      x y z
#    x 1.885740 0.000000 0.016040 
#    y 0.000000 1.862950 0.000000 
#    z 0.016040 0.000000 1.869480 
# 
# From -- ./inp_files/77699.got.cif
#   From: 2010.06.25/outbox.cif.g09.slc.cpg/sg15_39_cif.got.tgz:77699.got - 2010.06.28 07:06:18.
