data_PCOD8136672
_publ_section_title
;
Structure prediction by ZEFSAII (Michael W. Deem and Ramdas Pophale) SiO2 
 PCOD8136672
Probable space group: C 2/C
;
_chemical_formula_sum "Si O2"
_cell_formula_units_Z 52
_cell_length_a 28.594837
_cell_length_b 4.879854
_cell_length_c 16.147631
_cell_angle_alpha 90.000000
_cell_angle_beta 91.765182
_cell_angle_gamma 90.000000
_cell_volume 2252.149069
_symmetry_space_group_name_H-M "C 2/C"
_symmetry_group_IT_number 15
_symmetry_cell_setting 'monoclinic'
loop_
_space_group_symop_operation_xyz
x,y,z
-x,y,1/2-z
-x,-y,-z
x,-y,1/2+z
1/2+x,1/2+y,z
1/2-x,1/2+y,1/2-z
1/2-x,1/2-y,-z
1/2+x,1/2-y,1/2+z
loop_
_atom_site_type_symbol
_atom_site_label
_atom_site_fract_x
_atom_site_fract_y
_atom_site_fract_z
Si Si1 0.755356 0.414174 0.302975
Si Si2 0.081676 0.955423 0.963524
Si Si3 0.000000 0.298155 0.250000
Si Si4 0.157052 0.026576 0.333050
Si Si5 0.528151 0.044048 0.410426
Si Si6 0.354632 0.028303 0.282262
Si Si7 0.435879 0.231110 0.883166
O O1 0.745536 0.592584 0.218801
O O2 0.711838 0.482054 0.361766
O O3 0.807359 0.497756 0.336465
O O4 0.128401 0.024691 0.915419
O O5 0.038111 0.134380 0.924766
O O6 0.069090 0.637282 0.955382
O O7 0.088014 0.040216 0.060336
O O8 0.968913 0.492107 0.188415
O O9 0.963788 0.126393 0.306569
O O10 0.141326 0.828980 0.256767
O O11 0.147828 0.327786 0.297039
O O12 0.475315 0.948746 0.437742
O O13 0.397517 0.977361 0.346275
#
# Coordination Sequence:
#
# PCOD8136672 Si02
#       7
#     8   8   4   8   8   8   8
#     4   8  16  32  55  79 106 136 175 219 266 316
#     4  12  22  38  56  78 115 142 180 220 274 317
#     4   8  20  38  54  76 102 134 190 208 264 298
#     4  10  20  34  59  83 106 142 179 221 272 318
#     4  10  24  39  54  79 107 150 178 224 263 321
#     4  10  20  38  56  82 109 140 182 224 261 320
#     4  10  22  38  55  82 107 149 179 225 265 319
#
# _framework density 23.089057
#
# number of rings (size 3 to 8) (size 9 to 14) (size 15 to 20)
#    0.923    1.231    0.000    3.692    0.000    3.077 
#    0.000    0.769    0.000    0.000    0.000   15.077 
#    0.000    0.000    0.000    0.000    0.000    0.000 
#
# Total GULP energy -322151.402671 kJ/mol
# GULP energy per Si atom -12390.438564 kJ/mol
# Density = 2.303651 g / cm^3
# Si number density = 23.089057 Si / 1000 Ang^3
#
#
#
# Elastic Constant Matrix: (Units=GPa)
#
#
# Indices 1 2 3 4 5 6 
#
# 1 149.8941 4.8245 38.9321 0.0000 -22.7032 0.0000
# 2 4.8245 58.3931 5.1830 0.0000 -4.9350 0.0000
# 3 38.9321 5.1830 77.8866 0.0000 -27.0046 0.0000
# 4 0.0000 0.0000 0.0000 11.0764 0.0000 -9.1035
# 5 -22.7032 -4.9350 -27.0046 0.0000 27.9394 0.0000
# 6 0.0000 0.0000 0.0000 -9.1035 0.0000 23.8359
#
#
#
# Elastic Compliance Matrix: (Units=1/GPa)
#
#
# Indices 1 2 3 4 5 6 
#
# 1 0.007945 -0.000094 -0.002606 0.000000 0.003921 0.000000
# 2 -0.000094 0.017387 -0.000108 0.000000 0.002891 0.000000
# 3 -0.002606 -0.000108 0.020166 0.000000 0.017355 0.000000
# 4 0.000000 0.000000 0.000000 0.131587 0.000000 0.050256
# 5 0.003921 0.002891 0.017355 0.000000 0.056263 0.000000
# 6 0.000000 0.000000 0.000000 0.050256 0.000000 0.061148
#
#
# Mechanical properties :
#
#
# Convention : Reuss Voigt Hill
#
# Bulk Modulus (GPa) = 25.07316 42.67255 33.87286
# Shear Modulus (GPa) = 15.95379 28.38595 22.16987
#
# Velocity S-wave (km/s) = 2.63148 3.51010 3.10205
# Velocity P-wave (km/s) = 4.48506 5.91182 5.24716
#
# Compressibility (1/GPa) = 0.03988329
#
# Stress axis : x y z
#
# Youngs Moduli (GPa) = 125.86456 57.51452 49.58814
#
# Poissons Ratio (x) = 0.00539 0.12921
# Poissons Ratio (y) = 0.01180 0.00535
# Poissons Ratio (z) = 0.32796 0.00621
#
# Static dielectric constant tensor:
#      x y z
#    x 4.422070 0.000000 -0.245910 
#    y 0.000000 3.853020 0.000000 
#    z -0.245910 0.000000 3.929700 
# 
# 
# High freq. dielectric constant tensor:
#      x y z
#    x 1.917860 0.000000 -0.022920 
#    y 0.000000 1.906040 0.000000 
#    z -0.022920 0.000000 1.881820 
# 
# From -- ./inp_files/223432.got.cif
#   From: 2010.06.25/outbox.cif.g09.slc.cpg/sg15_112_cif.got.tgz:223432.got - 2010.06.28 07:06:18.
