data_PCOD8136257
_publ_section_title
;
Structure prediction by ZEFSAII (Michael W. Deem and Ramdas Pophale) SiO2 
 PCOD8136257
Probable space group: C 2/C
;
_chemical_formula_sum "Si O2"
_cell_formula_units_Z 60
_cell_length_a 13.765514
_cell_length_b 23.352915
_cell_length_c 12.526316
_cell_angle_alpha 90.000000
_cell_angle_beta 124.339427
_cell_angle_gamma 90.000000
_cell_volume 3324.946078
_symmetry_space_group_name_H-M "C 2/C"
_symmetry_group_IT_number 15
_symmetry_cell_setting 'monoclinic'
loop_
_space_group_symop_operation_xyz
x,y,z
-x,y,1/2-z
-x,-y,-z
x,-y,1/2+z
1/2+x,1/2+y,z
1/2-x,1/2+y,1/2-z
1/2-x,1/2-y,-z
1/2+x,1/2-y,1/2+z
loop_
_atom_site_type_symbol
_atom_site_label
_atom_site_fract_x
_atom_site_fract_y
_atom_site_fract_z
Si Si1 0.000000 0.045011 0.250000
Si Si2 0.821501 0.199550 0.594617
Si Si3 0.449173 0.840090 0.835830
Si Si4 0.817393 0.974477 0.260367
Si Si5 0.059527 0.785761 0.124490
Si Si6 0.831681 0.407339 0.488255
Si Si7 0.252229 0.421114 0.849392
Si Si8 0.522180 0.396650 0.987833
O O1 0.965299 0.085484 0.128369
O O2 0.106497 0.002828 0.286776
O O3 0.750000 0.250000 0.500000
O O4 0.829169 0.206586 0.727713
O O5 0.749311 0.144156 0.521916
O O6 0.947146 0.193683 0.619670
O O7 0.500000 0.822666 0.750000
O O8 0.445897 0.782248 0.907123
O O9 0.320714 0.868269 0.747953
O O10 0.534724 0.886260 0.945868
O O11 0.716327 0.934424 0.149251
O O12 0.899895 0.939450 0.392295
O O13 0.743597 0.023791 0.270129
O O14 0.067707 0.830357 0.029784
O O15 0.812580 0.445127 0.583155
O O16 0.388167 0.402281 0.944502
#
# Coordination Sequence:
#
# PCOD8136257 Si02
#       8
#     4   8   8   8   8   8   8   8
#     4  10  22  36  52  76 108 136 174 224 270 314
#     4  11  18  30  49  79 115 135 161 212 266 318
#     4  10  20  33  50  80 110 141 170 208 266 320
#     4  11  21  35  55  79 103 136 179 222 265 314
#     4  11  20  29  51  82 111 134 168 212 268 327
#     4  11  19  32  52  78 111 137 172 213 260 317
#     4  10  21  34  51  76 109 142 172 212 267 313
#     4  11  21  35  55  81 104 137 176 219 274 315
#
# _framework density 18.045404999999999
#
# number of rings (size 3 to 8) (size 9 to 14) (size 15 to 20)
#    0.000    1.333    5.333    4.000    0.000    0.533 
#    0.000    0.000    0.000    3.200    3.467    0.000 
#    0.000    0.000    0.000    0.000    0.000    0.000 
#
# Total GULP energy -371761.532570 kJ/mol
# GULP energy per Si atom -12392.051086 kJ/mol
# Density = 1.800433 g / cm^3
# Si number density = 18.045405 Si / 1000 Ang^3
#
#
#
# Elastic Constant Matrix: (Units=GPa)
#
#
# Indices 1 2 3 4 5 6 
#
# 1 38.5477 25.5366 22.9155 0.0000 -0.1594 0.0000
# 2 25.5366 111.0534 48.3132 0.0000 -3.4755 0.0000
# 3 22.9155 48.3132 106.4712 0.0000 0.5884 0.0000
# 4 0.0000 0.0000 0.0000 41.5911 0.0000 2.9596
# 5 -0.1594 -3.4755 0.5884 0.0000 20.8315 0.0000
# 6 0.0000 0.0000 0.0000 2.9596 0.0000 19.5050
#
#
#
# Elastic Compliance Matrix: (Units=1/GPa)
#
#
# Indices 1 2 3 4 5 6 
#
# 1 0.032218 -0.005495 -0.004438 0.000000 -0.000545 0.000000
# 2 -0.005495 0.012242 -0.004384 0.000000 0.002124 0.000000
# 3 -0.004438 -0.004384 0.012343 0.000000 -0.001114 0.000000
# 4 0.000000 0.000000 0.000000 0.024306 0.000000 -0.003688
# 5 -0.000545 0.002124 -0.001114 0.000000 0.048386 0.000000
# 6 0.000000 0.000000 0.000000 -0.003688 0.000000 0.051828
#
#
# Mechanical properties :
#
#
# Convention : Reuss Voigt Hill
#
# Bulk Modulus (GPa) = 35.49968 49.95589 42.72778
# Shear Modulus (GPa) = 22.79497 27.00599 24.90048
#
# Velocity S-wave (km/s) = 3.55801 3.87273 3.71870
# Velocity P-wave (km/s) = 6.04933 6.90948 6.49366
#
# Compressibility (1/GPa) = 0.02816927
#
# Stress axis : x y z
#
# Youngs Moduli (GPa) = 31.03855 81.68611 81.01846
#
# Poissons Ratio (x) = 0.44886 0.35954
# Poissons Ratio (y) = 0.17055 0.35519
# Poissons Ratio (z) = 0.13774 0.35812
#
# Static dielectric constant tensor:
#      x y z
#    x 3.098890 0.000000 0.225460 
#    y 0.000000 3.558850 0.000000 
#    z 0.225460 0.000000 3.518710 
# 
# 
# High freq. dielectric constant tensor:
#      x y z
#    x 1.656830 0.000000 0.027430 
#    y 0.000000 1.706570 0.000000 
#    z 0.027430 0.000000 1.701830 
# 
# From -- ./inp_files/99830.got.cif
#   From: 2010.06.25/outbox.cif.g09.slc.cpg/sg15_50_cif.got.tgz:99830.got - 2010.06.28 07:06:18.
