data_PCOD8136405
_publ_section_title
;
Structure prediction by ZEFSAII (Michael W. Deem and Ramdas Pophale) SiO2 
 PCOD8136405
Probable space group: C 2/C
;
_chemical_formula_sum "Si O2"
_cell_formula_units_Z 36
_cell_length_a 13.906211
_cell_length_b 27.624708
_cell_length_c 5.316946
_cell_angle_alpha 90.000000
_cell_angle_beta 124.209355
_cell_angle_gamma 90.000000
_cell_volume 1689.150641
_symmetry_space_group_name_H-M "C 2/C"
_symmetry_group_IT_number 15
_symmetry_cell_setting 'monoclinic'
loop_
_space_group_symop_operation_xyz
x,y,z
-x,y,1/2-z
-x,-y,-z
x,-y,1/2+z
1/2+x,1/2+y,z
1/2-x,1/2+y,1/2-z
1/2-x,1/2-y,-z
1/2+x,1/2-y,1/2+z
loop_
_atom_site_type_symbol
_atom_site_label
_atom_site_fract_x
_atom_site_fract_y
_atom_site_fract_z
Si Si1 0.131288 0.020366 0.698368
Si Si2 0.623449 0.226643 0.613883
Si Si3 0.692190 0.195746 0.213396
Si Si4 0.118495 0.131519 0.771282
Si Si5 0.500000 0.301835 0.750000
O O1 0.142518 0.077806 0.713025
O O2 0.194645 0.000738 0.540100
O O3 0.000000 0.000000 0.500000
O O4 0.595701 0.201194 0.299580
O O5 0.748893 0.251531 0.743232
O O6 0.534935 0.269417 0.560910
O O7 0.629806 0.186896 0.850703
O O8 0.778037 0.151603 0.402792
O O9 0.106372 0.164736 0.503613
O O10 0.000000 0.132415 0.750000
#
# Coordination Sequence:
#
# PCOD8136405 Si02
#       5
#     8   8   8   8   4
#     4  10  20  34  46  66  98 123 160 201 240 269
#     4  10  21  35  48  66  98 125 166 210 255 263
#     4  10  21  35  46  68  98 129 159 215 240 281
#     4  12  22  31  51  72  95 134 180 193 230 299
#     4  12  22  32  52  74  92 134 180 208 230 306
#
# _framework density 21.312487000000001
#
# number of rings (size 3 to 8) (size 9 to 14) (size 15 to 20)
#    0.000    1.333    4.444    5.333    0.000    0.000 
#    0.000    0.000    0.000    0.000    0.000    0.000 
#    0.000    0.000    0.000   20.000    0.000    2.222 
#
# Total GULP energy -223056.899370 kJ/mol
# GULP energy per Si atom -12392.049965 kJ/mol
# Density = 2.126398 g / cm^3
# Si number density = 21.312487 Si / 1000 Ang^3
#
#
#
# Elastic Constant Matrix: (Units=GPa)
#
#
# Indices 1 2 3 4 5 6 
#
# 1 82.3815 36.4214 34.9001 0.0000 -39.4705 0.0000
# 2 36.4214 138.7079 68.1076 0.0000 -6.8111 0.0000
# 3 34.9001 68.1076 156.7319 0.0000 -50.5818 0.0000
# 4 0.0000 0.0000 0.0000 30.3216 0.0000 0.4184
# 5 -39.4705 -6.8111 -50.5818 0.0000 36.5599 0.0000
# 6 0.0000 0.0000 0.0000 0.4184 0.0000 14.2125
#
#
#
# Elastic Compliance Matrix: (Units=1/GPa)
#
#
# Indices 1 2 3 4 5 6 
#
# 1 0.059181 -0.025673 0.030812 0.000000 0.101739 0.000000
# 2 -0.025673 0.021368 -0.020288 0.000000 -0.051804 0.000000
# 3 0.030812 -0.020288 0.032251 0.000000 0.074106 0.000000
# 4 0.000000 0.000000 0.000000 0.032993 0.000000 -0.000971
# 5 0.101739 -0.051804 0.074106 0.000000 0.230069 0.000000
# 6 0.000000 0.000000 0.000000 -0.000971 0.000000 0.070389
#
#
# Mechanical properties :
#
#
# Convention : Reuss Voigt Hill
#
# Bulk Modulus (GPa) = 12.12067 72.96438 42.54253
# Shear Modulus (GPa) = 9.91967 32.11162 21.01565
#
# Velocity S-wave (km/s) = 2.15975 3.88584 3.14359
# Velocity P-wave (km/s) = 3.45236 7.37854 5.76028
#
# Compressibility (1/GPa) = 0.08250370
#
# Stress axis : x y z
#
# Youngs Moduli (GPa) = 16.89741 46.79866 31.00641
#
# Poissons Ratio (x) = 1.20145 -0.95537
# Poissons Ratio (y) = 0.43380 0.62904
# Poissons Ratio (z) = -0.52064 0.94943
#
# Static dielectric constant tensor:
#      x y z
#    x 4.049960 0.000000 -0.441210 
#    y 0.000000 3.684490 0.000000 
#    z -0.441210 0.000000 2.699040 
# 
# 
# High freq. dielectric constant tensor:
#      x y z
#    x 1.811730 0.000000 -0.047870 
#    y 0.000000 1.789390 0.000000 
#    z -0.047870 0.000000 1.855340 
# 
# From -- ./inp_files/7434.got.cif
#   From: 2010.06.25/outbox.cif.g09.slc.cpg/sg15_4_cif.got.tgz:7434.got - 2010.06.28 07:06:18.
