data_PCOD8136555
_publ_section_title
;
Structure prediction by ZEFSAII (Michael W. Deem and Ramdas Pophale) SiO2 
 PCOD8136555
Probable space group: C 2/C
;
_chemical_formula_sum "Si O2"
_cell_formula_units_Z 56
_cell_length_a 23.290141
_cell_length_b 8.727163
_cell_length_c 18.438815
_cell_angle_alpha 90.000000
_cell_angle_beta 129.788821
_cell_angle_gamma 90.000000
_cell_volume 2879.852977
_symmetry_space_group_name_H-M "C 2/C"
_symmetry_group_IT_number 15
_symmetry_cell_setting 'monoclinic'
loop_
_space_group_symop_operation_xyz
x,y,z
-x,y,1/2-z
-x,-y,-z
x,-y,1/2+z
1/2+x,1/2+y,z
1/2-x,1/2+y,1/2-z
1/2-x,1/2-y,-z
1/2+x,1/2-y,1/2+z
loop_
_atom_site_type_symbol
_atom_site_label
_atom_site_fract_x
_atom_site_fract_y
_atom_site_fract_z
Si Si1 0.047586 0.030871 0.360962
Si Si2 0.402972 0.289334 0.002298
Si Si3 0.834240 0.746519 0.591904
Si Si4 0.828981 0.978517 0.352126
Si Si5 0.867800 0.447660 0.994855
Si Si6 0.225444 0.790550 0.810549
Si Si7 0.032647 0.210399 0.492320
O O1 0.128676 0.097764 0.407197
O O2 0.012813 0.121731 0.401669
O O3 0.000000 0.045113 0.250000
O O4 0.055687 0.853596 0.392355
O O5 0.337387 0.411388 0.929433
O O6 0.458230 0.271440 0.978643
O O7 0.366090 0.129090 0.990937
O O8 0.750000 0.750000 0.500000
O O9 0.875878 0.604123 0.585828
O O10 0.836638 0.734094 0.681172
O O11 0.758759 0.862321 0.299659
O O12 0.906286 0.882423 0.409937
O O13 0.817586 0.093953 0.276616
O O14 0.790507 0.384271 0.901814
O O15 0.935535 0.378360 0.001974
#
# Coordination Sequence:
#
# PCOD8136555 Si02
#       7
#     8   8   8   8   8   8   8
#     4  10  21  35  56  85 113 152 196 229 277 346
#     4  11  20  35  59  81 119 146 188 232 285 325
#     4   9  19  37  58  76 112 151 186 227 288 339
#     4  10  20  34  56  85 110 143 190 234 273 339
#     4   9  19  37  56  85 110 150 183 236 277 336
#     4  10  20  36  57  82 112 144 192 232 279 335
#     4   9  20  36  58  82 112 151 191 225 286 334
#
# _framework density 19.445436000000001
#
# number of rings (size 3 to 8) (size 9 to 14) (size 15 to 20)
#    0.000    2.286    0.000    5.571    4.000    0.000 
#    0.000   10.714    3.143    0.000    0.000    0.000 
#    0.000    0.000    0.000    0.000    0.000    0.000 
#
# Total GULP energy -346955.248342 kJ/mol
# GULP energy per Si atom -12391.258869 kJ/mol
# Density = 1.940118 g / cm^3
# Si number density = 19.445436 Si / 1000 Ang^3
#
#
#
# Elastic Constant Matrix: (Units=GPa)
#
#
# Indices 1 2 3 4 5 6 
#
# 1 93.4154 33.1393 35.9320 0.0000 -16.2891 0.0000
# 2 33.1393 118.3960 29.5472 0.0000 -5.1301 0.0000
# 3 35.9320 29.5472 86.6724 0.0000 -17.0575 0.0000
# 4 0.0000 0.0000 0.0000 22.5559 0.0000 3.3610
# 5 -16.2891 -5.1301 -17.0575 0.0000 21.0314 0.0000
# 6 0.0000 0.0000 0.0000 3.3610 0.0000 16.2787
#
#
#
# Elastic Compliance Matrix: (Units=1/GPa)
#
#
# Indices 1 2 3 4 5 6 
#
# 1 0.014380 -0.002821 -0.003502 0.000000 0.007608 0.000000
# 2 -0.002821 0.009787 -0.002531 0.000000 -0.001851 0.000000
# 3 -0.003502 -0.002531 0.015704 0.000000 0.009407 0.000000
# 4 0.000000 0.000000 0.000000 0.045742 0.000000 -0.009444
# 5 0.007608 -0.001851 0.009407 0.000000 0.060619 0.000000
# 6 0.000000 0.000000 0.000000 -0.009444 0.000000 0.063380
#
#
# Mechanical properties :
#
#
# Convention : Reuss Voigt Hill
#
# Bulk Modulus (GPa) = 45.12325 55.08010 50.10167
# Shear Modulus (GPa) = 21.30316 25.29756 23.30036
#
# Velocity S-wave (km/s) = 3.31348 3.61078 3.46532
# Velocity P-wave (km/s) = 6.15583 6.76540 6.46780
#
# Compressibility (1/GPa) = 0.02216152
#
# Stress axis : x y z
#
# Youngs Moduli (GPa) = 69.54338 102.17229 63.67890
#
# Poissons Ratio (x) = 0.28824 0.22302
# Poissons Ratio (y) = 0.19619 0.16118
# Poissons Ratio (z) = 0.24356 0.25862
#
# Static dielectric constant tensor:
#      x y z
#    x 3.573410 0.000000 -0.151280 
#    y 0.000000 3.665980 0.000000 
#    z -0.151280 0.000000 3.499130 
# 
# 
# High freq. dielectric constant tensor:
#      x y z
#    x 1.752830 0.000000 -0.007330 
#    y 0.000000 1.751930 0.000000 
#    z -0.007330 0.000000 1.747380 
# 
# From -- ./inp_files/218640.got.cif
#   From: 2010.06.25/outbox.cif.g09.slc.cpg/sg15_110_cif.got.tgz:218640.got - 2010.06.28 07:06:18.
