data_PCOD8136175
_publ_section_title
;
Structure prediction by ZEFSAII (Michael W. Deem and Ramdas Pophale) SiO2 
 PCOD8136175
Probable space group: C 2/C
;
_chemical_formula_sum "Si O2"
_cell_formula_units_Z 60
_cell_length_a 26.521836
_cell_length_b 14.412715
_cell_length_c 20.403542
_cell_angle_alpha 90.000000
_cell_angle_beta 19.905356
_cell_angle_gamma 90.000000
_cell_volume 2655.403628
_symmetry_space_group_name_H-M "C 2/C"
_symmetry_group_IT_number 15
_symmetry_cell_setting 'monoclinic'
loop_
_space_group_symop_operation_xyz
x,y,z
-x,y,1/2-z
-x,-y,-z
x,-y,1/2+z
1/2+x,1/2+y,z
1/2-x,1/2+y,1/2-z
1/2-x,1/2-y,-z
1/2+x,1/2-y,1/2+z
loop_
_atom_site_type_symbol
_atom_site_label
_atom_site_fract_x
_atom_site_fract_y
_atom_site_fract_z
Si Si1 0.353655 0.941218 0.136689
Si Si2 0.406384 0.357841 0.113419
Si Si3 0.000000 0.631894 0.250000
Si Si4 0.421224 0.243897 0.969060
Si Si5 0.696804 0.378464 0.819882
Si Si6 0.359594 0.050684 0.297776
Si Si7 0.276394 0.272094 0.589416
Si Si8 0.294813 0.145721 0.842131
O O1 0.248044 0.913759 0.204346
O O2 0.356940 0.865803 0.191184
O O3 0.283800 0.037651 0.248953
O O4 0.518585 0.957379 0.909117
O O5 0.378755 0.275251 0.199619
O O6 0.448835 0.321679 0.989888
O O7 0.546562 0.416022 0.968959
O O8 0.936858 0.561698 0.273291
O O9 0.875585 0.699127 0.430416
O O10 0.582206 0.196226 0.762342
O O11 0.301887 0.167257 0.136873
O O12 0.356754 0.293705 0.981356
O O13 0.647715 0.305045 0.935458
O O14 0.254070 0.139583 0.419199
O O15 0.264253 0.955131 0.412103
#
# Coordination Sequence:
#
# PCOD8136175 Si02
#       8
#     8   8   4   8   8   8   8   8
#     4  11  20  35  59  92 129 170 209 266 329 390
#     4  10  20  32  53  91 131 166 206 255 326 385
#     4  12  26  44  62  90 128 182 226 262 318 388
#     4  10  20  32  57  88 125 164 199 259 328 390
#     4  11  19  33  57  92 130 166 208 267 325 388
#     4  12  23  40  62  88 124 172 223 267 319 391
#     4  11  23  39  61  88 128 178 222 261 316 386
#     4  11  21  38  61  91 128 161 211 265 334 387
#
# _framework density 22.595434999999998
#
# number of rings (size 3 to 8) (size 9 to 14) (size 15 to 20)
#    0.000    1.067    5.333    3.600    1.867    0.000 
#    0.000    0.000    0.000    0.800    0.000    0.000 
#    0.000    0.000    0.000    0.000    0.000    0.000 
#
# Total GULP energy -371893.407057 kJ/mol
# GULP energy per Si atom -12396.446902 kJ/mol
# Density = 2.254401 g / cm^3
# Si number density = 22.595435 Si / 1000 Ang^3
#
#
#
# Elastic Constant Matrix: (Units=GPa)
#
#
# Indices 1 2 3 4 5 6 
#
# 1 87.4064 40.7565 37.8452 -0.0011 -32.7524 0.0005
# 2 40.7565 93.9627 22.0469 -0.0021 -17.5585 0.0005
# 3 37.8452 22.0469 41.8450 -0.0050 -24.9076 0.0011
# 4 -0.0011 -0.0021 -0.0050 30.6310 0.0018 -14.3068
# 5 -32.7524 -17.5585 -24.9076 0.0018 39.4414 -0.0004
# 6 0.0005 0.0005 0.0011 -14.3068 -0.0004 38.7451
#
#
#
# Elastic Compliance Matrix: (Units=1/GPa)
#
#
# Indices 1 2 3 4 5 6 
#
# 1 0.022464 -0.005227 -0.012569 -0.000002 0.008390 -0.000001
# 2 -0.005227 0.013479 -0.002221 0.000000 0.000257 0.000000
# 3 -0.012569 -0.002221 0.047483 0.000007 0.018560 0.000002
# 4 -0.000002 0.000000 0.000007 0.039451 0.000001 0.014567
# 5 0.008390 0.000257 0.018560 0.000001 0.044156 0.000000
# 6 -0.000001 0.000000 0.000002 0.014567 0.000000 0.031189
#
#
# Mechanical properties :
#
#
# Convention : Reuss Voigt Hill
#
# Bulk Modulus (GPa) = 23.04574 47.16792 35.10683
# Shear Modulus (GPa) = 19.78483 29.93455 24.85969
#
# Velocity S-wave (km/s) = 2.96228 3.64374 3.32054
# Velocity P-wave (km/s) = 4.68205 6.21472 5.50201
#
# Compressibility (1/GPa) = 0.04339197
#
# Stress axis : x y z
#
# Youngs Moduli (GPa) = 44.51593 74.18977 21.06029
#
# Poissons Ratio (x) = 0.38778 0.26470
# Poissons Ratio (y) = 0.23268 0.04678
# Poissons Ratio (z) = 0.55951 0.16479
#
# Static dielectric constant tensor:
#      x y z
#    x 4.064470 0.000000 -0.358420 
#    y 0.000000 4.208570 0.000000 
#    z -0.358420 0.000000 3.635400 
# 
# 
# High freq. dielectric constant tensor:
#      x y z
#    x 1.888230 0.000000 -0.040920 
#    y 0.000000 1.896330 0.000000 
#    z -0.040920 0.000000 1.848990 
# 
# From -- ./inp_files/257860.got.cif
#   From: 2010.06.25/outbox.cif.g09.slc.cpg/sg15_129_cif.got.tgz:257860.got - 2010.06.28 07:06:18.
