data_PCOD8136623
_publ_section_title
;
Structure prediction by ZEFSAII (Michael W. Deem and Ramdas Pophale) SiO2 
 PCOD8136623
Probable space group: C 2/C
;
_chemical_formula_sum "Si O2"
_cell_formula_units_Z 60
_cell_length_a 23.327854
_cell_length_b 23.359462
_cell_length_c 8.918148
_cell_angle_alpha 90.000000
_cell_angle_beta 139.225386
_cell_angle_gamma 90.000000
_cell_volume 3173.818602
_symmetry_space_group_name_H-M "C 2/C"
_symmetry_group_IT_number 15
_symmetry_cell_setting 'monoclinic'
loop_
_space_group_symop_operation_xyz
x,y,z
-x,y,1/2-z
-x,-y,-z
x,-y,1/2+z
1/2+x,1/2+y,z
1/2-x,1/2+y,1/2-z
1/2-x,1/2-y,-z
1/2+x,1/2-y,1/2+z
loop_
_atom_site_type_symbol
_atom_site_label
_atom_site_fract_x
_atom_site_fract_y
_atom_site_fract_z
Si Si1 0.252085 0.419514 0.214706
Si Si2 0.651853 0.183016 0.388137
Si Si3 0.299052 0.508276 0.070420
Si Si4 0.897881 0.164169 0.084700
Si Si5 0.287664 0.228883 0.280393
Si Si6 0.000000 0.732243 0.250000
Si Si7 0.400541 0.562986 0.528727
Si Si8 0.136919 0.181257 0.146133
O O1 0.242992 0.469250 0.072562
O O2 0.238889 0.447256 0.354643
O O3 0.346318 0.386317 0.393911
O O4 0.177304 0.373619 0.030318
O O5 0.669641 0.180006 0.243720
O O6 0.706376 0.238862 0.543057
O O7 0.550201 0.193511 0.226538
O O8 0.371616 0.543068 0.306354
O O9 0.344533 0.466980 0.043693
O O10 0.877796 0.156047 0.218894
O O11 0.000000 0.157869 0.250000
O O12 0.864723 0.227367 0.974946
O O13 0.240163 0.198805 0.329531
O O14 0.069348 0.767664 0.484613
O O15 0.500000 0.545298 0.750000
O O16 0.385897 0.630985 0.516906
#
# Coordination Sequence:
#
# PCOD8136623 Si02
#       8
#     8   8   8   8   8   4   8   8
#     4  10  21  37  56  77 109 143 190 222 279 318
#     4   9  18  35  57  81 104 144 176 231 269 339
#     4  10  22  36  51  76 105 147 189 233 265 322
#     4  11  22  33  51  77 113 148 182 225 270 325
#     4   9  19  34  52  76 110 142 188 216 272 325
#     4  10  20  34  58  82 112 136 182 222 288 326
#     4  11  21  33  51  74 110 144 190 226 274 317
#     4  11  20  33  52  79 108 151 179 227 268 330
#
# _framework density 18.904671
#
# number of rings (size 3 to 8) (size 9 to 14) (size 15 to 20)
#    0.000    1.867    2.000    2.400    1.867    4.267 
#    0.000    0.000    0.000    0.800    0.000    0.000 
#    0.000    0.000    0.000    0.000    0.000    0.000 
#
# Total GULP energy -371851.195550 kJ/mol
# GULP energy per Si atom -12395.039852 kJ/mol
# Density = 1.886164 g / cm^3
# Si number density = 18.904671 Si / 1000 Ang^3
#
#
#
# Elastic Constant Matrix: (Units=GPa)
#
#
# Indices 1 2 3 4 5 6 
#
# 1 109.8078 45.0806 33.6889 0.0000 -2.0442 0.0000
# 2 45.0806 91.1249 41.7293 0.0000 0.8749 0.0000
# 3 33.6889 41.7293 57.2072 0.0000 -4.9762 0.0000
# 4 0.0000 0.0000 0.0000 38.8488 0.0000 -10.8622
# 5 -2.0442 0.8749 -4.9762 0.0000 29.5351 0.0000
# 6 0.0000 0.0000 0.0000 -10.8622 0.0000 18.6340
#
#
#
# Elastic Compliance Matrix: (Units=1/GPa)
#
#
# Indices 1 2 3 4 5 6 
#
# 1 0.012045 -0.004090 -0.004087 0.000000 0.000266 0.000000
# 2 -0.004090 0.018059 -0.010997 0.000000 -0.002671 0.000000
# 3 -0.004087 -0.010997 0.028327 0.000000 0.004816 0.000000
# 4 0.000000 0.000000 0.000000 0.030753 0.000000 0.017927
# 5 0.000266 -0.002671 0.004816 0.000000 0.034767 0.000000
# 6 0.000000 0.000000 0.000000 0.017927 0.000000 0.064115
#
#
# Mechanical properties :
#
#
# Convention : Reuss Voigt Hill
#
# Bulk Modulus (GPa) = 49.78967 55.45970 52.62469
# Shear Modulus (GPa) = 21.44946 26.57965 24.01456
#
# Velocity S-wave (km/s) = 3.37205 3.75371 3.56799
# Velocity P-wave (km/s) = 6.44635 6.94171 6.69861
#
# Compressibility (1/GPa) = 0.02008449
#
# Stress axis : x y z
#
# Youngs Moduli (GPa) = 83.02519 55.37544 35.30194
#
# Poissons Ratio (x) = 0.22647 0.14426
# Poissons Ratio (y) = 0.33955 0.38820
# Poissons Ratio (z) = 0.33928 0.60894
#
# Static dielectric constant tensor:
#      x y z
#    x 3.564050 0.000000 -0.232690 
#    y 0.000000 3.561710 0.000000 
#    z -0.232690 0.000000 3.349960 
# 
# 
# High freq. dielectric constant tensor:
#      x y z
#    x 1.728750 0.000000 -0.021590 
#    y 0.000000 1.734090 0.000000 
#    z -0.021590 0.000000 1.710260 
# 
# From -- ./inp_files/42193.got.cif
#   From: 2010.06.25/outbox.cif.g09.slc.cpg/sg15_22_cif.got.tgz:42193.got - 2010.06.28 07:06:18.
