data_PCOD8136571
_publ_section_title
;
Structure prediction by ZEFSAII (Michael W. Deem and Ramdas Pophale) SiO2 
 PCOD8136571
Probable space group: C 2/C
;
_chemical_formula_sum "Si O2"
_cell_formula_units_Z 52
_cell_length_a 29.354400
_cell_length_b 10.777016
_cell_length_c 8.573619
_cell_angle_alpha 90.000000
_cell_angle_beta 101.578559
_cell_angle_gamma 90.000000
_cell_volume 2657.094791
_symmetry_space_group_name_H-M "C 2/C"
_symmetry_group_IT_number 15
_symmetry_cell_setting 'monoclinic'
loop_
_space_group_symop_operation_xyz
x,y,z
-x,y,1/2-z
-x,-y,-z
x,-y,1/2+z
1/2+x,1/2+y,z
1/2-x,1/2+y,1/2-z
1/2-x,1/2-y,-z
1/2+x,1/2-y,1/2+z
loop_
_atom_site_type_symbol
_atom_site_label
_atom_site_fract_x
_atom_site_fract_y
_atom_site_fract_z
Si Si1 0.483960 0.372458 0.416853
Si Si2 0.227269 0.140163 0.293715
Si Si3 0.000000 0.477159 0.750000
Si Si4 0.455690 0.159742 0.953312
Si Si5 0.612243 0.412519 0.027025
Si Si6 0.378203 0.335272 0.819150
Si Si7 0.282769 0.625128 0.852667
O O1 0.500000 0.361166 0.250000
O O2 0.500000 0.500000 0.500000
O O3 0.508007 0.270990 0.543120
O O4 0.428571 0.351149 0.397705
O O5 0.176438 0.189892 0.214252
O O6 0.261968 0.249734 0.257518
O O7 0.233038 0.122889 0.480766
O O8 0.237311 0.003796 0.230336
O O9 0.966519 0.554951 0.836465
O O10 0.962672 0.394103 0.631410
O O11 0.403487 0.208446 0.887422
O O12 0.608767 0.561121 0.043707
O O13 0.661537 0.366358 0.129143
O O14 0.605615 0.380525 0.840981
#
# Coordination Sequence:
#
# PCOD8136571 Si02
#       7
#     8   8   4   8   8   8   8
#     4  12  23  34  57  89 115 141 189 244 294 340
#     4   9  19  37  59  87 115 155 189 242 291 347
#     4  10  24  40  56  72 110 164 194 224 286 328
#     4  11  22  40  56  78 113 151 194 238 274 351
#     4  10  20  34  56  89 117 149 181 243 308 336
#     4  10  20  35  59  84 117 147 190 239 291 348
#     4   9  19  37  59  82 123 149 195 238 292 353
#
# _framework density 19.570245
#
# number of rings (size 3 to 8) (size 9 to 14) (size 15 to 20)
#    0.000    1.846    2.308    1.846    1.077    0.615 
#    0.000    7.692    0.000    0.000    0.000    0.000 
#    0.000    0.000    0.000    0.000    0.000    0.000 
#
# Total GULP energy -322327.373202 kJ/mol
# GULP energy per Si atom -12397.206662 kJ/mol
# Density = 1.952570 g / cm^3
# Si number density = 19.570245 Si / 1000 Ang^3
#
#
#
# Elastic Constant Matrix: (Units=GPa)
#
#
# Indices 1 2 3 4 5 6 
#
# 1 106.8799 60.4629 33.7136 0.0000 2.5360 0.0000
# 2 60.4629 139.0265 49.8191 0.0000 12.3351 0.0000
# 3 33.7136 49.8191 87.7643 0.0000 8.0167 0.0000
# 4 0.0000 0.0000 0.0000 14.2314 0.0000 19.4262
# 5 2.5360 12.3351 8.0167 0.0000 21.7235 0.0000
# 6 0.0000 0.0000 0.0000 19.4262 0.0000 31.2710
#
#
#
# Elastic Compliance Matrix: (Units=1/GPa)
#
#
# Indices 1 2 3 4 5 6 
#
# 1 0.012833 -0.004941 -0.002323 0.000000 0.002164 0.000000
# 2 -0.004941 0.011173 -0.004055 0.000000 -0.004272 0.000000
# 3 -0.002323 -0.004055 0.014854 0.000000 -0.002908 0.000000
# 4 0.000000 0.000000 0.000000 0.462236 0.000000 -0.287152
# 5 0.002164 -0.004272 -0.002908 0.000000 0.049279 0.000000
# 6 0.000000 0.000000 0.000000 -0.287152 0.000000 0.210364
#
#
# Mechanical properties :
#
#
# Convention : Reuss Voigt Hill
#
# Bulk Modulus (GPa) = 61.63728 69.07354 65.35541
# Shear Modulus (GPa) = 6.33889 26.09019 16.21454
#
# Velocity S-wave (km/s) = 1.80169 3.65520 2.88154
# Velocity P-wave (km/s) = 5.99098 7.29286 6.67374
#
# Compressibility (1/GPa) = 0.01622395
#
# Stress axis : x y z
#
# Youngs Moduli (GPa) = 77.92692 89.49786 67.32403
#
# Poissons Ratio (x) = 0.44218 0.15637
# Poissons Ratio (y) = 0.38501 0.27297
# Poissons Ratio (z) = 0.18100 0.36287
#
# Static dielectric constant tensor:
#      x y z
#    x 3.679850 0.000000 0.083380 
#    y 0.000000 3.847110 0.000000 
#    z 0.083380 0.000000 3.639770 
# 
# 
# High freq. dielectric constant tensor:
#      x y z
#    x 1.752370 0.000000 0.008620 
#    y 0.000000 1.763720 0.000000 
#    z 0.008620 0.000000 1.766160 
# 
# From -- ./inp_files/65193.got.cif
#   From: 2010.06.25/outbox.cif.g09.slc.cpg/sg15_33_cif.got.tgz:65193.got - 2010.06.28 07:06:18.
