data_PCOD8136407
_publ_section_title
;
Structure prediction by ZEFSAII (Michael W. Deem and Ramdas Pophale) SiO2 
 PCOD8136407
Probable space group: C 2/C
;
_chemical_formula_sum "Si O2"
_cell_formula_units_Z 56
_cell_length_a 25.375838
_cell_length_b 22.067204
_cell_length_c 17.943170
_cell_angle_alpha 90.000000
_cell_angle_beta 161.331087
_cell_angle_gamma 90.000000
_cell_volume 3216.260467
_symmetry_space_group_name_H-M "C 2/C"
_symmetry_group_IT_number 15
_symmetry_cell_setting 'monoclinic'
loop_
_space_group_symop_operation_xyz
x,y,z
-x,y,1/2-z
-x,-y,-z
x,-y,1/2+z
1/2+x,1/2+y,z
1/2-x,1/2+y,1/2-z
1/2-x,1/2-y,-z
1/2+x,1/2-y,1/2+z
loop_
_atom_site_type_symbol
_atom_site_label
_atom_site_fract_x
_atom_site_fract_y
_atom_site_fract_z
Si Si1 0.096057 0.979874 0.526190
Si Si2 0.000000 0.491313 0.250000
Si Si3 0.361692 0.046446 0.718133
Si Si4 0.000000 0.035920 0.250000
Si Si5 0.811919 0.314763 0.492764
Si Si6 0.872700 0.578290 0.318688
Si Si7 0.703099 0.566868 0.784561
Si Si8 0.185050 0.821225 0.487553
O O1 0.002936 0.993194 0.325421
O O2 0.185366 0.041288 0.676968
O O3 0.239494 0.932003 0.704694
O O4 0.972699 0.948080 0.416339
O O5 0.063092 0.449449 0.265050
O O6 0.151627 0.533226 0.477049
O O7 0.172894 0.072065 0.470943
O O8 0.373927 0.976129 0.760113
O O9 0.457893 0.086315 0.908625
O O10 0.729892 0.360442 0.322465
O O11 0.801374 0.244568 0.454377
O O12 0.716097 0.320835 0.441591
O O13 0.000000 0.335147 0.750000
O O14 0.828596 0.639246 0.216416
O O15 0.000000 0.847420 0.250000
#
# Coordination Sequence:
#
# PCOD8136407 Si02
#       8
#     8   4   8   4   8   8   8   8
#     4  10  21  31  50  76 102 138 177 206 270 307
#     4  12  18  32  48  73 105 140 158 210 260 304
#     4  10  21  31  49  72 100 135 170 205 265 300
#     4  10  20  34  46  71 101 132 166 214 250 316
#     4  10  21  33  51  76 104 138 174 208 255 308
#     4  10  20  34  49  72 102 137 177 209 244 329
#     4  11  20  32  50  77 108 137 168 219 257 310
#     4  10  21  35  52  75 103 143 176 203 251 316
#
# _framework density 17.411525000000001
#
# number of rings (size 3 to 8) (size 9 to 14) (size 15 to 20)
#    0.000    1.714    3.571    1.714    6.000    0.000 
#    0.000    0.000    0.000    0.000    0.000    2.000 
#    0.000    0.571    0.000    0.143    0.000    0.000 
#
# Total GULP energy -346970.425038 kJ/mol
# GULP energy per Si atom -12391.800894 kJ/mol
# Density = 1.737190 g / cm^3
# Si number density = 17.411525 Si / 1000 Ang^3
#
#
#
# Elastic Constant Matrix: (Units=GPa)
#
#
# Indices 1 2 3 4 5 6 
#
# 1 56.1752 -5.2018 20.5163 0.0000 5.5588 0.0000
# 2 -5.2018 64.3764 26.8908 0.0000 -13.5803 0.0000
# 3 20.5163 26.8908 106.5194 0.0000 1.4082 0.0000
# 4 0.0000 0.0000 0.0000 25.3012 0.0000 1.8322
# 5 5.5588 -13.5803 1.4082 0.0000 34.0449 0.0000
# 6 0.0000 0.0000 0.0000 1.8322 0.0000 2.5904
#
#
#
# Elastic Compliance Matrix: (Units=1/GPa)
#
#
# Indices 1 2 3 4 5 6 
#
# 1 0.019960 0.003161 -0.004618 0.000000 -0.001807 0.000000
# 2 0.003161 0.019776 -0.005702 0.000000 0.007608 0.000000
# 3 -0.004618 -0.005702 0.011743 0.000000 -0.002006 0.000000
# 4 0.000000 0.000000 0.000000 0.041658 0.000000 -0.029465
# 5 -0.001807 0.007608 -0.002006 0.000000 0.032786 0.000000
# 6 0.000000 0.000000 0.000000 -0.029465 0.000000 0.406883
#
#
# Mechanical properties :
#
#
# Convention : Reuss Voigt Hill
#
# Bulk Modulus (GPa) = 26.91063 34.60906 30.75985
# Shear Modulus (GPa) = 8.93638 24.71166 16.82402
#
# Velocity S-wave (km/s) = 2.26795 3.77141 3.11184
# Velocity P-wave (km/s) = 4.72730 6.23578 5.53318
#
# Compressibility (1/GPa) = 0.03716004
#
# Stress axis : x y z
#
# Youngs Moduli (GPa) = 50.10093 50.56717 85.15405
#
# Poissons Ratio (x) = -0.15983 0.39328
# Poissons Ratio (y) = -0.15836 0.48553
# Poissons Ratio (z) = 0.23139 0.28832
#
# Static dielectric constant tensor:
#      x y z
#    x 3.467550 0.000000 0.176780 
#    y 0.000000 2.991050 0.000000 
#    z 0.176780 0.000000 3.528500 
# 
# 
# High freq. dielectric constant tensor:
#      x y z
#    x 1.688110 0.000000 0.019900 
#    y 0.000000 1.617240 0.000000 
#    z 0.019900 0.000000 1.681310 
# 
# From -- ./inp_files/124159.got.cif
#   From: 2010.06.25/outbox.cif.g09.slc.cpg/sg15_63_cif.got.tgz:124159.got - 2010.06.28 07:06:18.
