data_PCOD8136732
_publ_section_title
;
Structure prediction by ZEFSAII (Michael W. Deem and Ramdas Pophale) SiO2 
 PCOD8136732
Probable space group: C 2/C
;
_chemical_formula_sum "Si O2"
_cell_formula_units_Z 40
_cell_length_a 14.605645
_cell_length_b 19.957596
_cell_length_c 7.317722
_cell_angle_alpha 90.000000
_cell_angle_beta 60.980490
_cell_angle_gamma 90.000000
_cell_volume 1865.271811
_symmetry_space_group_name_H-M "C 2/C"
_symmetry_group_IT_number 15
_symmetry_cell_setting 'monoclinic'
loop_
_space_group_symop_operation_xyz
x,y,z
-x,y,1/2-z
-x,-y,-z
x,-y,1/2+z
1/2+x,1/2+y,z
1/2-x,1/2+y,1/2-z
1/2-x,1/2-y,-z
1/2+x,1/2-y,1/2+z
loop_
_atom_site_type_symbol
_atom_site_label
_atom_site_fract_x
_atom_site_fract_y
_atom_site_fract_z
Si Si1 0.614734 0.306977 0.628163
Si Si2 0.000000 0.513561 0.750000
Si Si3 0.870510 0.062774 0.206656
Si Si4 0.862696 0.421441 0.673867
Si Si5 0.500000 0.449202 0.250000
Si Si6 0.219267 0.724945 0.228600
O O1 0.500000 0.274951 0.750000
O O2 0.611975 0.387822 0.637639
O O3 0.678649 0.287094 0.747383
O O4 0.659477 0.284398 0.390524
O O5 0.899103 0.465397 0.811811
O O6 0.040069 0.564497 0.556676
O O7 0.748527 0.051534 0.286152
O O8 0.915454 0.991535 0.218312
O O9 0.932019 0.092349 0.965773
O O10 0.852503 0.341636 0.719980
O O11 0.250000 0.750000 0.000000
#
# Coordination Sequence:
#
# PCOD8136732 Si02
#       6
#     8   4   8   8   4   8
#     4  10  22  41  63  91 127 168 214 271 320 384
#     4  10  22  42  63  97 122 168 218 262 340 378
#     4  10  20  38  58  92 125 166 211 265 319 391
#     4  10  22  41  63  91 125 162 213 269 318 391
#     4  10  20  34  61  91 126 168 204 248 334 386
#     4  10  24  44  64  95 126 173 219 266 330 384
#
# _framework density 21.444597000000002
#
# number of rings (size 3 to 8) (size 9 to 14) (size 15 to 20)
#    0.000    2.000    1.000    1.200    1.400    5.600 
#   21.600    0.000    0.000    0.000    0.000    0.000 
#    0.000    0.000    0.000    0.000    0.000    0.000 
#
# Total GULP energy -247798.979739 kJ/mol
# GULP energy per Si atom -12389.948987 kJ/mol
# Density = 2.139579 g / cm^3
# Si number density = 21.444597 Si / 1000 Ang^3
#
#
#
# Elastic Constant Matrix: (Units=GPa)
#
#
# Indices 1 2 3 4 5 6 
#
# 1 82.0359 31.4996 48.3804 0.0000 -10.0528 0.0000
# 2 31.4996 108.3557 66.6878 0.0000 3.4784 0.0000
# 3 48.3804 66.6878 137.1893 0.0000 8.6789 0.0000
# 4 0.0000 0.0000 0.0000 36.9105 0.0000 3.0481
# 5 -10.0528 3.4784 8.6789 0.0000 39.2094 0.0000
# 6 0.0000 0.0000 0.0000 3.0481 0.0000 9.9201
#
#
#
# Elastic Compliance Matrix: (Units=1/GPa)
#
#
# Indices 1 2 3 4 5 6 
#
# 1 0.016739 -0.001704 -0.005432 0.000000 0.005645 0.000000
# 2 -0.001704 0.013345 -0.005865 0.000000 -0.000323 0.000000
# 3 -0.005432 -0.005865 0.012283 0.000000 -0.003591 0.000000
# 4 0.000000 0.000000 0.000000 0.027798 0.000000 -0.008541
# 5 0.005645 -0.000323 -0.003591 0.000000 0.027775 0.000000
# 6 0.000000 0.000000 0.000000 -0.008541 0.000000 0.103430
#
#
# Mechanical properties :
#
#
# Convention : Reuss Voigt Hill
#
# Bulk Modulus (GPa) = 61.11022 68.96852 65.03937
# Shear Modulus (GPa) = 21.47515 29.27555 25.37535
#
# Velocity S-wave (km/s) = 3.16796 3.69883 3.44364
# Velocity P-wave (km/s) = 6.47611 7.10443 6.79753
#
# Compressibility (1/GPa) = 0.01636387
#
# Stress axis : x y z
#
# Youngs Moduli (GPa) = 59.73916 74.93707 81.41278
#
# Poissons Ratio (x) = 0.12772 0.44222
# Poissons Ratio (y) = 0.10182 0.47751
# Poissons Ratio (z) = 0.32449 0.43953
#
# Static dielectric constant tensor:
#      x y z
#    x 3.983600 0.000000 -0.040760 
#    y 0.000000 3.853980 0.000000 
#    z -0.040760 0.000000 4.133230 
# 
# 
# High freq. dielectric constant tensor:
#      x y z
#    x 1.852360 0.000000 -0.007200 
#    y 0.000000 1.823080 0.000000 
#    z -0.007200 0.000000 1.847260 
# 
# From -- ./inp_files/51112.got.cif
#   From: 2010.06.25/outbox.cif.g09.slc.cpg/sg15_26_cif.got.tgz:51112.got - 2010.06.28 07:06:18.
