data_PCOD8136540
_publ_section_title
;
Structure prediction by ZEFSAII (Michael W. Deem and Ramdas Pophale) SiO2 
 PCOD8136540
Probable space group: C 2/C
;
_chemical_formula_sum "Si O2"
_cell_formula_units_Z 60
_cell_length_a 15.555447
_cell_length_b 19.084642
_cell_length_c 10.454263
_cell_angle_alpha 90.000000
_cell_angle_beta 87.820062
_cell_angle_gamma 90.000000
_cell_volume 3101.312435
_symmetry_space_group_name_H-M "C 2/C"
_symmetry_group_IT_number 15
_symmetry_cell_setting 'monoclinic'
loop_
_space_group_symop_operation_xyz
x,y,z
-x,y,1/2-z
-x,-y,-z
x,-y,1/2+z
1/2+x,1/2+y,z
1/2-x,1/2+y,1/2-z
1/2-x,1/2-y,-z
1/2+x,1/2-y,1/2+z
loop_
_atom_site_type_symbol
_atom_site_label
_atom_site_fract_x
_atom_site_fract_y
_atom_site_fract_z
Si Si1 0.339751 0.780352 0.614849
Si Si2 0.200091 0.328564 0.144852
Si Si3 0.910950 0.770371 0.678118
Si Si4 0.911254 0.521189 0.567792
Si Si5 0.610533 0.164360 0.019518
Si Si6 0.237957 0.868422 0.817710
Si Si7 0.000000 0.690282 0.250000
Si Si8 0.185244 0.511783 0.676482
O O1 0.292388 0.705618 0.605441
O O2 0.359760 0.817307 0.477125
O O3 0.280081 0.836525 0.688906
O O4 0.428848 0.762810 0.681450
O O5 0.153457 0.287427 0.260635
O O6 0.217715 0.408404 0.187801
O O7 0.921684 0.739442 0.533731
O O8 0.862249 0.844915 0.670865
O O9 0.000000 0.779182 0.750000
O O10 0.906972 0.605071 0.584862
O O11 0.889121 0.493778 0.712511
O O12 0.842428 0.495758 0.468330
O O13 0.000000 0.500000 0.500000
O O14 0.709834 0.162202 0.061945
O O15 0.550862 0.142886 0.144641
O O16 0.240172 0.953331 0.808383
#
# Coordination Sequence:
#
# PCOD8136540 Si02
#       8
#     8   8   8   8   8   8   4   8
#     4   9  19  36  57  81 111 148 190 240 277 344
#     4  10  20  35  58  84 110 147 197 235 288 340
#     4  11  21  35  58  85 110 148 198 247 282 334
#     4  11  24  33  53  83 122 152 183 232 289 359
#     4  10  21  35  54  80 114 149 186 231 286 354
#     4   9  21  37  54  79 114 155 190 228 290 350
#     4  10  20  34  56  80 112 144 180 232 294 334
#     4  11  22  38  56  81 119 160 189 230 296 354
#
# _framework density 19.346647999999998
#
# number of rings (size 3 to 8) (size 9 to 14) (size 15 to 20)
#    0.000    1.867    1.333    2.400    9.333    0.000 
#    0.000    0.000    1.467    0.000    0.000    7.467 
#    0.000    0.000    0.000    0.000    0.000    0.000 
#
# Total GULP energy -371661.426145 kJ/mol
# GULP energy per Si atom -12388.714205 kJ/mol
# Density = 1.930261 g / cm^3
# Si number density = 19.346648 Si / 1000 Ang^3
#
#
#
# Elastic Constant Matrix: (Units=GPa)
#
#
# Indices 1 2 3 4 5 6 
#
# 1 89.0938 46.0809 16.5935 0.0000 15.6996 0.0000
# 2 46.0809 125.9214 22.3573 0.0000 2.5833 0.0000
# 3 16.5935 22.3573 75.9971 0.0000 2.2281 0.0000
# 4 0.0000 0.0000 0.0000 25.9726 0.0000 1.3431
# 5 15.6996 2.5833 2.2281 0.0000 25.4434 0.0000
# 6 0.0000 0.0000 0.0000 1.3431 0.0000 18.4271
#
#
#
# Elastic Compliance Matrix: (Units=1/GPa)
#
#
# Indices 1 2 3 4 5 6 
#
# 1 0.015899 -0.005341 -0.001633 0.000000 -0.009125 0.000000
# 2 -0.005341 0.010184 -0.001901 0.000000 0.002428 0.000000
# 3 -0.001633 -0.001901 0.014075 0.000000 -0.000032 0.000000
# 4 0.000000 0.000000 0.000000 0.038648 0.000000 -0.002817
# 5 -0.009125 0.002428 -0.000032 0.000000 0.044690 0.000000
# 6 0.000000 0.000000 0.000000 -0.002817 0.000000 0.054473
#
#
# Mechanical properties :
#
#
# Convention : Reuss Voigt Hill
#
# Bulk Modulus (GPa) = 44.62637 51.23064 47.92850
# Shear Modulus (GPa) = 24.60796 27.70065 26.15431
#
# Velocity S-wave (km/s) = 3.57031 3.78803 3.68078
# Velocity P-wave (km/s) = 6.33348 6.75796 6.54916
#
# Compressibility (1/GPa) = 0.02240828
#
# Stress axis : x y z
#
# Youngs Moduli (GPa) = 62.89872 98.19609 71.04787
#
# Poissons Ratio (x) = 0.52447 0.11599
# Poissons Ratio (y) = 0.33594 0.13506
# Poissons Ratio (z) = 0.10269 0.18666
#
# Static dielectric constant tensor:
#      x y z
#    x 3.412970 0.000000 -0.123880 
#    y 0.000000 3.427270 0.000000 
#    z -0.123880 0.000000 7.213960 
# 
# 
# High freq. dielectric constant tensor:
#      x y z
#    x 1.720350 0.000000 0.003340 
#    y 0.000000 1.733830 0.000000 
#    z 0.003340 0.000000 1.774110 
# 
# From -- ./inp_files/98336.got.cif
#   From: 2010.06.25/outbox.cif.g09.slc.cpg/sg15_50_cif.got.tgz:98336.got - 2010.06.28 07:06:18.
