data_PCOD8136675
_publ_section_title
;
Structure prediction by ZEFSAII (Michael W. Deem and Ramdas Pophale) SiO2 
 PCOD8136675
Probable space group: C 2/C
;
_chemical_formula_sum "Si O2"
_cell_formula_units_Z 48
_cell_length_a 15.720819
_cell_length_b 8.078258
_cell_length_c 31.352304
_cell_angle_alpha 90.000000
_cell_angle_beta 149.776925
_cell_angle_gamma 90.000000
_cell_volume 2004.231732
_symmetry_space_group_name_H-M "C 2/C"
_symmetry_group_IT_number 15
_symmetry_cell_setting 'monoclinic'
loop_
_space_group_symop_operation_xyz
x,y,z
-x,y,1/2-z
-x,-y,-z
x,-y,1/2+z
1/2+x,1/2+y,z
1/2-x,1/2+y,1/2-z
1/2-x,1/2-y,-z
1/2+x,1/2-y,1/2+z
loop_
_atom_site_type_symbol
_atom_site_label
_atom_site_fract_x
_atom_site_fract_y
_atom_site_fract_z
Si Si1 0.271042 0.962212 0.927558
Si Si2 0.582474 0.205130 0.330373
Si Si3 0.571352 0.846711 0.586137
Si Si4 0.809766 0.206517 0.781018
Si Si5 0.614129 0.524675 0.008899
Si Si6 0.997467 0.126064 0.377384
O O1 0.200124 0.132427 0.876546
O O2 0.136759 0.880152 0.900790
O O3 0.311165 0.837643 0.905562
O O4 0.447749 0.993852 0.029313
O O5 0.500000 0.158629 0.250000
O O6 0.437595 0.230899 0.301235
O O7 0.691881 0.046485 0.392957
O O8 0.689605 0.839204 0.679102
O O9 0.445340 0.693221 0.539129
O O10 0.859648 0.022530 0.816736
O O11 0.617951 0.210226 0.678953
O O12 0.592399 0.376626 0.964676
O O13 0.500000 0.500000 0.000000
#
# Coordination Sequence:
#
# PCOD8136675 Si02
#       6
#     8   8   8   8   8   8
#     4   9  19  35  58  83 108 146 197 243 287 337
#     4  10  20  34  59  84 110 155 197 237 284 354
#     4   9  19  36  57  83 111 146 192 246 288 345
#     4  10  21  36  57  84 116 151 196 239 295 344
#     4  10  20  38  57  80 120 153 188 236 304 351
#     4  10  21  38  59  86 117 157 194 245 292 350
#
# _framework density 23.949325999999999
#
# number of rings (size 3 to 8) (size 9 to 14) (size 15 to 20)
#    0.000    2.333    0.000    2.000    4.667    4.000 
#    6.000    0.833    0.000    0.000    0.000    0.000 
#    0.000    0.000    0.000    0.000    0.000    0.000 
#
# Total GULP energy -297548.597056 kJ/mol
# GULP energy per Si atom -12397.858211 kJ/mol
# Density = 2.389482 g / cm^3
# Si number density = 23.949326 Si / 1000 Ang^3
#
#
#
# Elastic Constant Matrix: (Units=GPa)
#
#
# Indices 1 2 3 4 5 6 
#
# 1 88.2676 -9.5799 12.2287 0.0003 -0.9820 -0.0004
# 2 -9.5799 12.8436 -4.3998 0.0003 1.9910 -0.0005
# 3 12.2287 -4.3998 101.6568 0.0001 -11.1465 -0.0001
# 4 0.0003 0.0003 0.0001 7.6997 -0.0001 -2.2844
# 5 -0.9820 1.9910 -11.1465 -0.0001 45.9493 0.0001
# 6 -0.0004 -0.0005 -0.0001 -2.2844 0.0001 26.9275
#
#
#
# Elastic Compliance Matrix: (Units=1/GPa)
#
#
# Indices 1 2 3 4 5 6 
#
# 1 0.012457 0.008958 -0.001155 -0.000001 -0.000402 0.000000
# 2 0.008958 0.085793 0.002310 -0.000004 -0.002965 0.000001
# 3 -0.001155 0.002310 0.010337 0.000000 0.002383 0.000000
# 4 -0.000001 -0.000004 0.000000 0.133229 0.000000 0.011303
# 5 -0.000402 -0.002965 0.002383 0.000000 0.022461 0.000000
# 6 0.000000 0.000001 0.000000 0.011303 0.000000 0.038096
#
#
# Mechanical properties :
#
#
# Convention : Reuss Voigt Hill
#
# Bulk Modulus (GPa) = 7.76312 22.14067 14.95189
# Shear Modulus (GPa) = 15.38069 29.74990 22.56529
#
# Velocity S-wave (km/s) = 2.53695 3.52831 3.07287
# Velocity P-wave (km/s) = 3.43948 5.08562 4.34129
#
# Compressibility (1/GPa) = 0.12881424
#
# Stress axis : x y z
#
# Youngs Moduli (GPa) = 80.27634 11.65603 96.73789
#
# Poissons Ratio (x) = -0.10442 0.11172
# Poissons Ratio (y) = -0.71913 -0.22350
# Poissons Ratio (z) = 0.09271 -0.02693
#
# Static dielectric constant tensor:
#      x y z
#    x 4.133960 0.000000 0.210480 
#    y 0.000000 4.140230 0.000020 
#    z 0.210480 0.000020 3.046350 
# 
# 
# High freq. dielectric constant tensor:
#      x y z
#    x 1.952940 0.000000 -0.003050 
#    y 0.000000 1.926130 0.000000 
#    z -0.003050 0.000000 1.958430 
# 
# From -- ./inp_files/152043.got.cif
#   From: 2010.06.25/outbox.cif.g09.slc.cpg/sg15_77_cif.got.tgz:152043.got - 2010.06.28 07:06:18.
