data_PCOD8136197
_publ_section_title
;
Structure prediction by ZEFSAII (Michael W. Deem and Ramdas Pophale) SiO2 
 PCOD8136197
Probable space group: C 2/C
;
_chemical_formula_sum "Si O2"
_cell_formula_units_Z 60
_cell_length_a 27.114934
_cell_length_b 7.329443
_cell_length_c 18.613361
_cell_angle_alpha 90.000000
_cell_angle_beta 139.219501
_cell_angle_gamma 90.000000
_cell_volume 2416.160857
_symmetry_space_group_name_H-M "C 2/C"
_symmetry_group_IT_number 15
_symmetry_cell_setting 'monoclinic'
loop_
_space_group_symop_operation_xyz
x,y,z
-x,y,1/2-z
-x,-y,-z
x,-y,1/2+z
1/2+x,1/2+y,z
1/2-x,1/2+y,1/2-z
1/2-x,1/2-y,-z
1/2+x,1/2-y,1/2+z
loop_
_atom_site_type_symbol
_atom_site_label
_atom_site_fract_x
_atom_site_fract_y
_atom_site_fract_z
Si Si1 0.428344 0.252025 0.286771
Si Si2 0.420042 0.627233 0.511481
Si Si3 0.500000 0.008132 0.750000
Si Si4 0.157929 0.357831 0.423599
Si Si5 0.207181 0.546093 0.337023
Si Si6 0.693312 0.652144 0.668390
Si Si7 0.311313 0.042990 0.901763
Si Si8 0.152540 0.946895 0.429549
O O1 0.489265 0.361439 0.403041
O O2 0.365404 0.164635 0.270885
O O3 0.375499 0.372800 0.176437
O O4 0.478056 0.114384 0.294160
O O5 0.380202 0.478795 0.415403
O O6 0.415749 0.557830 0.589253
O O7 0.381473 0.825279 0.461470
O O8 0.430532 0.137793 0.652023
O O9 0.166798 0.425433 0.353160
O O10 0.199415 0.490327 0.526307
O O11 0.187106 0.150597 0.460266
O O12 0.240561 0.422549 0.311042
O O13 0.276844 0.659413 0.452665
O O14 0.673587 0.857939 0.626591
O O15 0.733153 0.644574 0.791095
#
# Coordination Sequence:
#
# PCOD8136197 Si02
#       8
#     8   8   4   8   8   8   8   8
#     4  11  20  37  59  90 134 163 208 261 325 380
#     4  11  21  39  64  93 122 171 216 259 315 383
#     4  10  20  32  56  92 122 166 200 260 314 376
#     4  11  22  37  66  92 132 162 215 264 326 376
#     4  10  23  42  59 100 127 170 206 273 329 376
#     4  11  25  42  69  94 126 166 229 261 320 382
#     4  12  22  42  68  93 124 174 215 271 308 389
#     4  11  21  36  61  98 129 167 210 263 322 388
#
# _framework density 24.832785000000001
#
# number of rings (size 3 to 8) (size 9 to 14) (size 15 to 20)
#    0.000    1.067    6.667    1.600    1.867    1.067 
#    0.000    0.667    0.000    0.800    0.000    0.000 
#    0.000    0.000    0.000    0.000    0.000    0.000 
#
# Total GULP energy -371845.029971 kJ/mol
# GULP energy per Si atom -12394.834332 kJ/mol
# Density = 2.477626 g / cm^3
# Si number density = 24.832785 Si / 1000 Ang^3
#
#
#
# Elastic Constant Matrix: (Units=GPa)
#
#
# Indices 1 2 3 4 5 6 
#
# 1 48.4342 -20.3899 12.5790 0.0000 19.3408 0.0000
# 2 -20.3899 46.8230 1.5240 0.0000 9.3630 0.0001
# 3 12.5790 1.5240 120.9297 0.0000 16.7847 0.0000
# 4 0.0000 0.0000 0.0000 30.0865 0.0000 1.6153
# 5 19.3408 9.3630 16.7847 0.0000 37.6406 0.0000
# 6 0.0000 0.0001 0.0000 1.6153 0.0000 20.1013
#
#
#
# Elastic Compliance Matrix: (Units=1/GPa)
#
#
# Indices 1 2 3 4 5 6 
#
# 1 0.041374 0.023380 -0.000896 0.000000 -0.026675 0.000000
# 2 0.023380 0.035718 0.000020 0.000000 -0.020907 0.000000
# 3 -0.000896 0.000020 0.008847 0.000000 -0.003489 0.000000
# 4 0.000000 0.000000 0.000000 0.033382 0.000000 -0.002682
# 5 -0.026675 -0.020907 -0.003489 0.000000 0.047030 0.000000
# 6 0.000000 0.000000 0.000000 -0.002682 0.000000 0.049963
#
#
# Mechanical properties :
#
#
# Convention : Reuss Voigt Hill
#
# Bulk Modulus (GPa) = 7.63669 22.62368 15.13019
# Shear Modulus (GPa) = 23.26073 32.39729 27.82901
#
# Velocity S-wave (km/s) = 3.06387 3.61587 3.35125
# Velocity P-wave (km/s) = 3.94947 5.15392 4.59136
#
# Compressibility (1/GPa) = 0.13094679
#
# Stress axis : x y z
#
# Youngs Moduli (GPa) = 24.16989 27.99680 113.03878
#
# Poissons Ratio (x) = -0.65457 0.10127
# Poissons Ratio (y) = -0.56510 -0.00223
# Poissons Ratio (z) = 0.02165 -0.00055
#
# Static dielectric constant tensor:
#      x y z
#    x 4.404570 0.000000 0.193720 
#    y 0.000000 4.598230 0.000000 
#    z 0.193720 0.000000 4.907630 
# 
# 
# High freq. dielectric constant tensor:
#      x y z
#    x 1.976070 0.000000 0.010130 
#    y 0.000000 1.989810 0.000000 
#    z 0.010130 0.000000 1.998680 
# 
# From -- ./inp_files/258746.got.cif
#   From: 2010.06.25/outbox.cif.g09.slc.cpg/sg15_130_cif.got.tgz:258746.got - 2010.06.28 07:06:18.
