data_PCOD8136009
_publ_section_title
;
Structure prediction by ZEFSAII (Michael W. Deem and Ramdas Pophale) SiO2 
 PCOD8136009
Probable space group: C 2/C
;
_chemical_formula_sum "Si O2"
_cell_formula_units_Z 44
_cell_length_a 7.454768
_cell_length_b 32.167344
_cell_length_c 8.965316
_cell_angle_alpha 90.000000
_cell_angle_beta 82.516379
_cell_angle_gamma 90.000000
_cell_volume 2131.571134
_symmetry_space_group_name_H-M "C 2/C"
_symmetry_group_IT_number 15
_symmetry_cell_setting 'monoclinic'
loop_
_space_group_symop_operation_xyz
x,y,z
-x,y,1/2-z
-x,-y,-z
x,-y,1/2+z
1/2+x,1/2+y,z
1/2-x,1/2+y,1/2-z
1/2-x,1/2-y,-z
1/2+x,1/2-y,1/2+z
loop_
_atom_site_type_symbol
_atom_site_label
_atom_site_fract_x
_atom_site_fract_y
_atom_site_fract_z
Si Si1 0.879611 0.555185 0.016337
Si Si2 0.000000 0.340209 0.250000
Si Si3 0.222749 0.701954 0.477279
Si Si4 0.500000 0.830752 0.750000
Si Si5 0.500000 0.999402 0.250000
Si Si6 0.809646 0.614341 0.519238
Si Si7 0.437680 0.621998 0.424962
O O1 0.741440 0.594045 0.027389
O O2 0.859840 0.526700 0.165462
O O3 0.865217 0.528070 0.867519
O O4 0.087088 0.570831 0.001567
O O5 0.150434 0.367589 0.319839
O O6 0.911035 0.310810 0.379114
O O7 0.250000 0.750000 0.500000
O O8 0.395232 0.670782 0.461100
O O9 0.136231 0.698546 0.323655
O O10 0.617772 0.857888 0.624476
O O11 0.594946 0.608015 0.521778
O O12 0.500000 0.614854 0.250000
#
# Coordination Sequence:
#
# PCOD8136009 Si02
#       7
#     8   4   8   4   4   8   8
#     4  11  22  45  67  98 131 173 219 272 344 401
#     4  10  23  42  62  97 138 176 216 289 330 381
#     4  11  25  41  65 100 138 176 231 275 337 394
#     4  10  19  42  66  89 136 186 212 273 330 395
#     4  10  24  42  70  94 138 172 208 288 338 400
#     4  11  21  41  70  95 130 173 229 267 328 405
#     4  12  23  40  72  98 127 182 228 269 329 409
#
# _framework density 20.642050000000001
#
# number of rings (size 3 to 8) (size 9 to 14) (size 15 to 20)
#    0.000    1.091    5.455    2.182    1.273    2.182 
#    0.000   13.636    0.000    0.000    0.000    0.000 
#    0.000    0.000    0.000    0.000    0.000    0.000 
#
# Total GULP energy -272716.635957 kJ/mol
# GULP energy per Si atom -12396.210725 kJ/mol
# Density = 2.059507 g / cm^3
# Si number density = 20.642050 Si / 1000 Ang^3
#
#
#
# Elastic Constant Matrix: (Units=GPa)
#
#
# Indices 1 2 3 4 5 6 
#
# 1 128.5527 47.7892 28.9185 0.0000 21.4245 0.0000
# 2 47.7892 135.3348 41.6536 0.0000 9.0546 0.0000
# 3 28.9185 41.6536 108.0470 0.0000 23.8328 0.0000
# 4 0.0000 0.0000 0.0000 21.0827 0.0000 8.2021
# 5 21.4245 9.0546 23.8328 0.0000 28.3725 0.0000
# 6 0.0000 0.0000 0.0000 8.2021 0.0000 15.6511
#
#
#
# Elastic Compliance Matrix: (Units=1/GPa)
#
#
# Indices 1 2 3 4 5 6 
#
# 1 0.010029 -0.003088 -0.000050 0.000000 -0.006546 0.000000
# 2 -0.003088 0.009335 -0.003227 0.000000 0.002064 0.000000
# 3 -0.000050 -0.003227 0.012615 0.000000 -0.009529 0.000000
# 4 0.000000 0.000000 0.000000 0.059579 0.000000 -0.031223
# 5 -0.006546 0.002064 -0.009529 0.000000 0.047533 0.000000
# 6 0.000000 0.000000 0.000000 -0.031223 0.000000 0.080256
#
#
# Mechanical properties :
#
#
# Convention : Reuss Voigt Hill
#
# Bulk Modulus (GPa) = 51.95476 67.62858 59.79167
# Shear Modulus (GPa) = 20.96491 29.92615 25.44553
#
# Velocity S-wave (km/s) = 3.19037 3.81171 3.51480
# Velocity P-wave (km/s) = 6.22859 7.22536 6.74541
#
# Compressibility (1/GPa) = 0.01924752
#
# Stress axis : x y z
#
# Youngs Moduli (GPa) = 99.71049 107.12591 79.27338
#
# Poissons Ratio (x) = 0.33082 0.00396
# Poissons Ratio (y) = 0.30792 0.25585
# Poissons Ratio (z) = 0.00498 0.34574
#
# Static dielectric constant tensor:
#      x y z
#    x 4.039880 0.000000 0.482400 
#    y 0.000000 3.851800 0.000000 
#    z 0.482400 0.000000 4.301230 
# 
# 
# High freq. dielectric constant tensor:
#      x y z
#    x 1.787040 0.000000 0.010030 
#    y 0.000000 1.806060 0.000000 
#    z 0.010030 0.000000 1.832140 
# 
# From -- ./inp_files/25595.got.cif
#   From: 2010.06.25/outbox.cif.g09.slc.cpg/sg15_13_cif.got.tgz:25595.got - 2010.06.28 07:06:18.
