data_PCOD8136725
_publ_section_title
;
Structure prediction by ZEFSAII (Michael W. Deem and Ramdas Pophale) SiO2 
 PCOD8136725
Probable space group: C 2/C
;
_chemical_formula_sum "Si O2"
_cell_formula_units_Z 52
_cell_length_a 15.158718
_cell_length_b 6.343438
_cell_length_c 27.654231
_cell_angle_alpha 90.000000
_cell_angle_beta 114.477194
_cell_angle_gamma 90.000000
_cell_volume 2420.195262
_symmetry_space_group_name_H-M "C 2/C"
_symmetry_group_IT_number 15
_symmetry_cell_setting 'monoclinic'
loop_
_space_group_symop_operation_xyz
x,y,z
-x,y,1/2-z
-x,-y,-z
x,-y,1/2+z
1/2+x,1/2+y,z
1/2-x,1/2+y,1/2-z
1/2-x,1/2-y,-z
1/2+x,1/2-y,1/2+z
loop_
_atom_site_type_symbol
_atom_site_label
_atom_site_fract_x
_atom_site_fract_y
_atom_site_fract_z
Si Si1 0.000000 0.590063 0.750000
Si Si2 0.076713 0.683510 0.513960
Si Si3 0.199084 0.111216 0.683987
Si Si4 0.929735 0.925607 0.428583
Si Si5 0.341566 0.762780 0.722237
Si Si6 0.225058 0.341179 0.546502
Si Si7 0.145473 0.872261 0.834410
O O1 0.080398 0.439648 0.744439
O O2 0.048722 0.733109 0.803221
O O3 0.181763 0.578134 0.529358
O O4 0.000000 0.500000 0.500000
O O5 0.039227 0.839051 0.462334
O O6 0.076419 0.824005 0.562575
O O7 0.096482 0.118192 0.632914
O O8 0.180103 0.121790 0.736239
O O9 0.267292 0.299287 0.680775
O O10 0.246268 0.884841 0.682601
O O11 0.852531 0.811234 0.446122
O O12 0.377493 0.613259 0.686568
O O13 0.250000 0.250000 0.500000
O O14 0.321623 0.356334 0.602083
#
# Coordination Sequence:
#
# PCOD8136725 Si02
#       7
#     4   8   8   8   8   8   8
#     4  10  24  38  56  84 126 160 190 244 306 356
#     4   9  18  36  55  79 112 149 190 244 283 335
#     4  10  20  34  61  86 108 151 195 244 297 352
#     4   9  19  36  56  83 115 144 192 243 291 342
#     4  11  20  38  59  85 115 151 196 243 297 356
#     4  10  21  36  59  84 114 157 197 237 293 346
#     4  10  21  40  57  84 120 154 197 249 291 357
#
# _framework density 21.485870999999999
#
# number of rings (size 3 to 8) (size 9 to 14) (size 15 to 20)
#    0.000    2.154    1.538    1.385    0.000    1.846 
#    0.000    9.231    0.000    0.000    0.000    0.000 
#    0.000    0.000    0.000    0.000    0.000    0.000 
#
# Total GULP energy -322275.850929 kJ/mol
# GULP energy per Si atom -12395.225036 kJ/mol
# Density = 2.143697 g / cm^3
# Si number density = 21.485871 Si / 1000 Ang^3
#
#
#
# Elastic Constant Matrix: (Units=GPa)
#
#
# Indices 1 2 3 4 5 6 
#
# 1 34.0108 26.1418 41.2266 0.0000 9.4296 0.0000
# 2 26.1418 128.5350 49.8376 0.0000 11.3619 0.0000
# 3 41.2266 49.8376 160.5318 0.0000 19.0984 0.0000
# 4 0.0000 0.0000 0.0000 26.3852 0.0000 7.7810
# 5 9.4296 11.3619 19.0984 0.0000 35.4796 0.0000
# 6 0.0000 0.0000 0.0000 7.7810 0.0000 35.8188
#
#
#
# Elastic Compliance Matrix: (Units=1/GPa)
#
#
# Indices 1 2 3 4 5 6 
#
# 1 0.046749 -0.005252 -0.009720 0.000000 -0.005511 0.000000
# 2 -0.005252 0.009505 -0.001502 0.000000 -0.000839 0.000000
# 3 -0.009720 -0.001502 0.009431 0.000000 -0.002012 0.000000
# 4 0.000000 0.000000 0.000000 0.040494 0.000000 -0.008797
# 5 -0.005511 -0.000839 -0.002012 0.000000 0.031002 0.000000
# 6 0.000000 0.000000 0.000000 -0.008797 0.000000 0.029829
#
#
# Mechanical properties :
#
#
# Convention : Reuss Voigt Hill
#
# Bulk Modulus (GPa) = 30.54619 61.94327 46.24473
# Shear Modulus (GPa) = 23.71123 33.26150 28.48637
#
# Velocity S-wave (km/s) = 3.32561 3.93881 3.64513
# Velocity P-wave (km/s) = 5.38461 7.04117 6.26785
#
# Compressibility (1/GPa) = 0.03273731
#
# Stress axis : x y z
#
# Youngs Moduli (GPa) = 21.39077 105.21006 106.03137
#
# Poissons Ratio (x) = 0.55258 1.03058
# Poissons Ratio (y) = 0.11235 0.15927
# Poissons Ratio (z) = 0.20791 0.15804
#
# Static dielectric constant tensor:
#      x y z
#    x 3.548460 0.000000 0.474020 
#    y 0.000000 4.214810 0.000000 
#    z 0.474020 0.000000 4.012720 
# 
# 
# High freq. dielectric constant tensor:
#      x y z
#    x 1.803430 0.000000 0.030300 
#    y 0.000000 1.859960 0.000000 
#    z 0.030300 0.000000 1.846160 
# 
# From -- ./inp_files/314815.got.cif
#   From: 2010.06.25/outbox.cif.g09.slc.cpg/sg15_158_cif.got.tgz:314815.got - 2010.06.28 07:06:18.
