data_PCOD8136526
_publ_section_title
;
Structure prediction by ZEFSAII (Michael W. Deem and Ramdas Pophale) SiO2 
 PCOD8136526
Probable space group: C 2/C
;
_chemical_formula_sum "Si O2"
_cell_formula_units_Z 48
_cell_length_a 16.782235
_cell_length_b 8.939697
_cell_length_c 18.373331
_cell_angle_alpha 90.000000
_cell_angle_beta 52.527839
_cell_angle_gamma 90.000000
_cell_volume 2187.706151
_symmetry_space_group_name_H-M "C 2/C"
_symmetry_group_IT_number 15
_symmetry_cell_setting 'monoclinic'
loop_
_space_group_symop_operation_xyz
x,y,z
-x,y,1/2-z
-x,-y,-z
x,-y,1/2+z
1/2+x,1/2+y,z
1/2-x,1/2+y,1/2-z
1/2-x,1/2-y,-z
1/2+x,1/2-y,1/2+z
loop_
_atom_site_type_symbol
_atom_site_label
_atom_site_fract_x
_atom_site_fract_y
_atom_site_fract_z
Si Si1 0.901170 0.257074 0.850873
Si Si2 0.016064 0.675989 0.582348
Si Si3 0.687898 0.728375 0.245286
Si Si4 0.038258 0.350489 0.536368
Si Si5 0.746529 0.907880 0.344996
Si Si6 0.385689 0.092787 0.841143
O O1 0.931975 0.229703 0.918644
O O2 0.820867 0.135682 0.869446
O O3 0.851908 0.421468 0.871210
O O4 0.000000 0.234658 0.750000
O O5 0.986235 0.496403 0.601845
O O6 0.113490 0.685345 0.581662
O O7 0.926976 0.778408 0.663132
O O8 0.034608 0.720041 0.486497
O O9 0.757792 0.792373 0.271150
O O10 0.726552 0.567878 0.201707
O O11 0.692269 0.833660 0.171268
O O12 0.135188 0.408944 0.438306
O O13 0.500000 0.098311 0.750000
#
# Coordination Sequence:
#
# PCOD8136526 Si02
#       6
#     8   8   8   8   8   8
#     4  10  20  35  58  84 112 150 189 233 284 338
#     4   8  16  32  57  80 107 146 187 223 270 335
#     4  10  20  34  55  83 113 151 187 229 281 336
#     4   9  18  35  59  85 111 150 192 230 276 337
#     4  11  22  35  57  86 117 146 190 240 281 329
#     4   8  15  31  54  77 107 146 185 216 265 335
#
# _framework density 21.94079
#
# number of rings (size 3 to 8) (size 9 to 14) (size 15 to 20)
#    0.000    2.667    0.000    2.500    0.000    6.000 
#    0.000    3.333    0.000   18.000    0.000    0.000 
#    0.000    0.000    0.000    0.000    0.000    0.000 
#
# Total GULP energy -297330.078083 kJ/mol
# GULP energy per Si atom -12388.753253 kJ/mol
# Density = 2.189085 g / cm^3
# Si number density = 21.940790 Si / 1000 Ang^3
#
#
#
# Elastic Constant Matrix: (Units=GPa)
#
#
# Indices 1 2 3 4 5 6 
#
# 1 67.5815 1.2313 28.3305 0.0000 30.6603 0.0000
# 2 1.2313 57.2179 24.0964 0.0001 -2.5259 -0.0001
# 3 28.3305 24.0964 79.2748 0.0000 28.7546 0.0000
# 4 0.0000 0.0001 0.0000 -6.5006 0.0000 18.0389
# 5 30.6603 -2.5259 28.7546 0.0000 45.2875 0.0000
# 6 0.0000 -0.0001 0.0000 18.0389 0.0000 32.4944
#
#
#
# Elastic Compliance Matrix: (Units=1/GPa)
#
#
# Indices 1 2 3 4 5 6 
#
# 1 0.021967 0.000376 -0.003349 0.000000 -0.012724 0.000000
# 2 0.000376 0.021627 -0.009164 0.000000 0.006770 0.000000
# 3 -0.003349 -0.009164 0.020735 0.000000 -0.011409 0.000000
# 4 0.000000 0.000000 0.000000 -0.060552 0.000000 0.033615
# 5 -0.012724 0.006770 -0.011409 0.000000 0.038317 0.000000
# 6 0.000000 0.000000 0.000000 0.033615 0.000000 0.012114
#
#
# Mechanical properties :
#
#
# Convention : Reuss Voigt Hill
#
# Bulk Modulus (GPa) = 24.96572 34.59895 29.78234
# Shear Modulus (GPa) = 54.44652 24.28400 39.36526
#
# Velocity S-wave (km/s) = 4.98689 3.33046 4.24035
# Velocity P-wave (km/s) = 6.67549 5.53108 6.13005
#
# Compressibility (1/GPa) = 0.04005492
#
# Stress axis : x y z
#
# Youngs Moduli (GPa) = 45.52299 46.23848 48.22772
#
# Poissons Ratio (x) = -0.01739 0.16153
# Poissons Ratio (y) = -0.01712 0.44195
# Poissons Ratio (z) = 0.15247 0.42372
#
# Static dielectric constant tensor:
#      x y z
#    x 4.380030 0.000000 0.785490 
#    y 0.000000 3.452460 0.000000 
#    z 0.785490 0.000000 4.124370 
# 
# 
# High freq. dielectric constant tensor:
#      x y z
#    x 1.870700 0.000000 0.043560 
#    y 0.000000 1.815060 0.000000 
#    z 0.043560 0.000000 1.856850 
# 
# From -- ./inp_files/213751.got.cif
#   From: 2010.06.25/outbox.cif.g09.slc.cpg/sg15_107_cif.got.tgz:213751.got - 2010.06.28 07:06:18.
