data_PCOD8136296
_publ_section_title
;
Structure prediction by ZEFSAII (Michael W. Deem and Ramdas Pophale) SiO2 
 PCOD8136296
Probable space group: C 2/C
;
_chemical_formula_sum "Si O2"
_cell_formula_units_Z 64
_cell_length_a 14.117725
_cell_length_b 27.742999
_cell_length_c 8.674971
_cell_angle_alpha 90.000000
_cell_angle_beta 98.505557
_cell_angle_gamma 90.000000
_cell_volume 3360.339184
_symmetry_space_group_name_H-M "C 2/C"
_symmetry_group_IT_number 15
_symmetry_cell_setting 'monoclinic'
loop_
_space_group_symop_operation_xyz
x,y,z
-x,y,1/2-z
-x,-y,-z
x,-y,1/2+z
1/2+x,1/2+y,z
1/2-x,1/2+y,1/2-z
1/2-x,1/2-y,-z
1/2+x,1/2-y,1/2+z
loop_
_atom_site_type_symbol
_atom_site_label
_atom_site_fract_x
_atom_site_fract_y
_atom_site_fract_z
Si Si1 0.921131 0.059580 0.405318
Si Si2 0.907439 0.171775 0.827930
Si Si3 0.258152 0.803616 0.444615
Si Si4 0.687816 0.350954 0.718302
Si Si5 0.766421 0.104852 0.963532
Si Si6 0.129333 0.020627 0.411521
Si Si7 0.909717 0.766535 0.623160
Si Si8 0.389238 0.832791 0.219387
O O1 0.899497 0.116131 0.372171
O O2 0.863127 0.025994 0.269657
O O3 0.034021 0.051636 0.430528
O O4 0.878689 0.036452 0.553221
O O5 0.829524 0.191306 0.692612
O O6 0.862695 0.127399 0.911307
O O7 0.000000 0.155934 0.750000
O O8 0.934345 0.213386 0.959380
O O9 0.250000 0.750000 0.500000
O O10 0.254387 0.839315 0.589387
O O11 0.357337 0.816328 0.383174
O O12 0.653182 0.302199 0.790007
O O13 0.746359 0.379635 0.861078
O O14 0.671392 0.120366 0.848720
O O15 0.783272 0.047044 0.975498
O O16 0.863175 0.712672 0.598817
O O17 0.000000 0.755029 0.750000
O O18 0.500000 0.848243 0.250000
#
# Coordination Sequence:
#
# PCOD8136296 Si02
#       8
#     8   8   8   8   8   8   8   8
#     4   9  19  32  53  80 113 148 172 213 273 335
#     4  10  22  32  50  79 105 141 189 222 270 326
#     4  11  22  35  51  80 107 138 187 232 268 326
#     4  10  20  33  56  76 111 145 180 224 277 331
#     4   9  21  36  55  76 109 150 188 225 277 332
#     4   9  18  34  51  81 113 144 180 214 268 336
#     4  10  20  33  53  72 106 151 185 226 272 323
#     4  10  22  39  54  74 106 149 191 233 279 314
#
# _framework density 19.045696
#
# number of rings (size 3 to 8) (size 9 to 14) (size 15 to 20)
#    0.000    2.250    1.250    0.750   10.500    3.500 
#    2.250    0.625    0.000    0.000    0.000    7.875 
#    0.000    0.000    0.000    0.000    0.000    0.000 
#
# Total GULP energy -396452.131968 kJ/mol
# GULP energy per Si atom -12389.129124 kJ/mol
# Density = 1.900235 g / cm^3
# Si number density = 19.045696 Si / 1000 Ang^3
#
#
#
# Elastic Constant Matrix: (Units=GPa)
#
#
# Indices 1 2 3 4 5 6 
#
# 1 86.8669 13.1751 28.2862 0.0000 -7.7273 0.0000
# 2 13.1751 38.0168 10.4393 0.0000 9.4610 0.0000
# 3 28.2862 10.4393 85.5615 0.0000 -14.0439 0.0000
# 4 0.0000 0.0000 0.0000 18.5311 0.0000 4.0325
# 5 -7.7273 9.4610 -14.0439 0.0000 25.8866 0.0000
# 6 0.0000 0.0000 0.0000 4.0325 0.0000 14.3809
#
#
#
# Elastic Compliance Matrix: (Units=1/GPa)
#
#
# Indices 1 2 3 4 5 6 
#
# 1 0.013674 -0.004863 -0.003255 0.000000 0.004093 0.000000
# 2 -0.004863 0.033529 -0.005195 0.000000 -0.016524 0.000000
# 3 -0.003255 -0.005195 0.014874 0.000000 0.008997 0.000000
# 4 0.000000 0.000000 0.000000 0.057470 0.000000 -0.016115
# 5 0.004093 -0.016524 0.008997 0.000000 0.050772 0.000000
# 6 0.000000 0.000000 0.000000 -0.016115 0.000000 0.074056
#
#
# Mechanical properties :
#
#
# Convention : Reuss Voigt Hill
#
# Bulk Modulus (GPa) = 28.20988 34.91624 31.56306
# Shear Modulus (GPa) = 17.67923 22.32936 20.00429
#
# Velocity S-wave (km/s) = 3.05003 3.42776 3.24440
# Velocity P-wave (km/s) = 5.21991 5.83427 5.53562
#
# Compressibility (1/GPa) = 0.03544857
#
# Stress axis : x y z
#
# Youngs Moduli (GPa) = 73.13373 29.82536 67.23053
#
# Poissons Ratio (x) = 0.14505 0.21885
# Poissons Ratio (y) = 0.35568 0.34928
# Poissons Ratio (z) = 0.23806 0.15495
#
# Static dielectric constant tensor:
#      x y z
#    x 3.268390 0.000000 -0.175580 
#    y 0.000000 3.505330 0.000000 
#    z -0.175580 0.000000 4.108020 
# 
# 
# High freq. dielectric constant tensor:
#      x y z
#    x 1.698610 0.000000 -0.007560 
#    y 0.000000 1.727280 0.000000 
#    z -0.007560 0.000000 1.754310 
# 
# From -- ./inp_files/44299.got.cif
#   From: 2010.06.25/outbox.cif.g09.slc.cpg/sg15_23_cif.got.tgz:44299.got - 2010.06.28 07:06:18.
