data_PCOD8136984
_publ_section_title
;
Structure prediction by ZEFSAII (Michael W. Deem and Ramdas Pophale) SiO2 
 PCOD8136984
Probable space group: C 2/C
;
_chemical_formula_sum "Si O2"
_cell_formula_units_Z 60
_cell_length_a 13.869534
_cell_length_b 16.056236
_cell_length_c 26.683225
_cell_angle_alpha 90.000000
_cell_angle_beta 147.732860
_cell_angle_gamma 90.000000
_cell_volume 3172.323050
_symmetry_space_group_name_H-M "C 2/C"
_symmetry_group_IT_number 15
_symmetry_cell_setting 'monoclinic'
loop_
_space_group_symop_operation_xyz
x,y,z
-x,y,1/2-z
-x,-y,-z
x,-y,1/2+z
1/2+x,1/2+y,z
1/2-x,1/2+y,1/2-z
1/2-x,1/2-y,-z
1/2+x,1/2-y,1/2+z
loop_
_atom_site_type_symbol
_atom_site_label
_atom_site_fract_x
_atom_site_fract_y
_atom_site_fract_z
Si Si1 0.740801 0.487186 0.137084
Si Si2 0.694282 0.644615 0.429822
Si Si3 0.000000 0.808657 0.750000
Si Si4 0.722439 0.172252 0.791070
Si Si5 0.653448 0.499353 0.990908
Si Si6 0.647790 0.680098 0.985567
Si Si7 0.036815 0.278609 0.115308
Si Si8 0.298401 0.175270 0.161275
O O1 0.843100 0.412246 0.210070
O O2 0.766176 0.467451 0.088684
O O3 0.819711 0.577815 0.184962
O O4 0.539597 0.483910 0.069345
O O5 0.614144 0.632525 0.338551
O O6 0.655621 0.563240 0.445797
O O7 0.595268 0.722849 0.409923
O O8 0.910406 0.664129 0.523697
O O9 0.142693 0.752415 0.783489
O O10 0.650479 0.163023 0.702718
O O11 0.935551 0.187959 0.883824
O O12 0.720608 0.589107 0.999933
O O13 0.694120 0.689810 0.064104
O O14 0.750000 0.750000 0.000000
O O15 0.177679 0.221161 0.148746
O O16 0.500000 0.214057 0.250000
#
# Coordination Sequence:
#
# PCOD8136984 Si02
#       8
#     8   8   4   8   8   8   8   8
#     4   9  19  32  54  86 115 140 182 232 285 328
#     4  10  20  35  58  80 118 144 186 234 277 336
#     4  10  22  34  56  86 108 154 186 224 286 342
#     4  10  21  34  54  82 117 145 185 229 283 338
#     4   9  18  34  59  84 112 146 181 233 287 325
#     4  10  21  38  59  79 111 151 185 233 280 339
#     4  10  21  34  55  85 113 150 184 231 279 335
#     4  11  21  34  56  82 114 149 186 232 279 338
#
# _framework density 18.913582999999999
#
# number of rings (size 3 to 8) (size 9 to 14) (size 15 to 20)
#    0.000    2.133    1.333    2.400    6.533    1.067 
#    0.000    0.000    7.333    1.600    0.000    0.000 
#    0.000    0.000    0.000    0.000    0.000    0.000 
#
# Total GULP energy -371802.499551 kJ/mol
# GULP energy per Si atom -12393.416652 kJ/mol
# Density = 1.887054 g / cm^3
# Si number density = 18.913583 Si / 1000 Ang^3
#
#
#
# Elastic Constant Matrix: (Units=GPa)
#
#
# Indices 1 2 3 4 5 6 
#
# 1 71.0742 46.5494 57.0467 0.0000 -18.6751 0.0000
# 2 46.5494 97.3149 50.8052 0.0000 -26.0644 0.0000
# 3 57.0467 50.8052 152.1681 -0.0002 -19.6824 -0.0002
# 4 0.0000 0.0000 -0.0002 22.1150 0.0000 -8.0370
# 5 -18.6751 -26.0644 -19.6824 0.0000 31.6415 0.0000
# 6 0.0000 0.0000 -0.0002 -8.0370 0.0000 33.8475
#
#
#
# Elastic Compliance Matrix: (Units=1/GPa)
#
#
# Indices 1 2 3 4 5 6 
#
# 1 0.025383 -0.007519 -0.006382 0.000000 0.004817 0.000000
# 2 -0.007519 0.017088 -0.001783 0.000000 0.008529 0.000000
# 3 -0.006382 -0.001783 0.009660 0.000000 0.000773 0.000000
# 4 0.000000 0.000000 0.000000 0.049489 0.000000 0.011751
# 5 0.004817 0.008529 0.000773 0.000000 0.041954 0.000000
# 6 0.000000 0.000000 0.000000 0.011751 0.000000 0.032335
#
#
# Mechanical properties :
#
#
# Convention : Reuss Voigt Hill
#
# Bulk Modulus (GPa) = 48.16719 69.92887 59.04803
# Shear Modulus (GPa) = 23.34294 28.59786 25.97040
#
# Velocity S-wave (km/s) = 3.51691 3.89270 3.70957
# Velocity P-wave (km/s) = 6.48181 7.56685 7.04525
#
# Compressibility (1/GPa) = 0.02076102
#
# Stress axis : x y z
#
# Youngs Moduli (GPa) = 39.39652 58.52052 103.52328
#
# Poissons Ratio (x) = 0.44004 0.66071
# Poissons Ratio (y) = 0.29624 0.18459
# Poissons Ratio (z) = 0.25144 0.10435
#
# Static dielectric constant tensor:
#      x y z
#    x 3.531150 0.000000 -0.130430 
#    y 0.000000 3.500160 0.000000 
#    z -0.130430 0.000000 3.831970 
# 
# 
# High freq. dielectric constant tensor:
#      x y z
#    x 1.715020 0.000000 -0.000940 
#    y 0.000000 1.719820 0.000000 
#    z -0.000940 0.000000 1.752960 
# 
# From -- ./inp_files/313993.got.cif
#   From: 2010.06.25/outbox.cif.g09.slc.cpg/sg15_157_cif.got.tgz:313993.got - 2010.06.28 07:06:18.
