data_PCOD8136974
_publ_section_title
;
Structure prediction by ZEFSAII (Michael W. Deem and Ramdas Pophale) SiO2 
 PCOD8136974
Probable space group: C 2/C
;
_chemical_formula_sum "Si O2"
_cell_formula_units_Z 56
_cell_length_a 20.228648
_cell_length_b 11.425722
_cell_length_c 25.217230
_cell_angle_alpha 90.000000
_cell_angle_beta 29.125382
_cell_angle_gamma 90.000000
_cell_volume 2836.803379
_symmetry_space_group_name_H-M "C 2/C"
_symmetry_group_IT_number 15
_symmetry_cell_setting 'monoclinic'
loop_
_space_group_symop_operation_xyz
x,y,z
-x,y,1/2-z
-x,-y,-z
x,-y,1/2+z
1/2+x,1/2+y,z
1/2-x,1/2+y,1/2-z
1/2-x,1/2-y,-z
1/2+x,1/2-y,1/2+z
loop_
_atom_site_type_symbol
_atom_site_label
_atom_site_fract_x
_atom_site_fract_y
_atom_site_fract_z
Si Si1 0.616586 0.538005 0.273632
Si Si2 0.063743 0.846682 0.151209
Si Si3 0.088140 0.725826 0.845765
Si Si4 0.094706 0.536008 0.481975
Si Si5 0.852224 0.682090 0.491379
Si Si6 0.878385 0.836910 0.570307
Si Si7 0.667015 0.423422 0.350673
O O1 0.503698 0.468544 0.319343
O O2 0.551512 0.663481 0.334391
O O3 0.749947 0.552171 0.144136
O O4 0.656392 0.470699 0.298716
O O5 0.223856 0.863623 0.047883
O O6 0.000000 0.799507 0.250000
O O7 0.041940 0.748561 0.121247
O O8 0.161623 0.767768 0.848430
O O9 0.193898 0.646330 0.739526
O O10 0.952749 0.654240 0.955475
O O11 0.073621 0.430827 0.537942
O O12 0.000000 0.500000 0.500000
O O13 0.808884 0.771057 0.569414
O O14 0.042366 0.835942 0.449768
O O15 0.830060 0.971657 0.608124
#
# Coordination Sequence:
#
# PCOD8136974 Si02
#       7
#     8   8   8   8   8   8   8
#     4  11  22  41  63  86 131 171 205 256 325 380
#     4  11  24  43  64  86 121 174 217 257 313 364
#     4  11  23  35  60  96 130 166 198 258 319 391
#     4  12  22  39  63 100 129 158 208 260 327 391
#     4  11  23  39  67  94 121 163 219 264 304 380
#     4  10  20  35  59  91 129 159 202 256 321 381
#     4  10  20  35  57  94 130 161 195 256 330 379
#
# _framework density 19.740528000000001
#
# number of rings (size 3 to 8) (size 9 to 14) (size 15 to 20)
#    0.000    1.143    5.714    0.857    0.000    1.143 
#    0.000    0.714    0.000    0.000    0.000    0.000 
#    0.000    0.000    0.000    0.000    0.000    0.000 
#
# Total GULP energy -347243.781474 kJ/mol
# GULP energy per Si atom -12401.563624 kJ/mol
# Density = 1.969560 g / cm^3
# Si number density = 19.740528 Si / 1000 Ang^3
#
#
#
# Elastic Constant Matrix: (Units=GPa)
#
#
# Indices 1 2 3 4 5 6 
#
# 1 83.6221 56.8576 31.4831 -0.0003 5.7815 0.0000
# 2 56.8576 131.2713 61.8231 -0.0005 2.1255 0.0006
# 3 31.4831 61.8231 105.2133 -0.0011 3.9591 0.0012
# 4 -0.0003 -0.0005 -0.0011 36.3052 0.0008 1.3573
# 5 5.7815 2.1255 3.9591 0.0008 31.6580 -0.0004
# 6 0.0000 0.0006 0.0012 1.3573 -0.0004 30.6063
#
#
#
# Elastic Compliance Matrix: (Units=1/GPa)
#
#
# Indices 1 2 3 4 5 6 
#
# 1 0.017238 -0.006970 -0.000966 0.000000 -0.002559 0.000000
# 2 -0.006970 0.013351 -0.005801 0.000000 0.001102 0.000000
# 3 -0.000966 -0.005801 0.013243 0.000000 -0.001090 0.000000
# 4 0.000000 0.000000 0.000000 0.027590 -0.000001 -0.001224
# 5 -0.002559 0.001102 -0.001090 -0.000001 0.032117 0.000000
# 6 0.000000 0.000000 0.000000 -0.001224 0.000000 0.032727
#
#
# Mechanical properties :
#
#
# Convention : Reuss Voigt Hill
#
# Bulk Modulus (GPa) = 61.13134 68.93714 65.03424
# Shear Modulus (GPa) = 29.55189 31.04343 30.29766
#
# Velocity S-wave (km/s) = 3.87333 3.96987 3.92190
# Velocity P-wave (km/s) = 7.14410 7.48402 7.31604
#
# Compressibility (1/GPa) = 0.01635822
#
# Stress axis : x y z
#
# Youngs Moduli (GPa) = 58.00984 74.90227 75.51037
#
# Poissons Ratio (x) = 0.52206 0.07298
# Poissons Ratio (y) = 0.40432 0.43801
# Poissons Ratio (z) = 0.05607 0.43449
#
# Static dielectric constant tensor:
#      x y z
#    x 3.414690 0.000000 0.206600 
#    y 0.000000 3.797620 0.000000 
#    z 0.206600 0.000000 3.778010 
# 
# 
# High freq. dielectric constant tensor:
#      x y z
#    x 1.737140 0.000000 0.014690 
#    y 0.000000 1.776710 0.000000 
#    z 0.014690 0.000000 1.778760 
# 
# From -- ./inp_files/279984.got.cif
#   From: 2010.06.25/outbox.cif.g09.slc.cpg/sg15_140_cif.got.tgz:279984.got - 2010.06.28 07:06:18.
