data_PCOD8136484
_publ_section_title
;
Structure prediction by ZEFSAII (Michael W. Deem and Ramdas Pophale) SiO2 
 PCOD8136484
Probable space group: C 2/C
;
_chemical_formula_sum "Si O2"
_cell_formula_units_Z 44
_cell_length_a 10.783817
_cell_length_b 23.172128
_cell_length_c 8.756702
_cell_angle_alpha 90.000000
_cell_angle_beta 67.080153
_cell_angle_gamma 90.000000
_cell_volume 2015.405639
_symmetry_space_group_name_H-M "C 2/C"
_symmetry_group_IT_number 15
_symmetry_cell_setting 'monoclinic'
loop_
_space_group_symop_operation_xyz
x,y,z
-x,y,1/2-z
-x,-y,-z
x,-y,1/2+z
1/2+x,1/2+y,z
1/2-x,1/2+y,1/2-z
1/2-x,1/2-y,-z
1/2+x,1/2-y,1/2+z
loop_
_atom_site_type_symbol
_atom_site_label
_atom_site_fract_x
_atom_site_fract_y
_atom_site_fract_z
Si Si1 0.855913 0.286414 0.351030
Si Si2 0.778518 0.901781 0.639378
Si Si3 0.722789 0.124600 0.840311
Si Si4 0.280825 0.534209 0.566667
Si Si5 0.000000 0.077676 0.250000
Si Si6 0.578059 0.896301 0.982233
O O1 0.750000 0.250000 0.500000
O O2 0.788476 0.310752 0.226042
O O3 0.894303 0.342705 0.424009
O O4 0.000000 0.253481 0.250000
O O5 0.799541 0.870774 0.466156
O O6 0.639049 0.882451 0.786027
O O7 0.901789 0.882675 0.691992
O O8 0.771274 0.970759 0.636769
O O9 0.801123 0.080727 0.692517
O O10 0.580762 0.094040 0.950027
O O11 0.413138 0.536390 0.399454
O O12 0.148749 0.548476 0.528030
#
# Coordination Sequence:
#
# PCOD8136484 Si02
#       6
#     8   8   8   8   4   8
#     4   9  19  40  64  85 117 152 189 243 310 365
#     4  11  21  34  55  83 118 161 195 236 284 349
#     4  10  20  35  58  87 116 149 196 242 292 344
#     4  10  20  34  54  80 120 162 198 231 284 346
#     4  10  22  36  48  72 118 170 204 232 282 326
#     4   9  20  36  55  88 118 147 189 240 295 345
#
# _framework density 21.831835000000002
#
# number of rings (size 3 to 8) (size 9 to 14) (size 15 to 20)
#    0.000    2.182    0.000    4.909    0.000    5.091 
#   14.727    0.909    0.000    0.000    0.000    0.000 
#    0.000    0.000    0.000    0.000    0.000    0.000 
#
# Total GULP energy -272688.662498 kJ/mol
# GULP energy per Si atom -12394.939204 kJ/mol
# Density = 2.178214 g / cm^3
# Si number density = 21.831835 Si / 1000 Ang^3
#
#
#
# Elastic Constant Matrix: (Units=GPa)
#
#
# Indices 1 2 3 4 5 6 
#
# 1 98.0830 28.5906 57.9455 0.0000 0.9985 0.0000
# 2 28.5906 39.9642 25.8340 0.0000 -2.4757 0.0000
# 3 57.9455 25.8340 145.4008 0.0000 3.1497 0.0000
# 4 0.0000 0.0000 0.0000 30.9326 0.0000 -8.5189
# 5 0.9985 -2.4757 3.1497 0.0000 52.3553 0.0000
# 6 0.0000 0.0000 0.0000 -8.5189 0.0000 6.7021
#
#
#
# Elastic Compliance Matrix: (Units=1/GPa)
#
#
# Indices 1 2 3 4 5 6 
#
# 1 0.015268 -0.007930 -0.004668 0.000000 -0.000385 0.000000
# 2 -0.007930 0.032529 -0.002659 0.000000 0.001849 0.000000
# 3 -0.004668 -0.002659 0.009223 0.000000 -0.000592 0.000000
# 4 0.000000 0.000000 0.000000 0.049740 0.000000 0.063224
# 5 -0.000385 0.001849 -0.000592 0.000000 0.019231 0.000000
# 6 0.000000 0.000000 0.000000 0.063224 0.000000 0.229570
#
#
# Mechanical properties :
#
#
# Convention : Reuss Voigt Hill
#
# Bulk Modulus (GPa) = 37.72593 56.46536 47.09564
# Shear Modulus (GPa) = 12.66111 29.40318 21.03214
#
# Velocity S-wave (km/s) = 2.41080 3.67386 3.10719
# Velocity P-wave (km/s) = 5.00670 6.62694 5.87296
#
# Compressibility (1/GPa) = 0.02650697
#
# Stress axis : x y z
#
# Youngs Moduli (GPa) = 65.49516 30.74177 108.42468
#
# Poissons Ratio (x) = 0.24377 0.50607
# Poissons Ratio (y) = 0.51936 0.28835
# Poissons Ratio (z) = 0.30570 0.08176
#
# Static dielectric constant tensor:
#      x y z
#    x 4.347840 0.000000 0.165190 
#    y 0.000000 3.433220 0.000000 
#    z 0.165190 0.000000 3.611650 
# 
# 
# High freq. dielectric constant tensor:
#      x y z
#    x 1.851950 0.000000 -0.001570 
#    y 0.000000 1.804620 0.000000 
#    z -0.001570 0.000000 1.887420 
# 
# From -- ./inp_files/32458.got.cif
#   From: 2010.06.25/outbox.cif.g09.slc.cpg/sg15_17_cif.got.tgz:32458.got - 2010.06.28 07:06:18.
