data_PCOD8136742
_publ_section_title
;
Structure prediction by ZEFSAII (Michael W. Deem and Ramdas Pophale) SiO2 
 PCOD8136742
Probable space group: C 2/C
;
_chemical_formula_sum "Si O2"
_cell_formula_units_Z 52
_cell_length_a 13.927478
_cell_length_b 14.310324
_cell_length_c 18.728602
_cell_angle_alpha 90.000000
_cell_angle_beta 134.442738
_cell_angle_gamma 90.000000
_cell_volume 2664.989269
_symmetry_space_group_name_H-M "C 2/C"
_symmetry_group_IT_number 15
_symmetry_cell_setting 'monoclinic'
loop_
_space_group_symop_operation_xyz
x,y,z
-x,y,1/2-z
-x,-y,-z
x,-y,1/2+z
1/2+x,1/2+y,z
1/2-x,1/2+y,1/2-z
1/2-x,1/2-y,-z
1/2+x,1/2-y,1/2+z
loop_
_atom_site_type_symbol
_atom_site_label
_atom_site_fract_x
_atom_site_fract_y
_atom_site_fract_z
Si Si1 0.898832 0.344483 0.327666
Si Si2 0.534177 0.163714 0.042573
Si Si3 0.285835 0.419180 0.609055
Si Si4 0.000000 0.932949 0.250000
Si Si5 0.424059 0.984087 0.586872
Si Si6 0.099161 0.209833 0.699655
Si Si7 0.500000 0.139130 0.250000
Si Si8 0.000000 0.774151 0.750000
O O1 0.743591 0.336627 0.266231
O O2 0.982542 0.304139 0.438339
O O3 0.942139 0.451971 0.337622
O O4 0.925707 0.287792 0.269708
O O5 0.681259 0.116771 0.113961
O O6 0.435885 0.086216 0.025824
O O7 0.541057 0.256747 0.093770
O O8 0.364327 0.507667 0.681104
O O9 0.206216 0.449834 0.495228
O O10 0.392761 0.336795 0.650050
O O11 0.001223 0.868339 0.321375
O O12 0.407460 0.925730 0.651000
O O13 0.101776 0.298735 0.755187
#
# Coordination Sequence:
#
# PCOD8136742 Si02
#       8
#     8   8   8   4   8   8   4   4
#     4  11  21  37  58  82 112 148 194 227 283 331
#     4  10  20  36  59  83 112 148 186 231 285 332
#     4  10  20  37  55  79 116 142 195 224 280 331
#     4  10  20  34  62  84 110 154 186 228 284 334
#     4  10  20  36  59  84 110 153 186 227 278 342
#     4  10  20  37  57  87 117 143 188 237 277 334
#     4   9  21  37  57  86 118 148 183 233 287 319
#     4  11  23  37  57  82 110 158 179 241 281 329
#
# _framework density 19.512273
#
# number of rings (size 3 to 8) (size 9 to 14) (size 15 to 20)
#    0.000    1.846    1.538    4.154    0.000    3.692 
#    2.769    4.615    0.000    2.769    0.000    0.000 
#    0.000    0.000    0.000    0.000    0.000    0.000 
#
# Total GULP energy -322334.458599 kJ/mol
# GULP energy per Si atom -12397.479177 kJ/mol
# Density = 1.946786 g / cm^3
# Si number density = 19.512273 Si / 1000 Ang^3
#
#
#
# Elastic Constant Matrix: (Units=GPa)
#
#
# Indices 1 2 3 4 5 6 
#
# 1 67.1626 15.8597 22.7646 0.0000 -6.4570 0.0000
# 2 15.8597 70.7431 24.2508 0.0000 -7.0253 0.0000
# 3 22.7646 24.2508 60.5661 0.0000 -5.9539 0.0000
# 4 0.0000 0.0000 0.0000 28.3008 0.0000 0.7275
# 5 -6.4570 -7.0253 -5.9539 0.0000 31.8644 0.0000
# 6 0.0000 0.0000 0.0000 0.7275 0.0000 18.2544
#
#
#
# Elastic Compliance Matrix: (Units=1/GPa)
#
#
# Indices 1 2 3 4 5 6 
#
# 1 0.017417 -0.001766 -0.005634 0.000000 0.002087 0.000000
# 2 -0.001766 0.016751 -0.005822 0.000000 0.002247 0.000000
# 3 -0.005634 -0.005822 0.021109 0.000000 0.001519 0.000000
# 4 0.000000 0.000000 0.000000 0.035371 0.000000 -0.001410
# 5 0.002087 0.002247 0.001519 0.000000 0.032585 0.000000
# 6 0.000000 0.000000 0.000000 -0.001410 0.000000 0.054837
#
#
# Mechanical properties :
#
#
# Convention : Reuss Voigt Hill
#
# Bulk Modulus (GPa) = 34.68397 36.02468 35.35432
# Shear Modulus (GPa) = 23.35087 24.72371 24.03729
#
# Velocity S-wave (km/s) = 3.46313 3.56348 3.51366
# Velocity P-wave (km/s) = 5.81421 5.95263 5.88383
#
# Compressibility (1/GPa) = 0.02883177
#
# Stress axis : x y z
#
# Youngs Moduli (GPa) = 57.41672 59.69933 47.37306
#
# Poissons Ratio (x) = 0.10543 0.26690
# Poissons Ratio (y) = 0.10140 0.27582
# Poissons Ratio (z) = 0.32348 0.34759
#
# Static dielectric constant tensor:
#      x y z
#    x 3.530950 0.000000 -0.018800 
#    y 0.000000 3.694440 0.000000 
#    z -0.018800 0.000000 3.423230 
# 
# 
# High freq. dielectric constant tensor:
#      x y z
#    x 1.755330 0.000000 -0.002880 
#    y 0.000000 1.766900 0.000000 
#    z -0.002880 0.000000 1.744690 
# 
# From -- ./inp_files/118838.got.cif
#   From: 2010.06.25/outbox.cif.g09.slc.cpg/sg15_60_cif.got.tgz:118838.got - 2010.06.28 07:06:18.
