data_PCOD8136367
_publ_section_title
;
Structure prediction by ZEFSAII (Michael W. Deem and Ramdas Pophale) SiO2 
 PCOD8136367
Probable space group: C 2/C
;
_chemical_formula_sum "Si O2"
_cell_formula_units_Z 60
_cell_length_a 11.357722
_cell_length_b 18.983900
_cell_length_c 13.575863
_cell_angle_alpha 90.000000
_cell_angle_beta 79.741051
_cell_angle_gamma 90.000000
_cell_volume 2880.347638
_symmetry_space_group_name_H-M "C 2/C"
_symmetry_group_IT_number 15
_symmetry_cell_setting 'monoclinic'
loop_
_space_group_symop_operation_xyz
x,y,z
-x,y,1/2-z
-x,-y,-z
x,-y,1/2+z
1/2+x,1/2+y,z
1/2-x,1/2+y,1/2-z
1/2-x,1/2-y,-z
1/2+x,1/2-y,1/2+z
loop_
_atom_site_type_symbol
_atom_site_label
_atom_site_fract_x
_atom_site_fract_y
_atom_site_fract_z
Si Si1 0.134821 0.313431 0.074069
Si Si2 0.916999 0.452177 0.902273
Si Si3 0.454518 0.586138 0.616458
Si Si4 0.941069 0.415940 0.118369
Si Si5 0.222616 0.948520 0.509194
Si Si6 0.134632 0.760664 0.377997
Si Si7 0.500000 0.838984 0.750000
Si Si8 0.683816 0.545316 0.678332
O O1 0.211361 0.374609 0.009578
O O2 0.219939 0.272070 0.139511
O O3 0.020173 0.349376 0.145252
O O4 0.091209 0.261416 0.993992
O O5 0.789483 0.489930 0.937537
O O6 0.910932 0.387457 0.827755
O O7 0.010350 0.510161 0.845768
O O8 0.962469 0.419244 0.998008
O O9 0.411004 0.560294 0.515759
O O10 0.427458 0.666948 0.642381
O O11 0.596362 0.578092 0.607758
O O12 0.382041 0.539182 0.707961
O O13 0.802987 0.406507 0.171321
O O14 0.218454 0.969174 0.625959
O O15 0.092634 0.705687 0.301834
#
# Coordination Sequence:
#
# PCOD8136367 Si02
#       8
#     8   8   8   8   8   8   4   8
#     4   9  18  38  59  83 107 155 192 230 287 360
#     4   9  19  29  53  89 117 133 187 242 293 338
#     4  10  21  37  52  84 111 157 201 226 292 352
#     4   9  17  36  54  83 113 147 186 237 300 342
#     4   9  19  35  58  85 111 144 190 243 298 337
#     4  10  21  35  57  78 116 151 196 226 273 357
#     4  12  20  30  56  90 116 150 188 244 282 338
#     4  10  20  33  58  81 116 148 186 253 288 338
#
# _framework density 20.830819000000002
#
# number of rings (size 3 to 8) (size 9 to 14) (size 15 to 20)
#    0.000    2.400    1.333    2.000    1.867    0.000 
#    0.000    0.667    2.933    0.000   24.267    0.000 
#    0.000    0.000    0.000    0.000    0.000    0.000 
#
# Total GULP energy -371776.959756 kJ/mol
# GULP energy per Si atom -12392.565325 kJ/mol
# Density = 2.078341 g / cm^3
# Si number density = 20.830819 Si / 1000 Ang^3
#
#
#
# Elastic Constant Matrix: (Units=GPa)
#
#
# Indices 1 2 3 4 5 6 
#
# 1 127.0913 25.8703 14.4431 0.0000 3.7015 0.0000
# 2 25.8703 73.6713 32.0043 0.0000 5.1817 0.0000
# 3 14.4431 32.0043 50.1546 0.0000 7.2367 0.0000
# 4 0.0000 0.0000 0.0000 26.0617 0.0000 12.2606
# 5 3.7015 5.1817 7.2367 0.0000 31.1297 0.0000
# 6 0.0000 0.0000 0.0000 12.2606 0.0000 24.3639
#
#
#
# Elastic Compliance Matrix: (Units=1/GPa)
#
#
# Indices 1 2 3 4 5 6 
#
# 1 0.008499 -0.002654 -0.000695 0.000000 -0.000407 0.000000
# 2 -0.002654 0.019612 -0.011718 0.000000 -0.000225 0.000000
# 3 -0.000695 -0.011718 0.028271 0.000000 -0.004539 0.000000
# 4 0.000000 0.000000 0.000000 0.050272 0.000000 -0.025298
# 5 -0.000407 -0.000225 -0.004539 0.000000 0.033265 0.000000
# 6 0.000000 0.000000 0.000000 -0.025298 0.000000 0.053775
#
#
# Mechanical properties :
#
#
# Convention : Reuss Voigt Hill
#
# Bulk Modulus (GPa) = 38.09830 43.95029 41.02430
# Shear Modulus (GPa) = 21.49814 28.21769 24.85792
#
# Velocity S-wave (km/s) = 3.21602 3.68450 3.45820
# Velocity P-wave (km/s) = 5.66740 6.26460 5.97347
#
# Compressibility (1/GPa) = 0.02624789
#
# Stress axis : x y z
#
# Youngs Moduli (GPa) = 117.65440 50.98880 35.37196
#
# Poissons Ratio (x) = 0.13532 0.02459
# Poissons Ratio (y) = 0.31225 0.41449
# Poissons Ratio (z) = 0.08181 0.59749
#
# Static dielectric constant tensor:
#      x y z
#    x 3.981410 0.000000 0.297870 
#    y 0.000000 3.796970 0.000000 
#    z 0.297870 0.000000 3.575380 
# 
# 
# High freq. dielectric constant tensor:
#      x y z
#    x 1.820410 0.000000 0.025350 
#    y 0.000000 1.800780 0.000000 
#    z 0.025350 0.000000 1.794920 
# 
# From -- ./inp_files/146708.got.cif
#   From: 2010.06.25/outbox.cif.g09.slc.cpg/sg15_74_cif.got.tgz:146708.got - 2010.06.28 07:06:18.
