data_PCOD8136860
_publ_section_title
;
Structure prediction by ZEFSAII (Michael W. Deem and Ramdas Pophale) SiO2 
 PCOD8136860
Probable space group: C 2/C
;
_chemical_formula_sum "Si O2"
_cell_formula_units_Z 40
_cell_length_a 16.597172
_cell_length_b 17.713193
_cell_length_c 11.011732
_cell_angle_alpha 90.000000
_cell_angle_beta 147.647856
_cell_angle_gamma 90.000000
_cell_volume 1732.362969
_symmetry_space_group_name_H-M "C 2/C"
_symmetry_group_IT_number 15
_symmetry_cell_setting 'monoclinic'
loop_
_space_group_symop_operation_xyz
x,y,z
-x,y,1/2-z
-x,-y,-z
x,-y,1/2+z
1/2+x,1/2+y,z
1/2-x,1/2+y,1/2-z
1/2-x,1/2-y,-z
1/2+x,1/2-y,1/2+z
loop_
_atom_site_type_symbol
_atom_site_label
_atom_site_fract_x
_atom_site_fract_y
_atom_site_fract_z
Si Si1 0.377660 0.692079 0.196779
Si Si2 0.731896 0.156664 0.370721
Si Si3 0.559617 0.231413 0.484978
Si Si4 0.164904 0.412971 0.012751
Si Si5 0.154324 0.580393 0.025789
O O1 0.500000 0.673278 0.250000
O O2 0.466222 0.736446 0.413952
O O3 0.250000 0.750000 0.000000
O O4 0.295913 0.615216 0.133658
O O5 0.878500 0.199861 0.515545
O O6 0.775927 0.100439 0.537387
O O7 0.607928 0.212292 0.276722
O O8 0.641319 0.119044 0.141704
O O9 0.668813 0.156453 0.615472
O O10 0.201741 0.494097 0.117416
O O11 0.000000 0.420498 0.750000
O O12 0.000000 0.589647 0.750000
#
# Coordination Sequence:
#
# PCOD8136860 Si02
#       5
#     8   8   8   8   8
#     4  11  21  35  56  82 112 145 181 223 271 324
#     4  10  20  36  57  80 108 143 183 226 270 321
#     4  10  20  35  55  80 107 141 186 225 266 321
#     4   9  20  36  57  81 108 144 184 225 269 322
#     4  10  21  36  56  83 111 142 182 226 273 324
#
# _framework density 23.089849999999998
#
# number of rings (size 3 to 8) (size 9 to 14) (size 15 to 20)
#    0.000    2.000    0.000    4.800    0.000    8.800 
#    0.000    2.000    0.000    6.000    0.000    0.000 
#    0.000    0.000    0.000    0.000    0.000    0.000 
#
# Total GULP energy -247789.993361 kJ/mol
# GULP energy per Si atom -12389.499668 kJ/mol
# Density = 2.303730 g / cm^3
# Si number density = 23.089850 Si / 1000 Ang^3
#
#
#
# Elastic Constant Matrix: (Units=GPa)
#
#
# Indices 1 2 3 4 5 6 
#
# 1 141.7845 47.9725 20.4907 0.0000 -0.6160 0.0000
# 2 47.9725 108.9760 14.4469 0.0000 -2.9371 0.0000
# 3 20.4907 14.4469 41.2442 0.0000 -2.3501 0.0000
# 4 0.0000 0.0000 0.0000 18.9179 0.0000 -3.5294
# 5 -0.6160 -2.9371 -2.3501 0.0000 26.3278 0.0000
# 6 0.0000 0.0000 0.0000 -3.5294 0.0000 29.4942
#
#
#
# Elastic Compliance Matrix: (Units=1/GPa)
#
#
# Indices 1 2 3 4 5 6 
#
# 1 0.008657 -0.003408 -0.003133 0.000000 -0.000457 0.000000
# 2 -0.003408 0.010981 -0.002099 0.000000 0.000958 0.000000
# 3 -0.003133 -0.002099 0.026656 0.000000 0.002072 0.000000
# 4 0.000000 0.000000 0.000000 0.054067 0.000000 0.006470
# 5 -0.000457 0.000958 0.002072 0.000000 0.038264 0.000000
# 6 0.000000 0.000000 0.000000 0.006470 0.000000 0.034679
#
#
# Mechanical properties :
#
#
# Convention : Reuss Voigt Hill
#
# Bulk Modulus (GPa) = 34.46642 50.86941 42.66791
# Shear Modulus (GPa) = 24.96837 28.88761 26.92799
#
# Velocity S-wave (km/s) = 3.29197 3.54092 3.41871
# Velocity P-wave (km/s) = 5.42300 6.22867 5.83975
#
# Compressibility (1/GPa) = 0.02901375
#
# Stress axis : x y z
#
# Youngs Moduli (GPa) = 115.51612 91.07050 37.51552
#
# Poissons Ratio (x) = 0.31035 0.11754
# Poissons Ratio (y) = 0.39365 0.07873
# Poissons Ratio (z) = 0.36194 0.19112
#
# Static dielectric constant tensor:
#      x y z
#    x 6.282640 0.000000 0.133000 
#    y 0.000000 4.923880 0.000000 
#    z 0.133000 0.000000 3.763300 
# 
# 
# High freq. dielectric constant tensor:
#      x y z
#    x 1.931040 0.000000 -0.013370 
#    y 0.000000 1.913970 0.000000 
#    z -0.013370 0.000000 1.880030 
# 
# From -- ./inp_files/106552.got.cif
#   From: 2010.06.25/outbox.cif.g09.slc.cpg/sg15_54_cif.got.tgz:106552.got - 2010.06.28 07:06:18.
