data_PCOD8136249
_publ_section_title
;
Structure prediction by ZEFSAII (Michael W. Deem and Ramdas Pophale) SiO2 
 PCOD8136249
Probable space group: C 2/C
;
_chemical_formula_sum "Si O2"
_cell_formula_units_Z 64
_cell_length_a 27.419845
_cell_length_b 14.511094
_cell_length_c 8.929179
_cell_angle_alpha 90.000000
_cell_angle_beta 90.222932
_cell_angle_gamma 90.000000
_cell_volume 3552.821535
_symmetry_space_group_name_H-M "C 2/C"
_symmetry_group_IT_number 15
_symmetry_cell_setting 'monoclinic'
loop_
_space_group_symop_operation_xyz
x,y,z
-x,y,1/2-z
-x,-y,-z
x,-y,1/2+z
1/2+x,1/2+y,z
1/2-x,1/2+y,1/2-z
1/2-x,1/2-y,-z
1/2+x,1/2-y,1/2+z
loop_
_atom_site_type_symbol
_atom_site_label
_atom_site_fract_x
_atom_site_fract_y
_atom_site_fract_z
Si Si1 0.360017 0.718848 0.179448
Si Si2 0.729237 0.355582 0.661223
Si Si3 0.332265 0.096482 0.826799
Si Si4 0.449523 0.399255 0.321176
Si Si5 0.272108 0.655860 0.664482
Si Si6 0.449677 0.589629 0.172665
Si Si7 0.858838 0.773966 0.332600
Si Si8 0.830502 0.586839 0.181085
O O1 0.315931 0.650656 0.226689
O O2 0.361099 0.812812 0.274040
O O3 0.410369 0.667374 0.211020
O O4 0.352055 0.743938 0.007432
O O5 0.710492 0.385863 0.495682
O O6 0.758142 0.261174 0.640912
O O7 0.772521 0.421472 0.722132
O O8 0.275559 0.103351 0.775105
O O9 0.354888 0.005485 0.749604
O O10 0.338099 0.089846 0.004089
O O11 0.500000 0.364335 0.250000
O O12 0.431842 0.492219 0.238813
O O13 0.457028 0.421091 0.495741
O O14 0.410608 0.318864 0.294779
O O15 0.317095 0.653093 0.780660
O O16 0.500000 0.620640 0.250000
O O17 0.856585 0.675863 0.251095
#
# Coordination Sequence:
#
# PCOD8136249 Si02
#       8
#     8   8   8   8   8   8   8   8
#     4  10  20  33  51  76 103 133 170 209 251 300
#     4   8  16  30  46  67  96 131 168 203 242 286
#     4  10  20  33  50  73 103 139 175 210 248 293
#     4  10  21  36  55  78 102 129 163 205 254 306
#     4   8  16  30  46  67  96 131 168 203 242 286
#     4  10  21  36  55  78 102 129 163 205 254 306
#     4  10  20  33  51  76 103 133 170 209 251 300
#     4  10  20  33  50  73 103 139 175 210 248 293
#
# _framework density 18.013852
#
# number of rings (size 3 to 8) (size 9 to 14) (size 15 to 20)
#    0.000    2.500    0.000    4.500    0.000   10.500 
#    0.000    5.000    0.000    0.750    0.000    5.250 
#    0.000    0.000    0.000    0.000    0.000    0.000 
#
# Total GULP energy -396646.079612 kJ/mol
# GULP energy per Si atom -12395.189988 kJ/mol
# Density = 1.797285 g / cm^3
# Si number density = 18.013852 Si / 1000 Ang^3
#
#
#
# Elastic Constant Matrix: (Units=GPa)
#
#
# Indices 1 2 3 4 5 6 
#
# 1 83.3851 46.5751 54.1065 0.0000 -6.8320 0.0000
# 2 46.5751 91.4192 51.7073 0.0000 -6.0286 0.0000
# 3 54.1065 51.7073 106.9550 0.0000 -7.3929 0.0000
# 4 0.0000 0.0000 0.0000 7.5091 0.0000 -3.3520
# 5 -6.8320 -6.0286 -7.3929 0.0000 25.6865 0.0000
# 6 0.0000 0.0000 0.0000 -3.3520 0.0000 20.9649
#
#
#
# Elastic Compliance Matrix: (Units=1/GPa)
#
#
# Indices 1 2 3 4 5 6 
#
# 1 0.020194 -0.006138 -0.007118 0.000000 0.001882 0.000000
# 2 -0.006138 0.016975 -0.005039 0.000000 0.000901 0.000000
# 3 -0.007118 -0.005039 0.015482 0.000000 0.001380 0.000000
# 4 0.000000 0.000000 0.000000 0.143407 0.000000 0.022929
# 5 0.001882 0.000901 0.001380 0.000000 0.040040 0.000000
# 6 0.000000 0.000000 0.000000 0.022929 0.000000 0.051365
#
#
# Mechanical properties :
#
#
# Convention : Reuss Voigt Hill
#
# Bulk Modulus (GPa) = 62.26428 65.17079 63.71754
# Shear Modulus (GPa) = 15.17873 19.45680 17.31777
#
# Velocity S-wave (km/s) = 2.90593 3.29006 3.10394
# Velocity P-wave (km/s) = 6.77488 7.11964 6.94940
#
# Compressibility (1/GPa) = 0.01606057
#
# Stress axis : x y z
#
# Youngs Moduli (GPa) = 49.51969 58.90865 64.58943
#
# Poissons Ratio (x) = 0.36158 0.45977
# Poissons Ratio (y) = 0.30395 0.32549
# Poissons Ratio (z) = 0.35250 0.29686
#
# Static dielectric constant tensor:
#      x y z
#    x 3.223710 0.000000 0.060350 
#    y 0.000000 3.302950 0.000000 
#    z 0.060350 0.000000 3.445810 
# 
# 
# High freq. dielectric constant tensor:
#      x y z
#    x 1.672370 0.000000 0.000450 
#    y 0.000000 1.689440 0.000000 
#    z 0.000450 0.000000 1.712140 
# 
# From -- ./inp_files/69741.got.cif
#   From: 2010.06.25/outbox.cif.g09.slc.cpg/sg15_35_cif.got.tgz:69741.got - 2010.06.28 07:06:18.
