data_PCOD8136465
_publ_section_title
;
Structure prediction by ZEFSAII (Michael W. Deem and Ramdas Pophale) SiO2 
 PCOD8136465
Probable space group: C 2/C
;
_chemical_formula_sum "Si O2"
_cell_formula_units_Z 56
_cell_length_a 15.667343
_cell_length_b 24.734192
_cell_length_c 9.598529
_cell_angle_alpha 90.000000
_cell_angle_beta 125.949056
_cell_angle_gamma 90.000000
_cell_volume 3011.172922
_symmetry_space_group_name_H-M "C 2/C"
_symmetry_group_IT_number 15
_symmetry_cell_setting 'monoclinic'
loop_
_space_group_symop_operation_xyz
x,y,z
-x,y,1/2-z
-x,-y,-z
x,-y,1/2+z
1/2+x,1/2+y,z
1/2-x,1/2+y,1/2-z
1/2-x,1/2-y,-z
1/2+x,1/2-y,1/2+z
loop_
_atom_site_type_symbol
_atom_site_label
_atom_site_fract_x
_atom_site_fract_y
_atom_site_fract_z
Si Si1 0.781513 0.166357 0.521932
Si Si2 0.592207 0.616482 0.624076
Si Si3 0.402068 0.768662 0.553690
Si Si4 0.597134 0.219977 0.763765
Si Si5 0.313132 0.671153 0.042415
Si Si6 0.347622 0.394692 0.837966
Si Si7 0.579136 0.501969 0.697493
O O1 0.859876 0.161559 0.729026
O O2 0.662897 0.177808 0.461176
O O3 0.823829 0.217663 0.477175
O O4 0.780882 0.113974 0.416968
O O5 0.629803 0.627469 0.502537
O O6 0.466435 0.619017 0.499759
O O7 0.634985 0.560395 0.736290
O O8 0.500000 0.761017 0.750000
O O9 0.439961 0.772905 0.430888
O O10 0.500000 0.191167 0.750000
O O11 0.618262 0.274861 0.871951
O O12 0.699781 0.182561 0.866804
O O13 0.299795 0.646537 0.181909
O O14 0.337682 0.453647 0.753813
O O15 0.500000 0.493256 0.750000
O O16 0.500000 0.500000 0.500000
#
# Coordination Sequence:
#
# PCOD8136465 Si02
#       7
#     8   8   8   8   8   8   8
#     4  11  23  36  55  83 113 148 191 223 280 340
#     4  11  20  36  54  81 118 152 183 226 276 335
#     4  11  24  39  57  81 113 148 191 239 276 327
#     4  11  24  39  56  81 113 149 189 240 277 325
#     4  11  23  36  55  83 115 148 192 225 279 343
#     4  11  20  34  56  84 113 152 181 225 281 338
#     4  10  20  34  53  83 116 149 188 228 276 338
#
# _framework density 18.597404999999998
#
# number of rings (size 3 to 8) (size 9 to 14) (size 15 to 20)
#    0.000    1.143    2.857    6.000    4.000    0.000 
#    0.000    0.000    0.000    0.000    0.000    6.000 
#    0.000    0.000    0.000    0.000    0.000    0.000 
#
# Total GULP energy -346979.779096 kJ/mol
# GULP energy per Si atom -12392.134968 kJ/mol
# Density = 1.855508 g / cm^3
# Si number density = 18.597405 Si / 1000 Ang^3
#
#
#
# Elastic Constant Matrix: (Units=GPa)
#
#
# Indices 1 2 3 4 5 6 
#
# 1 91.1219 27.4668 24.4899 0.0000 -19.9456 0.0000
# 2 27.4668 67.6470 9.9302 0.0000 -3.9661 0.0000
# 3 24.4899 9.9302 84.5529 0.0000 -17.5302 0.0000
# 4 0.0000 0.0000 0.0000 23.1806 0.0000 -7.6371
# 5 -19.9456 -3.9661 -17.5302 0.0000 31.9854 0.0000
# 6 0.0000 0.0000 0.0000 -7.6371 0.0000 28.0192
#
#
#
# Elastic Compliance Matrix: (Units=1/GPa)
#
#
# Indices 1 2 3 4 5 6 
#
# 1 0.014740 -0.005240 -0.002124 0.000000 0.007377 0.000000
# 2 -0.005240 0.016934 -0.000805 0.000000 -0.001609 0.000000
# 3 -0.002124 -0.000805 0.013811 0.000000 0.006145 0.000000
# 4 0.000000 0.000000 0.000000 0.047396 0.000000 0.012919
# 5 0.007377 -0.001609 0.006145 0.000000 0.039033 0.000000
# 6 0.000000 0.000000 0.000000 0.012919 0.000000 0.039211
#
#
# Mechanical properties :
#
#
# Convention : Reuss Voigt Hill
#
# Bulk Modulus (GPa) = 34.30986 40.78840 37.54913
# Shear Modulus (GPa) = 25.35781 28.73269 27.04525
#
# Velocity S-wave (km/s) = 3.69658 3.93489 3.81760
# Velocity P-wave (km/s) = 6.05875 6.52874 6.29813
#
# Compressibility (1/GPa) = 0.02914614
#
# Stress axis : x y z
#
# Youngs Moduli (GPa) = 67.84417 59.05220 72.40781
#
# Poissons Ratio (x) = 0.30946 0.15381
# Poissons Ratio (y) = 0.35553 0.05826
# Poissons Ratio (z) = 0.14411 0.04751
#
# Static dielectric constant tensor:
#      x y z
#    x 3.339360 0.000000 -0.197850 
#    y 0.000000 3.009030 0.000000 
#    z -0.197850 0.000000 3.386130 
# 
# 
# High freq. dielectric constant tensor:
#      x y z
#    x 1.702140 0.000000 -0.032130 
#    y 0.000000 1.704680 0.000000 
#    z -0.032130 0.000000 1.732130 
# 
# From -- ./inp_files/43447.got.cif
#   From: 2010.06.25/outbox.cif.g09.slc.cpg/sg15_22_cif.got.tgz:43447.got - 2010.06.28 07:06:18.
