data_PCOD8136781
_publ_section_title
;
Structure prediction by ZEFSAII (Michael W. Deem and Ramdas Pophale) SiO2 
 PCOD8136781
Probable space group: C 2/C
;
_chemical_formula_sum "Si O2"
_cell_formula_units_Z 52
_cell_length_a 12.137840
_cell_length_b 22.069186
_cell_length_c 12.661599
_cell_angle_alpha 90.000000
_cell_angle_beta 46.622703
_cell_angle_gamma 90.000000
_cell_volume 2465.239973
_symmetry_space_group_name_H-M "C 2/C"
_symmetry_group_IT_number 15
_symmetry_cell_setting 'monoclinic'
loop_
_space_group_symop_operation_xyz
x,y,z
-x,y,1/2-z
-x,-y,-z
x,-y,1/2+z
1/2+x,1/2+y,z
1/2-x,1/2+y,1/2-z
1/2-x,1/2-y,-z
1/2+x,1/2-y,1/2+z
loop_
_atom_site_type_symbol
_atom_site_label
_atom_site_fract_x
_atom_site_fract_y
_atom_site_fract_z
Si Si1 0.149210 0.678446 0.807351
Si Si2 0.163594 0.897616 0.183637
Si Si3 0.828949 0.732884 0.057090
Si Si4 0.367127 0.622507 0.256798
Si Si5 0.000000 0.584102 0.750000
Si Si6 0.937953 0.065331 0.524664
Si Si7 0.739583 0.022948 0.468136
O O1 0.206041 0.653505 0.885943
O O2 0.293029 0.714322 0.664117
O O3 0.109045 0.627257 0.746973
O O4 0.008630 0.724100 0.919896
O O5 0.149115 0.916424 0.314197
O O6 0.000000 0.874263 0.250000
O O7 0.223804 0.951505 0.067786
O O8 0.765963 0.670932 0.148238
O O9 0.750000 0.750000 0.000000
O O10 0.500000 0.641274 0.250000
O O11 0.434853 0.615333 0.093428
O O12 0.291634 0.556330 0.327223
O O13 0.068875 0.538066 0.616014
O O14 0.827778 0.059538 0.499110
O O15 0.000000 0.000000 0.500000
#
# Coordination Sequence:
#
# PCOD8136781 Si02
#       7
#     8   8   8   8   4   8   8
#     4  12  26  42  68 102 132 176 227 290 343 405
#     4  12  25  44  67  96 139 184 229 278 343 414
#     4  12  23  43  68  99 134 171 223 286 354 395
#     4  10  20  34  64  99 130 167 215 278 337 400
#     4  12  22  40  64 106 140 164 220 284 354 404
#     4  11  20  37  64  96 127 177 228 261 322 414
#     4  11  21  39  62  98 139 173 216 277 341 412
#
# _framework density 21.09328
#
# number of rings (size 3 to 8) (size 9 to 14) (size 15 to 20)
#    0.000    0.615    7.692    1.385    4.308    0.615 
#    2.769    0.769    0.000    0.000    0.000    0.000 
#    0.000    0.000    0.000    0.000    0.000    0.000 
#
# Total GULP energy -322100.203475 kJ/mol
# GULP energy per Si atom -12388.469364 kJ/mol
# Density = 2.104527 g / cm^3
# Si number density = 21.093280 Si / 1000 Ang^3
#
#
#
# Elastic Constant Matrix: (Units=GPa)
#
#
# Indices 1 2 3 4 5 6 
#
# 1 92.6292 40.3492 23.2070 0.0000 -9.0213 0.0000
# 2 40.3492 64.0428 26.5506 0.0000 -8.8621 0.0000
# 3 23.2070 26.5506 107.9455 0.0000 -10.4732 0.0000
# 4 0.0000 0.0000 0.0000 43.0014 0.0000 -4.0906
# 5 -9.0213 -8.8621 -10.4732 0.0000 24.4335 0.0000
# 6 0.0000 0.0000 0.0000 -4.0906 0.0000 34.5194
#
#
#
# Elastic Compliance Matrix: (Units=1/GPa)
#
#
# Indices 1 2 3 4 5 6 
#
# 1 0.015064 -0.008857 -0.000868 0.000000 0.001977 0.000000
# 2 -0.008857 0.023121 -0.003429 0.000000 0.003646 0.000000
# 3 -0.000868 -0.003429 0.010582 0.000000 0.002972 0.000000
# 4 0.000000 0.000000 0.000000 0.023520 0.000000 0.002787
# 5 0.001977 0.003646 0.002972 0.000000 0.044254 0.000000
# 6 0.000000 0.000000 0.000000 0.002787 0.000000 0.029300
#
#
# Mechanical properties :
#
#
# Convention : Reuss Voigt Hill
#
# Bulk Modulus (GPa) = 44.52662 49.42566 46.97614
# Shear Modulus (GPa) = 27.83404 32.02490 29.92947
#
# Velocity S-wave (km/s) = 3.63653 3.90070 3.77093
# Velocity P-wave (km/s) = 6.22797 6.61590 6.42486
#
# Compressibility (1/GPa) = 0.02245848
#
# Stress axis : x y z
#
# Youngs Moduli (GPa) = 66.38303 43.25050 94.49730
#
# Poissons Ratio (x) = 0.38309 0.08204
# Poissons Ratio (y) = 0.58798 0.32403
# Poissons Ratio (z) = 0.05763 0.14830
#
# Static dielectric constant tensor:
#      x y z
#    x 3.716190 0.000000 -0.127260 
#    y 0.000000 3.570100 0.000000 
#    z -0.127260 0.000000 4.277090 
# 
# 
# High freq. dielectric constant tensor:
#      x y z
#    x 1.793630 0.000000 -0.015300 
#    y 0.000000 1.822510 0.000000 
#    z -0.015300 0.000000 1.836000 
# 
# From -- ./inp_files/91200.got.cif
#   From: 2010.06.25/outbox.cif.g09.slc.cpg/sg15_46_cif.got.tgz:91200.got - 2010.06.28 07:06:18.
