data_PCOD8136435
_publ_section_title
;
Structure prediction by ZEFSAII (Michael W. Deem and Ramdas Pophale) SiO2 
 PCOD8136435
Probable space group: C 2/C
;
_chemical_formula_sum "Si O2"
_cell_formula_units_Z 56
_cell_length_a 17.365327
_cell_length_b 23.895070
_cell_length_c 9.302670
_cell_angle_alpha 90.000000
_cell_angle_beta 130.173916
_cell_angle_gamma 90.000000
_cell_volume 2949.465276
_symmetry_space_group_name_H-M "C 2/C"
_symmetry_group_IT_number 15
_symmetry_cell_setting 'monoclinic'
loop_
_space_group_symop_operation_xyz
x,y,z
-x,y,1/2-z
-x,-y,-z
x,-y,1/2+z
1/2+x,1/2+y,z
1/2-x,1/2+y,1/2-z
1/2-x,1/2-y,-z
1/2+x,1/2-y,1/2+z
loop_
_atom_site_type_symbol
_atom_site_label
_atom_site_fract_x
_atom_site_fract_y
_atom_site_fract_z
Si Si1 0.217833 0.952898 0.875341
Si Si2 0.398134 0.652963 0.302593
Si Si3 0.242280 0.061137 0.734582
Si Si4 0.089151 0.383863 0.466867
Si Si5 0.475432 0.943597 0.554581
Si Si6 0.219474 0.723834 0.114399
Si Si7 0.622253 0.668484 0.561766
O O1 0.130290 0.912169 0.708324
O O2 0.201019 0.014297 0.792533
O O3 0.213005 0.958197 0.040331
O O4 0.326176 0.930145 0.958813
O O5 0.319493 0.692617 0.295718
O O6 0.509965 0.666176 0.493590
O O7 0.385479 0.664696 0.118736
O O8 0.186647 0.118701 0.707539
O O9 0.359887 0.072920 0.893678
O O10 0.044981 0.393579 0.574079
O O11 0.130266 0.321497 0.491628
O O12 0.000000 0.395884 0.250000
O O13 0.500000 0.951814 0.750000
O O14 0.500000 0.000000 0.500000
O O15 0.178159 0.773006 0.168639
O O16 0.250000 0.750000 0.000000
#
# Coordination Sequence:
#
# PCOD8136435 Si02
#       7
#     8   8   8   8   8   8   8
#     4  10  20  34  51  82 113 147 185 232 279 346
#     4   8  17  32  48  76 114 139 178 232 282 326
#     4  11  21  34  54  81 113 148 193 229 286 342
#     4  11  21  34  57  88 118 149 187 242 298 345
#     4  12  23  36  56  85 122 156 193 242 296 355
#     4   9  19  31  54  86 114 146 187 239 287 343
#     4   9  18  32  52  79 110 145 183 239 275 331
#
# _framework density 18.986492999999999
#
# number of rings (size 3 to 8) (size 9 to 14) (size 15 to 20)
#    0.000    2.000    2.857    2.143    4.000    0.571 
#    0.000    0.000    0.000    0.857    3.714    0.000 
#    0.000    0.000    0.000    0.000    0.000    0.000 
#
# Total GULP energy -347118.371615 kJ/mol
# GULP energy per Si atom -12397.084701 kJ/mol
# Density = 1.894328 g / cm^3
# Si number density = 18.986493 Si / 1000 Ang^3
#
#
#
# Elastic Constant Matrix: (Units=GPa)
#
#
# Indices 1 2 3 4 5 6 
#
# 1 86.0059 43.6849 43.5076 0.0000 20.8561 0.0000
# 2 43.6849 124.1696 47.3628 0.0000 14.7332 0.0000
# 3 43.5076 47.3628 66.6630 0.0000 11.2119 0.0000
# 4 0.0000 0.0000 0.0000 17.9852 0.0000 1.1492
# 5 20.8561 14.7332 11.2119 0.0000 39.2141 0.0000
# 6 0.0000 0.0000 0.0000 1.1492 0.0000 34.3986
#
#
#
# Elastic Compliance Matrix: (Units=1/GPa)
#
#
# Indices 1 2 3 4 5 6 
#
# 1 0.019415 -0.002244 -0.009961 0.000000 -0.006635 0.000000
# 2 -0.002244 0.011458 -0.006464 0.000000 -0.001264 0.000000
# 3 -0.009961 -0.006464 0.026048 0.000000 0.000279 0.000000
# 4 0.000000 0.000000 0.000000 0.055720 0.000000 -0.001862
# 5 -0.006635 -0.001264 0.000279 0.000000 0.029425 0.000000
# 6 0.000000 0.000000 0.000000 -0.001862 0.000000 0.029133
#
#
# Mechanical properties :
#
#
# Convention : Reuss Voigt Hill
#
# Bulk Modulus (GPa) = 51.06462 60.66101 55.86281
# Shear Modulus (GPa) = 23.24890 27.80511 25.52701
#
# Velocity S-wave (km/s) = 3.50308 3.83099 3.67070
# Velocity P-wave (km/s) = 6.58147 7.18245 6.88851
#
# Compressibility (1/GPa) = 0.01958303
#
# Stress axis : x y z
#
# Youngs Moduli (GPa) = 51.50775 87.27181 38.39129
#
# Poissons Ratio (x) = 0.19581 0.38241
# Poissons Ratio (y) = 0.11557 0.24817
# Poissons Ratio (z) = 0.51307 0.56414
#
# Static dielectric constant tensor:
#      x y z
#    x 3.801370 0.000000 0.263730 
#    y 0.000000 3.730220 0.000000 
#    z 0.263730 0.000000 3.148330 
# 
# 
# High freq. dielectric constant tensor:
#      x y z
#    x 1.740200 0.000000 0.028920 
#    y 0.000000 1.746970 0.000000 
#    z 0.028920 0.000000 1.693860 
# 
# From -- ./inp_files/51569.got.cif
#   From: 2010.06.25/outbox.cif.g09.slc.cpg/sg15_26_cif.got.tgz:51569.got - 2010.06.28 07:06:18.
