data_PCOD8136153
_publ_section_title
;
Structure prediction by ZEFSAII (Michael W. Deem and Ramdas Pophale) SiO2 
 PCOD8136153
Probable space group: C 2/C
;
_chemical_formula_sum "Si O2"
_cell_formula_units_Z 44
_cell_length_a 7.672594
_cell_length_b 29.125163
_cell_length_c 12.797056
_cell_angle_alpha 90.000000
_cell_angle_beta 53.379190
_cell_angle_gamma 90.000000
_cell_volume 2295.198650
_symmetry_space_group_name_H-M "C 2/C"
_symmetry_group_IT_number 15
_symmetry_cell_setting 'monoclinic'
loop_
_space_group_symop_operation_xyz
x,y,z
-x,y,1/2-z
-x,-y,-z
x,-y,1/2+z
1/2+x,1/2+y,z
1/2-x,1/2+y,1/2-z
1/2-x,1/2-y,-z
1/2+x,1/2-y,1/2+z
loop_
_atom_site_type_symbol
_atom_site_label
_atom_site_fract_x
_atom_site_fract_y
_atom_site_fract_z
Si Si1 0.000000 0.988969 0.750000
Si Si2 0.376281 0.544241 0.507338
Si Si3 0.942154 0.638322 0.602129
Si Si4 0.147801 0.792953 0.095038
Si Si5 0.573235 0.037731 0.892867
Si Si6 0.655898 0.360068 0.408023
O O1 0.812557 0.022593 0.766933
O O2 0.905141 0.955131 0.871500
O O3 0.500000 0.500000 0.500000
O O4 0.467583 0.591711 0.523059
O O5 0.117549 0.540414 0.627452
O O6 0.852602 0.676567 0.556355
O O7 0.925511 0.588275 0.553377
O O8 0.792196 0.632779 0.755906
O O9 0.186701 0.652215 0.550182
O O10 0.000000 0.780159 0.250000
O O11 0.014191 0.819552 0.052788
O O12 0.250000 0.750000 0.000000
O O13 0.500000 0.000000 0.000000
#
# Coordination Sequence:
#
# PCOD8136153 Si02
#       6
#     4   8   8   8   8   8
#     4  10  20  32  50  76 120 150 186 232 284 330
#     4  10  20  33  52  79 114 149 193 232 277 345
#     4   9  18  34  58  81 109 144 190 233 277 346
#     4  10  22  39  62  85 111 144 194 245 295 350
#     4   9  19  31  50  80 110 148 188 227 275 331
#     4   9  19  35  56  82 107 147 189 228 284 343
#
# _framework density 19.170453999999999
#
# number of rings (size 3 to 8) (size 9 to 14) (size 15 to 20)
#    0.000    2.545    0.000    1.091    8.909    2.909 
#    0.000    5.455    0.000    0.000    0.000    0.000 
#    0.000    0.000    0.000    0.000    0.000    0.000 
#
# Total GULP energy -272554.492395 kJ/mol
# GULP energy per Si atom -12388.840563 kJ/mol
# Density = 1.912682 g / cm^3
# Si number density = 19.170454 Si / 1000 Ang^3
#
#
#
# Elastic Constant Matrix: (Units=GPa)
#
#
# Indices 1 2 3 4 5 6 
#
# 1 113.6186 80.7798 35.3589 0.0000 -15.6563 0.0000
# 2 80.7798 173.2535 52.9035 0.0000 -6.5567 0.0000
# 3 35.3589 52.9035 54.6382 0.0000 -9.4281 0.0000
# 4 0.0000 0.0000 0.0000 34.2992 0.0000 1.1886
# 5 -15.6563 -6.5567 -9.4281 0.0000 20.7178 0.0000
# 6 0.0000 0.0000 0.0000 1.1886 0.0000 37.2928
#
#
#
# Elastic Compliance Matrix: (Units=1/GPa)
#
#
# Indices 1 2 3 4 5 6 
#
# 1 0.014891 -0.005853 -0.002547 0.000000 0.008242 0.000000
# 2 -0.005853 0.010519 -0.007147 0.000000 -0.004347 0.000000
# 3 -0.002547 -0.007147 0.028377 0.000000 0.008727 0.000000
# 4 0.000000 0.000000 0.000000 0.029187 0.000000 -0.000930
# 5 0.008242 -0.004347 0.008727 0.000000 0.057092 0.000000
# 6 0.000000 0.000000 0.000000 -0.000930 0.000000 0.026844
#
#
# Mechanical properties :
#
#
# Convention : Reuss Voigt Hill
#
# Bulk Modulus (GPa) = 44.06900 75.51054 59.78977
# Shear Modulus (GPa) = 24.32267 29.95983 27.14125
#
# Velocity S-wave (km/s) = 3.56583 3.95753 3.76677
# Velocity P-wave (km/s) = 6.32387 7.76899 7.08338
#
# Compressibility (1/GPa) = 0.02269169
#
# Stress axis : x y z
#
# Youngs Moduli (GPa) = 67.15284 95.06654 35.24034
#
# Poissons Ratio (x) = 0.55647 0.08976
# Poissons Ratio (y) = 0.39308 0.25186
# Poissons Ratio (z) = 0.17105 0.67944
#
# Static dielectric constant tensor:
#      x y z
#    x 4.136690 0.000000 -0.435140 
#    y 0.000000 3.549840 0.000000 
#    z -0.435140 0.000000 3.498030 
# 
# 
# High freq. dielectric constant tensor:
#      x y z
#    x 1.760050 0.000000 -0.008720 
#    y 0.000000 1.734710 0.000000 
#    z -0.008720 0.000000 1.720100 
# 
# From -- ./inp_files/137168.got.cif
#   From: 2010.06.25/outbox.cif.g09.slc.cpg/sg15_69_cif.got.tgz:137168.got - 2010.06.28 07:06:18.
