data_PCOD8136711
_publ_section_title
;
Structure prediction by ZEFSAII (Michael W. Deem and Ramdas Pophale) SiO2 
 PCOD8136711
Probable space group: C 2/C
;
_chemical_formula_sum "Si O2"
_cell_formula_units_Z 64
_cell_length_a 29.396680
_cell_length_b 10.761177
_cell_length_c 9.048006
_cell_angle_alpha 90.000000
_cell_angle_beta 92.377068
_cell_angle_gamma 90.000000
_cell_volume 2859.809291
_symmetry_space_group_name_H-M "C 2/C"
_symmetry_group_IT_number 15
_symmetry_cell_setting 'monoclinic'
loop_
_space_group_symop_operation_xyz
x,y,z
-x,y,1/2-z
-x,-y,-z
x,-y,1/2+z
1/2+x,1/2+y,z
1/2-x,1/2+y,1/2-z
1/2-x,1/2-y,-z
1/2+x,1/2-y,1/2+z
loop_
_atom_site_type_symbol
_atom_site_label
_atom_site_fract_x
_atom_site_fract_y
_atom_site_fract_z
Si Si1 0.676618 0.990609 0.483628
Si Si2 0.336251 0.411726 0.897105
Si Si3 0.066857 0.046183 0.617467
Si Si4 0.308632 0.640589 0.725157
Si Si5 0.499509 0.332168 0.906823
Si Si6 0.708822 0.828960 0.230482
Si Si7 0.868331 0.360026 0.774587
Si Si8 0.952545 0.749092 0.173897
O O1 0.707993 0.060177 0.608122
O O2 0.662128 0.090031 0.362003
O O3 0.700018 0.877869 0.396437
O O4 0.634029 0.937598 0.573974
O O5 0.388452 0.461807 0.902475
O O6 0.303943 0.513773 0.817346
O O7 0.327664 0.280513 0.810447
O O8 0.321192 0.393426 0.061071
O O9 0.071028 0.123368 0.770709
O O10 0.050407 0.144946 0.485165
O O11 0.022312 0.964595 0.634717
O O12 0.261139 0.717070 0.729672
O O13 0.348612 0.722467 0.804843
O O14 0.500000 0.258532 0.750000
O O15 0.462642 0.258606 0.001654
O O16 0.919158 0.362009 0.716252
O O17 0.000000 0.716543 0.250000
#
# Coordination Sequence:
#
# PCOD8136711 Si02
#       8
#     8   8   8   8   8   8   8   8
#     4  10  25  46  71  89 131 180 237 275 333 396
#     4  12  26  40  65 105 134 179 223 279 335 406
#     4  10  20  36  56  93 137 171 210 263 333 407
#     4  12  26  41  67  99 143 170 224 285 341 401
#     4  10  20  34  60  91 135 176 205 255 341 422
#     4  11  25  46  67  97 131 185 227 280 338 394
#     4  11  23  47  67  97 129 179 223 285 330 402
#     4  10  21  41  64  94 135 174 205 275 348 394
#
# _framework density 22.379114999999999
#
# number of rings (size 3 to 8) (size 9 to 14) (size 15 to 20)
#    0.000    1.250    2.500    3.750    7.000    0.500 
#    2.250    0.625    0.000    0.000    0.000    0.000 
#    0.000    0.000    0.000    0.000    0.000    0.000 
#
# Total GULP energy -396460.820660 kJ/mol
# GULP energy per Si atom -12389.400646 kJ/mol
# Density = 2.232818 g / cm^3
# Si number density = 22.379115 Si / 1000 Ang^3
#
#
#
# Elastic Constant Matrix: (Units=GPa)
#
#
# Indices 1 2 3 4 5 6 
#
# 1 134.9881 21.8500 27.8586 0.0000 -16.9678 0.0000
# 2 21.8500 60.3679 18.0081 0.0000 -3.1798 0.0000
# 3 27.8586 18.0081 111.8151 0.0000 -21.1163 0.0000
# 4 0.0000 0.0000 0.0000 24.1386 0.0000 -9.6493
# 5 -16.9678 -3.1798 -21.1163 0.0000 26.6031 0.0000
# 6 0.0000 0.0000 0.0000 -9.6493 0.0000 26.7940
#
#
#
# Elastic Compliance Matrix: (Units=1/GPa)
#
#
# Indices 1 2 3 4 5 6 
#
# 1 0.008571 -0.002607 -0.000873 0.000000 0.004462 0.000000
# 2 -0.002607 0.018195 -0.002569 0.000000 -0.001527 0.000000
# 3 -0.000873 -0.002569 0.011071 0.000000 0.007924 0.000000
# 4 0.000000 0.000000 0.000000 0.048394 0.000000 0.017428
# 5 0.004462 -0.001527 0.007924 0.000000 0.046543 0.000000
# 6 0.000000 0.000000 0.000000 0.017428 0.000000 0.043598
#
#
# Mechanical properties :
#
#
# Convention : Reuss Voigt Hill
#
# Bulk Modulus (GPa) = 38.85198 49.17828 44.01513
# Shear Modulus (GPa) = 25.37436 31.47075 28.42256
#
# Velocity S-wave (km/s) = 3.37091 3.75408 3.56764
# Velocity P-wave (km/s) = 5.70519 6.38855 6.05652
#
# Compressibility (1/GPa) = 0.02573871
#
# Stress axis : x y z
#
# Youngs Moduli (GPa) = 116.67148 54.96139 90.32599
#
# Poissons Ratio (x) = 0.14328 0.07885
# Poissons Ratio (y) = 0.30414 0.23207
# Poissons Ratio (z) = 0.10185 0.14121
#
# Static dielectric constant tensor:
#      x y z
#    x 4.065770 0.000000 -0.102590 
#    y 0.000000 3.920450 0.000000 
#    z -0.102590 0.000000 4.463350 
# 
# 
# High freq. dielectric constant tensor:
#      x y z
#    x 1.879860 0.000000 -0.004830 
#    y 0.000000 1.850780 0.000000 
#    z -0.004830 0.000000 1.896610 
# 
# From -- ./inp_files/69388.got.cif
#   From: 2010.06.25/outbox.cif.g09.slc.cpg/sg15_35_cif.got.tgz:69388.got - 2010.06.28 07:06:18.
