data_PCOD8136228
_publ_section_title
;
Structure prediction by ZEFSAII (Michael W. Deem and Ramdas Pophale) SiO2 
 PCOD8136228
Probable space group: C 2/C
;
_chemical_formula_sum "Si O2"
_cell_formula_units_Z 52
_cell_length_a 18.412024
_cell_length_b 12.660329
_cell_length_c 13.591007
_cell_angle_alpha 90.000000
_cell_angle_beta 54.148662
_cell_angle_gamma 90.000000
_cell_volume 2567.865486
_symmetry_space_group_name_H-M "C 2/C"
_symmetry_group_IT_number 15
_symmetry_cell_setting 'monoclinic'
loop_
_space_group_symop_operation_xyz
x,y,z
-x,y,1/2-z
-x,-y,-z
x,-y,1/2+z
1/2+x,1/2+y,z
1/2-x,1/2+y,1/2-z
1/2-x,1/2-y,-z
1/2+x,1/2-y,1/2+z
loop_
_atom_site_type_symbol
_atom_site_label
_atom_site_fract_x
_atom_site_fract_y
_atom_site_fract_z
Si Si1 0.000000 0.839234 0.250000
Si Si2 0.327677 0.322754 0.470742
Si Si3 0.497538 0.254419 0.861559
Si Si4 0.796235 0.293545 0.561384
Si Si5 0.047560 0.012584 0.360067
Si Si6 0.234711 0.023866 0.633409
Si Si7 0.827493 0.716965 0.665795
O O1 0.913340 0.770152 0.345913
O O2 0.992658 0.912494 0.161547
O O3 0.250000 0.250000 0.500000
O O4 0.309187 0.438448 0.436978
O O5 0.336310 0.316910 0.582570
O O6 0.500000 0.205044 0.750000
O O7 0.519907 0.377670 0.832771
O O8 0.574566 0.197494 0.864985
O O9 0.400213 0.238385 0.986941
O O10 0.750000 0.250000 0.500000
O O11 0.792206 0.420255 0.565091
O O12 0.746315 0.244138 0.694526
O O13 0.155767 0.004746 0.273159
O O14 0.000000 0.000000 0.500000
O O15 0.299333 0.111770 0.629591
#
# Coordination Sequence:
#
# PCOD8136228 Si02
#       7
#     4   8   8   8   8   8   8
#     4  10  20  32  62  92 124 164 218 270 320 380
#     4   9  21  40  64  92 133 166 214 269 329 387
#     4  12  23  42  61  93 135 169 219 275 326 389
#     4  12  25  42  68  95 134 177 217 277 329 391
#     4  11  20  36  63  95 125 166 220 272 326 379
#     4  10  23  43  65  99 131 175 218 267 335 391
#     4  11  23  43  67  97 134 172 220 273 329 400
#
# _framework density 20.250281999999999
#
# number of rings (size 3 to 8) (size 9 to 14) (size 15 to 20)
#    0.000    1.231    3.846    1.846    2.154    4.308 
#    0.000    0.000    6.769    0.000    0.000    0.000 
#    0.000    0.000    0.000    0.000    0.000    0.000 
#
# Total GULP energy -322222.320096 kJ/mol
# GULP energy per Si atom -12393.166158 kJ/mol
# Density = 2.020419 g / cm^3
# Si number density = 20.250282 Si / 1000 Ang^3
#
#
#
# Elastic Constant Matrix: (Units=GPa)
#
#
# Indices 1 2 3 4 5 6 
#
# 1 144.3558 40.6962 76.3193 0.0000 -12.6361 0.0000
# 2 40.6962 87.5518 41.1644 0.0000 -5.2810 0.0000
# 3 76.3193 41.1644 152.1055 0.0000 -5.7807 0.0000
# 4 0.0000 0.0000 0.0000 30.8065 0.0000 -6.4861
# 5 -12.6361 -5.2810 -5.7807 0.0000 51.1755 0.0000
# 6 0.0000 0.0000 0.0000 -6.4861 0.0000 28.5182
#
#
#
# Elastic Compliance Matrix: (Units=1/GPa)
#
#
# Indices 1 2 3 4 5 6 
#
# 1 0.010071 -0.002557 -0.004295 0.000000 0.001738 0.000000
# 2 -0.002557 0.013783 -0.002427 0.000000 0.000517 0.000000
# 3 -0.004295 -0.002427 0.009377 0.000000 -0.000252 0.000000
# 4 0.000000 0.000000 0.000000 0.034093 0.000000 0.007754
# 5 0.001738 0.000517 -0.000252 0.000000 0.019995 0.000000
# 6 0.000000 0.000000 0.000000 0.007754 0.000000 0.036829
#
#
# Mechanical properties :
#
#
# Convention : Reuss Voigt Hill
#
# Bulk Modulus (GPa) = 68.15890 77.81922 72.98906
# Shear Modulus (GPa) = 33.87599 37.15558 35.51579
#
# Velocity S-wave (km/s) = 4.09450 4.28812 4.19243
# Velocity P-wave (km/s) = 7.48897 7.93911 7.71732
#
# Compressibility (1/GPa) = 0.01467160
#
# Stress axis : x y z
#
# Youngs Moduli (GPa) = 99.29398 72.55396 106.64555
#
# Poissons Ratio (x) = 0.18552 0.45806
# Poissons Ratio (y) = 0.25390 0.25887
# Poissons Ratio (z) = 0.42648 0.17612
#
# Static dielectric constant tensor:
#      x y z
#    x 3.838500 0.000000 -0.141950 
#    y 0.000000 3.786870 0.000000 
#    z -0.141950 0.000000 3.822330 
# 
# 
# High freq. dielectric constant tensor:
#      x y z
#    x 1.804440 0.000000 -0.002990 
#    y 0.000000 1.766830 0.000000 
#    z -0.002990 0.000000 1.810360 
# 
# From -- ./inp_files/167563.got.cif
#   From: 2010.06.25/outbox.cif.g09.slc.cpg/sg15_84_cif.got.tgz:167563.got - 2010.06.28 07:06:18.
