data_PCOD8136409
_publ_section_title
;
Structure prediction by ZEFSAII (Michael W. Deem and Ramdas Pophale) SiO2 
 PCOD8136409
Probable space group: C 2/C
;
_chemical_formula_sum "Si O2"
_cell_formula_units_Z 56
_cell_length_a 22.098769
_cell_length_b 25.346367
_cell_length_c 18.462469
_cell_angle_alpha 90.000000
_cell_angle_beta 160.715118
_cell_angle_gamma 90.000000
_cell_volume 3415.360830
_symmetry_space_group_name_H-M "C 2/C"
_symmetry_group_IT_number 15
_symmetry_cell_setting 'monoclinic'
loop_
_space_group_symop_operation_xyz
x,y,z
-x,y,1/2-z
-x,-y,-z
x,-y,1/2+z
1/2+x,1/2+y,z
1/2-x,1/2+y,1/2-z
1/2-x,1/2-y,-z
1/2+x,1/2-y,1/2+z
loop_
_atom_site_type_symbol
_atom_site_label
_atom_site_fract_x
_atom_site_fract_y
_atom_site_fract_z
Si Si1 0.971954 0.302626 0.135838
Si Si2 0.361602 0.913633 0.028149
Si Si3 0.811167 0.098221 0.863529
Si Si4 0.976099 0.052428 0.519777
Si Si5 0.558152 0.944499 0.533388
Si Si6 0.480853 0.520153 0.313321
Si Si7 0.126830 0.809845 0.964476
O O1 0.834177 0.352397 0.970795
O O2 0.895326 0.246810 0.019974
O O3 0.000000 0.287589 0.250000
O O4 0.163993 0.318860 0.319773
O O5 0.500000 0.913734 0.250000
O O6 0.443550 0.948485 0.055903
O O7 0.173550 0.937169 0.843321
O O8 0.588433 0.099944 0.604704
O O9 0.908504 0.147043 0.013501
O O10 0.902767 0.095656 0.886547
O O11 0.840115 0.045657 0.946516
O O12 0.765542 0.071728 0.289742
O O13 0.000000 0.000000 0.500000
O O14 0.053122 0.037285 0.687125
O O15 0.500000 0.000000 0.500000
O O16 0.500000 0.511140 0.250000
O O17 0.000000 0.819497 0.750000
#
# Coordination Sequence:
#
# PCOD8136409 Si02
#       7
#     8   8   8   8   8   8   8
#     4  10  22  33  44  67  96 131 168 212 248 275
#     4  11  22  32  47  73  97 131 174 208 238 285
#     4  11  21  33  52  69  92 132 169 204 246 296
#     4  10  20  34  49  69  93 126 160 207 253 295
#     4  12  19  34  49  68  96 122 169 207 247 291
#     4  11  21  33  49  71  96 126 170 207 246 294
#     4  11  22  33  48  67  95 134 170 214 247 279
#
# _framework density 16.396511
#
# number of rings (size 3 to 8) (size 9 to 14) (size 15 to 20)
#    0.000    1.143    7.143    3.000    8.000    0.000 
#    0.000    0.000    0.000    0.000    0.000    0.000 
#    0.000    0.000    0.000    6.429    0.571    0.571 
#
# Total GULP energy -346874.527794 kJ/mol
# GULP energy per Si atom -12388.375993 kJ/mol
# Density = 1.635919 g / cm^3
# Si number density = 16.396511 Si / 1000 Ang^3
#
#
#
# Elastic Constant Matrix: (Units=GPa)
#
#
# Indices 1 2 3 4 5 6 
#
# 1 113.0998 55.7083 33.7955 0.0000 7.0175 -0.0002
# 2 55.7083 81.9225 32.2406 0.0000 -6.4246 -0.0002
# 3 33.7955 32.2406 83.1079 0.0004 18.3101 -0.0015
# 4 0.0000 0.0000 0.0004 21.7659 0.0000 -0.3236
# 5 7.0175 -6.4246 18.3101 0.0000 25.1181 -0.0007
# 6 -0.0002 -0.0002 -0.0015 -0.3236 -0.0007 29.6673
#
#
#
# Elastic Compliance Matrix: (Units=1/GPa)
#
#
# Indices 1 2 3 4 5 6 
#
# 1 0.014315 -0.009975 -0.000605 0.000000 -0.006109 0.000000
# 2 -0.009975 0.023416 -0.008293 0.000000 0.014821 0.000000
# 3 -0.000605 -0.008293 0.018973 0.000000 -0.015783 0.000001
# 4 0.000000 0.000000 0.000000 0.045951 0.000000 0.000501
# 5 -0.006109 0.014821 -0.015783 0.000000 0.056815 0.000001
# 6 0.000000 0.000000 0.000001 0.000501 0.000001 0.033713
#
#
# Mechanical properties :
#
#
# Convention : Reuss Voigt Hill
#
# Bulk Modulus (GPa) = 52.75108 57.95769 55.35438
# Shear Modulus (GPa) = 21.07497 25.73599 23.40548
#
# Velocity S-wave (km/s) = 3.58904 3.96612 3.78228
# Velocity P-wave (km/s) = 7.02972 7.50984 7.27374
#
# Compressibility (1/GPa) = 0.01895696
#
# Stress axis : x y z
#
# Youngs Moduli (GPa) = 69.85598 42.70583 52.70652
#
# Poissons Ratio (x) = 0.42601 0.03191
# Poissons Ratio (y) = 0.69684 0.43709
# Poissons Ratio (z) = 0.04229 0.35415
#
# Static dielectric constant tensor:
#      x y z
#    x 3.335720 0.000000 0.158350 
#    y 0.000000 3.186310 0.000000 
#    z 0.158350 0.000000 2.915310 
# 
# 
# High freq. dielectric constant tensor:
#      x y z
#    x 1.621620 0.000000 0.035040 
#    y 0.000000 1.603290 0.000000 
#    z 0.035040 0.000000 1.625820 
# 
# From -- ./inp_files/217091.got.cif
#   From: 2010.06.25/outbox.cif.g09.slc.cpg/sg15_109_cif.got.tgz:217091.got - 2010.06.28 07:06:18.
