data_PCOD8136805
_publ_section_title
;
Structure prediction by ZEFSAII (Michael W. Deem and Ramdas Pophale) SiO2 
 PCOD8136805
Probable space group: C 2/C
;
_chemical_formula_sum "Si O2"
_cell_formula_units_Z 48
_cell_length_a 25.041687
_cell_length_b 9.280237
_cell_length_c 9.413154
_cell_angle_alpha 90.000000
_cell_angle_beta 68.344698
_cell_angle_gamma 90.000000
_cell_volume 2033.153521
_symmetry_space_group_name_H-M "C 2/C"
_symmetry_group_IT_number 15
_symmetry_cell_setting 'monoclinic'
loop_
_space_group_symop_operation_xyz
x,y,z
-x,y,1/2-z
-x,-y,-z
x,-y,1/2+z
1/2+x,1/2+y,z
1/2-x,1/2+y,1/2-z
1/2-x,1/2-y,-z
1/2+x,1/2-y,1/2+z
loop_
_atom_site_type_symbol
_atom_site_label
_atom_site_fract_x
_atom_site_fract_y
_atom_site_fract_z
Si Si1 0.295510 0.919039 0.892296
Si Si2 0.814634 0.257449 0.388752
Si Si3 0.624984 0.777245 0.904295
Si Si4 0.062941 0.188671 0.698545
Si Si5 0.039397 0.496873 0.095875
Si Si6 0.824595 0.172073 0.064096
O O1 0.319229 0.821938 0.740317
O O2 0.226409 0.934579 0.938664
O O3 0.327585 0.071766 0.859682
O O4 0.309542 0.833817 0.024554
O O5 0.750000 0.250000 0.500000
O O6 0.853452 0.188461 0.478161
O O7 0.828334 0.171678 0.231367
O O8 0.580787 0.689505 0.847890
O O9 0.597199 0.918427 0.998878
O O10 0.056968 0.349399 0.643355
O O11 0.114035 0.114471 0.557249
O O12 0.000000 0.110812 0.750000
O O13 0.000000 0.412796 0.250000
O O14 0.000000 0.500000 0.000000
#
# Coordination Sequence:
#
# PCOD8136805 Si02
#       6
#     8   8   8   8   8   8
#     4  10  21  39  57  78 117 156 189 233 291 343
#     4  12  23  35  57  88 118 149 194 238 285 338
#     4  11  20  35  52  80 115 153 185 233 282 345
#     4  10  20  35  52  77 115 151 194 227 284 351
#     4  11  20  31  49  78 113 154 188 229 287 349
#     4  10  22  37  57  82 115 154 191 234 290 339
#
# _framework density 23.608644000000002
#
# number of rings (size 3 to 8) (size 9 to 14) (size 15 to 20)
#    0.000    1.333    5.000    4.000    2.333    0.000 
#    0.000    0.000    0.000    0.000    0.000    5.833 
#    0.000    0.000    0.000    0.000    0.000    0.000 
#
# Total GULP energy -297417.445550 kJ/mol
# GULP energy per Si atom -12392.393565 kJ/mol
# Density = 2.355491 g / cm^3
# Si number density = 23.608644 Si / 1000 Ang^3
#
#
#
# Elastic Constant Matrix: (Units=GPa)
#
#
# Indices 1 2 3 4 5 6 
#
# 1 177.8298 -5.0649 76.1371 0.0000 8.5516 0.0000
# 2 -5.0649 6.1151 -6.6376 0.0000 2.0524 0.0000
# 3 76.1371 -6.6376 161.4991 0.0000 17.0926 0.0000
# 4 0.0000 0.0000 0.0000 11.6417 0.0000 -9.1463
# 5 8.5516 2.0524 17.0926 0.0000 64.7030 0.0000
# 6 0.0000 0.0000 0.0000 -9.1463 0.0000 20.5407
#
#
#
# Elastic Compliance Matrix: (Units=1/GPa)
#
#
# Indices 1 2 3 4 5 6 
#
# 1 0.007079 0.002422 -0.003221 0.000000 -0.000162 0.000000
# 2 0.002422 0.175605 0.006892 0.000000 -0.007711 0.000000
# 3 -0.003221 0.006892 0.008201 0.000000 -0.001959 0.000000
# 4 0.000000 0.000000 0.000000 0.132116 0.000000 0.058828
# 5 -0.000162 -0.007711 -0.001959 0.000000 0.016239 0.000000
# 6 0.000000 0.000000 0.000000 0.058828 0.000000 0.074879
#
#
# Mechanical properties :
#
#
# Convention : Reuss Voigt Hill
#
# Bulk Modulus (GPa) = 4.92441 52.70145 28.81293
# Shear Modulus (GPa) = 10.64686 38.11105 24.37896
#
# Velocity S-wave (km/s) = 2.12592 4.02217 3.21694
# Velocity P-wave (km/s) = 2.84893 6.62887 5.10188
#
# Compressibility (1/GPa) = 0.20307016
#
# Stress axis : x y z
#
# Youngs Moduli (GPa) = 141.26234 5.69461 121.93669
#
# Poissons Ratio (x) = -0.01379 0.39272
# Poissons Ratio (y) = -0.34209 -0.84036
# Poissons Ratio (z) = 0.45496 -0.03925
#
# Static dielectric constant tensor:
#      x y z
#    x 4.997510 0.000000 -0.039710 
#    y 0.000000 3.181950 0.000000 
#    z -0.039710 0.000000 4.669740 
# 
# 
# High freq. dielectric constant tensor:
#      x y z
#    x 1.957530 0.000000 0.003350 
#    y 0.000000 1.869600 0.000000 
#    z 0.003350 0.000000 1.949630 
# 
# From -- ./inp_files/60678.got.cif
#   From: 2010.06.25/outbox.cif.g09.slc.cpg/sg15_31_cif.got.tgz:60678.got - 2010.06.28 07:06:18.
