data_PCOD8136454
_publ_section_title
;
Structure prediction by ZEFSAII (Michael W. Deem and Ramdas Pophale) SiO2 
 PCOD8136454
Probable space group: C 2/C
;
_chemical_formula_sum "Si O2"
_cell_formula_units_Z 32
_cell_length_a 8.647782
_cell_length_b 9.119956
_cell_length_c 18.237051
_cell_angle_alpha 90.000000
_cell_angle_beta 95.472213
_cell_angle_gamma 90.000000
_cell_volume 1431.753639
_symmetry_space_group_name_H-M "C 2/C"
_symmetry_group_IT_number 15
_symmetry_cell_setting 'monoclinic'
loop_
_space_group_symop_operation_xyz
x,y,z
-x,y,1/2-z
-x,-y,-z
x,-y,1/2+z
1/2+x,1/2+y,z
1/2-x,1/2+y,1/2-z
1/2-x,1/2-y,-z
1/2+x,1/2-y,1/2+z
loop_
_atom_site_type_symbol
_atom_site_label
_atom_site_fract_x
_atom_site_fract_y
_atom_site_fract_z
Si Si1 0.215918 0.364248 0.829276
Si Si2 0.161720 0.303455 0.292561
Si Si3 0.444823 0.631853 0.083106
Si Si4 0.399093 0.696322 0.549118
O O1 0.172582 0.524134 0.800516
O O2 0.209164 0.259798 0.757148
O O3 0.382583 0.368743 0.875704
O O4 0.083681 0.302743 0.879420
O O5 0.172561 0.229097 0.373506
O O6 0.000000 0.256851 0.250000
O O7 0.375082 0.468963 0.077104
O O8 0.454531 0.699879 0.000675
O O9 0.250000 0.750000 0.500000
#
# Coordination Sequence:
#
# PCOD8136454 Si02
#       4
#     8   8   8   8
#     4  10  20  34  53  76 102 135 171 210 255 302
#     4  10  21  35  53  77 104 134 171 211 252 302
#     4   9  19  36  53  73 104 137 168 208 255 302
#     4   9  18  35  55  75 104 136 168 210 255 300
#
# _framework density 22.350214000000001
#
# number of rings (size 3 to 8) (size 9 to 14) (size 15 to 20)
#    0.000    2.500    0.000    1.500    0.000    3.000 
#    0.000   11.250    0.000    0.000    0.000    0.000 
#    0.000    0.000    0.000    0.000    0.000    0.000 
#
# Total GULP energy -198295.692163 kJ/mol
# GULP energy per Si atom -12393.480760 kJ/mol
# Density = 2.229934 g / cm^3
# Si number density = 22.350214 Si / 1000 Ang^3
#
#
#
# Elastic Constant Matrix: (Units=GPa)
#
#
# Indices 1 2 3 4 5 6 
#
# 1 12.9153 9.1078 26.0107 0.0000 -6.9710 0.0000
# 2 9.1078 175.2850 106.0425 0.0000 -26.8990 0.0000
# 3 26.0107 106.0425 189.0483 0.0000 -45.3277 0.0000
# 4 0.0000 0.0000 0.0000 59.3581 0.0000 -4.3166
# 5 -6.9710 -26.8990 -45.3277 0.0000 24.0009 0.0000
# 6 0.0000 0.0000 0.0000 -4.3166 0.0000 31.3897
#
#
#
# Elastic Compliance Matrix: (Units=1/GPa)
#
#
# Indices 1 2 3 4 5 6 
#
# 1 0.110770 0.005330 -0.016602 0.000000 0.006793 0.000000
# 2 0.005330 0.008904 -0.005417 0.000000 0.001297 0.000000
# 3 -0.016602 -0.005417 0.014622 0.000000 0.016721 0.000000
# 4 0.000000 0.000000 0.000000 0.017017 0.000000 0.002340
# 5 0.006793 0.001297 0.016721 0.000000 0.076671 0.000000
# 6 0.000000 0.000000 0.000000 0.002340 0.000000 0.032179
#
#
# Mechanical properties :
#
#
# Convention : Reuss Voigt Hill
#
# Bulk Modulus (GPa) = 9.90892 73.28560 41.59726
# Shear Modulus (GPa) = 15.28210 38.68891 26.98551
#
# Velocity S-wave (km/s) = 2.61771 4.16508 3.47853
# Velocity P-wave (km/s) = 3.68506 7.48274 5.89792
#
# Compressibility (1/GPa) = 0.10091917
#
# Stress axis : x y z
#
# Youngs Moduli (GPa) = 9.02769 112.30618 68.39197
#
# Poissons Ratio (x) = -0.59864 1.13544
# Poissons Ratio (y) = -0.04812 0.37048
# Poissons Ratio (z) = 0.14988 0.60837
#
# Static dielectric constant tensor:
#      x y z
#    x 3.621160 0.000000 -0.339720 
#    y 0.000000 3.936640 0.000000 
#    z -0.339720 0.000000 4.984560 
# 
# 
# High freq. dielectric constant tensor:
#      x y z
#    x 1.839250 0.000000 -0.011690 
#    y 0.000000 1.880340 0.000000 
#    z -0.011690 0.000000 1.912490 
# 
# From -- ./inp_files/194659.got.cif
#   From: 2010.06.25/outbox.cif.g09.slc.cpg/sg15_98_cif.got.tgz:194659.got - 2010.06.28 07:06:18.
