data_PCOD8136361
_publ_section_title
;
Structure prediction by ZEFSAII (Michael W. Deem and Ramdas Pophale) SiO2 
 PCOD8136361
Probable space group: C 2/C
;
_chemical_formula_sum "Si O2"
_cell_formula_units_Z 60
_cell_length_a 27.591229
_cell_length_b 20.552606
_cell_length_c 8.956248
_cell_angle_alpha 90.000000
_cell_angle_beta 36.602186
_cell_angle_gamma 90.000000
_cell_volume 3028.282972
_symmetry_space_group_name_H-M "C 2/C"
_symmetry_group_IT_number 15
_symmetry_cell_setting 'monoclinic'
loop_
_space_group_symop_operation_xyz
x,y,z
-x,y,1/2-z
-x,-y,-z
x,-y,1/2+z
1/2+x,1/2+y,z
1/2-x,1/2+y,1/2-z
1/2-x,1/2-y,-z
1/2+x,1/2-y,1/2+z
loop_
_atom_site_type_symbol
_atom_site_label
_atom_site_fract_x
_atom_site_fract_y
_atom_site_fract_z
Si Si1 0.139979 0.062044 0.498032
Si Si2 0.570422 0.750471 0.768646
Si Si3 0.912930 0.056798 0.524944
Si Si4 0.000000 0.144849 0.750000
Si Si5 0.276201 0.206019 0.754954
Si Si6 0.365596 0.698197 0.595497
Si Si7 0.447209 0.179310 0.748129
Si Si8 0.718946 0.150215 0.456837
O O1 0.103495 0.056849 0.755792
O O2 0.079359 0.100307 0.535901
O O3 0.224052 0.102537 0.281070
O O4 0.152593 0.990832 0.393732
O O5 0.513732 0.690688 0.858927
O O6 0.628004 0.780258 0.499388
O O7 0.632882 0.723943 0.739170
O O8 0.511708 0.809428 0.957313
O O9 0.908330 0.128939 0.472501
O O10 0.000000 0.029578 0.250000
O O11 0.227863 0.185997 0.724217
O O12 0.233753 0.273444 0.902129
O O13 0.269890 0.146060 0.890593
O O14 0.416887 0.748958 0.371176
O O15 0.500000 0.145408 0.750000
O O16 0.372530 0.134759 0.876566
#
# Coordination Sequence:
#
# PCOD8136361 Si02
#       8
#     8   8   8   4   8   8   8   8
#     4  12  27  39  60  81 122 160 203 246 287 346
#     4  11  19  34  54  87 114 159 192 243 296 353
#     4  12  25  41  57  86 115 161 206 242 279 347
#     4  12  22  34  56  80 118 158 196 236 286 338
#     4  10  20  33  57  83 120 155 191 242 297 355
#     4  10  21  34  55  81 123 157 198 237 292 350
#     4   9  20  34  59  86 121 152 190 238 296 363
#     4  10  21  38  53  87 118 155 193 240 300 350
#
# _framework density 19.813206999999998
#
# number of rings (size 3 to 8) (size 9 to 14) (size 15 to 20)
#    0.000    1.333    3.333    2.800    5.600    2.133 
#    0.000    0.000    0.000    0.000    0.000    3.733 
#    0.000    0.000    0.000    0.000    0.000    0.000 
#
# Total GULP energy -371674.886332 kJ/mol
# GULP energy per Si atom -12389.162878 kJ/mol
# Density = 1.976811 g / cm^3
# Si number density = 19.813207 Si / 1000 Ang^3
#
#
#
# Elastic Constant Matrix: (Units=GPa)
#
#
# Indices 1 2 3 4 5 6 
#
# 1 131.7350 23.6211 50.1814 0.0000 -10.6027 0.0000
# 2 23.6211 40.2901 15.5333 0.0000 0.9327 0.0000
# 3 50.1814 15.5333 83.3289 0.0000 -2.2849 0.0000
# 4 0.0000 0.0000 0.0000 18.3566 0.0000 -3.6202
# 5 -10.6027 0.9327 -2.2849 0.0000 32.6750 0.0000
# 6 0.0000 0.0000 0.0000 -3.6202 0.0000 20.5617
#
#
#
# Elastic Compliance Matrix: (Units=1/GPa)
#
#
# Indices 1 2 3 4 5 6 
#
# 1 0.010735 -0.004212 -0.005591 0.000000 0.003213 0.000000
# 2 -0.004212 0.028435 -0.002829 0.000000 -0.002376 0.000000
# 3 -0.005591 -0.002829 0.015878 0.000000 -0.000623 0.000000
# 4 0.000000 0.000000 0.000000 0.056436 0.000000 0.009936
# 5 0.003213 -0.002376 -0.000623 0.000000 0.031671 0.000000
# 6 0.000000 0.000000 0.000000 0.009936 0.000000 0.050384
#
#
# Mechanical properties :
#
#
# Convention : Reuss Voigt Hill
#
# Bulk Modulus (GPa) = 33.57646 48.22509 40.90077
# Shear Modulus (GPa) = 21.85969 25.38653 23.62311
#
# Velocity S-wave (km/s) = 3.32518 3.58340 3.45670
# Velocity P-wave (km/s) = 5.63256 6.44311 6.05142
#
# Compressibility (1/GPa) = 0.02978277
#
# Stress axis : x y z
#
# Youngs Moduli (GPa) = 93.15586 35.16760 62.98015
#
# Poissons Ratio (x) = 0.14813 0.35214
# Poissons Ratio (y) = 0.39239 0.17818
# Poissons Ratio (z) = 0.52086 0.09949
#
# Static dielectric constant tensor:
#      x y z
#    x 4.235920 0.000000 -0.041310 
#    y 0.000000 3.232350 0.000000 
#    z -0.041310 0.000000 3.438330 
# 
# 
# High freq. dielectric constant tensor:
#      x y z
#    x 1.787140 0.000000 0.001040 
#    y 0.000000 1.722150 0.000000 
#    z 0.001040 0.000000 1.763700 
# 
# From -- ./inp_files/67520.got.cif
#   From: 2010.06.25/outbox.cif.g09.slc.cpg/sg15_34_cif.got.tgz:67520.got - 2010.06.28 07:06:18.
