data_PCOD8136244
_publ_section_title
;
Structure prediction by ZEFSAII (Michael W. Deem and Ramdas Pophale) SiO2 
 PCOD8136244
Probable space group: C 2/C
;
_chemical_formula_sum "Si O2"
_cell_formula_units_Z 64
_cell_length_a 26.216247
_cell_length_b 16.709746
_cell_length_c 8.984478
_cell_angle_alpha 90.000000
_cell_angle_beta 113.245152
_cell_angle_gamma 90.000000
_cell_volume 3616.311528
_symmetry_space_group_name_H-M "C 2/C"
_symmetry_group_IT_number 15
_symmetry_cell_setting 'monoclinic'
loop_
_space_group_symop_operation_xyz
x,y,z
-x,y,1/2-z
-x,-y,-z
x,-y,1/2+z
1/2+x,1/2+y,z
1/2-x,1/2+y,1/2-z
1/2-x,1/2-y,-z
1/2+x,1/2-y,1/2+z
loop_
_atom_site_type_symbol
_atom_site_label
_atom_site_fract_x
_atom_site_fract_y
_atom_site_fract_z
Si Si1 0.053053 0.955948 0.212344
Si Si2 0.267221 0.010874 0.631085
Si Si3 0.169983 0.903749 0.448544
Si Si4 0.552620 0.388972 0.887318
Si Si5 0.801487 0.609419 0.401917
Si Si6 0.307575 0.701241 0.267336
Si Si7 0.646926 0.733294 0.482030
Si Si8 0.240162 0.159615 0.778064
O O1 0.109719 0.908199 0.306538
O O2 0.000000 0.926867 0.250000
O O3 0.069993 0.046603 0.279442
O O4 0.039163 0.941690 0.020960
O O5 0.304859 0.045408 0.540542
O O6 0.263185 0.072527 0.762672
O O7 0.204541 0.987083 0.505267
O O8 0.298603 0.933207 0.736992
O O9 0.160695 0.864352 0.598286
O O10 0.207970 0.843835 0.396138
O O11 0.500000 0.345994 0.750000
O O12 0.593726 0.316839 0.974069
O O13 0.746224 0.660696 0.369756
O O14 0.852832 0.673361 0.462921
O O15 0.350472 0.732081 0.193475
O O16 0.290244 0.777248 0.348703
O O17 0.700136 0.686498 0.600494
#
# Coordination Sequence:
#
# PCOD8136244 Si02
#       8
#     8   8   8   8   8   8   8   8
#     4  11  24  39  54  78 109 137 188 228 260 305
#     4  11  19  31  50  75 107 139 180 210 257 314
#     4  11  23  31  52  75 106 149 177 216 264 309
#     4  11  24  39  59  77 104 141 183 227 266 315
#     4  10  20  33  49  78 106 145 171 220 252 320
#     4  10  21  31  52  73 110 144 180 211 261 317
#     4  11  20  36  55  74 108 142 181 216 268 312
#     4  11  18  35  47  76 109 141 178 218 256 314
#
# _framework density 17.697590000000002
#
# number of rings (size 3 to 8) (size 9 to 14) (size 15 to 20)
#    0.000    1.250    5.000    3.375    3.500    0.000 
#    0.000    0.000    0.000    0.000    0.000    0.875 
#    0.000    0.000    0.000    0.000    0.000    0.000 
#
# Total GULP energy -396530.760660 kJ/mol
# GULP energy per Si atom -12391.586271 kJ/mol
# Density = 1.765731 g / cm^3
# Si number density = 17.697590 Si / 1000 Ang^3
#
#
#
# Elastic Constant Matrix: (Units=GPa)
#
#
# Indices 1 2 3 4 5 6 
#
# 1 43.9794 29.6010 17.6543 0.0000 -3.6305 0.0000
# 2 29.6010 89.5728 32.5680 0.0000 -1.5073 0.0000
# 3 17.6543 32.5680 74.0409 0.0000 -2.9644 0.0000
# 4 0.0000 0.0000 0.0000 26.3422 0.0000 -3.0058
# 5 -3.6305 -1.5073 -2.9644 0.0000 20.5078 0.0000
# 6 0.0000 0.0000 0.0000 -3.0058 0.0000 17.4159
#
#
#
# Elastic Compliance Matrix: (Units=1/GPa)
#
#
# Indices 1 2 3 4 5 6 
#
# 1 0.030274 -0.008774 -0.003189 0.000000 0.004254 0.000000
# 2 -0.008774 0.015833 -0.004916 0.000000 -0.001100 0.000000
# 3 -0.003189 -0.004916 0.016487 0.000000 0.001457 0.000000
# 4 0.000000 0.000000 0.000000 0.038724 0.000000 0.006683
# 5 0.004254 -0.001100 0.001457 0.000000 0.049645 0.000000
# 6 0.000000 0.000000 0.000000 0.006683 0.000000 0.058572
#
#
# Mechanical properties :
#
#
# Convention : Reuss Voigt Hill
#
# Bulk Modulus (GPa) = 34.67852 40.80442 37.74147
# Shear Modulus (GPa) = 19.77019 21.37116 20.57067
#
# Velocity S-wave (km/s) = 3.34595 3.47879 3.41301
# Velocity P-wave (km/s) = 5.87918 6.26438 6.07483
#
# Compressibility (1/GPa) = 0.02883629
#
# Stress axis : x y z
#
# Youngs Moduli (GPa) = 33.03110 63.16111 60.65284
#
# Poissons Ratio (x) = 0.55416 0.19343
# Poissons Ratio (y) = 0.28980 0.29818
# Poissons Ratio (z) = 0.10534 0.31051
#
# Static dielectric constant tensor:
#      x y z
#    x 2.986500 0.000000 -0.039610 
#    y 0.000000 3.403510 0.000000 
#    z -0.039610 0.000000 3.358920 
# 
# 
# High freq. dielectric constant tensor:
#      x y z
#    x 1.633010 0.000000 -0.015060 
#    y 0.000000 1.679980 0.000000 
#    z -0.015060 0.000000 1.699270 
# 
# From -- ./inp_files/62498.got.cif
#   From: 2010.06.25/outbox.cif.g09.slc.cpg/sg15_32_cif.got.tgz:62498.got - 2010.06.28 07:06:18.
