data_PCOD8136264
_publ_section_title
;
Structure prediction by ZEFSAII (Michael W. Deem and Ramdas Pophale) SiO2 
 PCOD8136264
Probable space group: C 2/C
;
_chemical_formula_sum "Si O2"
_cell_formula_units_Z 48
_cell_length_a 9.052769
_cell_length_b 18.411657
_cell_length_c 18.500871
_cell_angle_alpha 90.000000
_cell_angle_beta 60.704380
_cell_angle_gamma 90.000000
_cell_volume 2689.280499
_symmetry_space_group_name_H-M "C 2/C"
_symmetry_group_IT_number 15
_symmetry_cell_setting 'monoclinic'
loop_
_space_group_symop_operation_xyz
x,y,z
-x,y,1/2-z
-x,-y,-z
x,-y,1/2+z
1/2+x,1/2+y,z
1/2-x,1/2+y,1/2-z
1/2-x,1/2-y,-z
1/2+x,1/2-y,1/2+z
loop_
_atom_site_type_symbol
_atom_site_label
_atom_site_fract_x
_atom_site_fract_y
_atom_site_fract_z
Si Si1 0.174139 0.708781 0.913766
Si Si2 0.409041 0.576160 0.015935
Si Si3 0.498330 0.291219 0.413766
Si Si4 0.264022 0.165598 0.154915
Si Si5 0.940912 0.423840 0.984065
Si Si6 0.926148 0.165598 0.154915
O O1 0.378921 0.707379 0.871079
O O2 0.119231 0.750827 0.854639
O O3 0.098921 0.627090 0.936516
O O4 0.100314 0.750000 1.000000
O O5 0.224775 0.567257 0.025225
O O6 0.384029 0.610158 0.101110
O O7 0.500000 0.500000 0.000000
O O8 0.528047 0.627090 0.936516
O O9 0.671492 0.249173 0.354639
O O10 0.413751 0.110158 0.101110
O O11 0.184804 0.141943 0.250000
O O12 0.124926 0.162014 0.125074
O O13 0.000000 0.500000 0.000000
#
# Coordination Sequence:
#
# PCOD8136264 Si02
#       6
#     8   8   8   8   8   8
#     4   8  16  31  50  72  96 125 163 202 243 294
#     4  10  20  34  53  76 102 134 170 208 253 304
#     4   8  16  31  50  72  96 125 163 202 243 294
#     4  10  20  33  51  76 103 131 167 210 252 297
#     4  10  20  34  53  76 102 134 170 208 253 304
#     4  10  20  33  51  76 103 131 167 210 252 297
#
# _framework density 17.848641000000001
#
# number of rings (size 3 to 8) (size 9 to 14) (size 15 to 20)
#    0.000    2.667    0.000    4.000    0.000   10.000 
#    0.000    1.667    0.000    2.000    0.000    0.000 
#    0.000    0.000    0.000    0.000    0.000    0.000 
#
# Total GULP energy -297475.424015 kJ/mol
# GULP energy per Si atom -12394.809334 kJ/mol
# Density = 1.780802 g / cm^3
# Si number density = 17.848641 Si / 1000 Ang^3
#
#
#
# Elastic Constant Matrix: (Units=GPa)
#
#
# Indices 1 2 3 4 5 6 
#
# 1 120.8870 68.0576 45.8352 0.0000 0.0000 0.0000
# 2 68.0576 145.2637 36.4457 0.0000 0.0000 0.0000
# 3 45.8352 36.4457 58.6572 0.0000 0.0000 0.0000
# 4 0.0000 0.0000 0.0000 18.6555 0.0000 0.0000
# 5 0.0000 0.0000 0.0000 0.0000 26.8196 0.0000
# 6 0.0000 0.0000 0.0000 0.0000 0.0000 34.1756
#
#
#
# Elastic Compliance Matrix: (Units=1/GPa)
#
#
# Indices 1 2 3 4 5 6 
#
# 1 0.013832 -0.004465 -0.008034 0.000000 0.000000 0.000000
# 2 -0.004465 0.009596 -0.002474 0.000000 0.000000 0.000000
# 3 -0.008034 -0.002474 0.024863 0.000000 0.000000 0.000000
# 4 0.000000 0.000000 0.000000 0.053603 0.000000 0.000000
# 5 0.000000 0.000000 0.000000 0.000000 0.037286 0.000000
# 6 0.000000 0.000000 0.000000 0.000000 0.000000 0.029261
#
#
# Mechanical properties :
#
#
# Convention : Reuss Voigt Hill
#
# Bulk Modulus (GPa) = 54.50764 69.49830 62.00297
# Shear Modulus (GPa) = 24.44948 27.56145 26.00547
#
# Velocity S-wave (km/s) = 3.70513 3.93386 3.82121
# Velocity P-wave (km/s) = 6.99350 7.72372 7.36766
#
# Compressibility (1/GPa) = 0.01834605
#
# Stress axis : x y z
#
# Youngs Moduli (GPa) = 72.29588 104.20509 40.21967
#
# Poissons Ratio (x) = 0.46524 0.32314
# Poissons Ratio (y) = 0.32278 0.09950
# Poissons Ratio (z) = 0.58085 0.25779
#
# Static dielectric constant tensor:
#      x y z
#    x 3.474920 0.000000 0.000000 
#    y 0.000000 3.658810 0.000000 
#    z 0.000000 0.000000 3.053750 
# 
# 
# High freq. dielectric constant tensor:
#      x y z
#    x 1.703110 0.000000 0.000000 
#    y 0.000000 1.687470 0.000000 
#    z 0.000000 0.000000 1.662160 
# 
# From -- ./inp_files/189861.got.cif
#   From: 2010.06.25/outbox.cif.g09.slc.cpg/sg15_95_cif.got.tgz:189861.got - 2010.06.28 07:06:18.
