data_PCOD8136517
_publ_section_title
;
Structure prediction by ZEFSAII (Michael W. Deem and Ramdas Pophale) SiO2 
 PCOD8136517
Probable space group: C 2/C
;
_chemical_formula_sum "Si O2"
_cell_formula_units_Z 56
_cell_length_a 20.281033
_cell_length_b 23.586768
_cell_length_c 12.733552
_cell_angle_alpha 90.000000
_cell_angle_beta 149.993118
_cell_angle_gamma 90.000000
_cell_volume 3046.270164
_symmetry_space_group_name_H-M "C 2/C"
_symmetry_group_IT_number 15
_symmetry_cell_setting 'monoclinic'
loop_
_space_group_symop_operation_xyz
x,y,z
-x,y,1/2-z
-x,-y,-z
x,-y,1/2+z
1/2+x,1/2+y,z
1/2-x,1/2+y,1/2-z
1/2-x,1/2-y,-z
1/2+x,1/2-y,1/2+z
loop_
_atom_site_type_symbol
_atom_site_label
_atom_site_fract_x
_atom_site_fract_y
_atom_site_fract_z
Si Si1 0.901307 0.817189 0.711778
Si Si2 0.604823 0.194840 0.724754
Si Si3 0.000000 0.623293 0.750000
Si Si4 0.659012 0.893412 0.149281
Si Si5 0.334622 0.036825 0.631952
Si Si6 0.000000 0.447055 0.750000
Si Si7 0.443073 0.521074 0.778017
Si Si8 0.558475 0.413102 0.025962
O O1 0.749533 0.822441 0.468900
O O2 0.917974 0.761898 0.808865
O O3 0.000000 0.812043 0.750000
O O4 0.935430 0.872661 0.827770
O O5 0.489465 0.165262 0.635344
O O6 0.596843 0.167329 0.597809
O O7 0.128399 0.583428 0.907277
O O8 0.635774 0.939288 0.210579
O O9 0.813906 0.883521 0.346605
O O10 0.600300 0.909495 0.955768
O O11 0.425911 0.982655 0.737212
O O12 0.186312 0.016797 0.414634
O O13 0.500000 0.547044 0.750000
O O14 0.427594 0.576322 0.830096
O O15 0.550487 0.476378 0.967934
#
# Coordination Sequence:
#
# PCOD8136517 Si02
#       8
#     8   8   4   8   8   4   8   8
#     4  11  20  36  61  89 113 143 187 241 291 337
#     4  10  21  35  59  86 116 145 184 242 288 335
#     4   9  18  32  50  86 118 146 181 230 282 332
#     4  11  20  36  56  81 113 152 192 232 280 339
#     4  10  20  34  55  80 117 151 189 229 278 339
#     4  11  22  36  52  78 116 156 193 226 278 334
#     4  11  21  36  56  85 117 148 186 230 285 343
#     4  11  21  34  59  84 113 148 186 232 284 339
#
# _framework density 18.383136
#
# number of rings (size 3 to 8) (size 9 to 14) (size 15 to 20)
#    0.000    1.429    5.000    2.571    0.000    0.000 
#    0.000    1.429    1.571    0.857    0.000    0.000 
#    0.000    0.000    0.000    0.000    0.000    0.000 
#
# Total GULP energy -346980.277886 kJ/mol
# GULP energy per Si atom -12392.152782 kJ/mol
# Density = 1.834130 g / cm^3
# Si number density = 18.383136 Si / 1000 Ang^3
#
#
#
# Elastic Constant Matrix: (Units=GPa)
#
#
# Indices 1 2 3 4 5 6 
#
# 1 105.4257 34.8581 22.0286 0.0000 -5.3156 0.0000
# 2 34.8581 86.7436 17.5956 0.0000 -12.5218 0.0000
# 3 22.0286 17.5956 54.6671 0.0000 -7.1237 0.0000
# 4 0.0000 0.0000 0.0000 20.9233 0.0000 4.4320
# 5 -5.3156 -12.5218 -7.1237 0.0000 25.7705 0.0000
# 6 0.0000 0.0000 0.0000 4.4320 0.0000 14.3336
#
#
#
# Elastic Compliance Matrix: (Units=1/GPa)
#
#
# Indices 1 2 3 4 5 6 
#
# 1 0.011495 -0.004002 -0.003411 0.000000 -0.000516 0.000000
# 2 -0.004002 0.014403 -0.002302 0.000000 0.005536 0.000000
# 3 -0.003411 -0.002302 0.020924 0.000000 0.003962 0.000000
# 4 0.000000 0.000000 0.000000 0.051143 0.000000 -0.015814
# 5 -0.000516 0.005536 0.003962 0.000000 0.042483 0.000000
# 6 0.000000 0.000000 0.000000 -0.015814 0.000000 0.074656
#
#
# Mechanical properties :
#
#
# Convention : Reuss Voigt Hill
#
# Bulk Modulus (GPa) = 36.50668 43.97789 40.24229
# Shear Modulus (GPa) = 20.51997 23.69574 22.10786
#
# Velocity S-wave (km/s) = 3.34464 3.59415 3.47164
# Velocity P-wave (km/s) = 5.90063 6.41863 6.16507
#
# Compressibility (1/GPa) = 0.02739224
#
# Stress axis : x y z
#
# Youngs Moduli (GPa) = 86.99172 69.43228 47.79135
#
# Poissons Ratio (x) = 0.27787 0.16303
# Poissons Ratio (y) = 0.34814 0.11000
# Poissons Ratio (z) = 0.29676 0.15981
#
# Static dielectric constant tensor:
#      x y z
#    x 3.638820 0.000000 0.076260 
#    y 0.000000 3.410840 0.000000 
#    z 0.076260 0.000000 3.132350 
# 
# 
# High freq. dielectric constant tensor:
#      x y z
#    x 1.727370 0.000000 0.017700 
#    y 0.000000 1.702760 0.000000 
#    z 0.017700 0.000000 1.677900 
# 
# From -- ./inp_files/114783.got.cif
#   From: 2010.06.25/outbox.cif.g09.slc.cpg/sg15_58_cif.got.tgz:114783.got - 2010.06.28 07:06:18.
