data_PCOD8136562
_publ_section_title
;
Structure prediction by ZEFSAII (Michael W. Deem and Ramdas Pophale) SiO2 
 PCOD8136562
Probable space group: C 2/C
;
_chemical_formula_sum "Si O2"
_cell_formula_units_Z 60
_cell_length_a 14.532258
_cell_length_b 13.736623
_cell_length_c 15.327720
_cell_angle_alpha 90.000000
_cell_angle_beta 72.913803
_cell_angle_gamma 90.000000
_cell_volume 2924.735943
_symmetry_space_group_name_H-M "C 2/C"
_symmetry_group_IT_number 15
_symmetry_cell_setting 'monoclinic'
loop_
_space_group_symop_operation_xyz
x,y,z
-x,y,1/2-z
-x,-y,-z
x,-y,1/2+z
1/2+x,1/2+y,z
1/2-x,1/2+y,1/2-z
1/2-x,1/2-y,-z
1/2+x,1/2-y,1/2+z
loop_
_atom_site_type_symbol
_atom_site_label
_atom_site_fract_x
_atom_site_fract_y
_atom_site_fract_z
Si Si1 0.537542 0.237964 0.467666
Si Si2 0.281927 0.460730 0.033362
Si Si3 0.000000 0.054114 0.250000
Si Si4 0.856470 0.367124 0.963463
Si Si5 0.705481 0.294347 0.138618
Si Si6 0.943933 0.078845 0.905809
Si Si7 0.722476 0.306041 0.335211
Si Si8 0.130229 0.808280 0.609517
O O1 0.469336 0.144565 0.461921
O O2 0.492970 0.337195 0.445091
O O3 0.639466 0.230524 0.389741
O O4 0.552070 0.256345 0.567210
O O5 0.380517 0.520538 0.993913
O O6 0.287916 0.367360 0.967376
O O7 0.183953 0.522871 0.040116
O O8 0.289407 0.418661 0.129948
O O9 0.911798 0.121198 0.304055
O O10 0.020532 0.986931 0.330415
O O11 0.839314 0.309660 0.877520
O O12 0.800730 0.313038 0.056226
O O13 0.628037 0.379247 0.147406
O O14 0.735325 0.295235 0.229659
O O15 0.822715 0.278391 0.351072
#
# Coordination Sequence:
#
# PCOD8136562 Si02
#       8
#     8   8   4   8   8   8   8   8
#     4  10  20  36  62  82 119 154 192 237 297 353
#     4   9  19  38  57  82 122 148 192 240 294 350
#     4  10  20  34  56  86 114 138 194 246 278 356
#     4   9  19  38  59  88 114 156 195 239 293 352
#     4   9  19  36  58  86 124 146 183 243 300 350
#     4   9  18  34  56  92 110 142 190 240 298 337
#     4  11  22  38  56  84 120 162 189 244 297 351
#     4  10  23  38  53  85 120 157 195 238 304 345
#
# _framework density 20.514672999999998
#
# number of rings (size 3 to 8) (size 9 to 14) (size 15 to 20)
#    0.000    2.400    0.000    3.200    1.867    7.467 
#   12.000    2.667    0.000    1.600    0.000    0.000 
#    0.000    0.000    0.000    0.000    0.000    0.000 
#
# Total GULP energy -371678.660067 kJ/mol
# GULP energy per Si atom -12389.288669 kJ/mol
# Density = 2.046798 g / cm^3
# Si number density = 20.514673 Si / 1000 Ang^3
#
#
#
# Elastic Constant Matrix: (Units=GPa)
#
#
# Indices 1 2 3 4 5 6 
#
# 1 87.4036 25.5000 46.6651 0.0000 16.6262 0.0000
# 2 25.5000 59.9493 36.5260 0.0000 5.5980 0.0000
# 3 46.6651 36.5260 123.5202 0.0000 16.2831 0.0000
# 4 0.0000 0.0000 0.0000 22.3452 0.0000 21.4268
# 5 16.6262 5.5980 16.2831 0.0000 25.7299 0.0000
# 6 0.0000 0.0000 0.0000 21.4268 0.0000 -48.7131
#
#
#
# Elastic Compliance Matrix: (Units=1/GPa)
#
#
# Indices 1 2 3 4 5 6 
#
# 1 0.016001 -0.003698 -0.004031 0.000000 -0.006984 0.000000
# 2 -0.003698 0.021212 -0.004999 0.000000 0.000938 0.000000
# 3 -0.004031 -0.004999 0.011576 0.000000 -0.003634 0.000000
# 4 0.000000 0.000000 0.000000 0.031476 0.000000 0.013845
# 5 -0.006984 0.000938 -0.003634 0.000000 0.045474 0.000000
# 6 0.000000 0.000000 0.000000 0.013845 0.000000 -0.014438
#
#
# Mechanical properties :
#
#
# Convention : Reuss Voigt Hill
#
# Bulk Modulus (GPa) = 42.85827 54.25058 48.55442
# Shear Modulus (GPa) = 34.59410 10.68453 22.63931
#
# Velocity S-wave (km/s) = 4.11093 2.28463 3.32560
# Velocity P-wave (km/s) = 6.59316 5.78460 6.20207
#
# Compressibility (1/GPa) = 0.02333272
#
# Stress axis : x y z
#
# Youngs Moduli (GPa) = 62.49769 47.14300 86.38628
#
# Poissons Ratio (x) = 0.17434 0.34820
# Poissons Ratio (y) = 0.23112 0.43186
# Poissons Ratio (z) = 0.25191 0.23568
#
# Static dielectric constant tensor:
#      x y z
#    x 3.818460 0.000000 -0.055520 
#    y 0.000000 3.712220 0.000000 
#    z -0.055520 0.000000 3.708080 
# 
# 
# High freq. dielectric constant tensor:
#      x y z
#    x 1.790440 0.000000 0.004350 
#    y 0.000000 1.787380 0.000000 
#    z 0.004350 0.000000 1.798690 
# 
# From -- ./inp_files/153933.got.cif
#   From: 2010.06.25/outbox.cif.g09.slc.cpg/sg15_77_cif.got.tgz:153933.got - 2010.06.28 07:06:18.
