data_PCOD8136413
_publ_section_title
;
Structure prediction by ZEFSAII (Michael W. Deem and Ramdas Pophale) SiO2 
 PCOD8136413
Probable space group: C 2/C
;
_chemical_formula_sum "Si O2"
_cell_formula_units_Z 52
_cell_length_a 27.412835
_cell_length_b 18.736698
_cell_length_c 5.127800
_cell_angle_alpha 90.000000
_cell_angle_beta 121.196093
_cell_angle_gamma 90.000000
_cell_volume 2252.927005
_symmetry_space_group_name_H-M "C 2/C"
_symmetry_group_IT_number 15
_symmetry_cell_setting 'monoclinic'
loop_
_space_group_symop_operation_xyz
x,y,z
-x,y,1/2-z
-x,-y,-z
x,-y,1/2+z
1/2+x,1/2+y,z
1/2-x,1/2+y,1/2-z
1/2-x,1/2-y,-z
1/2+x,1/2-y,1/2+z
loop_
_atom_site_type_symbol
_atom_site_label
_atom_site_fract_x
_atom_site_fract_y
_atom_site_fract_z
Si Si1 0.930016 0.663614 0.133472
Si Si2 0.000000 0.114741 0.250000
Si Si3 0.682376 0.775160 0.086976
Si Si4 0.500000 0.918123 0.250000
Si Si5 0.000000 0.208564 0.750000
Si Si6 0.619799 0.545409 0.494859
Si Si7 0.603719 0.022344 0.626453
Si Si8 0.694895 0.316269 0.118314
O O1 0.946924 0.738536 0.045508
O O2 0.915174 0.604239 0.872236
O O3 0.981716 0.633408 0.458470
O O4 0.872311 0.676826 0.137788
O O5 0.016691 0.162709 0.544298
O O6 0.053371 0.067759 0.304962
O O7 0.670415 0.737342 0.332506
O O8 0.737739 0.826719 0.256818
O O9 0.689535 0.715037 0.891164
O O10 0.551839 0.974253 0.340423
O O11 0.632010 0.483484 0.318122
O O12 0.660872 0.609851 0.526967
O O13 0.639663 0.982251 0.953326
#
# Coordination Sequence:
#
# PCOD8136413 Si02
#       8
#     8   4   8   4   4   8   8   8
#     4  11  21  36  58  89 117 162 207 246 304 362
#     4  12  25  41  58  91 125 158 198 248 318 370
#     4  10  22  40  67  89 123 158 201 255 305 363
#     4  10  20  36  52  78 122 160 192 236 292 354
#     4  12  23  35  58  87 125 154 200 258 294 366
#     4  12  24  42  67  91 124 163 203 249 303 373
#     4  10  20  34  50  71 110 156 192 231 283 346
#     4  10  22  44  64  92 120 158 202 253 313 356
#
# _framework density 23.081085000000002
#
# number of rings (size 3 to 8) (size 9 to 14) (size 15 to 20)
#    0.000    1.231    0.000    7.846    0.000    4.923 
#    0.000    3.077    0.000    0.000    0.000    0.000 
#    0.000    0.000    0.000    0.000    0.000    0.000 
#
# Total GULP energy -322130.650236 kJ/mol
# GULP energy per Si atom -12389.640394 kJ/mol
# Density = 2.302855 g / cm^3
# Si number density = 23.081085 Si / 1000 Ang^3
#
#
#
# Elastic Constant Matrix: (Units=GPa)
#
#
# Indices 1 2 3 4 5 6 
#
# 1 106.8267 47.4219 27.5227 0.0000 7.8575 0.0000
# 2 47.4219 86.9143 15.1507 0.0000 4.2051 0.0000
# 3 27.5227 15.1507 69.0644 0.0000 -19.0442 0.0000
# 4 0.0000 0.0000 0.0000 20.9589 0.0000 -12.6034
# 5 7.8575 4.2051 -19.0442 0.0000 38.5479 0.0000
# 6 0.0000 0.0000 0.0000 -12.6034 0.0000 26.4842
#
#
#
# Elastic Compliance Matrix: (Units=1/GPa)
#
#
# Indices 1 2 3 4 5 6 
#
# 1 0.013998 -0.006442 -0.005509 0.000000 -0.004872 0.000000
# 2 -0.006442 0.015237 -0.001009 0.000000 -0.000848 0.000000
# 3 -0.005509 -0.001009 0.019954 0.000000 0.011091 0.000000
# 4 0.000000 0.000000 0.000000 0.066840 0.000000 0.031808
# 5 -0.004872 -0.000848 0.011091 0.000000 0.032507 0.000000
# 6 0.000000 0.000000 0.000000 0.031808 0.000000 0.052895
#
#
# Mechanical properties :
#
#
# Convention : Reuss Voigt Hill
#
# Bulk Modulus (GPa) = 42.97339 49.22178 46.09758
# Shear Modulus (GPa) = 21.26684 28.71220 24.98952
#
# Velocity S-wave (km/s) = 3.03875 3.53082 3.29399
# Velocity P-wave (km/s) = 5.56514 6.16394 5.87218
#
# Compressibility (1/GPa) = 0.02327022
#
# Stress axis : x y z
#
# Youngs Moduli (GPa) = 71.43826 65.62881 50.11462
#
# Poissons Ratio (x) = 0.42276 0.27607
# Poissons Ratio (y) = 0.46018 0.05058
# Poissons Ratio (z) = 0.39353 0.06624
#
# Static dielectric constant tensor:
#      x y z
#    x 4.441020 0.000000 -0.154560 
#    y 0.000000 4.165910 0.000000 
#    z -0.154560 0.000000 4.090100 
# 
# 
# High freq. dielectric constant tensor:
#      x y z
#    x 1.921020 0.000000 -0.029010 
#    y 0.000000 1.913970 0.000000 
#    z -0.029010 0.000000 1.900570 
# 
# From -- ./inp_files/17247.got.cif
#   From: 2010.06.25/outbox.cif.g09.slc.cpg/sg15_9_cif.got.tgz:17247.got - 2010.06.28 07:06:18.
