data_PCOD8136842
_publ_section_title
;
Structure prediction by ZEFSAII (Michael W. Deem and Ramdas Pophale) SiO2 
 PCOD8136842
Probable space group: C 2/C
;
_chemical_formula_sum "Si O2"
_cell_formula_units_Z 64
_cell_length_a 22.857702
_cell_length_b 13.034910
_cell_length_c 19.020220
_cell_angle_alpha 90.000000
_cell_angle_beta 34.350187
_cell_angle_gamma 90.000000
_cell_volume 3197.623100
_symmetry_space_group_name_H-M "C 2/C"
_symmetry_group_IT_number 15
_symmetry_cell_setting 'monoclinic'
loop_
_space_group_symop_operation_xyz
x,y,z
-x,y,1/2-z
-x,-y,-z
x,-y,1/2+z
1/2+x,1/2+y,z
1/2-x,1/2+y,1/2-z
1/2-x,1/2-y,-z
1/2+x,1/2-y,1/2+z
loop_
_atom_site_type_symbol
_atom_site_label
_atom_site_fract_x
_atom_site_fract_y
_atom_site_fract_z
Si Si1 0.426959 0.545334 0.982539
Si Si2 0.721803 0.226883 0.108367
Si Si3 0.950624 0.340987 0.127692
Si Si4 0.829039 0.432830 0.614916
Si Si5 0.696077 0.017269 0.201554
Si Si6 0.120607 0.347008 0.460086
Si Si7 0.507572 0.275253 0.322535
Si Si8 0.594135 0.618935 0.341959
O O1 0.435026 0.626560 0.910545
O O2 0.525521 0.471069 0.875797
O O3 0.317925 0.483255 0.087171
O O4 0.431831 0.613441 0.049018
O O5 0.691172 0.106866 0.147942
O O6 0.805498 0.256835 0.083719
O O7 0.626007 0.300890 0.222679
O O8 0.750000 0.250000 0.000000
O O9 0.879096 0.420840 0.243941
O O10 0.899748 0.337338 0.101501
O O11 0.941360 0.223465 0.161767
O O12 0.072439 0.367698 0.009857
O O13 0.843474 0.441005 0.684221
O O14 0.833515 0.541434 0.570484
O O15 0.717417 0.387397 0.705225
O O16 0.016758 0.327182 0.607567
O O17 0.500000 0.241620 0.250000
#
# Coordination Sequence:
#
# PCOD8136842 Si02
#       8
#     8   8   8   8   8   8   8   8
#     4  10  20  37  52  85 115 147 196 240 299 359
#     4  12  22  36  57  87 123 157 198 243 303 365
#     4  11  21  35  60  82 118 157 194 247 298 358
#     4  10  21  36  53  84 118 155 196 241 299 365
#     4  10  20  35  54  84 117 154 194 240 300 360
#     4  11  20  37  53  84 118 151 191 237 302 353
#     4  12  21  35  56  84 118 154 189 239 298 358
#     4  10  21  35  56  82 112 155 193 245 299 349
#
# _framework density 20.014866000000001
#
# number of rings (size 3 to 8) (size 9 to 14) (size 15 to 20)
#    0.000    1.250    3.750    4.500    1.750    1.000 
#    0.000    0.000    0.000    0.000    3.250    2.625 
#    0.000    0.000    0.000    0.000    0.000    0.000 
#
# Total GULP energy -396480.256395 kJ/mol
# GULP energy per Si atom -12390.008012 kJ/mol
# Density = 1.996931 g / cm^3
# Si number density = 20.014866 Si / 1000 Ang^3
#
#
#
# Elastic Constant Matrix: (Units=GPa)
#
#
# Indices 1 2 3 4 5 6 
#
# 1 46.4726 22.6314 31.8046 0.0000 -8.3088 0.0000
# 2 22.6314 131.6790 61.4304 0.0000 -7.0646 0.0000
# 3 31.8046 61.4304 118.3705 0.0000 -25.4430 0.0000
# 4 0.0000 0.0000 0.0000 34.8026 0.0000 -5.8464
# 5 -8.3088 -7.0646 -25.4430 0.0000 41.8028 0.0000
# 6 0.0000 0.0000 0.0000 -5.8464 0.0000 23.2997
#
#
#
# Elastic Compliance Matrix: (Units=1/GPa)
#
#
# Indices 1 2 3 4 5 6 
#
# 1 0.026698 -0.001723 -0.005984 0.000000 0.001373 0.000000
# 2 -0.001723 0.010237 -0.005236 0.000000 -0.001800 0.000000
# 3 -0.005984 -0.005236 0.014183 0.000000 0.006558 0.000000
# 4 0.000000 0.000000 0.000000 0.029998 0.000000 0.007527
# 5 0.001373 -0.001800 0.006558 0.000000 0.027882 0.000000
# 6 0.000000 0.000000 0.000000 0.007527 0.000000 0.044808
#
#
# Mechanical properties :
#
#
# Convention : Reuss Voigt Hill
#
# Bulk Modulus (GPa) = 39.63432 58.69500 49.16466
# Shear Modulus (GPa) = 26.58125 32.02475 29.30300
#
# Velocity S-wave (km/s) = 3.64823 4.00440 3.83046
# Velocity P-wave (km/s) = 6.13119 7.12528 6.64685
#
# Compressibility (1/GPa) = 0.02523066
#
# Stress axis : x y z
#
# Youngs Moduli (GPa) = 37.45601 97.68821 70.50741
#
# Poissons Ratio (x) = 0.16834 0.42191
# Poissons Ratio (y) = 0.06455 0.36920
# Poissons Ratio (z) = 0.22413 0.51152
#
# Static dielectric constant tensor:
#      x y z
#    x 2.297520 0.000000 -3.503400 
#    y 0.000000 3.909630 0.000000 
#    z -3.503400 0.000000 -5.126670 
# 
# 
# High freq. dielectric constant tensor:
#      x y z
#    x 1.745330 0.000000 -0.038810 
#    y 0.000000 1.774580 0.000000 
#    z -0.038810 0.000000 1.791500 
# 
# From -- ./inp_files/257495.got.cif
#   From: 2010.06.25/outbox.cif.g09.slc.cpg/sg15_129_cif.got.tgz:257495.got - 2010.06.28 07:06:18.
