data_PCOD8136754
_publ_section_title
;
Structure prediction by ZEFSAII (Michael W. Deem and Ramdas Pophale) SiO2 
 PCOD8136754
Probable space group: C 2/C
;
_chemical_formula_sum "Si O2"
_cell_formula_units_Z 44
_cell_length_a 12.256582
_cell_length_b 16.739619
_cell_length_c 10.752382
_cell_angle_alpha 90.000000
_cell_angle_beta 70.963996
_cell_angle_gamma 90.000000
_cell_volume 2085.430063
_symmetry_space_group_name_H-M "C 2/C"
_symmetry_group_IT_number 15
_symmetry_cell_setting 'monoclinic'
loop_
_space_group_symop_operation_xyz
x,y,z
-x,y,1/2-z
-x,-y,-z
x,-y,1/2+z
1/2+x,1/2+y,z
1/2-x,1/2+y,1/2-z
1/2-x,1/2-y,-z
1/2+x,1/2-y,1/2+z
loop_
_atom_site_type_symbol
_atom_site_label
_atom_site_fract_x
_atom_site_fract_y
_atom_site_fract_z
Si Si1 0.748852 0.153951 0.356518
Si Si2 0.114620 0.477506 0.035909
Si Si3 0.434939 0.734351 0.446619
Si Si4 0.000000 0.638943 0.750000
Si Si5 0.203345 0.643808 0.089795
Si Si6 0.077391 0.800081 0.109388
O O1 0.709138 0.065005 0.413236
O O2 0.657884 0.220260 0.433320
O O3 0.873363 0.178376 0.366757
O O4 0.760421 0.154110 0.203885
O O5 0.099688 0.418239 0.160483
O O6 0.159474 0.555679 0.085106
O O7 0.000000 0.500000 0.000000
O O8 0.525170 0.799620 0.354340
O O9 0.508676 0.678575 0.509290
O O10 0.095880 0.704479 0.116524
O O11 0.297396 0.659236 0.946011
O O12 0.000000 0.834523 0.250000
#
# Coordination Sequence:
#
# PCOD8136754 Si02
#       6
#     8   8   8   4   8   8
#     4  10  21  38  62  93 126 166 208 260 311 379
#     4  11  23  38  61  96 130 161 207 266 320 373
#     4  10  20  38  62  92 126 162 211 259 315 371
#     4  10  20  34  62  92 120 158 194 260 318 362
#     4  11  23  40  65  94 126 170 214 254 325 376
#     4  11  23  41  65  91 127 170 210 267 309 375
#
# _framework density 21.098766999999999
#
# number of rings (size 3 to 8) (size 9 to 14) (size 15 to 20)
#    0.000    1.455    1.818    4.364    1.273    1.455 
#    6.545    0.909    2.000    0.000    0.000    0.000 
#    0.000    0.000    0.000    0.000    0.000    0.000 
#
# Total GULP energy -272605.058624 kJ/mol
# GULP energy per Si atom -12391.139028 kJ/mol
# Density = 2.105075 g / cm^3
# Si number density = 21.098767 Si / 1000 Ang^3
#
#
#
# Elastic Constant Matrix: (Units=GPa)
#
#
# Indices 1 2 3 4 5 6 
#
# 1 97.1020 34.8062 38.5725 0.0000 17.6941 0.0000
# 2 34.8062 88.0429 32.7148 0.0000 8.0290 0.0000
# 3 38.5725 32.7148 126.3545 0.0000 -0.7964 0.0000
# 4 0.0000 0.0000 0.0000 26.8099 0.0000 -0.2503
# 5 17.6941 8.0290 -0.7964 0.0000 34.1359 0.0000
# 6 0.0000 0.0000 0.0000 -0.2503 0.0000 27.3012
#
#
#
# Elastic Compliance Matrix: (Units=1/GPa)
#
#
# Indices 1 2 3 4 5 6 
#
# 1 0.014187 -0.003747 -0.003402 0.000000 -0.006552 0.000000
# 2 -0.003747 0.013879 -0.002458 0.000000 -0.001380 0.000000
# 3 -0.003402 -0.002458 0.009605 0.000000 0.002566 0.000000
# 4 0.000000 0.000000 0.000000 0.037303 0.000000 0.000342
# 5 -0.006552 -0.001380 0.002566 0.000000 0.033075 0.000000
# 6 0.000000 0.000000 0.000000 0.000342 0.000000 0.036632
#
#
# Mechanical properties :
#
#
# Convention : Reuss Voigt Hill
#
# Bulk Modulus (GPa) = 54.18133 58.18739 56.18436
# Shear Modulus (GPa) = 29.40369 31.34312 30.37341
#
# Velocity S-wave (km/s) = 3.73717 3.85846 3.79830
# Velocity P-wave (km/s) = 6.66015 6.89120 6.77666
#
# Compressibility (1/GPa) = 0.01845654
#
# Stress axis : x y z
#
# Youngs Moduli (GPa) = 70.48808 72.05336 104.10799
#
# Poissons Ratio (x) = 0.26998 0.35418
# Poissons Ratio (y) = 0.26411 0.25592
# Poissons Ratio (z) = 0.23980 0.17712
#
# Static dielectric constant tensor:
#      x y z
#    x 3.667150 0.000000 -0.012210 
#    y 0.000000 3.744320 0.000000 
#    z -0.012210 0.000000 4.069070 
# 
# 
# High freq. dielectric constant tensor:
#      x y z
#    x 1.806930 0.000000 0.002640 
#    y 0.000000 1.805760 0.000000 
#    z 0.002640 0.000000 1.848560 
# 
# From -- ./inp_files/87172.got.cif
#   From: 2010.06.25/outbox.cif.g09.slc.cpg/sg15_44_cif.got.tgz:87172.got - 2010.06.28 07:06:18.
