data_PCOD8136450
_publ_section_title
;
Structure prediction by ZEFSAII (Michael W. Deem and Ramdas Pophale) SiO2 
 PCOD8136450
Probable space group: C 2/C
;
_chemical_formula_sum "Si O2"
_cell_formula_units_Z 60
_cell_length_a 6.019539
_cell_length_b 22.643516
_cell_length_c 24.649932
_cell_angle_alpha 90.000000
_cell_angle_beta 118.716386
_cell_angle_gamma 90.000000
_cell_volume 2946.637877
_symmetry_space_group_name_H-M "C 2/C"
_symmetry_group_IT_number 15
_symmetry_cell_setting 'monoclinic'
loop_
_space_group_symop_operation_xyz
x,y,z
-x,y,1/2-z
-x,-y,-z
x,-y,1/2+z
1/2+x,1/2+y,z
1/2-x,1/2+y,1/2-z
1/2-x,1/2-y,-z
1/2+x,1/2-y,1/2+z
loop_
_atom_site_type_symbol
_atom_site_label
_atom_site_fract_x
_atom_site_fract_y
_atom_site_fract_z
Si Si1 0.503354 0.913298 0.356770
Si Si2 0.688923 0.614149 0.440893
Si Si3 0.247192 0.317005 0.312803
Si Si4 0.435819 0.499273 0.428625
Si Si5 0.586839 0.216743 0.091259
Si Si6 0.060611 0.184117 0.998836
Si Si7 0.310813 0.901611 0.449269
Si Si8 0.000000 0.116769 0.750000
O O1 0.691556 0.865832 0.352141
O O2 0.651684 0.975478 0.383232
O O3 0.419179 0.885040 0.403485
O O4 0.252500 0.923141 0.289511
O O5 0.473215 0.564302 0.405927
O O6 0.712638 0.662908 0.395627
O O7 0.637271 0.644268 0.492813
O O8 0.963738 0.583829 0.481590
O O9 0.329809 0.254607 0.347580
O O10 0.464297 0.342017 0.298654
O O11 0.000000 0.302089 0.250000
O O12 0.500000 0.500000 0.500000
O O13 0.636828 0.458559 0.421852
O O14 0.301395 0.193111 0.067182
O O15 0.573769 0.254823 0.033914
O O16 0.147189 0.153165 0.952637
#
# Coordination Sequence:
#
# PCOD8136450 Si02
#       8
#     8   8   8   8   8   8   8   4
#     4  11  22  36  61  88 124 150 201 250 304 362
#     4  11  22  34  53  84 124 163 200 233 287 362
#     4  10  22  41  63  93 113 149 198 254 313 363
#     4  12  22  35  56  89 124 163 200 240 292 360
#     4  10  21  34  54  84 121 154 194 239 299 354
#     4  10  20  34  52  85 122 159 195 235 291 355
#     4  11  20  35  57  85 121 163 194 241 299 354
#     4  10  22  40  62  88 116 146 196 258 320 362
#
# _framework density 20.362189999999998
#
# number of rings (size 3 to 8) (size 9 to 14) (size 15 to 20)
#    0.000    1.333    2.667    4.000    0.000    4.267 
#    0.000    0.000    0.000    0.000   32.933    0.000 
#    0.000    0.000    0.000    0.000    0.000    0.000 
#
# Total GULP energy -371903.115200 kJ/mol
# GULP energy per Si atom -12396.770507 kJ/mol
# Density = 2.031584 g / cm^3
# Si number density = 20.362190 Si / 1000 Ang^3
#
#
#
# Elastic Constant Matrix: (Units=GPa)
#
#
# Indices 1 2 3 4 5 6 
#
# 1 88.0563 42.5285 39.9855 0.0000 2.3562 0.0000
# 2 42.5285 109.8757 45.2037 0.0000 11.6250 0.0000
# 3 39.9855 45.2037 80.9969 0.0000 4.0009 0.0000
# 4 0.0000 0.0000 0.0000 31.9854 0.0000 -0.0770
# 5 2.3562 11.6250 4.0009 0.0000 38.6202 0.0000
# 6 0.0000 0.0000 0.0000 -0.0770 0.0000 31.4926
#
#
#
# Elastic Compliance Matrix: (Units=1/GPa)
#
#
# Indices 1 2 3 4 5 6 
#
# 1 0.015774 -0.003854 -0.005675 0.000000 0.000786 0.000000
# 2 -0.003854 0.013085 -0.005244 0.000000 -0.003160 0.000000
# 3 -0.005675 -0.005244 0.018072 0.000000 0.000053 0.000000
# 4 0.000000 0.000000 0.000000 0.031264 0.000000 0.000076
# 5 0.000786 -0.003160 0.000053 0.000000 0.026791 0.000000
# 6 0.000000 0.000000 0.000000 0.000076 0.000000 0.031754
#
#
# Mechanical properties :
#
#
# Convention : Reuss Voigt Hill
#
# Bulk Modulus (GPa) = 57.52177 59.37382 58.44779
# Shear Modulus (GPa) = 29.05649 30.50039 29.77844
#
# Velocity S-wave (km/s) = 3.78164 3.87446 3.82833
# Velocity P-wave (km/s) = 6.88319 7.01694 6.95039
#
# Compressibility (1/GPa) = 0.01738472
#
# Stress axis : x y z
#
# Youngs Moduli (GPa) = 63.39744 76.42629 55.33536
#
# Poissons Ratio (x) = 0.29452 0.31403
# Poissons Ratio (y) = 0.24431 0.29017
# Poissons Ratio (z) = 0.35978 0.40076
#
# Static dielectric constant tensor:
#      x y z
#    x 3.967660 0.000000 0.104810 
#    y 0.000000 3.696120 0.000000 
#    z 0.104810 0.000000 3.450840 
# 
# 
# High freq. dielectric constant tensor:
#      x y z
#    x 1.816260 0.000000 0.004980 
#    y 0.000000 1.779700 0.000000 
#    z 0.004980 0.000000 1.761130 
# 
# From -- ./inp_files/261738.got.cif
#   From: 2010.06.25/outbox.cif.g09.slc.cpg/sg15_131_cif.got.tgz:261738.got - 2010.06.28 07:06:18.
