data_PCOD8136078
_publ_section_title
;
Structure prediction by ZEFSAII (Michael W. Deem and Ramdas Pophale) SiO2 
 PCOD8136078
Probable space group: C 2/C
;
_chemical_formula_sum "Si O2"
_cell_formula_units_Z 60
_cell_length_a 5.236553
_cell_length_b 25.043413
_cell_length_c 25.798276
_cell_angle_alpha 90.000000
_cell_angle_beta 112.481473
_cell_angle_gamma 90.000000
_cell_volume 3126.102344
_symmetry_space_group_name_H-M "C 2/C"
_symmetry_group_IT_number 15
_symmetry_cell_setting 'monoclinic'
loop_
_space_group_symop_operation_xyz
x,y,z
-x,y,1/2-z
-x,-y,-z
x,-y,1/2+z
1/2+x,1/2+y,z
1/2-x,1/2+y,1/2-z
1/2-x,1/2-y,-z
1/2+x,1/2-y,1/2+z
loop_
_atom_site_type_symbol
_atom_site_label
_atom_site_fract_x
_atom_site_fract_y
_atom_site_fract_z
Si Si1 0.500000 0.075200 0.750000
Si Si2 0.502754 0.538380 0.833966
Si Si3 0.946006 0.372303 0.351937
Si Si4 0.158983 0.061003 0.564470
Si Si5 0.120725 0.929969 0.882478
Si Si6 0.689056 0.227217 0.714124
Si Si7 0.729930 0.947859 0.949858
Si Si8 0.184273 0.849651 0.714140
O O1 0.446345 0.112329 0.696663
O O2 0.772710 0.037636 0.769802
O O3 0.682267 0.591109 0.841649
O O4 0.363413 0.539864 0.879187
O O5 0.650353 0.480679 0.845403
O O6 0.896712 0.308792 0.342708
O O7 0.158522 0.384747 0.415709
O O8 0.870689 0.074401 0.513707
O O9 0.318001 0.012228 0.546950
O O10 0.441685 0.916189 0.920323
O O11 0.953194 0.939339 0.922011
O O12 0.958559 0.882248 0.842642
O O13 0.500000 0.218230 0.750000
O O14 0.680762 0.288349 0.695216
O O15 0.000000 0.209011 0.750000
O O16 0.500000 0.868251 0.750000
O O17 0.000000 0.858200 0.750000
#
# Coordination Sequence:
#
# PCOD8136078 Si02
#       8
#     4   8   8   8   8   8   8   8
#     4  10  20  30  44  78 112 142 168 220 274 346
#     4  10  21  31  51  80 113 147 181 219 293 335
#     4  11  19  34  52  80 113 146 184 223 286 333
#     4   9  21  34  54  81 110 148 191 229 276 339
#     4  11  22  37  57  82 110 149 184 232 280 326
#     4  10  21  37  57  81 110 151 189 230 277 335
#     4  10  21  38  57  79 114 146 194 231 273 333
#     4  10  22  39  60  83 111 148 194 231 275 339
#
# _framework density 19.19323
#
# number of rings (size 3 to 8) (size 9 to 14) (size 15 to 20)
#    0.000    1.867    2.000    2.000    4.667    2.667 
#    0.000    0.000    0.000    1.600    0.000    0.000 
#    0.000    0.000    0.000    0.000    0.000    0.000 
#
# Total GULP energy -371656.802756 kJ/mol
# GULP energy per Si atom -12388.560092 kJ/mol
# Density = 1.914955 g / cm^3
# Si number density = 19.193230 Si / 1000 Ang^3
#
#
#
# Elastic Constant Matrix: (Units=GPa)
#
#
# Indices 1 2 3 4 5 6 
#
# 1 97.9627 19.0106 27.3007 0.0000 30.5648 0.0000
# 2 19.0106 79.7900 48.4579 0.0000 20.2128 0.0000
# 3 27.3007 48.4579 101.3619 0.0000 42.3494 0.0000
# 4 0.0000 0.0000 0.0000 24.8891 0.0000 7.3297
# 5 30.5648 20.2128 42.3494 0.0000 36.7745 0.0000
# 6 0.0000 0.0000 0.0000 7.3297 0.0000 7.1959
#
#
#
# Elastic Compliance Matrix: (Units=1/GPa)
#
#
# Indices 1 2 3 4 5 6 
#
# 1 0.014136 -0.001496 0.002839 0.000000 -0.014197 0.000000
# 2 -0.001496 0.017819 -0.008756 0.000000 0.001533 0.000000
# 3 0.002839 -0.008756 0.023633 0.000000 -0.024762 0.000000
# 4 0.000000 0.000000 0.000000 0.057395 0.000000 -0.058463
# 5 -0.014197 0.001533 -0.024762 0.000000 0.066666 0.000000
# 6 0.000000 0.000000 0.000000 -0.058463 0.000000 0.198518
#
#
# Mechanical properties :
#
#
# Convention : Reuss Voigt Hill
#
# Bulk Modulus (GPa) = 24.53266 52.07257 38.30262
# Shear Modulus (GPa) = 12.29767 26.06158 19.17962
#
# Velocity S-wave (km/s) = 2.53401 3.68890 3.16459
# Velocity P-wave (km/s) = 4.62291 6.73302 5.77516
#
# Compressibility (1/GPa) = 0.04076199
#
# Stress axis : x y z
#
# Youngs Moduli (GPa) = 70.73903 56.12071 42.31404
#
# Poissons Ratio (x) = 0.08396 -0.12013
# Poissons Ratio (y) = 0.10582 0.37051
# Poissons Ratio (z) = -0.20083 0.49140
#
# Static dielectric constant tensor:
#      x y z
#    x 3.579340 0.000000 0.154370 
#    y 0.000000 3.606720 0.000000 
#    z 0.154370 0.000000 3.838910 
# 
# 
# High freq. dielectric constant tensor:
#      x y z
#    x 1.755160 0.000000 0.012920 
#    y 0.000000 1.717150 0.000000 
#    z 0.012920 0.000000 1.739170 
# 
# From -- ./inp_files/261659.got.cif
#   From: 2010.06.25/outbox.cif.g09.slc.cpg/sg15_131_cif.got.tgz:261659.got - 2010.06.28 07:06:18.
