data_PCOD8136092
_publ_section_title
;
Structure prediction by ZEFSAII (Michael W. Deem and Ramdas Pophale) SiO2 
 PCOD8136092
Probable space group: C 2/C
;
_chemical_formula_sum "Si O2"
_cell_formula_units_Z 36
_cell_length_a 13.765480
_cell_length_b 27.911118
_cell_length_c 5.156854
_cell_angle_alpha 90.000000
_cell_angle_beta 94.617581
_cell_angle_gamma 90.000000
_cell_volume 1974.883643
_symmetry_space_group_name_H-M "C 2/C"
_symmetry_group_IT_number 15
_symmetry_cell_setting 'monoclinic'
loop_
_space_group_symop_operation_xyz
x,y,z
-x,y,1/2-z
-x,-y,-z
x,-y,1/2+z
1/2+x,1/2+y,z
1/2-x,1/2+y,1/2-z
1/2-x,1/2-y,-z
1/2+x,1/2-y,1/2+z
loop_
_atom_site_type_symbol
_atom_site_label
_atom_site_fract_x
_atom_site_fract_y
_atom_site_fract_z
Si Si1 0.000000 0.179507 0.750000
Si Si2 0.751596 0.314565 0.807689
Si Si3 0.692264 0.631730 0.815101
Si Si4 0.907628 0.255150 0.093043
Si Si5 0.612191 0.530931 0.762560
O O1 0.915288 0.146767 0.614142
O O2 0.043328 0.210630 0.532957
O O3 0.763568 0.346745 0.551851
O O4 0.677098 0.269330 0.745262
O O5 0.720682 0.347784 0.041579
O O6 0.858570 0.292862 0.886928
O O7 0.689655 0.574228 0.807012
O O8 0.000000 0.281423 0.250000
O O9 0.500000 0.548977 0.750000
O O10 0.633411 0.507126 0.490933
#
# Coordination Sequence:
#
# PCOD8136092 Si02
#       5
#     4   8   8   8   8
#     4  10  20  30  54  68 104 150 170 208 248 296
#     4  10  23  32  52  73 105 138 184 212 249 300
#     4  11  20  36  49  77 103 139 176 208 252 310
#     4  10  20  34  49  73 103 143 181 216 250 289
#     4  10  20  33  52  76 102 133 170 211 255 313
#
# _framework density 18.228923000000002
#
# number of rings (size 3 to 8) (size 9 to 14) (size 15 to 20)
#    0.000    1.778    3.333    1.333    3.111    2.667 
#    0.000    0.000    0.000    0.000    0.000    0.000 
#    0.000   17.778    0.000    0.000    0.000    0.000 
#
# Total GULP energy -223100.095060 kJ/mol
# GULP energy per Si atom -12394.449726 kJ/mol
# Density = 1.818743 g / cm^3
# Si number density = 18.228923 Si / 1000 Ang^3
#
#
#
# Elastic Constant Matrix: (Units=GPa)
#
#
# Indices 1 2 3 4 5 6 
#
# 1 52.2787 13.2245 15.1106 0.0000 25.4175 0.0000
# 2 13.2245 73.4612 24.9690 0.0000 20.5117 0.0000
# 3 15.1106 24.9690 90.3364 0.0000 19.2131 0.0000
# 4 0.0000 0.0000 0.0000 28.3671 0.0000 15.2942
# 5 25.4175 20.5117 19.2131 0.0000 31.0810 0.0000
# 6 0.0000 0.0000 0.0000 15.2942 0.0000 72.6504
#
#
#
# Elastic Compliance Matrix: (Units=1/GPa)
#
#
# Indices 1 2 3 4 5 6 
#
# 1 0.031967 0.001904 -0.000053 0.000000 -0.027366 0.000000
# 2 0.001904 0.017355 -0.002704 0.000000 -0.011339 0.000000
# 3 -0.000053 -0.002704 0.013169 0.000000 -0.006312 0.000000
# 4 0.000000 0.000000 0.000000 0.039766 0.000000 -0.008371
# 5 -0.027366 -0.011339 -0.006312 0.000000 0.065939 0.000000
# 6 0.000000 0.000000 0.000000 -0.008371 0.000000 0.015527
#
#
# Mechanical properties :
#
#
# Convention : Reuss Voigt Hill
#
# Bulk Modulus (GPa) = 16.45134 35.85383 26.15259
# Shear Modulus (GPa) = 24.30861 37.27118 30.78990
#
# Velocity S-wave (km/s) = 3.65570 4.52665 4.11429
# Velocity P-wave (km/s) = 5.18298 6.85800 6.07846
#
# Compressibility (1/GPa) = 0.06078531
#
# Stress axis : x y z
#
# Youngs Moduli (GPa) = 31.28228 57.62055 75.93873
#
# Poissons Ratio (x) = -0.10974 0.00404
# Poissons Ratio (y) = -0.05958 0.20532
# Poissons Ratio (z) = 0.00167 0.15579
#
# Static dielectric constant tensor:
#      x y z
#    x 3.808500 0.000000 0.651990 
#    y 0.000000 3.205490 0.000000 
#    z 0.651990 0.000000 4.042220 
# 
# 
# High freq. dielectric constant tensor:
#      x y z
#    x 1.670900 0.000000 0.001210 
#    y 0.000000 1.686540 0.000000 
#    z 0.001210 0.000000 1.716290 
# 
# From -- ./inp_files/4255.got.cif
#   From: 2010.06.25/outbox.cif.g09.slc.cpg/sg15_3_cif.got.tgz:4255.got - 2010.06.28 07:06:18.
