data_PCOD8136595
_publ_section_title
;
Structure prediction by ZEFSAII (Michael W. Deem and Ramdas Pophale) SiO2 
 PCOD8136595
Probable space group: C 2/C
;
_chemical_formula_sum "Si O2"
_cell_formula_units_Z 48
_cell_length_a 10.917683
_cell_length_b 15.711558
_cell_length_c 23.024520
_cell_angle_alpha 90.000000
_cell_angle_beta 37.766349
_cell_angle_gamma 90.000000
_cell_volume 2418.833104
_symmetry_space_group_name_H-M "C 2/C"
_symmetry_group_IT_number 15
_symmetry_cell_setting 'monoclinic'
loop_
_space_group_symop_operation_xyz
x,y,z
-x,y,1/2-z
-x,-y,-z
x,-y,1/2+z
1/2+x,1/2+y,z
1/2-x,1/2+y,1/2-z
1/2-x,1/2-y,-z
1/2+x,1/2-y,1/2+z
loop_
_atom_site_type_symbol
_atom_site_label
_atom_site_fract_x
_atom_site_fract_y
_atom_site_fract_z
Si Si1 0.416066 0.915313 0.897886
Si Si2 0.500000 0.617449 0.250000
Si Si3 0.977721 0.131536 0.899772
Si Si4 0.000000 0.679862 0.250000
Si Si5 0.263419 0.821028 0.121604
Si Si6 0.234979 0.028244 0.719599
Si Si7 0.886965 0.708562 0.084629
O O1 0.445291 0.880809 0.822827
O O2 0.516584 0.851324 0.904168
O O3 0.531059 0.005756 0.858621
O O4 0.182489 0.924018 0.002886
O O5 0.391769 0.557578 0.243470
O O6 0.658496 0.680268 0.159267
O O7 0.147873 0.070491 0.810213
O O8 0.090986 0.195210 0.900989
O O9 0.864462 0.181720 0.890370
O O10 0.811227 0.743495 0.309503
O O11 0.223507 0.910629 0.167825
O O12 0.495852 0.805419 0.020063
#
# Coordination Sequence:
#
# PCOD8136595 Si02
#       7
#     8   4   8   4   8   8   8
#     4  10  22  32  57  84 116 146 189 238 277 330
#     4  10  21  34  53  86 120 150 176 234 291 322
#     4  11  18  36  56  87 113 148 191 232 276 333
#     4  12  17  38  57  84 106 148 202 226 275 332
#     4  11  18  32  61  86 112 147 191 232 275 333
#     4  11  21  34  55  89 119 145 180 241 283 330
#     4  10  20  34  57  88 115 148 190 233 274 335
#
# _framework density 19.844279
#
# number of rings (size 3 to 8) (size 9 to 14) (size 15 to 20)
#    0.000    1.333    6.667    1.000    2.333    2.000 
#    0.000    1.667    3.667    3.000    0.000    0.000 
#    0.000    0.000    0.000    0.000    0.000    0.000 
#
# Total GULP energy -297499.528473 kJ/mol
# GULP energy per Si atom -12395.813686 kJ/mol
# Density = 1.979911 g / cm^3
# Si number density = 19.844279 Si / 1000 Ang^3
#
#
#
# Elastic Constant Matrix: (Units=GPa)
#
#
# Indices 1 2 3 4 5 6 
#
# 1 28.5157 38.0192 40.3973 -0.0031 4.1102 0.0018
# 2 38.0192 78.4745 62.0483 -0.0025 -4.5432 0.0057
# 3 40.3973 62.0483 181.6333 -0.0126 10.7591 0.0152
# 4 -0.0031 -0.0025 -0.0126 32.2059 -0.0033 -2.0585
# 5 4.1102 -4.5432 10.7591 -0.0033 24.6268 -0.0020
# 6 0.0018 0.0057 0.0152 -2.0585 -0.0020 18.5177
#
#
#
# Elastic Compliance Matrix: (Units=1/GPa)
#
#
# Indices 1 2 3 4 5 6 
#
# 1 0.123329 -0.056176 -0.006576 0.000003 -0.028074 0.000008
# 2 -0.056176 0.043949 -0.003650 -0.000002 0.019078 -0.000003
# 3 -0.006576 -0.003650 0.008407 0.000002 -0.003249 -0.000005
# 4 0.000003 -0.000002 0.000002 0.031272 0.000003 0.003476
# 5 -0.028074 0.019078 -0.003249 0.000003 0.050231 0.000005
# 6 0.000008 -0.000003 -0.000005 0.003476 0.000005 0.054389
#
#
# Mechanical properties :
#
#
# Convention : Reuss Voigt Hill
#
# Bulk Modulus (GPa) = 23.31971 63.28367 43.30169
# Shear Modulus (GPa) = 10.90096 24.94732 17.92414
#
# Velocity S-wave (km/s) = 2.34631 3.54948 3.00866
# Velocity P-wave (km/s) = 4.37231 6.98268 5.82559
#
# Compressibility (1/GPa) = 0.04288218
#
# Stress axis : x y z
#
# Youngs Moduli (GPa) = 8.10838 22.75362 118.94217
#
# Poissons Ratio (x) = 1.27820 0.78222
# Poissons Ratio (y) = 0.45549 0.43408
# Poissons Ratio (z) = 0.05332 0.08304
#
# Static dielectric constant tensor:
#      x y z
#    x 3.229460 0.000000 0.004340 
#    y 0.000000 3.630100 0.000020 
#    z 0.004340 0.000020 4.363870 
# 
# 
# High freq. dielectric constant tensor:
#      x y z
#    x 1.717260 0.000000 0.010100 
#    y 0.000000 1.762380 0.000000 
#    z 0.010100 0.000000 1.802330 
# 
# From -- ./inp_files/143506.got.cif
#   From: 2010.06.25/outbox.cif.g09.slc.cpg/sg15_72_cif.got.tgz:143506.got - 2010.06.28 07:06:18.
