data_PCOD8136240
_publ_section_title
;
Structure prediction by ZEFSAII (Michael W. Deem and Ramdas Pophale) SiO2 
 PCOD8136240
Probable space group: C 2/C
;
_chemical_formula_sum "Si O2"
_cell_formula_units_Z 40
_cell_length_a 18.358833
_cell_length_b 21.912860
_cell_length_c 4.972516
_cell_angle_alpha 90.000000
_cell_angle_beta 81.402724
_cell_angle_gamma 90.000000
_cell_volume 1977.938327
_symmetry_space_group_name_H-M "C 2/C"
_symmetry_group_IT_number 15
_symmetry_cell_setting 'monoclinic'
loop_
_space_group_symop_operation_xyz
x,y,z
-x,y,1/2-z
-x,-y,-z
x,-y,1/2+z
1/2+x,1/2+y,z
1/2-x,1/2+y,1/2-z
1/2-x,1/2-y,-z
1/2+x,1/2-y,1/2+z
loop_
_atom_site_type_symbol
_atom_site_label
_atom_site_fract_x
_atom_site_fract_y
_atom_site_fract_z
Si Si1 0.500000 0.364234 0.750000
Si Si2 0.096183 0.964032 0.440048
Si Si3 0.770018 0.462316 0.335954
Si Si4 0.500000 0.287465 0.250000
Si Si5 0.785871 0.324126 0.205938
Si Si6 0.154429 0.739920 0.326672
O O1 0.565240 0.401677 0.574327
O O2 0.467055 0.325259 0.521233
O O3 0.182728 0.957963 0.392236
O O4 0.069514 0.980385 0.152352
O O5 0.798923 0.489275 0.600085
O O6 0.799639 0.394896 0.262282
O O7 0.567878 0.247957 0.322787
O O8 0.836309 0.284177 0.376173
O O9 0.699881 0.303710 0.274911
O O10 0.812665 0.311305 0.889201
#
# Coordination Sequence:
#
# PCOD8136240 Si02
#       6
#     4   8   8   4   8   8
#     4  12  22  33  52  72 110 151 184 222 258 320
#     4  10  20  33  48  72 107 147 186 218 256 308
#     4  10  20  33  54  82 109 139 181 230 273 323
#     4  12  24  37  54  84 108 141 188 230 280 324
#     4  10  20  38  58  82 111 146 183 226 279 329
#     4  10  22  37  58  81 111 146 185 229 275 330
#
# _framework density 20.223075000000001
#
# number of rings (size 3 to 8) (size 9 to 14) (size 15 to 20)
#    0.000    1.600    0.000    5.400    0.000    6.400 
#    0.000    0.000    0.000    0.000    0.000   14.000 
#    0.000    0.000    0.000    0.000    0.000    0.000 
#
# Total GULP energy -247975.575433 kJ/mol
# GULP energy per Si atom -12398.778772 kJ/mol
# Density = 2.017705 g / cm^3
# Si number density = 20.223075 Si / 1000 Ang^3
#
#
#
# Elastic Constant Matrix: (Units=GPa)
#
#
# Indices 1 2 3 4 5 6 
#
# 1 72.2289 20.3846 -1.5553 0.0000 4.2655 0.0000
# 2 20.3846 90.5306 20.2778 0.0000 -6.3942 0.0000
# 3 -1.5553 20.2778 90.4683 0.0000 6.4954 0.0000
# 4 0.0000 0.0000 0.0000 30.1649 0.0000 0.7912
# 5 4.2655 -6.3942 6.4954 0.0000 16.9031 0.0000
# 6 0.0000 0.0000 0.0000 0.7912 0.0000 10.2302
#
#
#
# Elastic Compliance Matrix: (Units=1/GPa)
#
#
# Indices 1 2 3 4 5 6 
#
# 1 0.015455 -0.004289 0.001670 0.000000 -0.006165 0.000000
# 2 -0.004289 0.013351 -0.003606 0.000000 0.007518 0.000000
# 3 0.001670 -0.003606 0.012360 0.000000 -0.006535 0.000000
# 4 0.000000 0.000000 0.000000 0.033218 0.000000 -0.002569
# 5 -0.006165 0.007518 -0.006535 0.000000 0.066072 0.000000
# 6 0.000000 0.000000 0.000000 -0.002569 0.000000 0.097949
#
#
# Mechanical properties :
#
#
# Convention : Reuss Voigt Hill
#
# Bulk Modulus (GPa) = 34.82576 36.82690 35.82633
# Shear Modulus (GPa) = 19.19918 25.73435 22.46676
#
# Velocity S-wave (km/s) = 3.08453 3.57112 3.33670
# Velocity P-wave (km/s) = 5.47211 5.93748 5.70954
#
# Compressibility (1/GPa) = 0.02871438
#
# Stress axis : x y z
#
# Youngs Moduli (GPa) = 64.70196 74.90313 80.90775
#
# Poissons Ratio (x) = 0.32130 -0.13510
# Poissons Ratio (y) = 0.27754 0.29175
# Poissons Ratio (z) = -0.10804 0.27010
#
# Static dielectric constant tensor:
#      x y z
#    x 3.220820 0.000000 0.154190 
#    y 0.000000 3.514180 0.000000 
#    z 0.154190 0.000000 4.167310 
# 
# 
# High freq. dielectric constant tensor:
#      x y z
#    x 1.750400 0.000000 0.011060 
#    y 0.000000 1.775300 0.000000 
#    z 0.011060 0.000000 1.818640 
# 
# From -- ./inp_files/9838.got.cif
#   From: 2010.06.25/outbox.cif.g09.slc.cpg/sg15_5_cif.got.tgz:9838.got - 2010.06.28 07:06:18.
