data_PCOD8136207
_publ_section_title
;
Structure prediction by ZEFSAII (Michael W. Deem and Ramdas Pophale) SiO2 
 PCOD8136207
Probable space group: C 2/C
;
_chemical_formula_sum "Si O2"
_cell_formula_units_Z 44
_cell_length_a 10.299850
_cell_length_b 22.529458
_cell_length_c 14.805890
_cell_angle_alpha 90.000000
_cell_angle_beta 142.114471
_cell_angle_gamma 90.000000
_cell_volume 2109.819378
_symmetry_space_group_name_H-M "C 2/C"
_symmetry_group_IT_number 15
_symmetry_cell_setting 'monoclinic'
loop_
_space_group_symop_operation_xyz
x,y,z
-x,y,1/2-z
-x,-y,-z
x,-y,1/2+z
1/2+x,1/2+y,z
1/2-x,1/2+y,1/2-z
1/2-x,1/2-y,-z
1/2+x,1/2-y,1/2+z
loop_
_atom_site_type_symbol
_atom_site_label
_atom_site_fract_x
_atom_site_fract_y
_atom_site_fract_z
Si Si1 0.175592 0.938543 0.418789
Si Si2 0.413077 0.361360 0.398706
Si Si3 0.465137 0.227232 0.036094
Si Si4 0.974087 0.617615 0.943433
Si Si5 0.500000 0.246993 0.250000
Si Si6 0.291548 0.944436 0.075740
O O1 0.386900 0.921344 0.479723
O O2 0.000000 0.957651 0.250000
O O3 0.104603 0.882891 0.440848
O O4 0.201023 0.990801 0.505628
O O5 0.465841 0.293454 0.454826
O O6 0.200016 0.363935 0.224974
O O7 0.381730 0.402567 0.470050
O O8 0.580596 0.178584 0.037898
O O9 0.212472 0.214317 0.883266
O O10 0.529478 0.209938 0.174254
O O11 0.158226 0.582045 0.995215
O O12 0.500000 0.951524 0.250000
#
# Coordination Sequence:
#
# PCOD8136207 Si02
#       6
#     8   8   8   8   4   8
#     4  10  20  38  61  83 111 154 196 241 286 329
#     4  10  21  38  61  84 120 154 187 237 293 341
#     4  11  20  37  58  90 114 150 194 228 300 336
#     4  10  21  38  61  84 120 154 187 237 293 341
#     4  10  20  32  58  84 120 138 188 244 266 346
#     4  10  22  41  58  83 117 158 194 231 287 346
#
# _framework density 20.854865
#
# number of rings (size 3 to 8) (size 9 to 14) (size 15 to 20)
#    0.000    1.818    1.818    3.273    2.545    0.727 
#    9.818    0.000    0.000    0.000    0.000    0.000 
#    0.000    0.000    0.000    0.000    0.000    0.000 
#
# Total GULP energy -272664.456408 kJ/mol
# GULP energy per Si atom -12393.838928 kJ/mol
# Density = 2.080740 g / cm^3
# Si number density = 20.854865 Si / 1000 Ang^3
#
#
#
# Elastic Constant Matrix: (Units=GPa)
#
#
# Indices 1 2 3 4 5 6 
#
# 1 85.6632 22.7426 20.5553 0.0003 -23.0829 0.0005
# 2 22.7426 116.8153 31.0203 0.0001 -15.8581 0.0001
# 3 20.5553 31.0203 64.3012 0.0001 -14.6344 0.0003
# 4 0.0003 0.0001 0.0001 33.9809 0.0001 -11.9997
# 5 -23.0829 -15.8581 -14.6344 0.0001 27.4541 0.0003
# 6 0.0005 0.0001 0.0003 -11.9997 0.0003 16.5858
#
#
#
# Elastic Compliance Matrix: (Units=1/GPa)
#
#
# Indices 1 2 3 4 5 6 
#
# 1 0.015463 -0.000958 -0.001875 -0.000001 0.011448 -0.000001
# 2 -0.000958 0.010197 -0.003933 0.000000 0.002988 0.000000
# 3 -0.001875 -0.003933 0.019544 0.000000 0.006569 0.000000
# 4 -0.000001 0.000000 0.000000 0.039527 -0.000001 0.028597
# 5 0.011448 0.002988 0.006569 -0.000001 0.051277 -0.000002
# 6 -0.000001 0.000000 0.000000 0.028597 -0.000002 0.080982
#
#
# Mechanical properties :
#
#
# Convention : Reuss Voigt Hill
#
# Bulk Modulus (GPa) = 31.57526 46.15735 38.86630
# Shear Modulus (GPa) = 20.74002 28.43493 24.58748
#
# Velocity S-wave (km/s) = 3.15698 3.69652 3.43735
# Velocity P-wave (km/s) = 5.33498 6.35608 5.86778
#
# Compressibility (1/GPa) = 0.03167037
#
# Stress axis : x y z
#
# Youngs Moduli (GPa) = 64.67171 98.06705 51.16735
#
# Poissons Ratio (x) = 0.09399 0.09595
# Poissons Ratio (y) = 0.06198 0.20124
# Poissons Ratio (z) = 0.12128 0.38569
#
# Static dielectric constant tensor:
#      x y z
#    x 3.874950 0.000000 -0.303350 
#    y 0.000000 3.666100 0.000000 
#    z -0.303350 0.000000 3.765700 
# 
# 
# High freq. dielectric constant tensor:
#      x y z
#    x 1.805190 0.000000 -0.023250 
#    y 0.000000 1.816080 0.000000 
#    z -0.023250 0.000000 1.805250 
# 
# From -- ./inp_files/79984.got.cif
#   From: 2010.06.25/outbox.cif.g09.slc.cpg/sg15_40_cif.got.tgz:79984.got - 2010.06.28 07:06:18.
