data_PCOD8136187
_publ_section_title
;
Structure prediction by ZEFSAII (Michael W. Deem and Ramdas Pophale) SiO2 
 PCOD8136187
Probable space group: C 2/C
;
_chemical_formula_sum "Si O2"
_cell_formula_units_Z 36
_cell_length_a 11.770775
_cell_length_b 16.762768
_cell_length_c 9.459672
_cell_angle_alpha 90.000000
_cell_angle_beta 115.898885
_cell_angle_gamma 90.000000
_cell_volume 1679.036116
_symmetry_space_group_name_H-M "C 2/C"
_symmetry_group_IT_number 15
_symmetry_cell_setting 'monoclinic'
loop_
_space_group_symop_operation_xyz
x,y,z
-x,y,1/2-z
-x,-y,-z
x,-y,1/2+z
1/2+x,1/2+y,z
1/2-x,1/2+y,1/2-z
1/2-x,1/2-y,-z
1/2+x,1/2-y,1/2+z
loop_
_atom_site_type_symbol
_atom_site_label
_atom_site_fract_x
_atom_site_fract_y
_atom_site_fract_z
Si Si1 0.211741 0.953362 0.281891
Si Si2 0.877647 0.506397 0.110486
Si Si3 0.598517 0.166836 0.923055
Si Si4 0.500000 0.424141 0.750000
Si Si5 0.124911 0.824788 0.052558
O O1 0.275624 0.983041 0.172666
O O2 0.134757 0.871226 0.208238
O O3 0.315059 0.935143 0.460647
O O4 0.121732 0.022154 0.288960
O O5 0.924793 0.426178 0.050286
O O6 0.000000 0.547170 0.250000
O O7 0.500000 0.193448 0.750000
O O8 0.739324 0.174232 0.944436
O O9 0.582452 0.231209 0.043240
O O10 0.476572 0.370356 0.600028
#
# Coordination Sequence:
#
# PCOD8136187 Si02
#       5
#     8   8   8   4   8
#     4  11  21  36  55  88 120 152 189 235 290 340
#     4  10  21  37  61  88 112 149 192 246 285 337
#     4   9  17  34  55  83 108 143 198 240 275 320
#     4  12  20  36  52  90 122 152 188 232 288 352
#     4  10  20  32  55  84 113 149 191 239 278 331
#
# _framework density 21.440873
#
# number of rings (size 3 to 8) (size 9 to 14) (size 15 to 20)
#    0.000    1.778    5.556    1.333    0.000    0.000 
#    0.000    0.000    0.000    1.333   14.444    0.000 
#    0.000    0.000    0.000    0.000    0.000    0.000 
#
# Total GULP energy -222994.732173 kJ/mol
# GULP energy per Si atom -12388.596232 kJ/mol
# Density = 2.139207 g / cm^3
# Si number density = 21.440873 Si / 1000 Ang^3
#
#
#
# Elastic Constant Matrix: (Units=GPa)
#
#
# Indices 1 2 3 4 5 6 
#
# 1 32.6197 1.8397 13.2555 0.0000 13.0074 0.0000
# 2 1.8397 72.4633 49.6188 0.0000 10.7373 0.0000
# 3 13.2555 49.6188 153.9132 0.0000 29.8881 0.0000
# 4 0.0000 0.0000 0.0000 24.6758 0.0000 2.4149
# 5 13.0074 10.7373 29.8881 0.0000 35.4713 0.0000
# 6 0.0000 0.0000 0.0000 2.4149 0.0000 14.4199
#
#
#
# Elastic Compliance Matrix: (Units=1/GPa)
#
#
# Indices 1 2 3 4 5 6 
#
# 1 0.036143 0.001807 -0.001214 0.000000 -0.012778 0.000000
# 2 0.001807 0.017813 -0.005646 0.000000 -0.001297 0.000000
# 3 -0.001214 -0.005646 0.009569 0.000000 -0.005909 0.000000
# 4 0.000000 0.000000 0.000000 0.041201 0.000000 -0.006900
# 5 -0.012778 -0.001297 -0.005909 0.000000 0.038249 0.000000
# 6 0.000000 0.000000 0.000000 -0.006900 0.000000 0.070504
#
#
# Mechanical properties :
#
#
# Convention : Reuss Voigt Hill
#
# Bulk Modulus (GPa) = 18.72007 43.15827 30.93917
# Shear Modulus (GPa) = 20.71324 27.86555 24.28939
#
# Velocity S-wave (km/s) = 3.11153 3.60897 3.36944
# Velocity P-wave (km/s) = 4.65390 6.12690 5.44048
#
# Compressibility (1/GPa) = 0.05341860
#
# Stress axis : x y z
#
# Youngs Moduli (GPa) = 27.66788 56.14001 104.49996
#
# Poissons Ratio (x) = -0.10145 0.12686
# Poissons Ratio (y) = -0.05000 0.59003
# Poissons Ratio (z) = 0.03359 0.31698
#
# Static dielectric constant tensor:
#      x y z
#    x 3.707710 0.000000 0.498910 
#    y 0.000000 4.545500 0.000000 
#    z 0.498910 0.000000 4.352850 
# 
# 
# High freq. dielectric constant tensor:
#      x y z
#    x 1.822170 0.000000 0.045350 
#    y 0.000000 1.826070 0.000000 
#    z 0.045350 0.000000 1.835460 
# 
# From -- ./inp_files/29446.got.cif
#   From: 2010.06.25/outbox.cif.g09.slc.cpg/sg15_15_cif.got.tgz:29446.got - 2010.06.28 07:06:18.
