data_PCOD8136224
_publ_section_title
;
Structure prediction by ZEFSAII (Michael W. Deem and Ramdas Pophale) SiO2 
 PCOD8136224
Probable space group: C 2/C
;
_chemical_formula_sum "Si O2"
_cell_formula_units_Z 48
_cell_length_a 21.498917
_cell_length_b 16.934646
_cell_length_c 11.079233
_cell_angle_alpha 90.000000
_cell_angle_beta 33.755535
_cell_angle_gamma 90.000000
_cell_volume 2241.321478
_symmetry_space_group_name_H-M "C 2/C"
_symmetry_group_IT_number 15
_symmetry_cell_setting 'monoclinic'
loop_
_space_group_symop_operation_xyz
x,y,z
-x,y,1/2-z
-x,-y,-z
x,-y,1/2+z
1/2+x,1/2+y,z
1/2-x,1/2+y,1/2-z
1/2-x,1/2-y,-z
1/2+x,1/2-y,1/2+z
loop_
_atom_site_type_symbol
_atom_site_label
_atom_site_fract_x
_atom_site_fract_y
_atom_site_fract_z
Si Si1 0.070638 0.780504 0.250621
Si Si2 0.777372 0.153995 0.594796
Si Si3 0.319038 0.000242 0.822370
Si Si4 0.772690 0.641911 0.544757
Si Si5 0.974775 0.586012 0.919713
Si Si6 0.427162 0.755487 0.198548
O O1 0.180563 0.833208 0.094058
O O2 0.000000 0.810466 0.250000
O O3 0.989620 0.793304 0.494550
O O4 0.111537 0.689652 0.165172
O O5 0.770090 0.158452 0.751215
O O6 0.677343 0.200579 0.693172
O O7 0.890805 0.195725 0.364438
O O8 0.780302 0.061046 0.550922
O O9 0.349741 0.936663 0.667298
O O10 0.429268 0.054662 0.646661
O O11 0.293802 0.951436 0.985930
O O12 0.000000 0.546917 0.750000
O O13 0.984030 0.680793 0.894004
#
# Coordination Sequence:
#
# PCOD8136224 Si02
#       6
#     8   8   8   8   8   8
#     4  11  23  41  65  91 127 166 212 271 312 382
#     4  10  22  39  63  91 132 165 208 265 319 384
#     4  10  21  39  56  94 125 168 209 264 326 378
#     4  11  23  40  67  94 124 174 215 258 327 389
#     4  10  20  32  61  90 125 160 205 272 323 375
#     4  10  21  39  60  93 127 164 208 264 320 370
#
# _framework density 21.415937
#
# number of rings (size 3 to 8) (size 9 to 14) (size 15 to 20)
#    0.000    1.667    3.333    1.000    2.333    0.667 
#    6.000    0.833    0.000    0.000    0.000    0.000 
#    0.000    0.000    0.000    0.000    0.000    0.000 
#
# Total GULP energy -297456.685337 kJ/mol
# GULP energy per Si atom -12394.028556 kJ/mol
# Density = 2.136719 g / cm^3
# Si number density = 21.415937 Si / 1000 Ang^3
#
#
#
# Elastic Constant Matrix: (Units=GPa)
#
#
# Indices 1 2 3 4 5 6 
#
# 1 70.8852 27.0086 26.6033 0.0000 15.2804 0.0000
# 2 27.0086 114.7271 55.1914 0.0000 6.5538 0.0000
# 3 26.6033 55.1914 131.2300 0.0000 31.0467 0.0000
# 4 0.0000 0.0000 0.0000 33.0702 0.0000 5.1089
# 5 15.2804 6.5538 31.0467 0.0000 34.6803 0.0000
# 6 0.0000 0.0000 0.0000 5.1089 0.0000 25.0353
#
#
#
# Elastic Compliance Matrix: (Units=1/GPa)
#
#
# Indices 1 2 3 4 5 6 
#
# 1 0.016963 -0.003386 -0.000505 0.000000 -0.006382 0.000000
# 2 -0.003386 0.011791 -0.005200 0.000000 0.003918 0.000000
# 3 -0.000505 -0.005200 0.012210 0.000000 -0.009726 0.000000
# 4 0.000000 0.000000 0.000000 0.031223 0.000000 -0.006372
# 5 -0.006382 0.003918 -0.009726 0.000000 0.039613 0.000000
# 6 0.000000 0.000000 0.000000 -0.006372 0.000000 0.041244
#
#
# Mechanical properties :
#
#
# Convention : Reuss Voigt Hill
#
# Bulk Modulus (GPa) = 43.89161 59.38323 51.63742
# Shear Modulus (GPa) = 27.96128 32.42643 30.19385
#
# Velocity S-wave (km/s) = 3.61727 3.89540 3.75891
# Velocity P-wave (km/s) = 6.16324 6.92971 6.55768
#
# Compressibility (1/GPa) = 0.02278340
#
# Stress axis : x y z
#
# Youngs Moduli (GPa) = 58.95321 84.81118 81.89797
#
# Poissons Ratio (x) = 0.28716 0.04135
# Poissons Ratio (y) = 0.19961 0.42583
# Poissons Ratio (z) = 0.02976 0.44098
#
# Static dielectric constant tensor:
#      x y z
#    x 3.691350 0.000000 0.092370 
#    y 0.000000 3.967030 0.000000 
#    z 0.092370 0.000000 3.845750 
# 
# 
# High freq. dielectric constant tensor:
#      x y z
#    x 1.827000 0.000000 0.017980 
#    y 0.000000 1.826780 0.000000 
#    z 0.017980 0.000000 1.835960 
# 
# From -- ./inp_files/119382.got.cif
#   From: 2010.06.25/outbox.cif.g09.slc.cpg/sg15_60_cif.got.tgz:119382.got - 2010.06.28 07:06:18.
