data_PCOD8136099
_publ_section_title
;
Structure prediction by ZEFSAII (Michael W. Deem and Ramdas Pophale) SiO2 
 PCOD8136099
Probable space group: C 2/C
;
_chemical_formula_sum "Si O2"
_cell_formula_units_Z 64
_cell_length_a 22.664833
_cell_length_b 24.623190
_cell_length_c 8.069221
_cell_angle_alpha 90.000000
_cell_angle_beta 119.666189
_cell_angle_gamma 90.000000
_cell_volume 3913.002384
_symmetry_space_group_name_H-M "C 2/C"
_symmetry_group_IT_number 15
_symmetry_cell_setting 'monoclinic'
loop_
_space_group_symop_operation_xyz
x,y,z
-x,y,1/2-z
-x,-y,-z
x,-y,1/2+z
1/2+x,1/2+y,z
1/2-x,1/2+y,1/2-z
1/2-x,1/2-y,-z
1/2+x,1/2-y,1/2+z
loop_
_atom_site_type_symbol
_atom_site_label
_atom_site_fract_x
_atom_site_fract_y
_atom_site_fract_z
Si Si1 0.159177 0.996394 0.262232
Si Si2 0.074296 0.941159 0.411498
Si Si3 0.426433 0.342761 0.572731
Si Si4 0.159072 0.259162 0.529303
Si Si5 0.428368 0.324977 0.193460
Si Si6 0.300214 0.582642 0.954380
Si Si7 0.325896 0.768672 0.584588
Si Si8 0.790186 0.316527 0.208987
O O1 0.207404 0.045633 0.392457
O O2 0.134705 0.957377 0.372891
O O3 0.202599 0.958808 0.202056
O O4 0.090634 0.024814 0.098151
O O5 0.079858 0.875930 0.443500
O O6 0.000000 0.958515 0.250000
O O7 0.500000 0.355618 0.750000
O O8 0.403448 0.281757 0.590345
O O9 0.428927 0.349123 0.378895
O O10 0.372270 0.386237 0.563790
O O11 0.148437 0.288297 0.696259
O O12 0.161739 0.302178 0.381952
O O13 0.228518 0.225478 0.632352
O O14 0.500000 0.295857 0.250000
O O15 0.368342 0.283027 0.080616
O O16 0.236494 0.622696 0.852666
O O17 0.250000 0.750000 0.500000
O O18 0.330626 0.813085 0.442119
#
# Coordination Sequence:
#
# PCOD8136099 Si02
#       8
#     8   8   8   8   8   8   8   8
#     4  10  21  33  44  59  90 118 167 218 250 269
#     4  10  20  31  44  60  84 124 168 204 242 284
#     4  10  20  31  47  65  99 129 163 199 236 287
#     4   8  17  31  45  73  89 117 159 197 238 291
#     4  10  21  32  45  71  96 125 168 201 248 293
#     4  10  21  35  46  67  89 127 167 208 249 283
#     4   9  18  31  50  68  93 122 158 203 241 298
#     4   9  17  32  51  66  90 116 162 198 243 299
#
# _framework density 16.355727000000002
#
# number of rings (size 3 to 8) (size 9 to 14) (size 15 to 20)
#    0.000    2.500    1.250    1.125    5.250    5.000 
#    2.250    0.000    0.000    0.000    0.000    0.000 
#    0.000    0.000    0.000    3.375    0.500    0.000 
#
# Total GULP energy -396542.516829 kJ/mol
# GULP energy per Si atom -12391.953651 kJ/mol
# Density = 1.631850 g / cm^3
# Si number density = 16.355727 Si / 1000 Ang^3
#
#
#
# Elastic Constant Matrix: (Units=GPa)
#
#
# Indices 1 2 3 4 5 6 
#
# 1 50.0194 35.9608 14.5378 0.0000 -5.6700 0.0000
# 2 35.9608 87.2064 42.8228 0.0000 -2.4426 0.0000
# 3 14.5378 42.8228 61.6191 0.0000 -12.0386 0.0000
# 4 0.0000 0.0000 0.0000 15.8411 0.0000 -6.0881
# 5 -5.6700 -2.4426 -12.0386 0.0000 21.3059 0.0000
# 6 0.0000 0.0000 0.0000 -6.0881 0.0000 17.0347
#
#
#
# Elastic Compliance Matrix: (Units=1/GPa)
#
#
# Indices 1 2 3 4 5 6 
#
# 1 0.030027 -0.014443 0.004711 0.000000 0.008997 0.000000
# 2 -0.014443 0.024935 -0.015865 0.000000 -0.009949 0.000000
# 3 0.004711 -0.015865 0.029263 0.000000 0.015969 0.000000
# 4 0.000000 0.000000 0.000000 0.073178 0.000000 0.026154
# 5 0.008997 -0.009949 0.015969 0.000000 0.057212 0.000000
# 6 0.000000 0.000000 0.000000 0.026154 0.000000 0.068051
#
#
# Mechanical properties :
#
#
# Convention : Reuss Voigt Hill
#
# Bulk Modulus (GPa) = 30.27569 42.83198 36.55383
# Shear Modulus (GPa) = 14.49826 17.87126 16.18476
#
# Velocity S-wave (km/s) = 2.98053 3.30913 3.14912
# Velocity P-wave (km/s) = 5.51323 6.39101 5.96828
#
# Compressibility (1/GPa) = 0.03302981
#
# Stress axis : x y z
#
# Youngs Moduli (GPa) = 33.30373 40.10477 34.17338
#
# Poissons Ratio (x) = 0.57924 -0.16099
# Poissons Ratio (y) = 0.48102 0.54215
# Poissons Ratio (z) = -0.15689 0.63625
#
# Static dielectric constant tensor:
#      x y z
#    x 3.061360 0.000000 -0.341930 
#    y 0.000000 2.982520 0.000000 
#    z -0.341930 0.000000 3.251900 
# 
# 
# High freq. dielectric constant tensor:
#      x y z
#    x 1.609070 0.000000 -0.031970 
#    y 0.000000 1.602710 0.000000 
#    z -0.031970 0.000000 1.623010 
# 
# From -- ./inp_files/63844.got.cif
#   From: 2010.06.25/outbox.cif.g09.slc.cpg/sg15_32_cif.got.tgz:63844.got - 2010.06.28 07:06:18.
