data_PCOD8136666
_publ_section_title
;
Structure prediction by ZEFSAII (Michael W. Deem and Ramdas Pophale) SiO2 
 PCOD8136666
Probable space group: C 2/C
;
_chemical_formula_sum "Si O2"
_cell_formula_units_Z 44
_cell_length_a 13.419058
_cell_length_b 24.501535
_cell_length_c 7.856336
_cell_angle_alpha 90.000000
_cell_angle_beta 48.498554
_cell_angle_gamma 90.000000
_cell_volume 1934.558280
_symmetry_space_group_name_H-M "C 2/C"
_symmetry_group_IT_number 15
_symmetry_cell_setting 'monoclinic'
loop_
_space_group_symop_operation_xyz
x,y,z
-x,y,1/2-z
-x,-y,-z
x,-y,1/2+z
1/2+x,1/2+y,z
1/2-x,1/2+y,1/2-z
1/2-x,1/2-y,-z
1/2+x,1/2-y,1/2+z
loop_
_atom_site_type_symbol
_atom_site_label
_atom_site_fract_x
_atom_site_fract_y
_atom_site_fract_z
Si Si1 0.131951 0.769745 0.505669
Si Si2 0.138702 0.657523 0.341847
Si Si3 0.842245 0.561935 0.938136
Si Si4 0.751046 0.545021 0.668617
Si Si5 0.000000 0.592741 0.250000
Si Si6 0.134987 0.850229 0.191593
O O1 0.250000 0.750000 0.500000
O O2 0.089028 0.716260 0.452524
O O3 0.167834 0.816208 0.326438
O O4 0.000000 0.791428 0.750000
O O5 0.185331 0.621340 0.449815
O O6 0.007285 0.629138 0.412345
O O7 0.249289 0.663171 0.071808
O O8 0.781721 0.563786 0.821751
O O9 0.000000 0.546916 0.750000
O O10 0.745390 0.520540 0.157121
O O11 0.870995 0.555641 0.401257
O O12 0.630711 0.584290 0.741349
O O13 0.000000 0.833022 0.250000
#
# Coordination Sequence:
#
# PCOD8136666 Si02
#       6
#     8   8   8   8   4   8
#     4  12  27  45  71 104 139 182 233 291 352 415
#     4  11  24  39  69  99 134 172 230 276 358 407
#     4  12  21  39  66 106 142 169 218 297 358 415
#     4  11  22  38  64  97 137 177 221 272 351 410
#     4  10  20  34  58  98 128 168 208 274 334 410
#     4  11  26  47  66  93 142 192 234 280 337 414
#
# _framework density 22.744211
#
# number of rings (size 3 to 8) (size 9 to 14) (size 15 to 20)
#    0.000    0.727    2.727    6.000    6.364    0.000 
#    0.000    3.636    0.000    1.091    0.000    0.000 
#    0.000    0.000    0.000    0.000    0.000    0.000 
#
# Total GULP energy -272579.979740 kJ/mol
# GULP energy per Si atom -12389.999079 kJ/mol
# Density = 2.269244 g / cm^3
# Si number density = 22.744211 Si / 1000 Ang^3
#
#
#
# Elastic Constant Matrix: (Units=GPa)
#
#
# Indices 1 2 3 4 5 6 
#
# 1 88.0032 -3.6220 20.9579 0.0000 8.3471 0.0000
# 2 -3.6220 105.3453 30.7294 0.0000 6.3817 0.0000
# 3 20.9579 30.7294 97.7996 0.0000 14.6011 0.0000
# 4 0.0000 0.0000 0.0000 37.3422 0.0000 12.8868
# 5 8.3471 6.3817 14.6011 0.0000 30.4311 0.0000
# 6 0.0000 0.0000 0.0000 12.8868 0.0000 33.5424
#
#
#
# Elastic Compliance Matrix: (Units=1/GPa)
#
#
# Indices 1 2 3 4 5 6 
#
# 1 0.012287 0.001355 -0.002707 0.000000 -0.002356 0.000000
# 2 0.001355 0.010612 -0.003487 0.000000 -0.000924 0.000000
# 3 -0.002707 -0.003487 0.012582 0.000000 -0.004563 0.000000
# 4 0.000000 0.000000 0.000000 0.030873 0.000000 -0.011861
# 5 -0.002356 -0.000924 -0.004563 0.000000 0.035890 0.000000
# 6 0.000000 0.000000 0.000000 -0.011861 0.000000 0.034370
#
#
# Mechanical properties :
#
#
# Convention : Reuss Voigt Hill
#
# Bulk Modulus (GPa) = 38.75498 43.03099 40.89298
# Shear Modulus (GPa) = 32.28021 36.46865 34.37443
#
# Velocity S-wave (km/s) = 3.77141 4.00862 3.89182
# Velocity P-wave (km/s) = 6.00343 6.35500 6.18172
#
# Compressibility (1/GPa) = 0.02580314
#
# Stress axis : x y z
#
# Youngs Moduli (GPa) = 81.38614 94.23058 79.47897
#
# Poissons Ratio (x) = -0.12766 0.21516
# Poissons Ratio (y) = -0.11026 0.27713
# Poissons Ratio (z) = 0.22032 0.32856
#
# Static dielectric constant tensor:
#      x y z
#    x 4.185490 0.000000 0.247440 
#    y 0.000000 4.483000 0.000000 
#    z 0.247440 0.000000 4.040210 
# 
# 
# High freq. dielectric constant tensor:
#      x y z
#    x 1.886370 0.000000 0.030840 
#    y 0.000000 1.908390 0.000000 
#    z 0.030840 0.000000 1.893750 
# 
# From -- ./inp_files/42019.got.cif
#   From: 2010.06.25/outbox.cif.g09.slc.cpg/sg15_22_cif.got.tgz:42019.got - 2010.06.28 07:06:18.
