data_PCOD8136582
_publ_section_title
;
Structure prediction by ZEFSAII (Michael W. Deem and Ramdas Pophale) SiO2 
 PCOD8136582
Probable space group: C 2/C
;
_chemical_formula_sum "Si O2"
_cell_formula_units_Z 36
_cell_length_a 7.967675
_cell_length_b 30.725635
_cell_length_c 8.504040
_cell_angle_alpha 90.000000
_cell_angle_beta 57.142947
_cell_angle_gamma 90.000000
_cell_volume 1748.843313
_symmetry_space_group_name_H-M "C 2/C"
_symmetry_group_IT_number 15
_symmetry_cell_setting 'monoclinic'
loop_
_space_group_symop_operation_xyz
x,y,z
-x,y,1/2-z
-x,-y,-z
x,-y,1/2+z
1/2+x,1/2+y,z
1/2-x,1/2+y,1/2-z
1/2-x,1/2-y,-z
1/2+x,1/2-y,1/2+z
loop_
_atom_site_type_symbol
_atom_site_label
_atom_site_fract_x
_atom_site_fract_y
_atom_site_fract_z
Si Si1 0.666894 0.796059 0.293233
Si Si2 0.940428 0.798130 0.601842
Si Si3 0.296720 0.364430 0.451907
Si Si4 0.228160 0.542336 0.108479
Si Si5 0.000000 0.983302 0.750000
O O1 0.500000 0.801701 0.250000
O O2 0.661662 0.748524 0.375222
O O3 0.641899 0.835269 0.429484
O O4 0.875315 0.799766 0.105642
O O5 0.809700 0.838721 0.611079
O O6 0.000000 0.805426 0.750000
O O7 0.500000 0.371024 0.250000
O O8 0.204570 0.410854 0.539006
O O9 0.361701 0.545201 0.201027
O O10 0.000000 0.525030 0.250000
O O11 0.342340 0.511419 0.928754
#
# Coordination Sequence:
#
# PCOD8136582 Si02
#       5
#     8   8   8   8   4
#     4  10  20  36  54  82 118 163 204 251 307 357
#     4  10  20  34  57  79 120 161 203 254 306 355
#     4  10  22  39  56  86 125 156 204 263 303 363
#     4  11  23  43  70  97 125 169 207 251 331 376
#     4  10  24  46  68  94 136 154 208 270 306 390
#
# _framework density 20.585034
#
# number of rings (size 3 to 8) (size 9 to 14) (size 15 to 20)
#    0.000    1.778    1.111    4.000    1.556    3.556 
#    4.000    1.111    0.000    0.000    0.000    0.000 
#    0.000    0.000    0.000    0.000    0.000    0.000 
#
# Total GULP energy -223055.553280 kJ/mol
# GULP energy per Si atom -12391.975182 kJ/mol
# Density = 2.053818 g / cm^3
# Si number density = 20.585034 Si / 1000 Ang^3
#
#
#
# Elastic Constant Matrix: (Units=GPa)
#
#
# Indices 1 2 3 4 5 6 
#
# 1 55.3187 15.3683 32.6597 0.0000 6.0202 0.0000
# 2 15.3683 95.8341 35.7885 0.0000 9.0572 0.0000
# 3 32.6597 35.7885 91.6435 0.0000 4.9812 0.0000
# 4 0.0000 0.0000 0.0000 26.4191 0.0000 1.7462
# 5 6.0202 9.0572 4.9812 0.0000 33.9225 0.0000
# 6 0.0000 0.0000 0.0000 1.7462 0.0000 27.2438
#
#
#
# Elastic Compliance Matrix: (Units=1/GPa)
#
#
# Indices 1 2 3 4 5 6 
#
# 1 0.023198 -0.000496 -0.007920 0.000000 -0.002822 0.000000
# 2 -0.000496 0.012455 -0.004548 0.000000 -0.002570 0.000000
# 3 -0.007920 -0.004548 0.015492 0.000000 0.000345 0.000000
# 4 0.000000 0.000000 0.000000 0.038012 0.000000 -0.002436
# 5 -0.002822 -0.002570 0.000345 0.000000 0.030615 0.000000
# 6 0.000000 0.000000 0.000000 -0.002436 0.000000 0.036862
#
#
# Mechanical properties :
#
#
# Convention : Reuss Voigt Hill
#
# Bulk Modulus (GPa) = 39.65488 45.60327 42.62907
# Shear Modulus (GPa) = 26.18246 28.11574 27.14910
#
# Velocity S-wave (km/s) = 3.57026 3.69973 3.63557
# Velocity P-wave (km/s) = 6.02507 6.36022 6.19491
#
# Compressibility (1/GPa) = 0.02521758
#
# Stress axis : x y z
#
# Youngs Moduli (GPa) = 43.10732 80.28668 64.55079
#
# Poissons Ratio (x) = 0.03980 0.51126
# Poissons Ratio (y) = 0.02137 0.29356
# Poissons Ratio (z) = 0.34142 0.36512
#
# Static dielectric constant tensor:
#      x y z
#    x 3.599060 0.000000 0.040260 
#    y 0.000000 3.563670 0.000000 
#    z 0.040260 0.000000 3.877300 
# 
# 
# High freq. dielectric constant tensor:
#      x y z
#    x 1.807010 0.000000 0.007000 
#    y 0.000000 1.798380 0.000000 
#    z 0.007000 0.000000 1.819440 
# 
# From -- ./inp_files/25262.got.cif
#   From: 2010.06.25/outbox.cif.g09.slc.cpg/sg15_13_cif.got.tgz:25262.got - 2010.06.28 07:06:18.
