data_PCOD8136561
_publ_section_title
;
Structure prediction by ZEFSAII (Michael W. Deem and Ramdas Pophale) SiO2 
 PCOD8136561
Probable space group: C 2/C
;
_chemical_formula_sum "Si O2"
_cell_formula_units_Z 40
_cell_length_a 19.523424
_cell_length_b 18.987475
_cell_length_c 11.548860
_cell_angle_alpha 90.000000
_cell_angle_beta 151.533474
_cell_angle_gamma 90.000000
_cell_volume 2040.598598
_symmetry_space_group_name_H-M "C 2/C"
_symmetry_group_IT_number 15
_symmetry_cell_setting 'monoclinic'
loop_
_space_group_symop_operation_xyz
x,y,z
-x,y,1/2-z
-x,-y,-z
x,-y,1/2+z
1/2+x,1/2+y,z
1/2-x,1/2+y,1/2-z
1/2-x,1/2-y,-z
1/2+x,1/2-y,1/2+z
loop_
_atom_site_type_symbol
_atom_site_label
_atom_site_fract_x
_atom_site_fract_y
_atom_site_fract_z
Si Si1 0.156189 0.651897 0.177941
Si Si2 0.161579 0.283655 0.035705
Si Si3 0.830751 0.429773 0.021255
Si Si4 0.343259 0.191002 0.701270
Si Si5 0.350852 0.917670 0.595972
O O1 0.261948 0.711241 0.384171
O O2 0.120761 0.594831 0.225215
O O3 0.232847 0.609521 0.186644
O O4 0.013123 0.693345 0.922345
O O5 0.175359 0.299981 0.190998
O O6 0.237645 0.350447 0.084993
O O7 0.000000 0.276296 0.750000
O O8 0.789872 0.385041 0.074945
O O9 0.768106 0.508512 0.949762
O O10 0.000000 0.436036 0.250000
O O11 0.250000 0.250000 0.500000
O O12 0.500000 0.919095 0.750000
#
# Coordination Sequence:
#
# PCOD8136561 Si02
#       5
#     8   8   8   8   8
#     4  11  21  38  58  84 117 147 189 235 286 333
#     4  11  22  37  59  84 113 150 191 234 282 335
#     4   9  21  33  55  86 113 147 181 237 284 329
#     4  11  21  37  57  84 115 147 187 230 283 340
#     4  10  20  34  56  86 113 145 185 237 283 331
#
# _framework density 19.602091999999999
#
# number of rings (size 3 to 8) (size 9 to 14) (size 15 to 20)
#    0.000    1.600    6.000    0.600    2.800    2.400 
#    0.000    0.000    0.000    4.800    0.000    0.000 
#    0.000    0.000    0.000    0.000    0.000    0.000 
#
# Total GULP energy -247801.803549 kJ/mol
# GULP energy per Si atom -12390.090177 kJ/mol
# Density = 1.955748 g / cm^3
# Si number density = 19.602092 Si / 1000 Ang^3
#
#
#
# Elastic Constant Matrix: (Units=GPa)
#
#
# Indices 1 2 3 4 5 6 
#
# 1 79.8869 38.2567 31.5408 0.0000 -30.2923 0.0000
# 2 38.2567 181.6300 60.7082 0.0000 -11.2227 0.0000
# 3 31.5408 60.7082 75.4211 0.0000 -23.2261 0.0000
# 4 0.0000 0.0000 0.0000 28.9648 0.0000 -7.3106
# 5 -30.2923 -11.2227 -23.2261 0.0000 30.3233 0.0000
# 6 0.0000 0.0000 0.0000 -7.3106 0.0000 23.1304
#
#
#
# Elastic Compliance Matrix: (Units=1/GPa)
#
#
# Indices 1 2 3 4 5 6 
#
# 1 0.021978 -0.003289 -0.000206 0.000000 0.020580 0.000000
# 2 -0.003289 0.008163 -0.006906 0.000000 -0.005554 0.000000
# 3 -0.000206 -0.006906 0.023626 0.000000 0.015335 0.000000
# 4 0.000000 0.000000 0.000000 0.037518 0.000000 0.011858
# 5 0.020580 -0.005554 0.015335 0.000000 0.063227 0.000000
# 6 0.000000 0.000000 0.000000 0.011858 0.000000 0.046981
#
#
# Mechanical properties :
#
#
# Convention : Reuss Voigt Hill
#
# Bulk Modulus (GPa) = 30.33426 66.43885 48.38656
# Shear Modulus (GPa) = 21.43314 30.24585 25.83950
#
# Velocity S-wave (km/s) = 3.31026 3.93235 3.63464
# Velocity P-wave (km/s) = 5.48808 7.38818 6.50785
#
# Compressibility (1/GPa) = 0.03296603
#
# Stress axis : x y z
#
# Youngs Moduli (GPa) = 45.50044 122.49679 42.32591
#
# Poissons Ratio (x) = 0.40285 0.00873
# Poissons Ratio (y) = 0.14963 0.29230
# Poissons Ratio (z) = 0.00938 0.84595
#
# Static dielectric constant tensor:
#      x y z
#    x 3.777890 0.000000 -0.785030 
#    y 0.000000 4.528270 0.000000 
#    z -0.785030 0.000000 4.233350 
# 
# 
# High freq. dielectric constant tensor:
#      x y z
#    x 1.756380 0.000000 -0.045210 
#    y 0.000000 1.781370 0.000000 
#    z -0.045210 0.000000 1.723420 
# 
# From -- ./inp_files/77950.got.cif
#   From: 2010.06.25/outbox.cif.g09.slc.cpg/sg15_39_cif.got.tgz:77950.got - 2010.06.28 07:06:18.
