data_PCOD8136083
_publ_section_title
;
Structure prediction by ZEFSAII (Michael W. Deem and Ramdas Pophale) SiO2 
 PCOD8136083
Probable space group: C 2/C
;
_chemical_formula_sum "Si O2"
_cell_formula_units_Z 64
_cell_length_a 24.207675
_cell_length_b 33.316778
_cell_length_c 5.074611
_cell_angle_alpha 90.000000
_cell_angle_beta 90.468381
_cell_angle_gamma 90.000000
_cell_volume 4092.647309
_symmetry_space_group_name_H-M "C 2/C"
_symmetry_group_IT_number 15
_symmetry_cell_setting 'monoclinic'
loop_
_space_group_symop_operation_xyz
x,y,z
-x,y,1/2-z
-x,-y,-z
x,-y,1/2+z
1/2+x,1/2+y,z
1/2-x,1/2+y,1/2-z
1/2-x,1/2-y,-z
1/2+x,1/2-y,1/2+z
loop_
_atom_site_type_symbol
_atom_site_label
_atom_site_fract_x
_atom_site_fract_y
_atom_site_fract_z
Si Si1 0.402143 0.976576 0.812522
Si Si2 0.937886 0.660948 0.818847
Si Si3 0.270627 0.023274 0.289554
Si Si4 0.848119 0.723409 0.878243
Si Si5 0.309112 0.264946 0.404836
Si Si6 0.750836 0.337529 0.273958
Si Si7 0.227052 0.613858 0.231631
Si Si8 0.901676 0.614429 0.307326
O O1 0.336372 0.977229 0.806238
O O2 0.422647 0.931025 0.848219
O O3 0.425911 0.996111 0.548175
O O4 0.907858 0.702802 0.886343
O O5 0.907765 0.638201 0.579382
O O6 0.000000 0.672122 0.750000
O O7 0.938499 0.633261 0.077716
O O8 0.250202 0.068652 0.245075
O O9 0.247003 0.004799 0.557589
O O10 0.849050 0.759495 0.660830
O O11 0.804306 0.690422 0.784055
O O12 0.832225 0.738488 0.166578
O O13 0.250000 0.250000 0.500000
O O14 0.303054 0.310918 0.306106
O O15 0.741092 0.358457 0.555716
O O16 0.759910 0.371959 0.061068
O O17 0.161833 0.616141 0.288953
#
# Coordination Sequence:
#
# PCOD8136083 Si02
#       8
#     8   8   8   8   8   8   8   8
#     4   9  17  29  48  66  78 101 134 172 223 280
#     4  12  24  36  51  66  84 112 146 182 219 266
#     4   9  17  27  38  59  85 109 141 170 206 249
#     4  11  19  34  47  64  89 113 138 171 215 266
#     4  10  20  30  48  68  91 114 132 164 211 271
#     4  11  18  29  45  70  91 106 137 165 216 270
#     4  11  18  28  47  65  87 114 135 177 217 257
#     4  11  20  35  49  65  87 107 137 184 226 267
#
# _framework density 15.6378
#
# number of rings (size 3 to 8) (size 9 to 14) (size 15 to 20)
#    0.000    1.500    2.500    6.375    0.000    4.000 
#    0.000    0.000    0.000    7.500    0.000    0.000 
#    0.000    0.000    0.000    0.000    0.000    0.000 
#
# Total GULP energy -396785.873358 kJ/mol
# GULP energy per Si atom -12399.558542 kJ/mol
# Density = 1.560221 g / cm^3
# Si number density = 15.637800 Si / 1000 Ang^3
#
#
#
# Elastic Constant Matrix: (Units=GPa)
#
#
# Indices 1 2 3 4 5 6 
#
# 1 28.5503 29.3327 17.4508 0.0000 -6.6940 0.0000
# 2 29.3327 75.3745 28.0746 0.0000 -5.5598 0.0000
# 3 17.4508 28.0746 107.5695 0.0000 -0.4364 0.0000
# 4 0.0000 0.0000 0.0000 33.8345 0.0000 3.1622
# 5 -6.6940 -5.5598 -0.4364 0.0000 12.5874 0.0000
# 6 0.0000 0.0000 0.0000 3.1622 0.0000 9.5021
#
#
#
# Elastic Compliance Matrix: (Units=1/GPa)
#
#
# Indices 1 2 3 4 5 6 
#
# 1 0.067003 -0.022350 -0.004933 0.000000 0.025590 0.000000
# 2 -0.022350 0.022678 -0.002301 0.000000 -0.001949 0.000000
# 3 -0.004933 -0.002301 0.010684 0.000000 -0.003269 0.000000
# 4 0.000000 0.000000 0.000000 0.030504 0.000000 -0.010152
# 5 0.025590 -0.001949 -0.003269 0.000000 0.092079 0.000000
# 6 0.000000 0.000000 0.000000 -0.010152 0.000000 0.108618
#
#
# Mechanical properties :
#
#
# Convention : Reuss Voigt Hill
#
# Bulk Modulus (GPa) = 24.27324 40.13451 32.20387
# Shear Modulus (GPa) = 12.36194 20.29388 16.32791
#
# Velocity S-wave (km/s) = 2.81466 3.60633 3.23481
# Velocity P-wave (km/s) = 5.11067 6.56213 5.88135
#
# Compressibility (1/GPa) = 0.04119764
#
# Stress axis : x y z
#
# Youngs Moduli (GPa) = 14.92463 44.09550 93.59966
#
# Poissons Ratio (x) = 0.98554 0.46171
# Poissons Ratio (y) = 0.33357 0.21536
# Poissons Ratio (z) = 0.07362 0.10146
#
# Static dielectric constant tensor:
#      x y z
#    x 2.579510 0.000000 0.164510 
#    y 0.000000 3.258000 0.000000 
#    z 0.164510 0.000000 3.256380 
# 
# 
# High freq. dielectric constant tensor:
#      x y z
#    x 1.520670 0.000000 0.008650 
#    y 0.000000 1.600880 0.000000 
#    z 0.008650 0.000000 1.628480 
# 
# From -- ./inp_files/16368.got.cif
#   From: 2010.06.25/outbox.cif.g09.slc.cpg/sg15_9_cif.got.tgz:16368.got - 2010.06.28 07:06:18.
