data_PCOD8136806
_publ_section_title
;
Structure prediction by ZEFSAII (Michael W. Deem and Ramdas Pophale) SiO2 
 PCOD8136806
Probable space group: C 2/C
;
_chemical_formula_sum "Si O2"
_cell_formula_units_Z 36
_cell_length_a 24.315882
_cell_length_b 11.661482
_cell_length_c 27.381188
_cell_angle_alpha 90.000000
_cell_angle_beta 15.194028
_cell_angle_gamma 90.000000
_cell_volume 2034.905189
_symmetry_space_group_name_H-M "C 2/C"
_symmetry_group_IT_number 15
_symmetry_cell_setting 'monoclinic'
loop_
_space_group_symop_operation_xyz
x,y,z
-x,y,1/2-z
-x,-y,-z
x,-y,1/2+z
1/2+x,1/2+y,z
1/2-x,1/2+y,1/2-z
1/2-x,1/2-y,-z
1/2+x,1/2-y,1/2+z
loop_
_atom_site_type_symbol
_atom_site_label
_atom_site_fract_x
_atom_site_fract_y
_atom_site_fract_z
Si Si1 0.275310 0.390339 0.928960
Si Si2 0.312671 0.152587 0.659334
Si Si3 0.398939 0.399978 0.555722
Si Si4 0.491754 0.997111 0.424229
Si Si5 0.500000 0.829791 0.250000
O O1 0.500000 0.449352 0.750000
O O2 0.314998 0.253287 0.887000
O O3 0.102821 0.408652 0.119790
O O4 0.192461 0.444186 0.950141
O O5 0.362556 0.287091 0.619821
O O6 0.401833 0.100412 0.533396
O O7 0.415642 0.099925 0.619642
O O8 0.060301 0.130196 0.873985
O O9 0.500000 0.500000 0.500000
O O10 0.171235 0.449119 0.734664
#
# Coordination Sequence:
#
# PCOD8136806 Si02
#       5
#     8   8   8   8   4
#     4   9  18  35  54  80 112 139 187 228 283 320
#     4  10  20  36  52  81 119 140 190 221 273 341
#     4  10  20  35  52  78 112 151 184 221 268 327
#     4  10  21  34  56  82 111 155 173 231 281 325
#     4   8  18  36  52  80 110 140 184 240 268 332
#
# _framework density 17.691241999999999
#
# number of rings (size 3 to 8) (size 9 to 14) (size 15 to 20)
#    0.667    1.778    2.222    0.000    0.000    5.333 
#    0.000    0.000    0.000    1.333    0.000    0.000 
#    0.000    0.000    0.000    0.000    0.000    0.000 
#
# Total GULP energy -223000.320104 kJ/mol
# GULP energy per Si atom -12388.906672 kJ/mol
# Density = 1.765098 g / cm^3
# Si number density = 17.691242 Si / 1000 Ang^3
#
#
#
# Elastic Constant Matrix: (Units=GPa)
#
#
# Indices 1 2 3 4 5 6 
#
# 1 84.3848 28.9832 43.2340 0.0012 -13.3937 -0.0532
# 2 28.9832 88.9357 27.5069 0.6734 -3.7105 -0.0744
# 3 43.2340 27.5069 128.0717 0.2735 2.4123 -0.0481
# 4 0.0012 0.6734 0.2735 22.9199 -0.0262 -3.7051
# 5 -13.3937 -3.7105 2.4123 -0.0262 23.1535 -0.0506
# 6 -0.0532 -0.0744 -0.0481 -3.7051 -0.0506 7.7562
#
#
#
# Elastic Compliance Matrix: (Units=1/GPa)
#
#
# Indices 1 2 3 4 5 6 
#
# 1 0.017392 -0.003617 -0.005284 0.000215 0.010033 0.000220
# 2 -0.003617 0.012912 -0.001554 -0.000375 0.000138 -0.000089
# 3 -0.005284 -0.001554 0.010008 -0.000088 -0.004349 -0.000059
# 4 0.000215 -0.000375 -0.000088 0.047294 0.000177 0.022590
# 5 0.010033 0.000138 -0.004349 0.000177 0.049470 0.000450
# 6 0.000220 -0.000089 -0.000059 0.022590 0.000450 0.139723
#
#
# Mechanical properties :
#
#
# Convention : Reuss Voigt Hill
#
# Bulk Modulus (GPa) = 51.53904 55.64893 53.59398
# Shear Modulus (GPa) = 16.43784 24.21048 20.32416
#
# Velocity S-wave (km/s) = 3.05151 3.70334 3.39311
# Velocity P-wave (km/s) = 6.45069 7.05764 6.76097
#
# Compressibility (1/GPa) = 0.01940277
#
# Stress axis : x y z
#
# Youngs Moduli (GPa) = 57.49670 77.44786 99.92322
#
# Poissons Ratio (x) = 0.28010 0.52798
# Poissons Ratio (y) = 0.20794 0.15529
# Poissons Ratio (z) = 0.30380 0.12036
#
# Static dielectric constant tensor:
#      x y z
#    x 2.734110 -0.000060 0.098960 
#    y -0.000060 3.195070 0.000860 
#    z 0.098960 0.000860 4.012780 
# 
# 
# High freq. dielectric constant tensor:
#      x y z
#    x 1.628380 -0.000010 0.010440 
#    y -0.000010 1.670920 0.000060 
#    z 0.010440 0.000060 1.716070 
# 
# From -- ./inp_files/60758.got.cif
#   From: 2010.06.25/outbox.cif.g09.slc.cpg/sg15_31_cif.got.tgz:60758.got - 2010.06.28 07:06:18.
