data_PCOD8136459
_publ_section_title
;
Structure prediction by ZEFSAII (Michael W. Deem and Ramdas Pophale) SiO2 
 PCOD8136459
Probable space group: C 2/C
;
_chemical_formula_sum "Si O2"
_cell_formula_units_Z 64
_cell_length_a 29.190508
_cell_length_b 13.945238
_cell_length_c 9.949601
_cell_angle_alpha 90.000000
_cell_angle_beta 69.704666
_cell_angle_gamma 90.000000
_cell_volume 3798.724012
_symmetry_space_group_name_H-M "C 2/C"
_symmetry_group_IT_number 15
_symmetry_cell_setting 'monoclinic'
loop_
_space_group_symop_operation_xyz
x,y,z
-x,y,1/2-z
-x,-y,-z
x,-y,1/2+z
1/2+x,1/2+y,z
1/2-x,1/2+y,1/2-z
1/2-x,1/2-y,-z
1/2+x,1/2-y,1/2+z
loop_
_atom_site_type_symbol
_atom_site_label
_atom_site_fract_x
_atom_site_fract_y
_atom_site_fract_z
Si Si1 0.750653 0.980846 0.096780
Si Si2 0.128451 0.826337 0.838347
Si Si3 0.687194 0.498980 0.210915
Si Si4 0.472055 0.379393 0.650770
Si Si5 0.277134 0.222768 0.837712
Si Si6 0.136582 0.181517 0.648897
Si Si7 0.536145 0.599174 0.828389
Si Si8 0.280161 0.195761 0.356151
O O1 0.794858 0.981955 0.156883
O O2 0.716988 0.892399 0.178357
O O3 0.721453 0.080807 0.127449
O O4 0.771101 0.954778 0.926895
O O5 0.073033 0.810066 0.843669
O O6 0.166952 0.757526 0.725869
O O7 0.140551 0.933940 0.779254
O O8 0.130990 0.810637 0.994956
O O9 0.673549 0.403431 0.146083
O O10 0.500000 0.335055 0.750000
O O11 0.452465 0.486517 0.703417
O O12 0.512373 0.381862 0.495015
O O13 0.243774 0.270937 0.757882
O O14 0.250000 0.250000 0.000000
O O15 0.084948 0.162715 0.771656
O O16 0.162484 0.276018 0.685420
O O17 0.500000 0.636087 0.750000
O O18 0.250000 0.250000 0.500000
#
# Coordination Sequence:
#
# PCOD8136459 Si02
#       8
#     8   8   8   8   8   8   8   8
#     4  12  22  36  52  79 116 149 189 231 262 327
#     4  12  22  36  53  82 113 150 191 223 280 335
#     4  12  20  32  55  76 111 151 182 223 271 321
#     4  10  22  34  54  80 111 142 182 234 286 330
#     4  12  23  35  54  82 113 148 189 233 277 326
#     4  12  22  34  57  80 111 154 192 221 271 344
#     4  10  20  34  53  79 108 145 184 231 274 333
#     4  12  21  37  55  80 109 152 192 219 272 336
#
# _framework density 16.847763
#
# number of rings (size 3 to 8) (size 9 to 14) (size 15 to 20)
#    0.000    0.500   10.000    0.000    0.000    2.000 
#    0.000    0.000    0.000    0.000    0.000    1.750 
#    0.000    0.000    0.000    0.000    0.000    0.000 
#
# Total GULP energy -396711.192458 kJ/mol
# GULP energy per Si atom -12397.224764 kJ/mol
# Density = 1.680942 g / cm^3
# Si number density = 16.847763 Si / 1000 Ang^3
#
#
#
# Elastic Constant Matrix: (Units=GPa)
#
#
# Indices 1 2 3 4 5 6 
#
# 1 116.5651 36.8602 35.8503 0.0000 -0.3899 0.0000
# 2 36.8602 78.1243 18.4688 0.0000 -1.4822 0.0000
# 3 35.8503 18.4688 91.6387 0.0000 8.7609 0.0000
# 4 0.0000 0.0000 0.0000 11.8972 0.0000 1.8869
# 5 -0.3899 -1.4822 8.7609 0.0000 28.8983 0.0000
# 6 0.0000 0.0000 0.0000 1.8869 0.0000 20.0526
#
#
#
# Elastic Compliance Matrix: (Units=1/GPa)
#
#
# Indices 1 2 3 4 5 6 
#
# 1 0.011049 -0.004357 -0.003540 0.000000 0.000999 0.000000
# 2 -0.004357 0.015227 -0.001476 0.000000 0.001170 0.000000
# 3 -0.003540 -0.001476 0.012983 0.000000 -0.004059 0.000000
# 4 0.000000 0.000000 0.000000 0.085327 0.000000 -0.008029
# 5 0.000999 0.001170 -0.004059 0.000000 0.035908 0.000000
# 6 0.000000 0.000000 0.000000 -0.008029 0.000000 0.050624
#
#
# Mechanical properties :
#
#
# Convention : Reuss Voigt Hill
#
# Bulk Modulus (GPa) = 48.75071 52.07629 50.41350
# Shear Modulus (GPa) = 21.12364 25.17955 23.15160
#
# Velocity S-wave (km/s) = 3.54474 3.87011 3.71099
# Velocity P-wave (km/s) = 6.76405 7.13774 6.95341
#
# Compressibility (1/GPa) = 0.02051252
#
# Stress axis : x y z
#
# Youngs Moduli (GPa) = 90.50809 65.67262 77.02506
#
# Poissons Ratio (x) = 0.28615 0.27265
# Poissons Ratio (y) = 0.39436 0.11370
# Poissons Ratio (z) = 0.32038 0.09694
#
# Static dielectric constant tensor:
#      x y z
#    x 3.341090 0.000000 0.009220 
#    y 0.000000 3.208740 0.000000 
#    z 0.009220 0.000000 3.284700 
# 
# 
# High freq. dielectric constant tensor:
#      x y z
#    x 1.640480 0.000000 0.009450 
#    y 0.000000 1.618590 0.000000 
#    z 0.009450 0.000000 1.668330 
# 
# From -- ./inp_files/66229.got.cif
#   From: 2010.06.25/outbox.cif.g09.slc.cpg/sg15_34_cif.got.tgz:66229.got - 2010.06.28 07:06:18.
