data_PCOD8136698
_publ_section_title
;
Structure prediction by ZEFSAII (Michael W. Deem and Ramdas Pophale) SiO2 
 PCOD8136698
Probable space group: C 2/C
;
_chemical_formula_sum "Si O2"
_cell_formula_units_Z 56
_cell_length_a 15.662222
_cell_length_b 19.892560
_cell_length_c 15.199271
_cell_angle_alpha 90.000000
_cell_angle_beta 146.107869
_cell_angle_gamma 90.000000
_cell_volume 2640.668016
_symmetry_space_group_name_H-M "C 2/C"
_symmetry_group_IT_number 15
_symmetry_cell_setting 'monoclinic'
loop_
_space_group_symop_operation_xyz
x,y,z
-x,y,1/2-z
-x,-y,-z
x,-y,1/2+z
1/2+x,1/2+y,z
1/2-x,1/2+y,1/2-z
1/2-x,1/2-y,-z
1/2+x,1/2-y,1/2+z
loop_
_atom_site_type_symbol
_atom_site_label
_atom_site_fract_x
_atom_site_fract_y
_atom_site_fract_z
Si Si1 0.183891 0.160319 0.263514
Si Si2 0.835149 0.979353 0.826696
Si Si3 0.882310 0.579151 0.775508
Si Si4 0.215764 0.333446 0.147952
Si Si5 0.541561 0.740220 0.540266
Si Si6 0.215028 0.578113 0.994586
Si Si7 0.662628 0.552914 0.854639
O O1 0.193157 0.100609 0.199257
O O2 0.333538 0.206915 0.387501
O O3 0.173589 0.127480 0.353192
O O4 0.030236 0.201967 0.106665
O O5 0.701314 0.009611 0.772361
O O6 0.834006 0.008079 0.728757
O O7 0.000000 0.000000 0.000000
O O8 0.861468 0.632025 0.834321
O O9 0.815051 0.610526 0.626900
O O10 0.061754 0.566000 0.919928
O O11 0.382820 0.309466 0.323625
O O12 0.234987 0.381035 0.078643
O O13 0.098670 0.273691 0.024729
O O14 0.275830 0.502380 0.023365
O O15 0.500000 0.579037 0.750000
#
# Coordination Sequence:
#
# PCOD8136698 Si02
#       7
#     8   8   8   8   8   8   8
#     4  10  20  36  57  82 116 148 197 228 278 329
#     4  10  20  34  60  87 113 146 185 237 295 349
#     4  10  20  36  57  85 116 145 185 234 300 342
#     4  10  21  39  61  80 118 149 195 232 283 337
#     4  10  21  37  57  84 109 160 196 230 266 337
#     4  10  21  35  56  86 117 145 182 241 287 350
#     4  10  21  35  58  84 111 142 185 240 297 338
#
# _framework density 21.206755000000001
#
# number of rings (size 3 to 8) (size 9 to 14) (size 15 to 20)
#    0.000    2.000    1.429    2.571    2.000    2.857 
#    0.000    5.000    0.000    0.000    0.000    0.000 
#    0.000    0.000    0.000    0.000    0.000    0.000 
#
# Total GULP energy -346967.641200 kJ/mol
# GULP energy per Si atom -12391.701471 kJ/mol
# Density = 2.115849 g / cm^3
# Si number density = 21.206755 Si / 1000 Ang^3
#
#
#
# Elastic Constant Matrix: (Units=GPa)
#
#
# Indices 1 2 3 4 5 6 
#
# 1 68.0455 16.4511 2.9018 0.0000 14.4573 0.0000
# 2 16.4511 73.2641 17.2727 0.0000 1.8160 0.0000
# 3 2.9018 17.2727 73.6720 -0.0001 11.3721 0.0000
# 4 0.0000 0.0000 -0.0001 35.8132 0.0000 8.9180
# 5 14.4573 1.8160 11.3721 0.0000 23.3001 0.0000
# 6 0.0000 0.0000 0.0000 8.9180 0.0000 9.8406
#
#
#
# Elastic Compliance Matrix: (Units=1/GPa)
#
#
# Indices 1 2 3 4 5 6 
#
# 1 0.018192 -0.004292 0.002142 0.000000 -0.011999 0.000000
# 2 -0.004292 0.015468 -0.003982 0.000000 0.003402 0.000000
# 3 0.002142 -0.003982 0.015768 0.000000 -0.008715 0.000000
# 4 0.000000 0.000000 0.000000 0.036060 0.000000 -0.032679
# 5 -0.011999 0.003402 -0.008715 0.000000 0.054351 0.000000
# 6 0.000000 0.000000 0.000000 -0.032679 0.000000 0.131235
#
#
# Mechanical properties :
#
#
# Convention : Reuss Voigt Hill
#
# Bulk Modulus (GPa) = 26.90941 32.02587 29.46764
# Shear Modulus (GPa) = 16.90745 25.68119 21.29432
#
# Velocity S-wave (km/s) = 2.82666 3.48370 3.17224
# Velocity P-wave (km/s) = 4.83425 5.59608 5.22906
#
# Compressibility (1/GPa) = 0.03716173
#
# Stress axis : x y z
#
# Youngs Moduli (GPa) = 54.97000 64.65090 63.41871
#
# Poissons Ratio (x) = 0.27751 -0.13584
# Poissons Ratio (y) = 0.23596 0.25256
# Poissons Ratio (z) = -0.11774 0.25747
#
# Static dielectric constant tensor:
#      x y z
#    x 3.667760 0.000000 -0.000040 
#    y 0.000000 4.042710 0.000000 
#    z -0.000040 0.000000 4.057300 
# 
# 
# High freq. dielectric constant tensor:
#      x y z
#    x 1.809050 0.000000 0.013350 
#    y 0.000000 1.833610 0.000000 
#    z 0.013350 0.000000 1.836440 
# 
# From -- ./inp_files/156246.got.cif
#   From: 2010.06.25/outbox.cif.g09.slc.cpg/sg15_79_cif.got.tgz:156246.got - 2010.06.28 07:06:18.
