data_PCOD8136075
_publ_section_title
;
Structure prediction by ZEFSAII (Michael W. Deem and Ramdas Pophale) SiO2 
 PCOD8136075
Probable space group: C 2/C
;
_chemical_formula_sum "Si O2"
_cell_formula_units_Z 60
_cell_length_a 24.927355
_cell_length_b 31.047483
_cell_length_c 5.033227
_cell_angle_alpha 90.000000
_cell_angle_beta 90.842576
_cell_angle_gamma 90.000000
_cell_volume 3894.952383
_symmetry_space_group_name_H-M "C 2/C"
_symmetry_group_IT_number 15
_symmetry_cell_setting 'monoclinic'
loop_
_space_group_symop_operation_xyz
x,y,z
-x,y,1/2-z
-x,-y,-z
x,-y,1/2+z
1/2+x,1/2+y,z
1/2-x,1/2+y,1/2-z
1/2-x,1/2-y,-z
1/2+x,1/2-y,1/2+z
loop_
_atom_site_type_symbol
_atom_site_label
_atom_site_fract_x
_atom_site_fract_y
_atom_site_fract_z
Si Si1 0.467047 0.856040 0.493960
Si Si2 0.650427 0.119535 0.661532
Si Si3 0.290273 0.285745 0.603969
Si Si4 0.532464 0.246271 0.501040
Si Si5 0.348335 0.742497 0.630684
Si Si6 0.000000 0.470373 0.250000
Si Si7 0.691314 0.835259 0.686399
Si Si8 0.616582 0.029852 0.770555
O O1 0.500000 0.875352 0.250000
O O2 0.406570 0.872213 0.483523
O O3 0.466060 0.804883 0.488225
O O4 0.500000 0.873714 0.750000
O O5 0.692145 0.131136 0.430954
O O6 0.658063 0.069229 0.737562
O O7 0.658943 0.148239 0.925597
O O8 0.250000 0.250000 0.500000
O O9 0.338239 0.288135 0.389395
O O10 0.254305 0.328998 0.618740
O O11 0.308866 0.272247 0.896338
O O12 0.500000 0.264850 0.750000
O O13 0.592413 0.264484 0.480978
O O14 0.500000 0.263709 0.250000
O O15 0.338352 0.791877 0.715370
O O16 0.057601 0.446182 0.249484
O O17 0.000000 0.500000 0.500000
O O18 0.625413 0.992820 0.553302
#
# Coordination Sequence:
#
# PCOD8136075 Si02
#       8
#     8   8   8   8   8   4   8   8
#     4  10  21  32  42  60  84 111 141 175 225 276
#     4  12  22  33  52  64  86 111 137 196 227 278
#     4  10  20  31  49  65  87 114 141 178 218 270
#     4  10  20  30  44  62  89 118 144 178 212 263
#     4  11  19  33  48  65  90 119 140 176 223 266
#     4   8  16  32  48  58  76 100 134 178 210 272
#     4  11  21  33  47  71  86 107 148 179 228 275
#     4  10  21  37  48  64  82 108 142 176 231 280
#
# _framework density 15.404552000000001
#
# number of rings (size 3 to 8) (size 9 to 14) (size 15 to 20)
#    0.000    1.600    1.333    6.400    4.667    0.000 
#    4.800    0.000    0.000    0.000    0.000    0.000 
#    0.000    0.000    0.000    0.000    0.000    0.000 
#
# Total GULP energy -371766.634750 kJ/mol
# GULP energy per Si atom -12392.221158 kJ/mol
# Density = 1.536949 g / cm^3
# Si number density = 15.404552 Si / 1000 Ang^3
#
#
#
# Elastic Constant Matrix: (Units=GPa)
#
#
# Indices 1 2 3 4 5 6 
#
# 1 72.7538 29.8832 28.2503 0.0000 -13.9450 0.0000
# 2 29.8832 44.7426 23.1147 0.0000 -2.6339 0.0000
# 3 28.2503 23.1147 112.2140 0.0000 -6.3325 0.0000
# 4 0.0000 0.0000 0.0000 13.9183 0.0000 -6.7597
# 5 -13.9450 -2.6339 -6.3325 0.0000 33.2853 0.0000
# 6 0.0000 0.0000 0.0000 -6.7597 0.0000 19.8471
#
#
#
# Elastic Compliance Matrix: (Units=1/GPa)
#
#
# Indices 1 2 3 4 5 6 
#
# 1 0.021231 -0.012531 -0.002343 0.000000 0.007458 0.000000
# 2 -0.012531 0.032441 -0.003719 0.000000 -0.003390 0.000000
# 3 -0.002343 -0.003719 0.010306 0.000000 0.000685 0.000000
# 4 0.000000 0.000000 0.000000 0.086088 0.000000 0.029320
# 5 0.007458 -0.003390 0.000685 0.000000 0.033030 0.000000
# 6 0.000000 0.000000 0.000000 0.029320 0.000000 0.060371
#
#
# Mechanical properties :
#
#
# Convention : Reuss Voigt Hill
#
# Bulk Modulus (GPa) = 37.32365 43.57855 40.45110
# Shear Modulus (GPa) = 17.26619 23.30762 20.28691
#
# Velocity S-wave (km/s) = 3.35154 3.89399 3.63291
# Velocity P-wave (km/s) = 6.26568 6.96910 6.62673
#
# Compressibility (1/GPa) = 0.02679266
#
# Stress axis : x y z
#
# Youngs Moduli (GPa) = 47.10073 30.82525 97.02953
#
# Poissons Ratio (x) = 0.38626 0.22734
# Poissons Ratio (y) = 0.59020 0.36086
# Poissons Ratio (z) = 0.11036 0.11464
#
# Static dielectric constant tensor:
#      x y z
#    x 3.084250 0.000000 -0.356900 
#    y 0.000000 2.818040 0.000000 
#    z -0.356900 0.000000 3.382120 
# 
# 
# High freq. dielectric constant tensor:
#      x y z
#    x 1.569150 0.000000 -0.012360 
#    y 0.000000 1.538590 0.000000 
#    z -0.012360 0.000000 1.621680 
# 
# From -- ./inp_files/14293.got.cif
#   From: 2010.06.25/outbox.cif.g09.slc.cpg/sg15_8_cif.got.tgz:14293.got - 2010.06.28 07:06:18.
