data_PCOD8136033
_publ_section_title
;
Structure prediction by ZEFSAII (Michael W. Deem and Ramdas Pophale) SiO2 
 PCOD8136033
Probable space group: C 2/C
;
_chemical_formula_sum "Si O2"
_cell_formula_units_Z 48
_cell_length_a 9.617889
_cell_length_b 11.300485
_cell_length_c 22.818775
_cell_angle_alpha 90.000000
_cell_angle_beta 69.016473
_cell_angle_gamma 90.000000
_cell_volume 2315.628134
_symmetry_space_group_name_H-M "C 2/C"
_symmetry_group_IT_number 15
_symmetry_cell_setting 'monoclinic'
loop_
_space_group_symop_operation_xyz
x,y,z
-x,y,1/2-z
-x,-y,-z
x,-y,1/2+z
1/2+x,1/2+y,z
1/2-x,1/2+y,1/2-z
1/2-x,1/2-y,-z
1/2+x,1/2-y,1/2+z
loop_
_atom_site_type_symbol
_atom_site_label
_atom_site_fract_x
_atom_site_fract_y
_atom_site_fract_z
Si Si1 0.000000 0.953709 0.250000
Si Si2 0.806547 0.870000 0.177896
Si Si3 0.739189 0.764969 0.570625
Si Si4 0.528524 0.551731 0.432338
Si Si5 0.297581 0.502221 0.881356
Si Si6 0.000000 0.519007 0.750000
Si Si7 0.561766 0.877731 0.854714
O O1 0.885446 0.875450 0.229438
O O2 0.899425 0.031206 0.309367
O O3 0.832712 0.736290 0.153931
O O4 0.878756 0.960025 0.120844
O O5 0.631035 0.896296 0.207010
O O6 0.750000 0.750000 0.500000
O O7 0.889137 0.821901 0.574840
O O8 0.699576 0.642967 0.608257
O O9 0.608242 0.856785 0.603297
O O10 0.500000 0.500000 0.500000
O O11 0.366872 0.568387 0.426201
O O12 0.128141 0.466008 0.894034
O O13 0.069644 0.435432 0.789412
#
# Coordination Sequence:
#
# PCOD8136033 Si02
#       7
#     4   8   8   8   8   4   8
#     4  10  19  43  62  94 134 167 215 262 332 388
#     4  11  23  42  66  97 136 172 218 274 329 399
#     4  12  24  45  70  91 132 179 224 275 331 395
#     4  11  22  45  68  93 133 174 219 276 331 383
#     4  11  25  42  68  99 131 173 220 274 331 397
#     4  12  25  41  66 100 138 175 217 270 336 406
#     4  12  25  42  68  99 134 173 220 272 332 400
#
# _framework density 20.728717
#
# number of rings (size 3 to 8) (size 9 to 14) (size 15 to 20)
#    0.000    0.667    8.333    0.500    0.000    2.667 
#    0.000    1.667    0.000    0.000    0.000    0.000 
#    0.000    0.000    0.000    0.000    0.000    0.000 
#
# Total GULP energy -297595.902459 kJ/mol
# GULP energy per Si atom -12399.829269 kJ/mol
# Density = 2.068154 g / cm^3
# Si number density = 20.728717 Si / 1000 Ang^3
#
#
#
# Elastic Constant Matrix: (Units=GPa)
#
#
# Indices 1 2 3 4 5 6 
#
# 1 137.0182 45.4383 31.6771 0.0000 21.6228 0.0000
# 2 45.4383 63.0243 18.9484 0.0000 8.3481 0.0000
# 3 31.6771 18.9484 96.1364 0.0000 19.3356 0.0000
# 4 0.0000 0.0000 0.0000 10.9151 0.0000 -1.3279
# 5 21.6228 8.3481 19.3356 0.0000 34.6813 0.0000
# 6 0.0000 0.0000 0.0000 -1.3279 0.0000 47.9196
#
#
#
# Elastic Compliance Matrix: (Units=1/GPa)
#
#
# Indices 1 2 3 4 5 6 
#
# 1 0.010445 -0.006583 -0.001299 0.000000 -0.004203 0.000000
# 2 -0.006583 0.021208 -0.002038 0.000000 0.000136 0.000000
# 3 -0.001299 -0.002038 0.012355 0.000000 -0.005588 0.000000
# 4 0.000000 0.000000 0.000000 0.091926 0.000000 0.002547
# 5 -0.004203 0.000136 -0.005588 0.000000 0.034538 0.000000
# 6 0.000000 0.000000 0.000000 0.002547 0.000000 0.020939
#
#
# Mechanical properties :
#
#
# Convention : Reuss Voigt Hill
#
# Bulk Modulus (GPa) = 41.37667 54.25625 47.81646
# Shear Modulus (GPa) = 22.79909 32.04421 27.42165
#
# Velocity S-wave (km/s) = 3.32004 3.93604 3.64109
# Velocity P-wave (km/s) = 5.89078 6.84747 6.38706
#
# Compressibility (1/GPa) = 0.02416821
#
# Stress axis : x y z
#
# Youngs Moduli (GPa) = 95.73912 47.15204 80.93594
#
# Poissons Ratio (x) = 0.31041 0.10511
# Poissons Ratio (y) = 0.63028 0.16496
# Poissons Ratio (z) = 0.12433 0.09611
#
# Static dielectric constant tensor:
#      x y z
#    x 3.952520 0.000000 -0.165140 
#    y 0.000000 3.705710 0.000000 
#    z -0.165140 0.000000 3.327340 
# 
# 
# High freq. dielectric constant tensor:
#      x y z
#    x 1.826920 0.000000 0.006060 
#    y 0.000000 1.794690 0.000000 
#    z 0.006060 0.000000 1.815700 
# 
# From -- ./inp_files/263124.got.cif
#   From: 2010.06.25/outbox.cif.g09.slc.cpg/sg15_132_cif.got.tgz:263124.got - 2010.06.28 07:06:18.
