data_PCOD8136969
_publ_section_title
;
Structure prediction by ZEFSAII (Michael W. Deem and Ramdas Pophale) SiO2 
 PCOD8136969
Probable space group: C 2/C
;
_chemical_formula_sum "Si O2"
_cell_formula_units_Z 56
_cell_length_a 14.903575
_cell_length_b 14.468745
_cell_length_c 16.339719
_cell_angle_alpha 90.000000
_cell_angle_beta 50.395466
_cell_angle_gamma 90.000000
_cell_volume 2714.673339
_symmetry_space_group_name_H-M "C 2/C"
_symmetry_group_IT_number 15
_symmetry_cell_setting 'monoclinic'
loop_
_space_group_symop_operation_xyz
x,y,z
-x,y,1/2-z
-x,-y,-z
x,-y,1/2+z
1/2+x,1/2+y,z
1/2-x,1/2+y,1/2-z
1/2-x,1/2-y,-z
1/2+x,1/2-y,1/2+z
loop_
_atom_site_type_symbol
_atom_site_label
_atom_site_fract_x
_atom_site_fract_y
_atom_site_fract_z
Si Si1 0.000000 0.868559 0.750000
Si Si2 0.986462 0.390183 0.999823
Si Si3 0.801480 0.648024 0.476519
Si Si4 0.421054 0.393576 0.068522
Si Si5 0.897805 0.005055 0.935461
Si Si6 0.155189 0.727293 0.300598
Si Si7 0.500000 0.812798 0.750000
Si Si8 0.917357 0.226048 0.138839
O O1 0.065844 0.801949 0.776008
O O2 0.088280 0.933500 0.647683
O O3 0.967806 0.330855 0.094864
O O4 0.867529 0.364727 0.023079
O O5 0.000000 0.500000 0.000000
O O6 0.102675 0.356452 0.885071
O O7 0.750000 0.750000 0.500000
O O8 0.694446 0.579401 0.538635
O O9 0.896437 0.625717 0.349959
O O10 0.477547 0.451164 0.110711
O O11 0.330158 0.320294 0.155704
O O12 0.349301 0.455955 0.046104
O O13 0.522588 0.342806 0.959327
O O14 0.282989 0.707124 0.193350
O O15 0.062569 0.750056 0.282097
#
# Coordination Sequence:
#
# PCOD8136969 Si02
#       8
#     4   8   8   8   8   8   4   8
#     4  10  24  39  63  94 114 164 218 260 291 383
#     4  10  23  41  60  94 126 162 210 265 313 389
#     4  11  22  38  64  88 127 166 201 261 322 369
#     4   9  20  38  58  90 124 157 196 262 298 366
#     4  10  20  38  60  90 122 154 209 252 305 365
#     4  10  20  38  64  85 123 165 199 248 323 365
#     4  10  20  35  57  92 118 154 206 242 307 375
#     4  10  21  43  61  86 129 164 204 255 321 365
#
# _framework density 20.628632
#
# number of rings (size 3 to 8) (size 9 to 14) (size 15 to 20)
#    0.000    2.000    0.000    4.286    2.000    3.429 
#   12.857    2.857    0.000    0.000    0.000    0.000 
#    0.000    0.000    0.000    0.000    0.000    0.000 
#
# Total GULP energy -346980.468667 kJ/mol
# GULP energy per Si atom -12392.159595 kJ/mol
# Density = 2.058168 g / cm^3
# Si number density = 20.628632 Si / 1000 Ang^3
#
#
#
# Elastic Constant Matrix: (Units=GPa)
#
#
# Indices 1 2 3 4 5 6 
#
# 1 83.3648 41.4880 36.1376 0.0000 2.5259 0.0000
# 2 41.4880 135.1997 31.1533 0.0000 6.9873 0.0000
# 3 36.1376 31.1533 80.6901 0.0000 3.8313 0.0000
# 4 0.0000 0.0000 0.0000 26.3210 0.0000 3.1208
# 5 2.5259 6.9873 3.8313 0.0000 28.9869 0.0000
# 6 0.0000 0.0000 0.0000 3.1208 0.0000 29.7134
#
#
#
# Elastic Compliance Matrix: (Units=1/GPa)
#
#
# Indices 1 2 3 4 5 6 
#
# 1 0.016389 -0.003675 -0.005932 0.000000 0.000242 0.000000
# 2 -0.003675 0.009013 -0.001757 0.000000 -0.001620 0.000000
# 3 -0.005932 -0.001757 0.015783 0.000000 -0.001146 0.000000
# 4 0.000000 0.000000 0.000000 0.038472 0.000000 -0.004041
# 5 0.000242 -0.001620 -0.001146 0.000000 0.035019 0.000000
# 6 0.000000 0.000000 0.000000 -0.004041 0.000000 0.034079
#
#
# Mechanical properties :
#
#
# Convention : Reuss Voigt Hill
#
# Bulk Modulus (GPa) = 54.18372 57.42358 55.80365
# Shear Modulus (GPa) = 28.14776 29.70266 28.92521
#
# Velocity S-wave (km/s) = 3.69792 3.79869 3.74864
# Velocity P-wave (km/s) = 6.67504 6.86566 6.77102
#
# Compressibility (1/GPa) = 0.01845573
#
# Stress axis : x y z
#
# Youngs Moduli (GPa) = 61.01836 110.95517 63.36026
#
# Poissons Ratio (x) = 0.40771 0.37588
# Poissons Ratio (y) = 0.22422 0.11133
# Poissons Ratio (z) = 0.36199 0.19495
#
# Static dielectric constant tensor:
#      x y z
#    x 3.740940 0.000000 0.223140 
#    y 0.000000 3.640220 0.000000 
#    z 0.223140 0.000000 3.855640 
# 
# 
# High freq. dielectric constant tensor:
#      x y z
#    x 1.800800 0.000000 0.009720 
#    y 0.000000 1.800870 0.000000 
#    z 0.009720 0.000000 1.808280 
# 
# From -- ./inp_files/205378.got.cif
#   From: 2010.06.25/outbox.cif.g09.slc.cpg/sg15_103_cif.got.tgz:205378.got - 2010.06.28 07:06:18.
