data_PCOD8136682
_publ_section_title
;
Structure prediction by ZEFSAII (Michael W. Deem and Ramdas Pophale) SiO2 
 PCOD8136682
Probable space group: C 2/C
;
_chemical_formula_sum "Si O2"
_cell_formula_units_Z 52
_cell_length_a 10.806703
_cell_length_b 14.830862
_cell_length_c 17.917497
_cell_angle_alpha 90.000000
_cell_angle_beta 114.340010
_cell_angle_gamma 90.000000
_cell_volume 2616.438171
_symmetry_space_group_name_H-M "C 2/C"
_symmetry_group_IT_number 15
_symmetry_cell_setting 'monoclinic'
loop_
_space_group_symop_operation_xyz
x,y,z
-x,y,1/2-z
-x,-y,-z
x,-y,1/2+z
1/2+x,1/2+y,z
1/2-x,1/2+y,1/2-z
1/2-x,1/2-y,-z
1/2+x,1/2-y,1/2+z
loop_
_atom_site_type_symbol
_atom_site_label
_atom_site_fract_x
_atom_site_fract_y
_atom_site_fract_z
Si Si1 0.744346 0.881242 0.435664
Si Si2 0.513779 0.191090 0.339319
Si Si3 0.231223 0.310769 0.113361
Si Si4 0.000000 0.212210 0.250000
Si Si5 0.607971 0.048017 0.474948
Si Si6 0.543924 0.283398 0.917345
Si Si7 0.265986 0.318096 0.286035
O O1 0.627602 0.808588 0.424232
O O2 0.885665 0.849042 0.506605
O O3 0.770391 0.892693 0.352886
O O4 0.704494 0.977504 0.457594
O O5 0.500000 0.161032 0.250000
O O6 0.645357 0.251898 0.387091
O O7 0.523655 0.102537 0.392194
O O8 0.380793 0.244410 0.332346
O O9 0.278177 0.355966 0.204466
O O10 0.102770 0.243821 0.087666
O O11 0.204665 0.389883 0.048780
O O12 0.039299 0.160233 0.336579
O O13 0.120158 0.273847 0.250894
O O14 0.500000 0.000000 0.500000
#
# Coordination Sequence:
#
# PCOD8136682 Si02
#       7
#     8   8   8   4   8   8   8
#     4  10  20  34  59  88 120 149 197 247 294 342
#     4  10  23  42  63  84 120 161 199 237 299 364
#     4  10  20  40  61  85 116 161 201 239 294 364
#     4   8  16  28  58  84 108 140 204 238 272 338
#     4  12  24  36  58  94 123 152 195 253 302 345
#     4   9  17  34  57  85 114 155 198 233 290 348
#     4   9  19  37  63  85 112 160 201 240 291 359
#
# _framework density 19.874347
#
# number of rings (size 3 to 8) (size 9 to 14) (size 15 to 20)
#    0.000    2.154    1.538    1.385    4.308    1.231 
#    1.385    3.077    5.077    0.000    0.000    0.000 
#    0.000    0.000    0.000    0.000    0.000    0.000 
#
# Total GULP energy -322236.586799 kJ/mol
# GULP energy per Si atom -12393.714877 kJ/mol
# Density = 1.982911 g / cm^3
# Si number density = 19.874347 Si / 1000 Ang^3
#
#
#
# Elastic Constant Matrix: (Units=GPa)
#
#
# Indices 1 2 3 4 5 6 
#
# 1 94.2958 44.8893 39.7791 0.0000 5.6136 0.0000
# 2 44.8893 87.6668 60.8059 0.0000 -4.1512 0.0000
# 3 39.7791 60.8059 135.5072 0.0000 -2.8525 0.0000
# 4 0.0000 0.0000 0.0000 23.1894 0.0000 -11.9332
# 5 5.6136 -4.1512 -2.8525 0.0000 33.9445 0.0000
# 6 0.0000 0.0000 0.0000 -11.9332 0.0000 19.8557
#
#
#
# Elastic Compliance Matrix: (Units=1/GPa)
#
#
# Indices 1 2 3 4 5 6 
#
# 1 0.014548 -0.006673 -0.001346 0.000000 -0.003335 0.000000
# 2 -0.006673 0.019690 -0.006814 0.000000 0.002939 0.000000
# 3 -0.001346 -0.006814 0.010839 0.000000 0.000300 0.000000
# 4 0.000000 0.000000 0.000000 0.062431 0.000000 0.037521
# 5 -0.003335 0.002939 0.000300 0.000000 0.030396 0.000000
# 6 0.000000 0.000000 0.000000 0.037521 0.000000 0.072913
#
#
# Mechanical properties :
#
#
# Convention : Reuss Voigt Hill
#
# Bulk Modulus (GPa) = 64.89922 67.60203 66.25063
# Shear Modulus (GPa) = 20.35651 26.86429 23.61040
#
# Velocity S-wave (km/s) = 3.20388 3.68055 3.45045
# Velocity P-wave (km/s) = 6.81264 7.22153 7.02006
#
# Compressibility (1/GPa) = 0.01540850
#
# Stress axis : x y z
#
# Youngs Moduli (GPa) = 68.73631 50.78836 92.25908
#
# Poissons Ratio (x) = 0.33893 0.12422
# Poissons Ratio (y) = 0.45871 0.62869
# Poissons Ratio (z) = 0.09255 0.34609
#
# Static dielectric constant tensor:
#      x y z
#    x 3.700460 0.000000 -0.089050 
#    y 0.000000 3.705170 0.000000 
#    z -0.089050 0.000000 4.381480 
# 
# 
# High freq. dielectric constant tensor:
#      x y z
#    x 1.786700 0.000000 -0.002740 
#    y 0.000000 1.718060 0.000000 
#    z -0.002740 0.000000 1.810970 
# 
# From -- ./inp_files/198042.got.cif
#   From: 2010.06.25/outbox.cif.g09.slc.cpg/sg15_100_cif.got.tgz:198042.got - 2010.06.28 07:06:18.
