data_PCOD8136068
_publ_section_title
;
Structure prediction by ZEFSAII (Michael W. Deem and Ramdas Pophale) SiO2 
 PCOD8136068
Probable space group: C 2/C
;
_chemical_formula_sum "Si O2"
_cell_formula_units_Z 40
_cell_length_a 20.051344
_cell_length_b 22.877303
_cell_length_c 5.287480
_cell_angle_alpha 90.000000
_cell_angle_beta 65.419517
_cell_angle_gamma 90.000000
_cell_volume 2205.674511
_symmetry_space_group_name_H-M "C 2/C"
_symmetry_group_IT_number 15
_symmetry_cell_setting 'monoclinic'
loop_
_space_group_symop_operation_xyz
x,y,z
-x,y,1/2-z
-x,-y,-z
x,-y,1/2+z
1/2+x,1/2+y,z
1/2-x,1/2+y,1/2-z
1/2-x,1/2-y,-z
1/2+x,1/2-y,1/2+z
loop_
_atom_site_type_symbol
_atom_site_label
_atom_site_fract_x
_atom_site_fract_y
_atom_site_fract_z
Si Si1 0.227433 0.178663 0.827287
Si Si2 0.570697 0.349366 0.468075
Si Si3 0.796937 0.687025 0.217333
Si Si4 0.044252 0.277414 0.919874
Si Si5 0.918700 0.024253 0.673976
O O1 0.144457 0.158339 0.018891
O O2 0.233923 0.248100 0.778101
O O3 0.255825 0.153380 0.512411
O O4 0.278593 0.155660 0.977912
O O5 0.562705 0.290060 0.316899
O O6 0.579919 0.406091 0.275576
O O7 0.500000 0.360395 0.750000
O O8 0.882897 0.685220 0.148805
O O9 0.000000 0.303971 0.750000
O O10 0.000000 0.278992 0.250000
O O11 0.878020 0.007610 0.473745
O O12 0.000000 0.000000 0.500000
#
# Coordination Sequence:
#
# PCOD8136068 Si02
#       5
#     8   8   8   8   8
#     4   9  18  29  45  59  82 117 140 190 222 262
#     4  10  20  31  46  65  86 113 167 196 220 252
#     4   9  17  32  42  61  87 108 144 175 236 269
#     4  10  20  29  47  68  87 114 146 194 221 266
#     4  10  20  32  44  58  83 119 142 199 231 255
#
# _framework density 18.135043
#
# number of rings (size 3 to 8) (size 9 to 14) (size 15 to 20)
#    0.000    2.400    2.000    1.200    2.800   11.200 
#    0.000    0.000    0.000    0.000    0.000    0.000 
#    0.000    0.000    0.000    0.000    0.000   70.000 
#
# Total GULP energy -247766.825784 kJ/mol
# GULP energy per Si atom -12388.341289 kJ/mol
# Density = 1.809377 g / cm^3
# Si number density = 18.135043 Si / 1000 Ang^3
#
#
#
# Elastic Constant Matrix: (Units=GPa)
#
#
# Indices 1 2 3 4 5 6 
#
# 1 146.4095 12.7229 64.4611 0.0000 15.6140 0.0000
# 2 12.7229 23.7793 15.0058 0.0000 -4.2315 0.0000
# 3 64.4611 15.0058 118.5817 0.0000 21.7682 0.0000
# 4 0.0000 0.0000 0.0000 4.3003 0.0000 2.9862
# 5 15.6140 -4.2315 21.7682 0.0000 35.7955 0.0000
# 6 0.0000 0.0000 0.0000 2.9862 0.0000 6.6287
#
#
#
# Elastic Compliance Matrix: (Units=1/GPa)
#
#
# Indices 1 2 3 4 5 6 
#
# 1 0.009133 -0.002423 -0.004361 0.000000 -0.001618 0.000000
# 2 -0.002423 0.049793 -0.007045 0.000000 0.011227 0.000000
# 3 -0.004361 -0.007045 0.012944 0.000000 -0.006802 0.000000
# 4 0.000000 0.000000 0.000000 0.338407 0.000000 -0.152448
# 5 -0.001618 0.011227 -0.006802 0.000000 0.034106 0.000000
# 6 0.000000 0.000000 0.000000 -0.152448 0.000000 0.219534
#
#
# Mechanical properties :
#
#
# Convention : Reuss Voigt Hill
#
# Bulk Modulus (GPa) = 22.61795 52.57223 37.59509
# Shear Modulus (GPa) = 7.07901 22.45027 14.76464
#
# Velocity S-wave (km/s) = 1.97787 3.52227 2.85643
# Velocity P-wave (km/s) = 4.20892 6.75234 5.62624
#
# Compressibility (1/GPa) = 0.04421267
#
# Stress axis : x y z
#
# Youngs Moduli (GPa) = 109.48756 20.08303 77.25573
#
# Poissons Ratio (x) = 0.04865 0.33694
# Poissons Ratio (y) = 0.26524 0.54428
# Poissons Ratio (z) = 0.47751 0.14149
#
# Static dielectric constant tensor:
#      x y z
#    x 3.360570 0.000000 0.076510 
#    y 0.000000 2.875910 0.000000 
#    z 0.076510 0.000000 3.095310 
# 
# 
# High freq. dielectric constant tensor:
#      x y z
#    x 1.700110 0.000000 0.020930 
#    y 0.000000 1.625880 0.000000 
#    z 0.020930 0.000000 1.703410 
# 
# From -- ./inp_files/7268.got.cif
#   From: 2010.06.25/outbox.cif.g09.slc.cpg/sg15_4_cif.got.tgz:7268.got - 2010.06.28 07:06:18.
