data_PCOD8136049
_publ_section_title
;
Structure prediction by ZEFSAII (Michael W. Deem and Ramdas Pophale) SiO2 
 PCOD8136049
Probable space group: C 2/C
;
_chemical_formula_sum "Si O2"
_cell_formula_units_Z 52
_cell_length_a 24.970471
_cell_length_b 9.113243
_cell_length_c 16.983676
_cell_angle_alpha 90.000000
_cell_angle_beta 36.553263
_cell_angle_gamma 90.000000
_cell_volume 2301.781279
_symmetry_space_group_name_H-M "C 2/C"
_symmetry_group_IT_number 15
_symmetry_cell_setting 'monoclinic'
loop_
_space_group_symop_operation_xyz
x,y,z
-x,y,1/2-z
-x,-y,-z
x,-y,1/2+z
1/2+x,1/2+y,z
1/2-x,1/2+y,1/2-z
1/2-x,1/2-y,-z
1/2+x,1/2-y,1/2+z
loop_
_atom_site_type_symbol
_atom_site_label
_atom_site_fract_x
_atom_site_fract_y
_atom_site_fract_z
Si Si1 0.141577 0.998992 0.631492
Si Si2 0.000000 0.222919 0.250000
Si Si3 0.377884 0.204536 0.422466
Si Si4 0.023383 0.459148 0.110773
Si Si5 0.714542 0.588343 0.707206
Si Si6 0.323807 0.124866 0.175503
Si Si7 0.675311 0.986729 0.655183
O O1 0.104991 0.123209 0.613089
O O2 0.147360 0.054421 0.714843
O O3 0.238150 0.934097 0.486806
O O4 0.069063 0.871454 0.719065
O O5 0.060690 0.328926 0.122662
O O6 0.299856 0.180736 0.577535
O O7 0.345155 0.151169 0.375980
O O8 0.463160 0.117174 0.360403
O O9 0.917355 0.421946 0.226673
O O10 0.078814 0.442455 0.964324
O O11 0.670340 0.696687 0.825571
O O12 0.746960 0.433540 0.706469
O O13 0.296896 0.065959 0.292213
#
# Coordination Sequence:
#
# PCOD8136049 Si02
#       7
#     8   4   8   8   8   8   8
#     4  11  24  43  71  94 125 169 226 265 315 384
#     4  12  28  42  62 102 130 168 212 278 330 370
#     4  10  19  43  70  90 124 172 219 260 304 392
#     4  11  25  42  64  98 137 168 212 266 329 383
#     4  10  22  41  64  99 128 170 212 264 322 384
#     4  11  23  39  67  98 135 166 216 265 327 379
#     4  11  20  42  71  93 123 171 222 258 314 388
#
# _framework density 22.591199
#
# number of rings (size 3 to 8) (size 9 to 14) (size 15 to 20)
#    0.000    1.231    4.615    1.385    4.308    1.846 
#    0.000    0.769    0.000    0.000    0.000    0.000 
#    0.000    0.000    0.000    0.000    0.000    0.000 
#
# Total GULP energy -322145.565037 kJ/mol
# GULP energy per Si atom -12390.214040 kJ/mol
# Density = 2.253978 g / cm^3
# Si number density = 22.591199 Si / 1000 Ang^3
#
#
#
# Elastic Constant Matrix: (Units=GPa)
#
#
# Indices 1 2 3 4 5 6 
#
# 1 87.2507 41.1078 35.9668 -0.0004 -10.8355 0.0004
# 2 41.1078 96.5893 25.1333 -0.0009 -7.8506 0.0014
# 3 35.9668 25.1333 82.3291 -0.0005 4.7829 0.0009
# 4 -0.0004 -0.0009 -0.0005 27.8746 0.0002 1.5832
# 5 -10.8355 -7.8506 4.7829 0.0002 33.0459 -0.0004
# 6 0.0004 0.0014 0.0009 1.5832 -0.0004 25.6985
#
#
#
# Elastic Compliance Matrix: (Units=1/GPa)
#
#
# Indices 1 2 3 4 5 6 
#
# 1 0.017145 -0.005257 -0.006191 0.000000 0.005269 0.000000
# 2 -0.005257 0.013204 -0.001831 0.000000 0.001678 -0.000001
# 3 -0.006191 -0.001831 0.015685 0.000000 -0.004735 0.000000
# 4 0.000000 0.000000 0.000000 0.036001 0.000000 -0.002218
# 5 0.005269 0.001678 -0.004735 0.000000 0.033072 0.000000
# 6 0.000000 -0.000001 0.000000 -0.002218 0.000000 0.039049
#
#
# Mechanical properties :
#
#
# Convention : Reuss Voigt Hill
#
# Bulk Modulus (GPa) = 51.35157 52.28724 51.81940
# Shear Modulus (GPa) = 26.70837 28.25456 27.48146
#
# Velocity S-wave (km/s) = 3.44211 3.54034 3.49157
# Velocity P-wave (km/s) = 6.21109 6.31722 6.26438
#
# Compressibility (1/GPa) = 0.01947360
#
# Stress axis : x y z
#
# Youngs Moduli (GPa) = 58.32720 75.73689 63.75429
#
# Poissons Ratio (x) = 0.39819 0.39470
# Poissons Ratio (y) = 0.30665 0.11676
# Poissons Ratio (z) = 0.36110 0.13871
#
# Static dielectric constant tensor:
#      x y z
#    x 3.995070 0.000000 -0.043090 
#    y 0.000000 4.006630 0.000000 
#    z -0.043090 0.000000 4.235650 
# 
# 
# High freq. dielectric constant tensor:
#      x y z
#    x 1.882320 0.000000 0.005260 
#    y 0.000000 1.870970 0.000000 
#    z 0.005260 0.000000 1.892070 
# 
# From -- ./inp_files/221846.got.cif
#   From: 2010.06.25/outbox.cif.g09.slc.cpg/sg15_111_cif.got.tgz:221846.got - 2010.06.28 07:06:18.
