data_PCOD8136074
_publ_section_title
;
Structure prediction by ZEFSAII (Michael W. Deem and Ramdas Pophale) SiO2 
 PCOD8136074
Probable space group: C 2/C
;
_chemical_formula_sum "Si O2"
_cell_formula_units_Z 60
_cell_length_a 25.163238
_cell_length_b 22.771130
_cell_length_c 9.633860
_cell_angle_alpha 90.000000
_cell_angle_beta 142.948243
_cell_angle_gamma 90.000000
_cell_volume 3326.094541
_symmetry_space_group_name_H-M "C 2/C"
_symmetry_group_IT_number 15
_symmetry_cell_setting 'monoclinic'
loop_
_space_group_symop_operation_xyz
x,y,z
-x,y,1/2-z
-x,-y,-z
x,-y,1/2+z
1/2+x,1/2+y,z
1/2-x,1/2+y,1/2-z
1/2-x,1/2-y,-z
1/2+x,1/2-y,1/2+z
loop_
_atom_site_type_symbol
_atom_site_label
_atom_site_fract_x
_atom_site_fract_y
_atom_site_fract_z
Si Si1 0.064800 0.705521 0.260450
Si Si2 0.333645 0.317383 0.127884
Si Si3 0.243636 0.684588 0.718813
Si Si4 0.871641 0.154317 0.200359
Si Si5 0.000000 0.005155 0.750000
Si Si6 0.554290 0.219690 0.724206
Si Si7 0.958756 0.923328 0.422807
Si Si8 0.255295 0.811152 0.828238
O O1 0.102787 0.769480 0.305499
O O2 0.145063 0.661382 0.473292
O O3 0.000000 0.714909 0.250000
O O4 0.009094 0.683318 0.012442
O O5 0.287523 0.291741 0.168784
O O6 0.386805 0.373662 0.287949
O O7 0.261619 0.335323 0.862343
O O8 0.233384 0.741575 0.796753
O O9 0.306941 0.639761 0.933419
O O10 0.921998 0.216036 0.286074
O O11 0.808781 0.153710 0.203187
O O12 0.941631 0.102110 0.361485
O O13 0.942379 0.965470 0.522456
O O14 0.056126 0.045254 0.758470
O O15 0.500000 0.230302 0.750000
O O16 0.641106 0.179650 0.923916
#
# Coordination Sequence:
#
# PCOD8136074 Si02
#       8
#     8   8   8   8   4   8   8   8
#     4  11  19  29  45  68  98 135 169 201 228 266
#     4  11  20  32  49  67  91 135 173 197 235 296
#     4  10  20  30  43  68  99 125 169 214 225 260
#     4  11  20  32  49  67  91 135 173 197 235 296
#     4  10  24  38  48  78  92 118 160 234 264 278
#     4  11  19  29  45  68  98 135 169 201 228 266
#     4  11  22  36  56  68  98 128 170 204 258 303
#     4  10  20  30  43  68  99 125 169 214 225 260
#
# _framework density 18.039173000000002
#
# number of rings (size 3 to 8) (size 9 to 14) (size 15 to 20)
#    0.000    1.333    1.333    9.600    1.867    0.000 
#    0.000    0.000    0.000    0.000    0.000    0.000 
#    0.000    0.000    0.000  302.400    0.000    0.000 
#
# Total GULP energy -371757.426472 kJ/mol
# GULP energy per Si atom -12391.914216 kJ/mol
# Density = 1.799812 g / cm^3
# Si number density = 18.039173 Si / 1000 Ang^3
#
#
#
# Elastic Constant Matrix: (Units=GPa)
#
#
# Indices 1 2 3 4 5 6 
#
# 1 95.0326 15.9591 41.4829 0.0000 -6.2651 0.0000
# 2 15.9591 28.5974 17.4831 0.0000 3.7456 0.0000
# 3 41.4829 17.4831 153.7525 0.0000 4.6929 0.0000
# 4 0.0000 0.0000 0.0000 15.6306 0.0000 -9.2654
# 5 -6.2651 3.7456 4.6929 0.0000 38.4113 0.0000
# 6 0.0000 0.0000 0.0000 -9.2654 0.0000 11.8643
#
#
#
# Elastic Compliance Matrix: (Units=1/GPa)
#
#
# Indices 1 2 3 4 5 6 
#
# 1 0.012986 -0.005854 -0.002931 0.000000 0.003047 0.000000
# 2 -0.005854 0.040605 -0.002898 0.000000 -0.004560 0.000000
# 3 -0.002931 -0.002898 0.007659 0.000000 -0.001131 0.000000
# 4 0.000000 0.000000 0.000000 0.119121 0.000000 0.093027
# 5 0.003047 -0.004560 -0.001131 0.000000 0.027114 0.000000
# 6 0.000000 0.000000 0.000000 0.093027 0.000000 0.156935
#
#
# Mechanical properties :
#
#
# Convention : Reuss Voigt Hill
#
# Bulk Modulus (GPa) = 26.39770 47.47031 36.93400
# Shear Modulus (GPa) = 12.48705 26.67841 19.58273
#
# Velocity S-wave (km/s) = 2.63386 3.84984 3.29837
# Velocity P-wave (km/s) = 4.89029 6.79220 5.91814
#
# Compressibility (1/GPa) = 0.03788209
#
# Stress axis : x y z
#
# Youngs Moduli (GPa) = 77.00514 24.62776 130.56777
#
# Poissons Ratio (x) = 0.14418 0.38270
# Poissons Ratio (y) = 0.45081 0.37844
# Poissons Ratio (z) = 0.22570 0.07138
#
# Static dielectric constant tensor:
#      x y z
#    x 3.383900 0.000000 0.001570 
#    y 0.000000 2.815560 0.000000 
#    z 0.001570 0.000000 4.094310 
# 
# 
# High freq. dielectric constant tensor:
#      x y z
#    x 1.712350 0.000000 -0.013620 
#    y 0.000000 1.615830 0.000000 
#    z -0.013620 0.000000 1.727630 
# 
# From -- ./inp_files/52038.got.cif
#   From: 2010.06.25/outbox.cif.g09.slc.cpg/sg15_27_cif.got.tgz:52038.got - 2010.06.28 07:06:18.
