data_PCOD8136396
_publ_section_title
;
Structure prediction by ZEFSAII (Michael W. Deem and Ramdas Pophale) SiO2 
 PCOD8136396
Probable space group: C 2/C
;
_chemical_formula_sum "Si O2"
_cell_formula_units_Z 40
_cell_length_a 5.084128
_cell_length_b 19.996862
_cell_length_c 21.612027
_cell_angle_alpha 90.000000
_cell_angle_beta 124.096858
_cell_angle_gamma 90.000000
_cell_volume 1819.499466
_symmetry_space_group_name_H-M "C 2/C"
_symmetry_group_IT_number 15
_symmetry_cell_setting 'monoclinic'
loop_
_space_group_symop_operation_xyz
x,y,z
-x,y,1/2-z
-x,-y,-z
x,-y,1/2+z
1/2+x,1/2+y,z
1/2-x,1/2+y,1/2-z
1/2-x,1/2-y,-z
1/2+x,1/2-y,1/2+z
loop_
_atom_site_type_symbol
_atom_site_label
_atom_site_fract_x
_atom_site_fract_y
_atom_site_fract_z
Si Si1 0.131002 0.178978 0.203527
Si Si2 0.234733 0.557464 0.107198
Si Si3 0.902454 0.239701 0.431014
Si Si4 0.704124 0.360312 0.479773
Si Si5 0.185213 0.979192 0.084154
O O1 0.500000 0.157155 0.250000
O O2 0.094489 0.231164 0.142239
O O3 0.000000 0.213506 0.250000
O O4 0.893722 0.116630 0.166770
O O5 0.526300 0.514990 0.120936
O O6 0.045676 0.505641 0.126905
O O7 0.005037 0.587900 0.022065
O O8 0.711333 0.305705 0.426135
O O9 0.776266 0.173280 0.449256
O O10 0.250000 0.250000 0.500000
O O11 0.371606 0.398767 0.421004
O O12 0.000000 0.000000 0.000000
#
# Coordination Sequence:
#
# PCOD8136396 Si02
#       5
#     8   8   8   8   8
#     4  12  25  42  63  93 131 179 226 271 338 410
#     4  11  21  38  59  93 127 165 208 276 326 390
#     4  11  23  38  65  94 140 171 218 280 330 386
#     4  10  21  36  61  99 133 164 213 274 337 380
#     4  10  20  33  60  93 128 158 204 261 333 387
#
# _framework density 21.984069999999999
#
# number of rings (size 3 to 8) (size 9 to 14) (size 15 to 20)
#    0.000    1.200    2.000    7.200    5.600    0.000 
#    0.000    0.000    0.000    1.200    5.200    0.000 
#    0.000    0.000    0.000    0.000    0.000    0.200 
#
# Total GULP energy -247806.189969 kJ/mol
# GULP energy per Si atom -12390.309498 kJ/mol
# Density = 2.193403 g / cm^3
# Si number density = 21.984070 Si / 1000 Ang^3
#
#
#
# Elastic Constant Matrix: (Units=GPa)
#
#
# Indices 1 2 3 4 5 6 
#
# 1 152.7090 49.1389 47.8341 0.0000 -17.4801 0.0000
# 2 49.1389 123.5363 36.8245 0.0000 -15.5193 0.0000
# 3 47.8341 36.8245 89.6271 0.0000 -15.0928 0.0000
# 4 0.0000 0.0000 0.0000 15.4463 0.0000 5.5518
# 5 -17.4801 -15.5193 -15.0928 0.0000 46.8982 0.0000
# 6 0.0000 0.0000 0.0000 5.5518 0.0000 35.1212
#
#
#
# Elastic Compliance Matrix: (Units=1/GPa)
#
#
# Indices 1 2 3 4 5 6 
#
# 1 0.008470 -0.002188 -0.003395 0.000000 0.001340 0.000000
# 2 -0.002188 0.009960 -0.002650 0.000000 0.001627 0.000000
# 3 -0.003395 -0.002650 0.014482 0.000000 0.002518 0.000000
# 4 0.000000 0.000000 0.000000 0.068640 0.000000 -0.010850
# 5 0.001340 0.001627 0.002518 0.000000 0.023171 0.000000
# 6 0.000000 0.000000 0.000000 -0.010850 0.000000 0.030188
#
#
# Mechanical properties :
#
#
# Convention : Reuss Voigt Hill
#
# Bulk Modulus (GPa) = 60.81358 70.38527 65.59942
# Shear Modulus (GPa) = 28.27094 34.96480 31.61787
#
# Velocity S-wave (km/s) = 3.58994 3.99238 3.79650
# Velocity P-wave (km/s) = 6.70121 7.30330 7.00872
#
# Compressibility (1/GPa) = 0.01644370
#
# Stress axis : x y z
#
# Youngs Moduli (GPa) = 118.06995 100.40499 69.04961
#
# Poissons Ratio (x) = 0.21973 0.23445
# Poissons Ratio (y) = 0.25839 0.18298
# Poissons Ratio (z) = 0.40090 0.26608
#
# Static dielectric constant tensor:
#      x y z
#    x 4.811780 0.000000 0.119660 
#    y 0.000000 4.346000 0.000000 
#    z 0.119660 0.000000 3.553220 
# 
# 
# High freq. dielectric constant tensor:
#      x y z
#    x 1.889580 0.000000 -0.003280 
#    y 0.000000 1.860720 0.000000 
#    z -0.003280 0.000000 1.814830 
# 
# From -- ./inp_files/129031.got.cif
#   From: 2010.06.25/outbox.cif.g09.slc.cpg/sg15_65_cif.got.tgz:129031.got - 2010.06.28 07:06:18.
