data_PCOD8136738
_publ_section_title
;
Structure prediction by ZEFSAII (Michael W. Deem and Ramdas Pophale) SiO2 
 PCOD8136738
Probable space group: C 2/C
;
_chemical_formula_sum "Si O2"
_cell_formula_units_Z 40
_cell_length_a 24.164591
_cell_length_b 4.861181
_cell_length_c 18.038053
_cell_angle_alpha 90.000000
_cell_angle_beta 121.654065
_cell_angle_gamma 90.000000
_cell_volume 1803.677550
_symmetry_space_group_name_H-M "C 2/C"
_symmetry_group_IT_number 15
_symmetry_cell_setting 'monoclinic'
loop_
_space_group_symop_operation_xyz
x,y,z
-x,y,1/2-z
-x,-y,-z
x,-y,1/2+z
1/2+x,1/2+y,z
1/2-x,1/2+y,1/2-z
1/2-x,1/2-y,-z
1/2+x,1/2-y,1/2+z
loop_
_atom_site_type_symbol
_atom_site_label
_atom_site_fract_x
_atom_site_fract_y
_atom_site_fract_z
Si Si1 0.763400 0.431099 0.711351
Si Si2 0.485184 0.595152 0.325258
Si Si3 0.095948 0.573524 0.242466
Si Si4 0.113164 0.369618 0.419389
Si Si5 0.807008 0.860734 0.989063
O O1 0.731775 0.229414 0.748774
O O2 0.835456 0.326169 0.740781
O O3 0.718710 0.458775 0.608047
O O4 0.500000 0.645602 0.250000
O O5 0.424624 0.783754 0.308095
O O6 0.550441 0.711203 0.411344
O O7 0.462691 0.282451 0.321811
O O8 0.100474 0.533013 0.333966
O O9 0.140433 0.616605 0.489971
O O10 0.165413 0.125107 0.447368
O O11 0.750000 0.750000 0.000000
#
# Coordination Sequence:
#
# PCOD8136738 Si02
#       5
#     8   8   8   8   8
#     4  12  27  43  64  92 133 179 217 258 327 396
#     4  10  20  34  61  96 129 160 205 269 330 369
#     4  11  21  38  63  92 132 165 211 266 315 386
#     4  11  22  38  66 100 130 161 214 274 331 378
#     4  12  24  40  68  94 135 168 214 277 327 370
#
# _framework density 22.176909999999999
#
# number of rings (size 3 to 8) (size 9 to 14) (size 15 to 20)
#    0.000    0.800    2.000    8.400    2.800    0.000 
#    0.000    0.000    0.000   24.000    0.000    0.000 
#    0.000    0.000    0.000    0.000    0.000    0.000 
#
# Total GULP energy -247860.228976 kJ/mol
# GULP energy per Si atom -12393.011449 kJ/mol
# Density = 2.212643 g / cm^3
# Si number density = 22.176910 Si / 1000 Ang^3
#
#
#
# Elastic Constant Matrix: (Units=GPa)
#
#
# Indices 1 2 3 4 5 6 
#
# 1 67.7430 20.1959 28.6481 -0.0005 17.7332 -0.0006
# 2 20.1959 128.0612 27.8070 0.0000 6.5594 -0.0045
# 3 28.6481 27.8070 69.0242 -0.0013 7.9342 0.0003
# 4 -0.0005 0.0000 -0.0013 42.7409 0.0007 14.4963
# 5 17.7332 6.5594 7.9342 0.0007 26.1718 0.0004
# 6 -0.0006 -0.0045 0.0003 14.4963 0.0004 37.8141
#
#
#
# Elastic Compliance Matrix: (Units=1/GPa)
#
#
# Indices 1 2 3 4 5 6 
#
# 1 0.021183 -0.001225 -0.006925 0.000000 -0.011946 0.000000
# 2 -0.001225 0.008661 -0.002929 -0.000001 -0.000453 0.000001
# 3 -0.006925 -0.002929 0.018565 0.000001 -0.000202 -0.000001
# 4 0.000000 -0.000001 0.000001 0.026894 -0.000001 -0.010310
# 5 -0.011946 -0.000453 -0.000202 -0.000001 0.046478 0.000000
# 6 0.000000 0.000001 -0.000001 -0.010310 0.000000 0.030398
#
#
# Mechanical properties :
#
#
# Convention : Reuss Voigt Hill
#
# Bulk Modulus (GPa) = 38.09354 46.45893 42.27623
# Shear Modulus (GPa) = 27.30961 33.89053 30.60007
#
# Velocity S-wave (km/s) = 3.51300 3.91345 3.71862
# Velocity P-wave (km/s) = 5.80253 6.43543 6.12716
#
# Compressibility (1/GPa) = 0.02625117
#
# Stress axis : x y z
#
# Youngs Moduli (GPa) = 47.20846 115.45893 53.86504
#
# Poissons Ratio (x) = 0.14144 0.37302
# Poissons Ratio (y) = 0.05783 0.15775
# Poissons Ratio (z) = 0.32692 0.33815
#
# Static dielectric constant tensor:
#      x y z
#    x 3.844520 0.000000 0.570680 
#    y 0.000000 4.192590 -0.000010 
#    z 0.570680 -0.000010 4.238000 
# 
# 
# High freq. dielectric constant tensor:
#      x y z
#    x 1.844640 0.000000 0.044850 
#    y 0.000000 1.898700 0.000000 
#    z 0.044850 0.000000 1.855270 
# 
# From -- ./inp_files/253899.got.cif
#   From: 2010.06.25/outbox.cif.g09.slc.cpg/sg15_127_cif.got.tgz:253899.got - 2010.06.28 07:06:18.
