data_PCOD8136140
_publ_section_title
;
Structure prediction by ZEFSAII (Michael W. Deem and Ramdas Pophale) SiO2 
 PCOD8136140
Probable space group: C 2/C
;
_chemical_formula_sum "Si O2"
_cell_formula_units_Z 64
_cell_length_a 22.407309
_cell_length_b 17.920622
_cell_length_c 26.780615
_cell_angle_alpha 90.000000
_cell_angle_beta 20.376926
_cell_angle_gamma 90.000000
_cell_volume 3744.426495
_symmetry_space_group_name_H-M "C 2/C"
_symmetry_group_IT_number 15
_symmetry_cell_setting 'monoclinic'
loop_
_space_group_symop_operation_xyz
x,y,z
-x,y,1/2-z
-x,-y,-z
x,-y,1/2+z
1/2+x,1/2+y,z
1/2-x,1/2+y,1/2-z
1/2-x,1/2-y,-z
1/2+x,1/2-y,1/2+z
loop_
_atom_site_type_symbol
_atom_site_label
_atom_site_fract_x
_atom_site_fract_y
_atom_site_fract_z
Si Si1 0.628126 0.185653 0.973148
Si Si2 0.840571 0.758413 0.145796
Si Si3 0.581152 0.455799 0.108807
Si Si4 0.546734 0.265971 0.550085
Si Si5 0.771177 0.377014 0.560206
Si Si6 0.421240 0.621748 0.390466
Si Si7 0.728941 0.956945 0.444296
Si Si8 0.461113 0.319291 0.147237
O O1 0.605823 0.105001 0.016604
O O2 0.817171 0.196046 0.801980
O O3 0.481642 0.192838 0.045289
O O4 0.595351 0.249958 0.040755
O O5 0.654965 0.722619 0.298772
O O6 0.872314 0.824620 0.161795
O O7 0.861373 0.788436 0.073571
O O8 0.610078 0.538284 0.063596
O O9 0.409124 0.458064 0.275380
O O10 0.737800 0.436739 0.023562
O O11 0.566730 0.394679 0.076163
O O12 0.582280 0.181081 0.539253
O O13 0.625141 0.321390 0.529388
O O14 0.704177 0.360940 0.557128
O O15 0.617346 0.367580 0.720113
O O16 0.852119 0.460420 0.498347
#
# Coordination Sequence:
#
# PCOD8136140 Si02
#       8
#     8   8   8   8   8   8   8   8
#     4   9  17  32  52  73 102 129 162 205 243 283
#     4  10  20  32  48  73 101 132 168 204 230 289
#     4   8  15  30  52  76 100 128 159 204 250 292
#     4  12  19  34  52  71  98 137 166 196 250 289
#     4   9  18  32  52  78  99 122 163 211 245 289
#     4   9  18  32  52  77 100 123 163 206 249 294
#     4   8  15  30  52  77 100 123 164 208 245 286
#     4   9  17  32  52  72 103 129 164 202 241 284
#
# _framework density 17.09207
#
# number of rings (size 3 to 8) (size 9 to 14) (size 15 to 20)
#    0.750    2.000    2.500    1.875    0.000    0.500 
#    0.000    2.500    2.750    0.000    0.000    0.000 
#    0.000    0.000    0.000    0.000    0.000    0.000 
#
# Total GULP energy -396524.113006 kJ/mol
# GULP energy per Si atom -12391.378531 kJ/mol
# Density = 1.705317 g / cm^3
# Si number density = 17.092070 Si / 1000 Ang^3
#
#
#
# Elastic Constant Matrix: (Units=GPa)
#
#
# Indices 1 2 3 4 5 6 
#
# 1 82.4321 62.3459 18.7863 -0.0448 11.5782 0.1093
# 2 62.3459 121.8606 26.6252 0.0442 9.1221 -0.0829
# 3 18.7863 26.6252 47.8219 -0.0643 5.2544 0.0276
# 4 -0.0448 0.0442 -0.0643 18.3767 0.0429 -0.8071
# 5 11.5782 9.1221 5.2544 0.0429 20.1288 -0.0280
# 6 0.1093 -0.0829 0.0276 -0.8071 -0.0280 18.6084
#
#
#
# Elastic Compliance Matrix: (Units=1/GPa)
#
#
# Indices 1 2 3 4 5 6 
#
# 1 0.020969 -0.009753 -0.002025 0.000077 -0.007113 -0.000171
# 2 -0.009753 0.014054 -0.004025 -0.000067 0.000292 0.000123
# 3 -0.002025 -0.004025 0.024317 0.000096 -0.003359 -0.000043
# 4 0.000077 -0.000067 0.000096 0.054522 -0.000152 0.002364
# 5 -0.007113 0.000292 -0.003359 -0.000152 0.054516 0.000124
# 6 -0.000171 0.000123 -0.000043 0.002364 0.000124 0.053844
#
#
# Mechanical properties :
#
#
# Convention : Reuss Voigt Hill
#
# Bulk Modulus (GPa) = 36.06015 51.95884 44.00949
# Shear Modulus (GPa) = 19.00619 21.04660 20.02640
#
# Velocity S-wave (km/s) = 3.33827 3.51289 3.42669
# Velocity P-wave (km/s) = 6.00017 6.84976 6.43900
#
# Compressibility (1/GPa) = 0.02773145
#
# Stress axis : x y z
#
# Youngs Moduli (GPa) = 47.69022 71.15589 41.12363
#
# Poissons Ratio (x) = 0.69399 0.08330
# Poissons Ratio (y) = 0.46513 0.16554
# Poissons Ratio (z) = 0.09660 0.28643
#
# Static dielectric constant tensor:
#      x y z
#    x 3.210210 -0.000180 0.032150 
#    y -0.000180 3.276430 0.000190 
#    z 0.032150 0.000190 2.865820 
# 
# 
# High freq. dielectric constant tensor:
#      x y z
#    x 1.657910 0.000000 0.001950 
#    y 0.000000 1.651150 0.000020 
#    z 0.001950 0.000020 1.629130 
# 
# From -- ./inp_files/302417.got.cif
#   From: 2010.06.25/outbox.cif.g09.slc.cpg/sg15_152_cif.got.tgz:302417.got - 2010.06.28 07:06:18.
