data_PCOD8136464
_publ_section_title
;
Structure prediction by ZEFSAII (Michael W. Deem and Ramdas Pophale) SiO2 
 PCOD8136464
Probable space group: C 2/C
;
_chemical_formula_sum "Si O2"
_cell_formula_units_Z 64
_cell_length_a 21.898922
_cell_length_b 17.834768
_cell_length_c 20.764147
_cell_angle_alpha 90.000000
_cell_angle_beta 153.729289
_cell_angle_gamma 90.000000
_cell_volume 3589.453424
_symmetry_space_group_name_H-M "C 2/C"
_symmetry_group_IT_number 15
_symmetry_cell_setting 'monoclinic'
loop_
_space_group_symop_operation_xyz
x,y,z
-x,y,1/2-z
-x,-y,-z
x,-y,1/2+z
1/2+x,1/2+y,z
1/2-x,1/2+y,1/2-z
1/2-x,1/2-y,-z
1/2+x,1/2-y,1/2+z
loop_
_atom_site_type_symbol
_atom_site_label
_atom_site_fract_x
_atom_site_fract_y
_atom_site_fract_z
Si Si1 0.432855 0.820424 0.958674
Si Si2 0.492743 0.884031 0.876858
Si Si3 0.302732 0.658112 0.418988
Si Si4 0.084822 0.023798 0.143374
Si Si5 0.730813 0.199860 0.545445
Si Si6 0.398442 0.979353 0.959645
Si Si7 0.879271 0.815939 0.852795
Si Si8 0.528493 0.417782 0.207733
O O1 0.497849 0.844429 0.951713
O O2 0.425073 0.891326 0.000664
O O3 0.277836 0.789564 0.805288
O O4 0.524453 0.753892 0.074213
O O5 0.332553 0.895006 0.706675
O O6 0.575603 0.834415 0.902736
O O7 0.566377 0.966134 0.947323
O O8 0.249725 0.743358 0.376521
O O9 0.391255 0.652656 0.437306
O O10 0.400220 0.636417 0.570619
O O11 0.246212 0.005631 0.287290
O O12 0.071494 0.113313 0.143630
O O13 0.033186 0.981809 0.158315
O O14 0.000000 0.000000 0.000000
O O15 0.750000 0.250000 0.500000
O O16 0.835915 0.132610 0.657139
O O17 0.500000 0.000000 0.000000
O O18 0.500000 0.456233 0.250000
#
# Coordination Sequence:
#
# PCOD8136464 Si02
#       8
#     8   8   8   8   8   8   8   8
#     4   9  19  32  51  78 114 142 182 234 301 347
#     4  10  20  35  53  76 118 158 193 242 284 346
#     4  11  22  34  52  81 115 152 203 238 283 348
#     4  11  22  37  60  83 114 154 201 248 300 351
#     4  12  23  37  55  77 115 169 202 228 284 345
#     4   9  19  35  52  82 116 153 187 241 305 347
#     4  10  20  34  53  83 109 145 184 245 292 349
#     4  12  25  41  55  81 121 162 201 247 285 353
#
# _framework density 17.830013000000001
#
# number of rings (size 3 to 8) (size 9 to 14) (size 15 to 20)
#    0.000    1.500    5.000    1.500    1.750    2.000 
#    0.000    0.000    0.000    0.000    0.000    3.500 
#    3.750    0.000    0.000    0.000    0.000    0.000 
#
# Total GULP energy -396567.902394 kJ/mol
# GULP energy per Si atom -12392.746950 kJ/mol
# Density = 1.778943 g / cm^3
# Si number density = 17.830013 Si / 1000 Ang^3
#
#
#
# Elastic Constant Matrix: (Units=GPa)
#
#
# Indices 1 2 3 4 5 6 
#
# 1 78.2043 48.6153 27.8344 -0.0043 0.9599 -0.0009
# 2 48.6153 106.6920 46.8365 -0.0083 6.6977 -0.0016
# 3 27.8344 46.8365 80.5949 -0.0183 14.2011 -0.0053
# 4 -0.0043 -0.0083 -0.0183 32.3102 -0.0059 0.8248
# 5 0.9599 6.6977 14.2011 -0.0059 18.6144 -0.0012
# 6 -0.0009 -0.0016 -0.0053 0.8248 -0.0012 32.8477
#
#
#
# Elastic Compliance Matrix: (Units=1/GPa)
#
#
# Indices 1 2 3 4 5 6 
#
# 1 0.018292 -0.007393 -0.002685 0.000000 0.003765 0.000000
# 2 -0.007393 0.015594 -0.006456 -0.000001 -0.000305 0.000000
# 3 -0.002685 -0.006456 0.019239 0.000007 -0.012216 0.000002
# 4 0.000000 -0.000001 0.000007 0.030970 0.000005 -0.000778
# 5 0.003765 -0.000305 -0.012216 0.000005 0.062957 0.000000
# 6 0.000000 0.000000 0.000002 -0.000778 0.000000 0.030463
#
#
# Mechanical properties :
#
#
# Convention : Reuss Voigt Hill
#
# Bulk Modulus (GPa) = 49.85135 56.89598 53.37367
# Shear Modulus (GPa) = 23.01306 26.23479 24.62393
#
# Velocity S-wave (km/s) = 3.59652 3.84002 3.72026
# Velocity P-wave (km/s) = 6.72804 7.18614 6.96086
#
# Compressibility (1/GPa) = 0.02005964
#
# Stress axis : x y z
#
# Youngs Moduli (GPa) = 54.66879 64.12549 51.97784
#
# Poissons Ratio (x) = 0.47407 0.13953
# Poissons Ratio (y) = 0.40416 0.33555
# Poissons Ratio (z) = 0.14676 0.41397
#
# Static dielectric constant tensor:
#      x y z
#    x 3.145270 0.000000 0.187060 
#    y 0.000000 3.898590 -0.000010 
#    z 0.187060 -0.000010 3.258340 
# 
# 
# High freq. dielectric constant tensor:
#      x y z
#    x 1.654810 0.000000 0.025360 
#    y 0.000000 1.687300 0.000000 
#    z 0.025360 0.000000 1.695360 
# 
# From -- ./inp_files/253240.got.cif
#   From: 2010.06.25/outbox.cif.g09.slc.cpg/sg15_127_cif.got.tgz:253240.got - 2010.06.28 07:06:18.
