data_PCOD8136705
_publ_section_title
;
Structure prediction by ZEFSAII (Michael W. Deem and Ramdas Pophale) SiO2 
 PCOD8136705
Probable space group: C 2/C
;
_chemical_formula_sum "Si O2"
_cell_formula_units_Z 64
_cell_length_a 18.937921
_cell_length_b 9.381576
_cell_length_c 22.260403
_cell_angle_alpha 90.000000
_cell_angle_beta 56.541210
_cell_angle_gamma 90.000000
_cell_volume 3299.546881
_symmetry_space_group_name_H-M "C 2/C"
_symmetry_group_IT_number 15
_symmetry_cell_setting 'monoclinic'
loop_
_space_group_symop_operation_xyz
x,y,z
-x,y,1/2-z
-x,-y,-z
x,-y,1/2+z
1/2+x,1/2+y,z
1/2-x,1/2+y,1/2-z
1/2-x,1/2-y,-z
1/2+x,1/2-y,1/2+z
loop_
_atom_site_type_symbol
_atom_site_label
_atom_site_fract_x
_atom_site_fract_y
_atom_site_fract_z
Si Si1 0.345247 0.642405 0.571134
Si Si2 0.552710 0.680560 0.858880
Si Si3 0.222073 0.897567 0.216379
Si Si4 0.756471 0.582516 0.311516
Si Si5 0.943268 0.431723 0.722997
Si Si6 0.801426 0.869671 0.860330
Si Si7 0.946179 0.757843 0.718593
Si Si8 0.931057 0.931916 0.907254
O O1 0.412263 0.690111 0.589961
O O2 0.303613 0.493728 0.612239
O O3 0.276481 0.764914 0.588909
O O4 0.395651 0.612674 0.487571
O O5 0.623332 0.616684 0.780522
O O6 0.535715 0.842117 0.846505
O O7 0.464130 0.594937 0.894435
O O8 0.271659 0.746055 0.188779
O O9 0.267377 0.992759 0.245329
O O10 0.230713 0.977010 0.148215
O O11 0.850178 0.589682 0.294235
O O12 0.961713 0.593684 0.697287
O O13 0.000000 0.374015 0.750000
O O14 0.849716 0.795844 0.780931
O O15 0.858744 0.898895 0.891927
O O16 0.000000 0.810290 0.750000
O O17 0.982532 0.842491 0.644351
#
# Coordination Sequence:
#
# PCOD8136705 Si02
#       8
#     8   8   8   8   8   8   8   8
#     4  11  23  42  57  86 127 167 197 249 312 371
#     4  10  22  37  60  86 121 156 200 250 309 361
#     4  10  20  35  60  91 114 153 199 255 297 363
#     4  10  21  36  59  88 121 153 198 249 311 362
#     4  10  20  34  60  89 115 145 199 258 299 349
#     4  11  20  38  62  89 119 159 210 255 298 365
#     4   9  19  35  57  88 114 149 198 253 301 351
#     4  11  23  38  61  88 122 163 206 248 307 371
#
# _framework density 19.396604
#
# number of rings (size 3 to 8) (size 9 to 14) (size 15 to 20)
#    0.000    1.750    2.500    3.000    3.500    0.000 
#    0.000    2.500    0.000    0.000    0.000    0.000 
#    0.000    0.000    0.000    0.000    0.000    0.000 
#
# Total GULP energy -396707.182651 kJ/mol
# GULP energy per Si atom -12397.099458 kJ/mol
# Density = 1.935246 g / cm^3
# Si number density = 19.396604 Si / 1000 Ang^3
#
#
#
# Elastic Constant Matrix: (Units=GPa)
#
#
# Indices 1 2 3 4 5 6 
#
# 1 89.9877 41.2871 29.4509 0.0000 11.9984 -0.0002
# 2 41.2871 103.7164 43.1065 -0.0001 12.9321 -0.0004
# 3 29.4509 43.1065 113.8392 0.0000 10.2160 0.0000
# 4 0.0000 -0.0001 0.0000 22.2872 0.0000 -0.9334
# 5 11.9984 12.9321 10.2160 0.0000 21.5027 0.0000
# 6 -0.0002 -0.0004 0.0000 -0.9334 0.0000 34.7636
#
#
#
# Elastic Compliance Matrix: (Units=1/GPa)
#
#
# Indices 1 2 3 4 5 6 
#
# 1 0.014285 -0.004456 -0.001602 0.000000 -0.004530 0.000000
# 2 -0.004456 0.013380 -0.003567 0.000000 -0.003866 0.000000
# 3 -0.001602 -0.003567 0.010734 0.000000 -0.002061 0.000000
# 4 0.000000 0.000000 0.000000 0.044919 0.000000 0.001206
# 5 -0.004530 -0.003866 -0.002061 0.000000 0.052338 0.000000
# 6 0.000000 0.000000 0.000000 0.001206 0.000000 0.028798
#
#
# Mechanical properties :
#
#
# Convention : Reuss Voigt Hill
#
# Bulk Modulus (GPa) = 52.21842 59.47026 55.84434
# Shear Modulus (GPa) = 26.30365 28.62394 27.46380
#
# Velocity S-wave (km/s) = 3.68652 3.84568 3.76694
# Velocity P-wave (km/s) = 6.71568 7.10251 6.91180
#
# Compressibility (1/GPa) = 0.01915033
#
# Stress axis : x y z
#
# Youngs Moduli (GPa) = 70.00168 74.73862 93.15969
#
# Poissons Ratio (x) = 0.33304 0.14923
# Poissons Ratio (y) = 0.31193 0.33228
# Poissons Ratio (z) = 0.11213 0.26657
#
# Static dielectric constant tensor:
#      x y z
#    x 3.666830 0.000000 0.030330 
#    y 0.000000 3.769950 0.000000 
#    z 0.030330 0.000000 3.278470 
# 
# 
# High freq. dielectric constant tensor:
#      x y z
#    x 1.763210 0.000000 0.005370 
#    y 0.000000 1.764840 0.000000 
#    z 0.005370 0.000000 1.721850 
# 
# From -- ./inp_files/279361.got.cif
#   From: 2010.06.25/outbox.cif.g09.slc.cpg/sg15_140_cif.got.tgz:279361.got - 2010.06.28 07:06:18.
