data_PCOD8136548
_publ_section_title
;
Structure prediction by ZEFSAII (Michael W. Deem and Ramdas Pophale) SiO2 
 PCOD8136548
Probable space group: C 2/C
;
_chemical_formula_sum "Si O2"
_cell_formula_units_Z 48
_cell_length_a 8.515447
_cell_length_b 18.217991
_cell_length_c 15.454365
_cell_angle_alpha 90.000000
_cell_angle_beta 93.381909
_cell_angle_gamma 90.000000
_cell_volume 2393.327424
_symmetry_space_group_name_H-M "C 2/C"
_symmetry_group_IT_number 15
_symmetry_cell_setting 'monoclinic'
loop_
_space_group_symop_operation_xyz
x,y,z
-x,y,1/2-z
-x,-y,-z
x,-y,1/2+z
1/2+x,1/2+y,z
1/2-x,1/2+y,1/2-z
1/2-x,1/2-y,-z
1/2+x,1/2-y,1/2+z
loop_
_atom_site_type_symbol
_atom_site_label
_atom_site_fract_x
_atom_site_fract_y
_atom_site_fract_z
Si Si1 0.318473 0.334505 0.255452
Si Si2 0.195217 0.407673 0.092387
Si Si3 0.680238 0.315895 0.754003
Si Si4 0.901717 0.956909 0.660700
Si Si5 0.893949 0.448814 0.162421
Si Si6 0.707222 0.588660 0.095134
O O1 0.500000 0.353397 0.250000
O O2 0.236071 0.341854 0.159118
O O3 0.292197 0.250929 0.286308
O O4 0.243234 0.389915 0.322945
O O5 0.283706 0.480546 0.128294
O O6 0.007116 0.420325 0.088933
O O7 0.247590 0.384854 0.998852
O O8 0.500000 0.288209 0.750000
O O9 0.700556 0.384054 0.821007
O O10 0.726941 0.342162 0.659183
O O11 0.000000 0.979669 0.750000
O O12 0.026282 0.939494 0.588837
O O13 0.820097 0.524214 0.129911
O O14 0.000000 0.462594 0.250000
#
# Coordination Sequence:
#
# PCOD8136548 Si02
#       6
#     8   8   8   8   8   8
#     4  11  22  36  55  76 102 141 183 217 256 312
#     4  11  20  33  56  82 110 137 169 220 266 307
#     4   9  19  36  55  75 103 140 178 214 257 311
#     4   9  18  34  56  80 108 141 177 211 254 315
#     4  10  20  35  55  78 107 139 176 214 255 315
#     4  10  20  34  56  83 109 136 171 217 266 311
#
# _framework density 20.055759999999999
#
# number of rings (size 3 to 8) (size 9 to 14) (size 15 to 20)
#    0.000    2.333    0.000    8.000    0.000    3.333 
#    0.000    0.000    0.000    6.000    0.000    0.000 
#    0.000    0.000    0.000    0.000    0.000    0.000 
#
# Total GULP energy -297567.757149 kJ/mol
# GULP energy per Si atom -12398.656548 kJ/mol
# Density = 2.001011 g / cm^3
# Si number density = 20.055760 Si / 1000 Ang^3
#
#
#
# Elastic Constant Matrix: (Units=GPa)
#
#
# Indices 1 2 3 4 5 6 
#
# 1 102.3669 24.8833 25.2011 0.0000 -28.0006 0.0000
# 2 24.8833 57.8212 10.0614 0.0000 1.9563 0.0000
# 3 25.2011 10.0614 84.0488 0.0000 -33.7561 0.0000
# 4 0.0000 0.0000 0.0000 2.2817 0.0000 1.6977
# 5 -28.0006 1.9563 -33.7561 0.0000 33.0902 0.0000
# 6 0.0000 0.0000 0.0000 1.6977 0.0000 34.3695
#
#
#
# Elastic Compliance Matrix: (Units=1/GPa)
#
#
# Indices 1 2 3 4 5 6 
#
# 1 0.015436 -0.007709 0.002920 0.000000 0.016496 0.000000
# 2 -0.007709 0.022106 -0.005895 0.000000 -0.013844 0.000000
# 3 0.002920 -0.005895 0.021786 0.000000 0.025044 0.000000
# 4 0.000000 0.000000 0.000000 0.454990 0.000000 -0.022475
# 5 0.016496 -0.013844 0.025044 0.000000 0.070546 0.000000
# 6 0.000000 0.000000 0.000000 -0.022475 0.000000 0.030206
#
#
# Mechanical properties :
#
#
# Convention : Reuss Voigt Hill
#
# Bulk Modulus (GPa) = 26.34315 40.50318 33.42316
# Shear Modulus (GPa) = 7.70306 26.22101 16.96204
#
# Velocity S-wave (km/s) = 1.96193 3.61973 2.91132
# Velocity P-wave (km/s) = 4.27735 6.14077 5.29173
#
# Compressibility (1/GPa) = 0.03796054
#
# Stress axis : x y z
#
# Youngs Moduli (GPa) = 64.78301 45.23562 45.90027
#
# Poissons Ratio (x) = 0.34873 -0.13402
# Poissons Ratio (y) = 0.49942 0.27058
# Poissons Ratio (z) = -0.18915 0.26666
#
# Static dielectric constant tensor:
#      x y z
#    x 3.854310 0.000000 -0.452790 
#    y 0.000000 3.483110 0.000000 
#    z -0.452790 0.000000 3.595310 
# 
# 
# High freq. dielectric constant tensor:
#      x y z
#    x 1.790430 0.000000 -0.032010 
#    y 0.000000 1.777680 0.000000 
#    z -0.032010 0.000000 1.757000 
# 
# From -- ./inp_files/134851.got.cif
#   From: 2010.06.25/outbox.cif.g09.slc.cpg/sg15_68_cif.got.tgz:134851.got - 2010.06.28 07:06:18.
