data_PCOD8136586
_publ_section_title
;
Structure prediction by ZEFSAII (Michael W. Deem and Ramdas Pophale) SiO2 
 PCOD8136586
Probable space group: C 2/C
;
_chemical_formula_sum "Si O2"
_cell_formula_units_Z 56
_cell_length_a 9.242274
_cell_length_b 31.017960
_cell_length_c 13.609938
_cell_angle_alpha 90.000000
_cell_angle_beta 46.133972
_cell_angle_gamma 90.000000
_cell_volume 2812.941268
_symmetry_space_group_name_H-M "C 2/C"
_symmetry_group_IT_number 15
_symmetry_cell_setting 'monoclinic'
loop_
_space_group_symop_operation_xyz
x,y,z
-x,y,1/2-z
-x,-y,-z
x,-y,1/2+z
1/2+x,1/2+y,z
1/2-x,1/2+y,1/2-z
1/2-x,1/2-y,-z
1/2+x,1/2-y,1/2+z
loop_
_atom_site_type_symbol
_atom_site_label
_atom_site_fract_x
_atom_site_fract_y
_atom_site_fract_z
Si Si1 0.567162 0.549765 0.045619
Si Si2 0.677841 0.710820 0.906331
Si Si3 0.962358 0.455296 0.462170
Si Si4 0.987107 0.709793 0.592756
Si Si5 0.809614 0.506324 0.293955
Si Si6 0.184381 0.374706 0.410038
Si Si7 0.983174 0.124589 0.590036
O O1 0.731432 0.559941 0.052184
O O2 0.670170 0.507903 0.949290
O O3 0.530974 0.587412 0.984189
O O4 0.346235 0.536420 0.195555
O O5 0.799183 0.722141 0.750081
O O6 0.539920 0.669497 0.955300
O O7 0.822911 0.699266 0.928505
O O8 0.533468 0.750570 0.999140
O O9 0.000000 0.500000 0.500000
O O10 0.098070 0.463449 0.301129
O O11 0.043201 0.416050 0.488380
O O12 0.942203 0.668953 0.544672
O O13 0.000000 0.532861 0.250000
O O14 0.304503 0.373278 0.455051
O O15 0.314991 0.382155 0.251257
#
# Coordination Sequence:
#
# PCOD8136586 Si02
#       7
#     8   8   8   8   8   8   8
#     4  10  20  36  57  76 107 147 181 231 277 330
#     4   9  18  34  59  84 108 145 181 227 284 345
#     4  11  23  35  55  81 110 146 191 235 278 327
#     4   9  18  35  58  83 111 140 183 230 283 342
#     4   9  20  35  54  77 104 143 184 229 277 326
#     4  10  21  34  53  84 112 140 189 236 269 331
#     4  10  20  34  57  81 109 146 187 228 279 331
#
# _framework density 19.907988
#
# number of rings (size 3 to 8) (size 9 to 14) (size 15 to 20)
#    0.000    2.286    1.429    0.857    6.000    2.286 
#    0.000    1.429    0.000    3.429    0.000    0.000 
#    0.000    0.000    0.000    0.000    0.000    0.000 
#
# Total GULP energy -346885.944474 kJ/mol
# GULP energy per Si atom -12388.783731 kJ/mol
# Density = 1.986268 g / cm^3
# Si number density = 19.907988 Si / 1000 Ang^3
#
#
#
# Elastic Constant Matrix: (Units=GPa)
#
#
# Indices 1 2 3 4 5 6 
#
# 1 157.2352 93.8920 44.4842 0.0000 -23.9761 0.0000
# 2 93.8920 139.2845 41.1225 0.0000 -15.5992 0.0000
# 3 44.4842 41.1225 39.9649 0.0000 -16.6632 0.0000
# 4 0.0000 0.0000 0.0000 33.6230 0.0000 3.3969
# 5 -23.9761 -15.5992 -16.6632 0.0000 32.5839 0.0000
# 6 0.0000 0.0000 0.0000 3.3969 0.0000 39.2912
#
#
#
# Elastic Compliance Matrix: (Units=1/GPa)
#
#
# Indices 1 2 3 4 5 6 
#
# 1 0.012144 -0.006073 -0.006044 0.000000 0.002938 0.000000
# 2 -0.006073 0.013359 -0.007859 0.000000 -0.002092 0.000000
# 3 -0.006044 -0.007859 0.046281 0.000000 0.015458 0.000000
# 4 0.000000 0.000000 0.000000 0.030004 0.000000 -0.002594
# 5 0.002938 -0.002092 0.015458 0.000000 0.039756 0.000000
# 6 0.000000 0.000000 0.000000 -0.002594 0.000000 0.025675
#
#
# Mechanical properties :
#
#
# Convention : Reuss Voigt Hill
#
# Bulk Modulus (GPa) = 31.41344 77.27579 54.34461
# Shear Modulus (GPa) = 22.95888 31.56535 27.26211
#
# Velocity S-wave (km/s) = 3.39964 3.98623 3.70456
# Velocity P-wave (km/s) = 5.58781 7.75161 6.75689
#
# Compressibility (1/GPa) = 0.03183351
#
# Stress axis : x y z
#
# Youngs Moduli (GPa) = 82.34370 74.85385 21.60730
#
# Poissons Ratio (x) = 0.45460 0.13058
# Poissons Ratio (y) = 0.50008 0.16981
# Poissons Ratio (z) = 0.49765 0.58826
#
# Static dielectric constant tensor:
#      x y z
#    x 4.049980 0.000000 -0.326390 
#    y 0.000000 3.562400 0.000000 
#    z -0.326390 0.000000 4.090310 
# 
# 
# High freq. dielectric constant tensor:
#      x y z
#    x 1.792580 0.000000 -0.011580 
#    y 0.000000 1.763320 0.000000 
#    z -0.011580 0.000000 1.754740 
# 
# From -- ./inp_files/139445.got.cif
#   From: 2010.06.25/outbox.cif.g09.slc.cpg/sg15_70_cif.got.tgz:139445.got - 2010.06.28 07:06:18.
