data_PCOD8136045
_publ_section_title
;
Structure prediction by ZEFSAII (Michael W. Deem and Ramdas Pophale) SiO2 
 PCOD8136045
Probable space group: C 2/C
;
_chemical_formula_sum "Si O2"
_cell_formula_units_Z 60
_cell_length_a 16.156234
_cell_length_b 8.393361
_cell_length_c 21.141074
_cell_angle_alpha 90.000000
_cell_angle_beta 107.607853
_cell_angle_gamma 90.000000
_cell_volume 2732.523959
_symmetry_space_group_name_H-M "C 2/C"
_symmetry_group_IT_number 15
_symmetry_cell_setting 'monoclinic'
loop_
_space_group_symop_operation_xyz
x,y,z
-x,y,1/2-z
-x,-y,-z
x,-y,1/2+z
1/2+x,1/2+y,z
1/2-x,1/2+y,1/2-z
1/2-x,1/2-y,-z
1/2+x,1/2-y,1/2+z
loop_
_atom_site_type_symbol
_atom_site_label
_atom_site_fract_x
_atom_site_fract_y
_atom_site_fract_z
Si Si1 0.224566 0.001177 0.733704
Si Si2 0.971914 0.226275 0.114614
Si Si3 0.732315 0.360300 0.554795
Si Si4 0.917533 0.109658 0.976659
Si Si5 0.334325 0.810407 0.340656
Si Si6 0.000000 0.654903 0.250000
Si Si7 0.048148 0.116070 0.656019
Si Si8 0.855208 0.543800 0.662376
O O1 0.284815 0.025947 0.810234
O O2 0.130651 0.080802 0.719580
O O3 0.269228 0.084199 0.682513
O O4 0.208281 0.814462 0.718675
O O5 0.061643 0.325475 0.141496
O O6 0.902734 0.298606 0.147627
O O7 0.988607 0.041369 0.134899
O O8 0.930358 0.243327 0.034285
O O9 0.750000 0.250000 0.500000
O O10 0.668931 0.509471 0.527156
O O11 0.686215 0.243801 0.593786
O O12 0.825644 0.428252 0.598280
O O13 0.919035 0.179609 0.905326
O O14 0.000000 0.000000 0.000000
O O15 0.995907 0.752975 0.183307
O O16 0.084694 0.545469 0.272640
#
# Coordination Sequence:
#
# PCOD8136045 Si02
#       8
#     8   8   8   8   8   4   8   8
#     4  10  20  40  61  84 128 162 205 259 313 375
#     4  10  22  39  68  91 128 166 212 265 323 377
#     4  11  23  42  67  94 129 165 215 270 313 380
#     4  10  19  43  69  88 125 171 213 262 315 388
#     4  10  20  40  63  89 122 170 205 258 322 373
#     4  12  26  38  66  94 130 170 212 260 316 398
#     4  10  21  42  65  92 117 175 219 251 317 388
#     4  11  24  43  59 100 135 160 207 279 319 367
#
# _framework density 21.957719999999998
#
# number of rings (size 3 to 8) (size 9 to 14) (size 15 to 20)
#    0.000    1.600    5.333    2.400    3.733    3.200 
#    2.400    4.000    0.000    0.000    0.000    0.000 
#    0.000    0.000    0.000    0.000    0.000    0.000 
#
# Total GULP energy -371813.076080 kJ/mol
# GULP energy per Si atom -12393.769203 kJ/mol
# Density = 2.190774 g / cm^3
# Si number density = 21.957720 Si / 1000 Ang^3
#
#
#
# Elastic Constant Matrix: (Units=GPa)
#
#
# Indices 1 2 3 4 5 6 
#
# 1 74.7227 19.3698 17.1859 0.0000 5.5917 0.0000
# 2 19.3698 41.8775 29.7175 0.0000 -5.2880 0.0000
# 3 17.1859 29.7175 92.8556 0.0000 10.6267 0.0000
# 4 0.0000 0.0000 0.0000 41.0370 0.0000 2.4431
# 5 5.5917 -5.2880 10.6267 0.0000 33.4881 0.0000
# 6 0.0000 0.0000 0.0000 2.4431 0.0000 26.3580
#
#
#
# Elastic Compliance Matrix: (Units=1/GPa)
#
#
# Indices 1 2 3 4 5 6 
#
# 1 0.015675 -0.007750 0.000019 0.000000 -0.003847 0.000000
# 2 -0.007750 0.037135 -0.011694 0.000000 0.010869 0.000000
# 3 0.000019 -0.011694 0.015275 0.000000 -0.006697 0.000000
# 4 0.000000 0.000000 0.000000 0.024503 0.000000 -0.002271
# 5 -0.003847 0.010869 -0.006697 0.000000 0.034345 0.000000
# 6 0.000000 0.000000 0.000000 -0.002271 0.000000 0.038150
#
#
# Mechanical properties :
#
#
# Convention : Reuss Voigt Hill
#
# Bulk Modulus (GPa) = 34.20495 38.00023 36.10259
# Shear Modulus (GPa) = 23.39979 29.72215 26.56097
#
# Velocity S-wave (km/s) = 3.26801 3.68313 3.48176
# Velocity P-wave (km/s) = 5.46363 5.95239 5.71324
#
# Compressibility (1/GPa) = 0.02923553
#
# Stress axis : x y z
#
# Youngs Moduli (GPa) = 63.79504 26.92902 65.46722
#
# Poissons Ratio (x) = 0.20870 -0.00127
# Poissons Ratio (y) = 0.49440 0.76558
# Poissons Ratio (z) = -0.00124 0.31491
#
# Static dielectric constant tensor:
#      x y z
#    x 3.941400 0.000000 0.005000 
#    y 0.000000 3.676110 0.000000 
#    z 0.005000 0.000000 4.050350 
# 
# 
# High freq. dielectric constant tensor:
#      x y z
#    x 1.871190 0.000000 0.011790 
#    y 0.000000 1.829580 0.000000 
#    z 0.011790 0.000000 1.871140 
# 
# From -- ./inp_files/247539.got.cif
#   From: 2010.06.25/outbox.cif.g09.slc.cpg/sg15_124_cif.got.tgz:247539.got - 2010.06.28 07:06:18.
