data_PCOD8136982
_publ_section_title
;
Structure prediction by ZEFSAII (Michael W. Deem and Ramdas Pophale) SiO2 
 PCOD8136982
Probable space group: C 2/C
;
_chemical_formula_sum "Si O2"
_cell_formula_units_Z 44
_cell_length_a 25.595811
_cell_length_b 10.026747
_cell_length_c 24.258741
_cell_angle_alpha 90.000000
_cell_angle_beta 159.211280
_cell_angle_gamma 90.000000
_cell_volume 2209.689475
_symmetry_space_group_name_H-M "C 2/C"
_symmetry_group_IT_number 15
_symmetry_cell_setting 'monoclinic'
loop_
_space_group_symop_operation_xyz
x,y,z
-x,y,1/2-z
-x,-y,-z
x,-y,1/2+z
1/2+x,1/2+y,z
1/2-x,1/2+y,1/2-z
1/2-x,1/2-y,-z
1/2+x,1/2-y,1/2+z
loop_
_atom_site_type_symbol
_atom_site_label
_atom_site_fract_x
_atom_site_fract_y
_atom_site_fract_z
Si Si1 0.698687 0.578058 0.160770
Si Si2 0.374910 0.661348 0.713879
Si Si3 0.241544 0.928645 0.968974
Si Si4 0.871695 0.162921 0.837294
Si Si5 0.796305 0.080391 0.461334
Si Si6 0.500000 0.235198 0.750000
O O1 0.822345 0.685137 0.300765
O O2 0.719543 0.444177 0.216840
O O3 0.709209 0.532904 0.107400
O O4 0.543811 0.650381 0.020531
O O5 0.270588 0.563154 0.576802
O O6 0.338167 0.630303 0.740850
O O7 0.329880 0.810269 0.652844
O O8 0.545593 0.644026 0.867852
O O9 0.108537 0.828830 0.820869
O O10 0.397743 0.857917 0.110143
O O11 0.232923 0.957154 0.026543
#
# Coordination Sequence:
#
# PCOD8136982 Si02
#       6
#     8   8   8   8   8   4
#     4   9  19  37  55  80 110 142 180 224 267 316
#     4  10  20  35  58  80 107 138 181 227 264 314
#     4  11  21  40  53  80 108 144 176 217 269 319
#     4   9  19  37  55  80 110 142 180 224 267 316
#     4  10  20  35  58  80 107 138 181 227 264 314
#     4  10  24  38  54  72 120 142 174 216 260 330
#
# _framework density 19.912299999999998
#
# number of rings (size 3 to 8) (size 9 to 14) (size 15 to 20)
#    0.000    2.182    1.818    0.545    2.545    0.727 
#    6.545    0.000    0.000    0.000    0.000    0.000 
#    0.000    0.000    0.000    0.000    0.000    0.000 
#
# Total GULP energy -272786.995950 kJ/mol
# GULP energy per Si atom -12399.408907 kJ/mol
# Density = 1.986698 g / cm^3
# Si number density = 19.912300 Si / 1000 Ang^3
#
#
#
# Elastic Constant Matrix: (Units=GPa)
#
#
# Indices 1 2 3 4 5 6 
#
# 1 63.0546 37.0397 19.0898 -0.0004 -3.0906 0.0000
# 2 37.0397 71.8393 23.6974 -0.0010 -2.3308 -0.0005
# 3 19.0898 23.6974 74.9350 0.0001 3.0786 -0.0003
# 4 -0.0004 -0.0010 0.0001 37.8522 -0.0004 -3.4948
# 5 -3.0906 -2.3308 3.0786 -0.0004 19.2534 -0.0001
# 6 0.0000 -0.0005 -0.0003 -3.4948 -0.0001 28.5724
#
#
#
# Elastic Compliance Matrix: (Units=1/GPa)
#
#
# Indices 1 2 3 4 5 6 
#
# 1 0.023267 -0.011067 -0.002543 0.000000 0.002802 0.000000
# 2 -0.011067 0.020944 -0.003861 0.000001 0.001376 0.000000
# 3 -0.002543 -0.003861 0.015350 0.000000 -0.003330 0.000000
# 4 0.000000 0.000001 0.000000 0.026720 0.000001 0.003268
# 5 0.002802 0.001376 -0.003330 0.000001 0.053088 0.000000
# 6 0.000000 0.000000 0.000000 0.003268 0.000000 0.035399
#
#
# Mechanical properties :
#
#
# Convention : Reuss Voigt Hill
#
# Bulk Modulus (GPa) = 40.61494 41.05364 40.83429
# Shear Modulus (GPa) = 22.94468 25.80240 24.37354
#
# Velocity S-wave (km/s) = 3.39822 3.60363 3.50243
# Velocity P-wave (km/s) = 5.98652 6.16254 6.07516
#
# Compressibility (1/GPa) = 0.02462148
#
# Stress axis : x y z
#
# Youngs Moduli (GPa) = 42.97890 47.74641 65.14505
#
# Poissons Ratio (x) = 0.52839 0.16565
# Poissons Ratio (y) = 0.47563 0.25150
# Poissons Ratio (z) = 0.10928 0.18433
#
# Static dielectric constant tensor:
#      x y z
#    x 3.486740 0.000000 0.037330 
#    y 0.000000 3.608160 0.000000 
#    z 0.037330 0.000000 3.732520 
# 
# 
# High freq. dielectric constant tensor:
#      x y z
#    x 1.755420 0.000000 0.004400 
#    y 0.000000 1.777820 0.000000 
#    z 0.004400 0.000000 1.780600 
# 
# From -- ./inp_files/60479.got.cif
#   From: 2010.06.25/outbox.cif.g09.slc.cpg/sg15_31_cif.got.tgz:60479.got - 2010.06.28 07:06:18.
