data_PCOD8136086
_publ_section_title
;
Structure prediction by ZEFSAII (Michael W. Deem and Ramdas Pophale) SiO2 
 PCOD8136086
Probable space group: C 2/C
;
_chemical_formula_sum "Si O2"
_cell_formula_units_Z 44
_cell_length_a 14.590886
_cell_length_b 14.251445
_cell_length_c 14.791066
_cell_angle_alpha 90.000000
_cell_angle_beta 121.888822
_cell_angle_gamma 90.000000
_cell_volume 2611.475612
_symmetry_space_group_name_H-M "C 2/C"
_symmetry_group_IT_number 15
_symmetry_cell_setting 'monoclinic'
loop_
_space_group_symop_operation_xyz
x,y,z
-x,y,1/2-z
-x,-y,-z
x,-y,1/2+z
1/2+x,1/2+y,z
1/2-x,1/2+y,1/2-z
1/2-x,1/2-y,-z
1/2+x,1/2-y,1/2+z
loop_
_atom_site_type_symbol
_atom_site_label
_atom_site_fract_x
_atom_site_fract_y
_atom_site_fract_z
Si Si1 0.500000 0.615497 0.250000
Si Si2 0.035473 0.866069 0.102993
Si Si3 0.406418 0.300480 0.876331
Si Si4 0.246229 0.627594 0.705698
Si Si5 0.192575 0.988136 0.625898
Si Si6 0.655846 0.535406 0.908226
O O1 0.533269 0.682997 0.186032
O O2 0.396870 0.552889 0.169887
O O3 0.138514 0.821861 0.209469
O O4 0.074048 0.966347 0.081582
O O5 0.936701 0.887883 0.118606
O O6 0.995641 0.797594 0.002565
O O7 0.350511 0.199935 0.843597
O O8 0.315915 0.379678 0.848939
O O9 0.221166 0.546083 0.768165
O O10 0.255840 0.581463 0.611717
O O11 0.218455 0.995474 0.532364
#
# Coordination Sequence:
#
# PCOD8136086 Si02
#       6
#     4   8   8   8   8   8
#     4  12  14  30  56  76  94 144 168 214 276 288
#     4   9  17  31  48  78 108 129 175 221 253 308
#     4  11  19  30  54  80 106 137 176 223 262 313
#     4  10  20  30  49  86 109 131 175 227 261 306
#     4   9  18  31  49  79 106 131 178 218 253 312
#     4  11  15  30  56  74 103 143 167 219 269 301
#
# _framework density 16.848711999999999
#
# number of rings (size 3 to 8) (size 9 to 14) (size 15 to 20)
#    1.091    0.727    7.273    1.091    0.000    2.909 
#    0.000    3.636    0.000    1.091    4.727    0.000 
#    0.000    0.000    0.000    0.000    0.000    0.000 
#
# Total GULP energy -272575.772934 kJ/mol
# GULP energy per Si atom -12389.807861 kJ/mol
# Density = 1.681036 g / cm^3
# Si number density = 16.848712 Si / 1000 Ang^3
#
#
#
# Elastic Constant Matrix: (Units=GPa)
#
#
# Indices 1 2 3 4 5 6 
#
# 1 33.4547 22.0382 23.4591 0.0000 -12.3378 0.0000
# 2 22.0382 55.2044 25.4701 0.0000 -3.7769 0.0000
# 3 23.4591 25.4701 102.6665 0.0000 -19.7636 0.0000
# 4 0.0000 0.0000 0.0000 0.8195 0.0000 15.6646
# 5 -12.3378 -3.7769 -19.7636 0.0000 14.3784 0.0000
# 6 0.0000 0.0000 0.0000 15.6646 0.0000 29.2664
#
#
#
# Elastic Compliance Matrix: (Units=1/GPa)
#
#
# Indices 1 2 3 4 5 6 
#
# 1 0.061177 -0.021391 0.000478 0.000000 0.047534 0.000000
# 2 -0.021391 0.027986 -0.005675 0.000000 -0.018805 0.000000
# 3 0.000478 -0.005675 0.014728 0.000000 0.019164 0.000000
# 4 0.000000 0.000000 0.000000 -0.132190 0.000000 0.070754
# 5 0.047534 -0.018805 0.019164 0.000000 0.131738 0.000000
# 6 0.000000 0.000000 0.000000 0.070754 0.000000 -0.003701
#
#
# Mechanical properties :
#
#
# Convention : Reuss Voigt Hill
#
# Bulk Modulus (GPa) = 19.71792 37.02891 28.37341
# Shear Modulus (GPa) = 29.44311 16.91673 23.17992
#
# Velocity S-wave (km/s) = 4.18484 3.17209 3.71316
# Velocity P-wave (km/s) = 5.92274 5.95325 5.93802
#
# Compressibility (1/GPa) = 0.05071529
#
# Stress axis : x y z
#
# Youngs Moduli (GPa) = 16.34597 35.73231 67.89804
#
# Poissons Ratio (x) = 0.76436 -0.03248
# Poissons Ratio (y) = 0.34966 0.38532
# Poissons Ratio (z) = -0.00782 0.20278
#
# Static dielectric constant tensor:
#      x y z
#    x 2.636250 0.000000 -0.152660 
#    y 0.000000 2.776950 0.000000 
#    z -0.152660 0.000000 3.425400 
# 
# 
# High freq. dielectric constant tensor:
#      x y z
#    x 1.597060 0.000000 -0.019260 
#    y 0.000000 1.612550 0.000000 
#    z -0.019260 0.000000 1.672930 
# 
# From -- ./inp_files/86096.got.cif
#   From: 2010.06.25/outbox.cif.g09.slc.cpg/sg15_44_cif.got.tgz:86096.got - 2010.06.28 07:06:18.
