data_PCOD8136888
_publ_section_title
;
Structure prediction by ZEFSAII (Michael W. Deem and Ramdas Pophale) SiO2 
 PCOD8136888
Probable space group: C 2/C
;
_chemical_formula_sum "Si O2"
_cell_formula_units_Z 52
_cell_length_a 17.317470
_cell_length_b 8.582709
_cell_length_c 17.873090
_cell_angle_alpha 90.000000
_cell_angle_beta 75.001596
_cell_angle_gamma 90.000000
_cell_volume 2565.993155
_symmetry_space_group_name_H-M "C 2/C"
_symmetry_group_IT_number 15
_symmetry_cell_setting 'monoclinic'
loop_
_space_group_symop_operation_xyz
x,y,z
-x,y,1/2-z
-x,-y,-z
x,-y,1/2+z
1/2+x,1/2+y,z
1/2-x,1/2+y,1/2-z
1/2-x,1/2-y,-z
1/2+x,1/2-y,1/2+z
loop_
_atom_site_type_symbol
_atom_site_label
_atom_site_fract_x
_atom_site_fract_y
_atom_site_fract_z
Si Si1 0.487464 0.865537 0.442578
Si Si2 0.642329 0.259684 0.963877
Si Si3 0.500000 0.655406 0.750000
Si Si4 0.646317 0.428557 0.298427
Si Si5 0.263557 0.186745 0.319244
Si Si6 0.590173 0.108135 0.128778
Si Si7 0.084883 0.080913 0.973045
O O1 0.571601 0.772667 0.420046
O O2 0.416692 0.741304 0.479322
O O3 0.500000 0.000000 0.500000
O O4 0.460099 0.948326 0.371872
O O5 0.725633 0.221373 0.900500
O O6 0.645587 0.445035 0.985217
O O7 0.631116 0.157790 0.040353
O O8 0.426972 0.546321 0.741434
O O9 0.471432 0.762075 0.826576
O O10 0.708189 0.304067 0.251029
O O11 0.693826 0.586998 0.299004
O O12 0.608429 0.364375 0.384148
O O13 0.339061 0.083332 0.328591
O O14 0.000000 0.000000 0.000000
#
# Coordination Sequence:
#
# PCOD8136888 Si02
#       7
#     8   8   4   8   8   8   8
#     4   9  17  30  54  81 105 137 181 224 260 310
#     4   9  18  34  55  78 107 144 178 219 271 330
#     4  10  20  36  58  76 106 146 190 226 266 332
#     4  10  21  38  56  81 109 148 183 223 276 324
#     4  10  22  37  54  78 115 142 175 224 276 330
#     4  10  20  35  56  82 106 141 183 226 273 318
#     4   9  17  33  56  80 109 140 183 228 266 320
#
# _framework density 20.265056999999999
#
# number of rings (size 3 to 8) (size 9 to 14) (size 15 to 20)
#    0.000    2.462    0.000    3.231    0.000    4.923 
#    0.000   10.769    0.000    0.923    0.000    0.000 
#    0.000    0.000    0.000    0.000    0.000    0.000 
#
# Total GULP energy -322116.956420 kJ/mol
# GULP energy per Si atom -12389.113708 kJ/mol
# Density = 2.021893 g / cm^3
# Si number density = 20.265057 Si / 1000 Ang^3
#
#
#
# Elastic Constant Matrix: (Units=GPa)
#
#
# Indices 1 2 3 4 5 6 
#
# 1 92.9559 30.7857 26.0887 0.0000 -5.5564 0.0000
# 2 30.7857 72.6413 21.1644 0.0000 3.8310 0.0000
# 3 26.0887 21.1644 80.1710 0.0000 -18.5594 0.0000
# 4 0.0000 0.0000 0.0000 32.7474 0.0000 2.1572
# 5 -5.5564 3.8310 -18.5594 0.0000 29.4159 0.0000
# 6 0.0000 0.0000 0.0000 2.1572 0.0000 27.0266
#
#
#
# Elastic Compliance Matrix: (Units=1/GPa)
#
#
# Indices 1 2 3 4 5 6 
#
# 1 0.013217 -0.004899 -0.002672 0.000000 0.001449 0.000000
# 2 -0.004899 0.017436 -0.004390 0.000000 -0.005966 0.000000
# 3 -0.002672 -0.004390 0.017000 0.000000 0.010793 0.000000
# 4 0.000000 0.000000 0.000000 0.030698 0.000000 -0.002450
# 5 0.001449 -0.005966 0.010793 0.000000 0.041855 0.000000
# 6 0.000000 0.000000 0.000000 -0.002450 0.000000 0.037196
#
#
# Mechanical properties :
#
#
# Convention : Reuss Voigt Hill
#
# Bulk Modulus (GPa) = 42.13920 44.64955 43.39437
# Shear Modulus (GPa) = 26.42200 29.01993 27.72096
#
# Velocity S-wave (km/s) = 3.61476 3.78831 3.70255
# Velocity P-wave (km/s) = 6.18556 6.41994 6.30384
#
# Compressibility (1/GPa) = 0.02373088
#
# Stress axis : x y z
#
# Youngs Moduli (GPa) = 75.66062 57.35194 58.82224
#
# Poissons Ratio (x) = 0.28098 0.15719
# Poissons Ratio (y) = 0.37068 0.25822
# Poissons Ratio (z) = 0.20219 0.25177
#
# Static dielectric constant tensor:
#      x y z
#    x 3.952070 0.000000 -0.186570 
#    y 0.000000 3.916280 0.000000 
#    z -0.186570 0.000000 3.751940 
# 
# 
# High freq. dielectric constant tensor:
#      x y z
#    x 1.790910 0.000000 -0.017660 
#    y 0.000000 1.774010 0.000000 
#    z -0.017660 0.000000 1.782570 
# 
# From -- ./inp_files/209079.got.cif
#   From: 2010.06.25/outbox.cif.g09.slc.cpg/sg15_105_cif.got.tgz:209079.got - 2010.06.28 07:06:18.
