data_PCOD8136263
_publ_section_title
;
Structure prediction by ZEFSAII (Michael W. Deem and Ramdas Pophale) SiO2 
 PCOD8136263
Probable space group: C 2/C
;
_chemical_formula_sum "Si O2"
_cell_formula_units_Z 64
_cell_length_a 26.649521
_cell_length_b 10.551738
_cell_length_c 11.795289
_cell_angle_alpha 90.000000
_cell_angle_beta 88.855650
_cell_angle_gamma 90.000000
_cell_volume 3316.159150
_symmetry_space_group_name_H-M "C 2/C"
_symmetry_group_IT_number 15
_symmetry_cell_setting 'monoclinic'
loop_
_space_group_symop_operation_xyz
x,y,z
-x,y,1/2-z
-x,-y,-z
x,-y,1/2+z
1/2+x,1/2+y,z
1/2-x,1/2+y,1/2-z
1/2-x,1/2-y,-z
1/2+x,1/2-y,1/2+z
loop_
_atom_site_type_symbol
_atom_site_label
_atom_site_fract_x
_atom_site_fract_y
_atom_site_fract_z
Si Si1 0.403912 0.266023 0.630032
Si Si2 0.709237 0.357609 0.381778
Si Si3 0.298881 0.327352 0.366670
Si Si4 0.310687 0.873080 0.053473
Si Si5 0.003304 0.591869 0.887343
Si Si6 0.684230 0.867776 0.046816
Si Si7 0.630290 0.491458 0.002396
Si Si8 0.089602 0.231980 0.120866
O O1 0.348791 0.202466 0.631985
O O2 0.443647 0.158830 0.595794
O O3 0.407076 0.384396 0.543965
O O4 0.415619 0.322740 0.752775
O O5 0.695322 0.292812 0.264395
O O6 0.699265 0.255845 0.477769
O O7 0.767256 0.404947 0.379290
O O8 0.672640 0.476978 0.405768
O O9 0.308223 0.198676 0.433517
O O10 0.243687 0.383174 0.388708
O O11 0.339493 0.436329 0.391721
O O12 0.330590 0.014827 0.032314
O O13 0.000000 0.542235 0.750000
O O14 0.960362 0.694725 0.911682
O O15 0.000000 0.500000 0.000000
O O16 0.635410 0.832454 0.121469
O O17 0.597703 0.614376 0.035906
#
# Coordination Sequence:
#
# PCOD8136263 Si02
#       8
#     8   8   8   8   8   8   8   8
#     4  10  21  37  60  83 113 152 191 239 293 345
#     4  10  20  33  51  75 110 148 182 228 278 331
#     4  10  20  33  51  75 110 148 182 228 278 331
#     4  10  20  35  50  79 107 143 193 230 278 341
#     4  10  22  43  66  92 118 151 195 246 299 348
#     4  10  20  35  50  79 107 143 193 230 278 341
#     4  10  20  37  54  82 116 145 190 226 280 342
#     4  10  21  37  60  83 113 152 191 239 293 345
#
# _framework density 19.299434999999999
#
# number of rings (size 3 to 8) (size 9 to 14) (size 15 to 20)
#    0.000    2.000    1.250    2.250    0.000    2.500 
#    0.000    8.750    0.000    0.000    0.000    0.000 
#    0.000    0.000    0.000    0.000    0.000    0.000 
#
# Total GULP energy -396552.172879 kJ/mol
# GULP energy per Si atom -12392.255402 kJ/mol
# Density = 1.925551 g / cm^3
# Si number density = 19.299435 Si / 1000 Ang^3
#
#
#
# Elastic Constant Matrix: (Units=GPa)
#
#
# Indices 1 2 3 4 5 6 
#
# 1 78.7868 22.4650 25.3414 0.0000 9.0993 0.0000
# 2 22.4650 64.3865 4.4643 0.0000 8.8834 0.0000
# 3 25.3414 4.4643 74.5258 0.0000 14.4757 0.0000
# 4 0.0000 0.0000 0.0000 19.3584 0.0000 -0.4957
# 5 9.0993 8.8834 14.4757 0.0000 21.8087 0.0000
# 6 0.0000 0.0000 0.0000 -0.4957 0.0000 29.1542
#
#
#
# Elastic Compliance Matrix: (Units=1/GPa)
#
#
# Indices 1 2 3 4 5 6 
#
# 1 0.015825 -0.004998 -0.004815 0.000000 -0.001370 0.000000
# 2 -0.004998 0.018043 0.001884 0.000000 -0.006515 0.000000
# 3 -0.004815 0.001884 0.016877 0.000000 -0.009961 0.000000
# 4 0.000000 0.000000 0.000000 0.051680 0.000000 0.000879
# 5 -0.001370 -0.006515 -0.009961 0.000000 0.055690 0.000000
# 6 0.000000 0.000000 0.000000 0.000879 0.000000 0.034315
#
#
# Mechanical properties :
#
#
# Convention : Reuss Voigt Hill
#
# Bulk Modulus (GPa) = 28.66443 35.80449 32.23446
# Shear Modulus (GPa) = 22.73562 25.09282 23.91422
#
# Velocity S-wave (km/s) = 3.43599 3.60972 3.52393
# Velocity P-wave (km/s) = 5.53408 5.99715 5.77026
#
# Compressibility (1/GPa) = 0.03488644
#
# Stress axis : x y z
#
# Youngs Moduli (GPa) = 63.19174 55.42183 59.25054
#
# Poissons Ratio (x) = 0.27703 0.28532
# Poissons Ratio (y) = 0.31586 -0.11164
# Poissons Ratio (z) = 0.30429 -0.10443
#
# Static dielectric constant tensor:
#      x y z
#    x 3.644340 0.000000 0.003200 
#    y 0.000000 3.465040 0.000000 
#    z 0.003200 0.000000 3.640140 
# 
# 
# High freq. dielectric constant tensor:
#      x y z
#    x 1.748660 0.000000 0.003210 
#    y 0.000000 1.744760 0.000000 
#    z 0.003210 0.000000 1.747040 
# 
# From -- ./inp_files/117593.got.cif
#   From: 2010.06.25/outbox.cif.g09.slc.cpg/sg15_59_cif.got.tgz:117593.got - 2010.06.28 07:06:18.
