data_PCOD8136314
_publ_section_title
;
Structure prediction by ZEFSAII (Michael W. Deem and Ramdas Pophale) SiO2 
 PCOD8136314
Probable space group: C 2/C
;
_chemical_formula_sum "Si O2"
_cell_formula_units_Z 48
_cell_length_a 6.222324
_cell_length_b 14.251366
_cell_length_c 26.535752
_cell_angle_alpha 90.000000
_cell_angle_beta 74.519832
_cell_angle_gamma 90.000000
_cell_volume 2267.737029
_symmetry_space_group_name_H-M "C 2/C"
_symmetry_group_IT_number 15
_symmetry_cell_setting 'monoclinic'
loop_
_space_group_symop_operation_xyz
x,y,z
-x,y,1/2-z
-x,-y,-z
x,-y,1/2+z
1/2+x,1/2+y,z
1/2-x,1/2+y,1/2-z
1/2-x,1/2-y,-z
1/2+x,1/2-y,1/2+z
loop_
_atom_site_type_symbol
_atom_site_label
_atom_site_fract_x
_atom_site_fract_y
_atom_site_fract_z
Si Si1 0.332528 0.461341 0.098008
Si Si2 0.587073 0.716656 0.347261
Si Si3 0.593859 0.861068 0.595610
Si Si4 0.148792 0.961174 0.656109
Si Si5 0.432641 0.910335 0.197624
Si Si6 0.313081 0.267651 0.053025
O O1 0.274876 0.557597 0.070903
O O2 0.558791 0.475595 0.115479
O O3 0.368870 0.377564 0.056394
O O4 0.133923 0.438756 0.148942
O O5 0.814703 0.702591 0.364189
O O6 0.531769 0.620513 0.319759
O O7 0.623126 0.800247 0.305450
O O8 0.389949 0.738612 0.398649
O O9 0.371643 0.910940 0.626103
O O10 0.534962 0.793095 0.552404
O O11 0.208876 0.029796 0.698907
O O12 0.500000 0.932632 0.250000
O O13 0.250000 0.250000 0.000000
#
# Coordination Sequence:
#
# PCOD8136314 Si02
#       6
#     8   8   8   8   8   8
#     4   9  19  36  55  73 106 142 173 223 270 322
#     4   9  19  37  54  76 111 142 178 226 272 325
#     4   9  18  35  55  74 106 142 176 219 272 321
#     4   9  18  36  56  75 106 145 175 218 274 325
#     4  10  20  35  54  82 105 136 181 221 275 326
#     4  10  20  33  54  80 105 140 183 223 271 326
#
# _framework density 21.166474000000001
#
# number of rings (size 3 to 8) (size 9 to 14) (size 15 to 20)
#    0.000    2.667    0.000    1.000    0.000    2.000 
#    9.000    7.500    0.000    0.000    0.000    0.000 
#    0.000    0.000    0.000    0.000    0.000    0.000 
#
# Total GULP energy -297469.353830 kJ/mol
# GULP energy per Si atom -12394.556410 kJ/mol
# Density = 2.111830 g / cm^3
# Si number density = 21.166474 Si / 1000 Ang^3
#
#
#
# Elastic Constant Matrix: (Units=GPa)
#
#
# Indices 1 2 3 4 5 6 
#
# 1 105.0839 51.0649 34.6733 0.0000 49.9235 0.0000
# 2 51.0649 140.4380 50.1797 0.0000 37.2432 0.0000
# 3 34.6733 50.1797 77.9053 0.0000 39.5149 0.0000
# 4 0.0000 0.0000 0.0000 18.7942 0.0000 19.7132
# 5 49.9235 37.2432 39.5149 0.0000 42.5518 0.0000
# 6 0.0000 0.0000 0.0000 19.7132 0.0000 38.2046
#
#
#
# Elastic Compliance Matrix: (Units=1/GPa)
#
#
# Indices 1 2 3 4 5 6 
#
# 1 0.023905 -0.002765 0.007826 0.000000 -0.032893 0.000000
# 2 -0.002765 0.010130 -0.004617 0.000000 -0.001334 0.000000
# 3 0.007826 -0.004617 0.028232 0.000000 -0.031357 0.000000
# 4 0.000000 0.000000 0.000000 0.115977 0.000000 -0.059843
# 5 -0.032893 -0.001334 -0.031357 0.000000 0.092378 0.000000
# 6 0.000000 0.000000 0.000000 -0.059843 0.000000 0.057053
#
#
# Mechanical properties :
#
#
# Convention : Reuss Voigt Hill
#
# Bulk Modulus (GPa) = 15.83470 66.14035 40.98753
# Shear Modulus (GPa) = 14.37443 32.41075 23.39259
#
# Velocity S-wave (km/s) = 2.60881 3.91734 3.32802
# Velocity P-wave (km/s) = 4.07084 7.19557 5.84585
#
# Compressibility (1/GPa) = 0.06315243
#
# Stress axis : x y z
#
# Youngs Moduli (GPa) = 41.83306 98.72093 35.42051
#
# Poissons Ratio (x) = 0.27299 -0.27719
# Poissons Ratio (y) = 0.11568 0.16355
# Poissons Ratio (z) = -0.32737 0.45583
#
# Static dielectric constant tensor:
#      x y z
#    x 4.122610 0.000000 0.457820 
#    y 0.000000 4.625910 0.000000 
#    z 0.457820 0.000000 3.307070 
# 
# 
# High freq. dielectric constant tensor:
#      x y z
#    x 1.838930 0.000000 0.033880 
#    y 0.000000 1.856230 0.000000 
#    z 0.033880 0.000000 1.778310 
# 
# From -- ./inp_files/285549.got.cif
#   From: 2010.06.25/outbox.cif.g09.slc.cpg/sg15_143_cif.got.tgz:285549.got - 2010.06.28 07:06:18.
