data_PCOD8136455
_publ_section_title
;
Structure prediction by ZEFSAII (Michael W. Deem and Ramdas Pophale) SiO2 
 PCOD8136455
Probable space group: C 2/C
;
_chemical_formula_sum "Si O2"
_cell_formula_units_Z 64
_cell_length_a 9.116276
_cell_length_b 20.349856
_cell_length_c 19.125661
_cell_angle_alpha 90.000000
_cell_angle_beta 90.000045
_cell_angle_gamma 90.000000
_cell_volume 3548.095162
_symmetry_space_group_name_H-M "C 2/C"
_symmetry_group_IT_number 15
_symmetry_cell_setting 'monoclinic'
loop_
_space_group_symop_operation_xyz
x,y,z
-x,y,1/2-z
-x,-y,-z
x,-y,1/2+z
1/2+x,1/2+y,z
1/2-x,1/2+y,1/2-z
1/2-x,1/2-y,-z
1/2+x,1/2-y,1/2+z
loop_
_atom_site_type_symbol
_atom_site_label
_atom_site_fract_x
_atom_site_fract_y
_atom_site_fract_z
Si Si1 0.169849 0.560779 0.330671
Si Si2 0.169749 0.315532 0.578856
Si Si3 0.829721 0.683153 0.583122
Si Si4 0.830250 0.315533 0.578856
Si Si5 0.329723 0.183153 0.916878
Si Si6 0.170210 0.928921 0.331644
Si Si7 0.829791 0.071078 0.831645
Si Si8 0.330152 0.060779 0.330672
O O1 0.222375 0.622437 0.376195
O O2 0.262900 0.498333 0.355440
O O3 0.199650 0.577938 0.250000
O O4 0.000001 0.544525 0.344370
O O5 0.198048 0.332161 0.498088
O O6 0.265124 0.253866 0.603589
O O7 0.222373 0.377564 0.623804
O O8 1.000000 0.298767 0.592946
O O9 0.748739 0.628564 0.627353
O O10 0.999999 0.682524 0.602462
O O11 0.734873 0.253867 0.603586
O O12 0.801955 0.332164 0.498088
O O13 0.248739 0.128565 0.872646
O O14 0.198262 0.917243 0.250000
O O15 0.000001 0.928861 0.350809
O O16 0.237103 0.998332 0.355441
#
# Coordination Sequence:
#
# PCOD8136455 Si02
#       8
#     8   8   8   8   8   8   8   8
#     4   9  18  34  55  76 100 132 169 208 251 302
#     4   9  19  35  53  76 106 137 170 209 254 302
#     4  10  20  34  53  76 104 137 172 211 252 300
#     4   9  19  35  53  76 106 137 170 209 254 302
#     4  10  20  34  53  76 104 137 172 211 252 300
#     4  10  21  36  53  74 102 134 169 212 258 304
#     4  10  21  36  53  74 102 134 169 212 258 304
#     4   9  18  34  55  76 100 132 169 208 251 302
#
# _framework density 18.037846999999999
#
# number of rings (size 3 to 8) (size 9 to 14) (size 15 to 20)
#    0.000    2.500    0.000    1.500    0.000    5.500 
#    0.000    7.500    0.000    0.000    0.000    0.000 
#    0.000    0.000    0.000    0.000    0.000    0.000 
#
# Total GULP energy -396934.275544 kJ/mol
# GULP energy per Si atom -12404.196111 kJ/mol
# Density = 1.799679 g / cm^3
# Si number density = 18.037847 Si / 1000 Ang^3
#
#
#
# Elastic Constant Matrix: (Units=GPa)
#
#
# Indices 1 2 3 4 5 6 
#
# 1 114.9329 104.9948 59.1973 0.0000 0.0005 0.0000
# 2 104.9948 189.6070 88.6108 0.0000 -0.0005 0.0000
# 3 59.1973 88.6108 66.7436 0.0000 -0.0002 0.0000
# 4 0.0000 0.0000 0.0000 41.7749 0.0000 0.0003
# 5 0.0005 -0.0005 -0.0002 0.0000 27.0702 0.0000
# 6 0.0000 0.0000 0.0000 0.0003 0.0000 41.0100
#
#
#
# Elastic Compliance Matrix: (Units=1/GPa)
#
#
# Indices 1 2 3 4 5 6 
#
# 1 0.018960 -0.006956 -0.007581 0.000000 -0.000001 0.000000
# 2 -0.006956 0.016448 -0.015667 0.000000 0.000000 0.000000
# 3 -0.007581 -0.015667 0.042507 0.000000 0.000000 0.000000
# 4 0.000000 0.000000 0.000000 0.023938 0.000000 0.000000
# 5 -0.000001 0.000000 0.000000 0.000000 0.036941 0.000000
# 6 0.000000 0.000000 0.000000 0.000000 0.000000 0.024384
#
#
# Mechanical properties :
#
#
# Convention : Reuss Voigt Hill
#
# Bulk Modulus (GPa) = 57.12329 97.43213 77.27771
# Shear Modulus (GPa) = 21.79388 29.86972 25.83180
#
# Velocity S-wave (km/s) = 3.47973 4.07375 3.78840
# Velocity P-wave (km/s) = 6.91968 8.73269 7.87851
#
# Compressibility (1/GPa) = 0.01750600
#
# Stress axis : x y z
#
# Youngs Moduli (GPa) = 52.74190 60.79823 23.52566
#
# Poissons Ratio (x) = 0.42292 0.17835
# Poissons Ratio (y) = 0.36688 0.36858
# Poissons Ratio (z) = 0.39985 0.95252
#
# Static dielectric constant tensor:
#      x y z
#    x 3.421930 0.000000 0.000000 
#    y 0.000000 3.422250 0.000000 
#    z 0.000000 0.000000 3.317900 
# 
# 
# High freq. dielectric constant tensor:
#      x y z
#    x 1.704880 0.000000 0.000000 
#    y 0.000000 1.707020 0.000000 
#    z 0.000000 0.000000 1.693550 
# 
# From -- ./inp_files/192161.got.cif
#   From: 2010.06.25/outbox.cif.g09.slc.cpg/sg15_97_cif.got.tgz:192161.got - 2010.06.28 07:06:18.
