data_PCOD8136638
_publ_section_title
;
Structure prediction by ZEFSAII (Michael W. Deem and Ramdas Pophale) SiO2 
 PCOD8136638
Probable space group: C 2/C
;
_chemical_formula_sum "Si O2"
_cell_formula_units_Z 56
_cell_length_a 20.094831
_cell_length_b 8.885230
_cell_length_c 17.863726
_cell_angle_alpha 90.000000
_cell_angle_beta 119.638271
_cell_angle_gamma 90.000000
_cell_volume 2772.216941
_symmetry_space_group_name_H-M "C 2/C"
_symmetry_group_IT_number 15
_symmetry_cell_setting 'monoclinic'
loop_
_space_group_symop_operation_xyz
x,y,z
-x,y,1/2-z
-x,-y,-z
x,-y,1/2+z
1/2+x,1/2+y,z
1/2-x,1/2+y,1/2-z
1/2-x,1/2-y,-z
1/2+x,1/2-y,1/2+z
loop_
_atom_site_type_symbol
_atom_site_label
_atom_site_fract_x
_atom_site_fract_y
_atom_site_fract_z
Si Si1 0.429188 0.899456 0.880811
Si Si2 0.978488 0.063741 0.907867
Si Si3 0.339568 0.605011 0.320215
Si Si4 0.897049 0.538968 0.019468
Si Si5 0.642907 0.623984 0.996512
Si Si6 0.774516 0.405809 0.048598
Si Si7 0.304778 0.071099 0.738930
O O1 0.433085 0.720820 0.892235
O O2 0.390016 0.974043 0.931937
O O3 0.374762 0.951240 0.782007
O O4 0.513717 0.959447 0.910593
O O5 0.060839 0.079444 0.912440
O O6 0.919992 0.955397 0.829204
O O7 0.000000 0.000000 0.000000
O O8 0.352690 0.577602 0.414993
O O9 0.327412 0.776948 0.293433
O O10 0.267053 0.503010 0.256948
O O11 0.852080 0.696232 0.003296
O O12 0.856420 0.433687 0.056772
O O13 0.712176 0.536770 0.993404
O O14 0.785898 0.391181 0.143263
O O15 0.750000 0.250000 0.000000
#
# Coordination Sequence:
#
# PCOD8136638 Si02
#       7
#     8   8   8   8   8   8   8
#     4  10  21  38  66  91 116 164 211 258 313 368
#     4   9  19  34  61  92 119 150 203 263 304 367
#     4  10  20  34  58  88 120 152 205 258 298 365
#     4  10  21  39  63  90 118 158 207 255 310 386
#     4   9  19  39  59  86 115 161 201 249 307 369
#     4  11  26  38  59  90 130 166 203 256 320 375
#     4  11  23  38  58  91 124 163 208 260 314 365
#
# _framework density 20.200438999999999
#
# number of rings (size 3 to 8) (size 9 to 14) (size 15 to 20)
#    0.000    2.000    1.429    1.286   10.000    0.571 
#    0.000    1.429    0.000    1.714    0.000    0.000 
#    0.000    0.000    0.000    0.000    0.000    0.000 
#
# Total GULP energy -346972.049949 kJ/mol
# GULP energy per Si atom -12391.858927 kJ/mol
# Density = 2.015446 g / cm^3
# Si number density = 20.200439 Si / 1000 Ang^3
#
#
#
# Elastic Constant Matrix: (Units=GPa)
#
#
# Indices 1 2 3 4 5 6 
#
# 1 91.0278 42.3590 28.0145 0.0000 16.9021 0.0000
# 2 42.3590 131.8302 48.4928 0.0000 21.6820 0.0000
# 3 28.0145 48.4928 85.3803 0.0000 25.2017 0.0000
# 4 0.0000 0.0000 0.0000 41.8457 0.0000 7.7844
# 5 16.9021 21.6820 25.2017 0.0000 26.6299 0.0000
# 6 0.0000 0.0000 0.0000 7.7844 0.0000 31.8623
#
#
#
# Elastic Compliance Matrix: (Units=1/GPa)
#
#
# Indices 1 2 3 4 5 6 
#
# 1 0.013759 -0.003137 -0.001261 0.000000 -0.004985 0.000000
# 2 -0.003137 0.010571 -0.004193 0.000000 -0.002648 0.000000
# 3 -0.001261 -0.004193 0.018405 0.000000 -0.013203 0.000000
# 4 0.000000 0.000000 0.000000 0.025035 0.000000 -0.006116
# 5 -0.004985 -0.002648 -0.013203 0.000000 0.055366 0.000000
# 6 0.000000 0.000000 0.000000 -0.006116 0.000000 0.032879
#
#
# Mechanical properties :
#
#
# Convention : Reuss Voigt Hill
#
# Bulk Modulus (GPa) = 39.13589 60.66341 49.89965
# Shear Modulus (GPa) = 27.51517 32.69239 30.10378
#
# Velocity S-wave (km/s) = 3.69468 4.02730 3.86457
# Velocity P-wave (km/s) = 6.13325 7.19176 6.68349
#
# Compressibility (1/GPa) = 0.02555199
#
# Stress axis : x y z
#
# Youngs Moduli (GPa) = 72.67779 94.59402 54.33309
#
# Poissons Ratio (x) = 0.29676 0.06853
# Poissons Ratio (y) = 0.22800 0.22784
# Poissons Ratio (z) = 0.09167 0.39667
#
# Static dielectric constant tensor:
#      x y z
#    x 3.862330 0.000000 0.581590 
#    y 0.000000 3.738410 0.000000 
#    z 0.581590 0.000000 3.710640 
# 
# 
# High freq. dielectric constant tensor:
#      x y z
#    x 1.777580 0.000000 0.039620 
#    y 0.000000 1.802800 0.000000 
#    z 0.039620 0.000000 1.773960 
# 
# From -- ./inp_files/251944.got.cif
#   From: 2010.06.25/outbox.cif.g09.slc.cpg/sg15_126_cif.got.tgz:251944.got - 2010.06.28 07:06:18.
