data_PCOD8136958
_publ_section_title
;
Structure prediction by ZEFSAII (Michael W. Deem and Ramdas Pophale) SiO2 
 PCOD8136958
Probable space group: C 2/C
;
_chemical_formula_sum "Si O2"
_cell_formula_units_Z 64
_cell_length_a 8.914291
_cell_length_b 16.312321
_cell_length_c 23.803114
_cell_angle_alpha 90.000000
_cell_angle_beta 111.855978
_cell_angle_gamma 90.000000
_cell_volume 3212.489159
_symmetry_space_group_name_H-M "C 2/C"
_symmetry_group_IT_number 15
_symmetry_cell_setting 'monoclinic'
loop_
_space_group_symop_operation_xyz
x,y,z
-x,y,1/2-z
-x,-y,-z
x,-y,1/2+z
1/2+x,1/2+y,z
1/2-x,1/2+y,1/2-z
1/2-x,1/2-y,-z
1/2+x,1/2-y,1/2+z
loop_
_atom_site_type_symbol
_atom_site_label
_atom_site_fract_x
_atom_site_fract_y
_atom_site_fract_z
Si Si1 0.348712 0.675462 0.188176
Si Si2 0.910166 0.937909 0.912472
Si Si3 0.754305 0.007798 0.503311
Si Si4 0.562761 0.743623 0.129364
Si Si5 0.053395 0.406489 0.066825
Si Si6 0.330009 0.280758 0.255505
Si Si7 0.221606 0.999303 0.325029
Si Si8 0.871638 0.954931 0.303620
O O1 0.500000 0.657640 0.250000
O O2 0.401212 0.735664 0.144913
O O3 0.199692 0.709829 0.203188
O O4 0.290925 0.590830 0.151574
O O5 0.891311 0.844901 0.889061
O O6 0.096847 0.961889 0.946557
O O7 0.831323 0.001254 0.856799
O O8 0.809961 0.945063 0.955546
O O9 0.624202 0.937910 0.472381
O O10 0.678907 0.076769 0.533697
O O11 0.536897 0.809233 0.075911
O O12 0.702554 0.779974 0.187687
O O13 0.117533 0.455032 0.130650
O O14 0.500000 0.268484 0.250000
O O15 0.307756 0.362623 0.289510
O O16 0.220519 0.007272 0.257231
O O17 0.064479 0.947801 0.321387
#
# Coordination Sequence:
#
# PCOD8136958 Si02
#       8
#     8   8   8   8   8   8   8   8
#     4  10  20  35  57  87 126 158 198 244 306 383
#     4  11  23  44  66  88 122 174 218 246 305 389
#     4  10  25  43  64  87 122 175 216 254 304 370
#     4  11  22  39  63  93 123 159 208 265 308 365
#     4  11  22  41  63  92 129 155 209 274 309 351
#     4  11  22  35  58  96 128 157 197 252 318 382
#     4  11  18  38  65  89 120 171 197 242 324 382
#     4  11  18  35  65  89 116 165 202 242 310 387
#
# _framework density 19.922248
#
# number of rings (size 3 to 8) (size 9 to 14) (size 15 to 20)
#    0.000    1.250    6.250    0.750    1.750    2.000 
#    0.000    0.625    0.000    0.000    0.000    0.000 
#    0.000    0.000    0.000    0.000    0.000    0.000 
#
# Total GULP energy -396771.413708 kJ/mol
# GULP energy per Si atom -12399.106678 kJ/mol
# Density = 1.987690 g / cm^3
# Si number density = 19.922248 Si / 1000 Ang^3
#
#
#
# Elastic Constant Matrix: (Units=GPa)
#
#
# Indices 1 2 3 4 5 6 
#
# 1 89.2396 44.2811 35.0309 0.0000 -12.7016 0.0000
# 2 44.2811 134.0458 44.4397 0.0000 -5.8618 0.0000
# 3 35.0309 44.4397 104.5847 0.0000 -8.2466 0.0000
# 4 0.0000 0.0000 0.0000 31.0737 0.0000 -2.5577
# 5 -12.7016 -5.8618 -8.2466 0.0000 22.6370 0.0000
# 6 0.0000 0.0000 0.0000 -2.5577 0.0000 20.0598
#
#
#
# Elastic Compliance Matrix: (Units=1/GPa)
#
#
# Indices 1 2 3 4 5 6 
#
# 1 0.015145 -0.003734 -0.002978 0.000000 0.006446 0.000000
# 2 -0.003734 0.009623 -0.002890 0.000000 -0.000656 0.000000
# 3 -0.002978 -0.002890 0.011939 0.000000 0.001930 0.000000
# 4 0.000000 0.000000 0.000000 0.032523 0.000000 0.004147
# 5 0.006446 -0.000656 0.001930 0.000000 0.048326 0.000000
# 6 0.000000 0.000000 0.000000 0.004147 0.000000 0.050380
#
#
# Mechanical properties :
#
#
# Convention : Reuss Voigt Hill
#
# Bulk Modulus (GPa) = 57.13118 63.93039 60.53079
# Shear Modulus (GPa) = 25.91022 28.36199 27.13610
#
# Velocity S-wave (km/s) = 3.61025 3.77720 3.69467
# Velocity P-wave (km/s) = 6.79101 7.15420 6.97497
#
# Compressibility (1/GPa) = 0.01750358
#
# Stress axis : x y z
#
# Youngs Moduli (GPa) = 66.02808 103.91730 83.75675
#
# Poissons Ratio (x) = 0.38802 0.24943
# Poissons Ratio (y) = 0.24654 0.24206
# Poissons Ratio (z) = 0.19663 0.30032
#
# Static dielectric constant tensor:
#      x y z
#    x 3.562240 0.000000 -0.066750 
#    y 0.000000 3.605180 0.000000 
#    z -0.066750 0.000000 3.818680 
# 
# 
# High freq. dielectric constant tensor:
#      x y z
#    x 1.763650 0.000000 -0.007920 
#    y 0.000000 1.778450 0.000000 
#    z -0.007920 0.000000 1.779470 
# 
# From -- ./inp_files/288814.got.cif
#   From: 2010.06.25/outbox.cif.g09.slc.cpg/sg15_145_cif.got.tgz:288814.got - 2010.06.28 07:06:18.
