data_PCOD8136970
_publ_section_title
;
Structure prediction by ZEFSAII (Michael W. Deem and Ramdas Pophale) SiO2 
 PCOD8136970
Probable space group: C 2/C
;
_chemical_formula_sum "Si O2"
_cell_formula_units_Z 56
_cell_length_a 6.374667
_cell_length_b 24.187393
_cell_length_c 19.104631
_cell_angle_alpha 90.000000
_cell_angle_beta 116.023761
_cell_angle_gamma 90.000000
_cell_volume 2647.021785
_symmetry_space_group_name_H-M "C 2/C"
_symmetry_group_IT_number 15
_symmetry_cell_setting 'monoclinic'
loop_
_space_group_symop_operation_xyz
x,y,z
-x,y,1/2-z
-x,-y,-z
x,-y,1/2+z
1/2+x,1/2+y,z
1/2-x,1/2+y,1/2-z
1/2-x,1/2-y,-z
1/2+x,1/2-y,1/2+z
loop_
_atom_site_type_symbol
_atom_site_label
_atom_site_fract_x
_atom_site_fract_y
_atom_site_fract_z
Si Si1 0.635390 0.323457 0.466711
Si Si2 0.880523 0.722340 0.455154
Si Si3 0.936361 0.161040 0.384103
Si Si4 0.141895 0.067528 0.589126
Si Si5 0.500000 0.036979 0.750000
Si Si6 0.500000 0.141035 0.250000
Si Si7 0.766806 0.554049 0.305132
Si Si8 0.124753 0.953547 0.931493
O O1 0.482831 0.270081 0.417943
O O2 0.616875 0.316746 0.547178
O O3 0.532214 0.381018 0.424116
O O4 0.907481 0.316925 0.485619
O O5 0.750000 0.750000 0.500000
O O6 0.682677 0.684148 0.389053
O O7 0.720406 0.179159 0.303171
O O8 0.938774 0.094054 0.384221
O O9 0.352868 0.075055 0.674748
O O10 0.238446 0.063941 0.523042
O O11 0.006760 0.011309 0.584559
O O12 0.676582 0.001072 0.729590
O O13 0.436948 0.103513 0.308045
O O14 0.500000 0.570250 0.250000
O O15 0.811625 0.543565 0.395179
#
# Coordination Sequence:
#
# PCOD8136970 Si02
#       8
#     8   8   8   8   4   4   8   8
#     4   9  20  39  64  83 115 161 210 262 302 370
#     4   9  19  40  64  83 111 157 216 256 315 365
#     4  10  20  35  57  93 123 156 199 252 313 380
#     4  10  21  39  61  94 127 164 212 259 313 382
#     4  11  22  38  58  86 130 170 214 252 311 380
#     4  11  22  32  58  92 134 156 200 254 321 386
#     4  11  20  37  56  82 131 181 200 242 311 376
#     4  10  20  38  57  91 129 165 212 246 302 383
#
# _framework density 21.155850000000001
#
# number of rings (size 3 to 8) (size 9 to 14) (size 15 to 20)
#    0.000    2.000    2.857    0.857    2.000    0.571 
#    7.714    0.000    9.429    0.000    0.000    0.000 
#    0.000    0.000    0.000    0.000    0.000    0.000 
#
# Total GULP energy -346969.574918 kJ/mol
# GULP energy per Si atom -12391.770533 kJ/mol
# Density = 2.110770 g / cm^3
# Si number density = 21.155850 Si / 1000 Ang^3
#
#
#
# Elastic Constant Matrix: (Units=GPa)
#
#
# Indices 1 2 3 4 5 6 
#
# 1 124.5725 41.4871 59.7941 0.0000 13.9605 0.0000
# 2 41.4871 105.5928 38.9950 0.0000 26.7911 0.0000
# 3 59.7941 38.9950 133.9319 0.0000 17.7449 0.0000
# 4 0.0000 0.0000 0.0000 8.9145 0.0000 7.8135
# 5 13.9605 26.7911 17.7449 0.0000 51.7306 0.0000
# 6 0.0000 0.0000 0.0000 7.8135 0.0000 25.7890
#
#
#
# Elastic Compliance Matrix: (Units=1/GPa)
#
#
# Indices 1 2 3 4 5 6 
#
# 1 0.010903 -0.002757 -0.004048 0.000000 -0.000126 0.000000
# 2 -0.002757 0.012494 -0.001727 0.000000 -0.005134 0.000000
# 3 -0.004048 -0.001727 0.009966 0.000000 -0.001432 0.000000
# 4 0.000000 0.000000 0.000000 0.152737 0.000000 -0.046276
# 5 -0.000126 -0.005134 -0.001432 0.000000 0.022515 0.000000
# 6 0.000000 0.000000 0.000000 -0.046276 0.000000 0.052797
#
#
# Mechanical properties :
#
#
# Convention : Reuss Voigt Hill
#
# Bulk Modulus (GPa) = 61.35111 71.62775 66.48943
# Shear Modulus (GPa) = 17.61134 32.20821 24.90978
#
# Velocity S-wave (km/s) = 2.88836 3.90606 3.43511
# Velocity P-wave (km/s) = 6.33925 7.36707 6.87240
#
# Compressibility (1/GPa) = 0.01629962
#
# Stress axis : x y z
#
# Youngs Moduli (GPa) = 91.71957 80.03995 100.33842
#
# Poissons Ratio (x) = 0.22065 0.40619
# Poissons Ratio (y) = 0.25284 0.17325
# Poissons Ratio (z) = 0.37130 0.13820
#
# Static dielectric constant tensor:
#      x y z
#    x 4.141900 0.000000 0.022320 
#    y 0.000000 3.964520 0.000000 
#    z 0.022320 0.000000 4.026960 
# 
# 
# High freq. dielectric constant tensor:
#      x y z
#    x 1.834600 0.000000 0.004310 
#    y 0.000000 1.817010 0.000000 
#    z 0.004310 0.000000 1.805740 
# 
# From -- ./inp_files/228561.got.cif
#   From: 2010.06.25/outbox.cif.g09.slc.cpg/sg15_115_cif.got.tgz:228561.got - 2010.06.28 07:06:18.
