data_PCOD8136708
_publ_section_title
;
Structure prediction by ZEFSAII (Michael W. Deem and Ramdas Pophale) SiO2 
 PCOD8136708
Probable space group: C 2/C
;
_chemical_formula_sum "Si O2"
_cell_formula_units_Z 48
_cell_length_a 14.089168
_cell_length_b 12.475934
_cell_length_c 13.106298
_cell_angle_alpha 90.000000
_cell_angle_beta 88.559787
_cell_angle_gamma 90.000000
_cell_volume 2303.038709
_symmetry_space_group_name_H-M "C 2/C"
_symmetry_group_IT_number 15
_symmetry_cell_setting 'monoclinic'
loop_
_space_group_symop_operation_xyz
x,y,z
-x,y,1/2-z
-x,-y,-z
x,-y,1/2+z
1/2+x,1/2+y,z
1/2-x,1/2+y,1/2-z
1/2-x,1/2-y,-z
1/2+x,1/2-y,1/2+z
loop_
_atom_site_type_symbol
_atom_site_label
_atom_site_fract_x
_atom_site_fract_y
_atom_site_fract_z
Si Si1 0.934502 0.101267 0.939340
Si Si2 0.066143 0.047446 0.341295
Si Si3 0.263462 0.182463 0.857497
Si Si4 0.297978 0.403502 0.928471
Si Si5 0.782263 0.474666 0.762091
Si Si6 0.108076 0.727543 0.216610
O O1 0.881688 0.197294 0.883615
O O2 0.884282 0.985357 0.928147
O O3 0.942452 0.127505 0.059830
O O4 0.034340 0.073323 0.879679
O O5 0.173792 0.040717 0.301877
O O6 0.000000 0.088394 0.250000
O O7 0.328091 0.286781 0.879801
O O8 0.165973 0.221007 0.808064
O O9 0.317299 0.096213 0.783770
O O10 0.243583 0.114402 0.959275
O O11 0.215000 0.454495 0.859733
O O12 0.849224 0.388063 0.816063
O O13 0.000000 0.710895 0.250000
#
# Coordination Sequence:
#
# PCOD8136708 Si02
#       6
#     8   8   8   8   8   8
#     4  11  21  35  61  94 120 150 205 249 305 350
#     4  11  21  34  60  90 122 146 194 258 294 351
#     4  10  20  38  60  84 123 160 203 243 298 366
#     4  10  20  34  60  90 116 161 196 247 303 352
#     4  11  21  38  60  88 123 158 201 249 299 357
#     4  11  24  38  62  88 120 162 205 249 300 360
#
# _framework density 20.842029
#
# number of rings (size 3 to 8) (size 9 to 14) (size 15 to 20)
#    0.000    1.333    5.000    1.500    2.333    0.667 
#    0.000    0.000    7.333    9.000    0.000    0.000 
#    0.000    0.000    0.000    0.000    0.000    0.000 
#
# Total GULP energy -297346.491085 kJ/mol
# GULP energy per Si atom -12389.437129 kJ/mol
# Density = 2.079459 g / cm^3
# Si number density = 20.842029 Si / 1000 Ang^3
#
#
#
# Elastic Constant Matrix: (Units=GPa)
#
#
# Indices 1 2 3 4 5 6 
#
# 1 66.9921 40.1204 24.0787 0.0000 7.3267 0.0000
# 2 40.1204 141.7327 38.4192 0.0000 12.6472 0.0000
# 3 24.0787 38.4192 122.0290 0.0000 23.3456 0.0000
# 4 0.0000 0.0000 0.0000 28.2460 0.0000 6.6613
# 5 7.3267 12.6472 23.3456 0.0000 20.6945 0.0000
# 6 0.0000 0.0000 0.0000 6.6613 0.0000 29.2601
#
#
#
# Elastic Compliance Matrix: (Units=1/GPa)
#
#
# Indices 1 2 3 4 5 6 
#
# 1 0.018535 -0.004587 -0.001905 0.000000 -0.001610 0.000000
# 2 -0.004587 0.008953 -0.001502 0.000000 -0.002154 0.000000
# 3 -0.001905 -0.001502 0.011144 0.000000 -0.010979 0.000000
# 4 0.000000 0.000000 0.000000 0.037412 0.000000 -0.008517
# 5 -0.001610 -0.002154 -0.010979 0.000000 0.062594 0.000000
# 6 0.000000 0.000000 0.000000 -0.008517 0.000000 0.036115
#
#
# Mechanical properties :
#
#
# Convention : Reuss Voigt Hill
#
# Bulk Modulus (GPa) = 44.16045 59.55451 51.85748
# Shear Modulus (GPa) = 25.21579 30.84914 28.03247
#
# Velocity S-wave (km/s) = 3.48207 3.85143 3.67140
# Velocity P-wave (km/s) = 6.11560 6.95804 6.55038
#
# Compressibility (1/GPa) = 0.02264470
#
# Stress axis : x y z
#
# Youngs Moduli (GPa) = 53.95256 111.69318 89.73438
#
# Poissons Ratio (x) = 0.51229 0.17097
# Poissons Ratio (y) = 0.24746 0.13476
# Poissons Ratio (z) = 0.10280 0.16773
#
# Static dielectric constant tensor:
#      x y z
#    x 3.570750 0.000000 0.252370 
#    y 0.000000 3.987930 0.000000 
#    z 0.252370 0.000000 4.346240 
# 
# 
# High freq. dielectric constant tensor:
#      x y z
#    x 1.779700 0.000000 0.022310 
#    y 0.000000 1.803950 0.000000 
#    z 0.022310 0.000000 1.835190 
# 
# From -- ./inp_files/152042.got.cif
#   From: 2010.06.25/outbox.cif.g09.slc.cpg/sg15_77_cif.got.tgz:152042.got - 2010.06.28 07:06:18.
