data_PCOD8136797
_publ_section_title
;
Structure prediction by ZEFSAII (Michael W. Deem and Ramdas Pophale) SiO2 
 PCOD8136797
Probable space group: C 2/C
;
_chemical_formula_sum "Si O2"
_cell_formula_units_Z 56
_cell_length_a 22.546681
_cell_length_b 20.411418
_cell_length_c 17.542464
_cell_angle_alpha 90.000000
_cell_angle_beta 24.834768
_cell_angle_gamma 90.000000
_cell_volume 3390.772386
_symmetry_space_group_name_H-M "C 2/C"
_symmetry_group_IT_number 15
_symmetry_cell_setting 'monoclinic'
loop_
_space_group_symop_operation_xyz
x,y,z
-x,y,1/2-z
-x,-y,-z
x,-y,1/2+z
1/2+x,1/2+y,z
1/2-x,1/2+y,1/2-z
1/2-x,1/2-y,-z
1/2+x,1/2-y,1/2+z
loop_
_atom_site_type_symbol
_atom_site_label
_atom_site_fract_x
_atom_site_fract_y
_atom_site_fract_z
Si Si1 0.959261 0.119143 0.421951
Si Si2 0.905850 0.249818 0.288049
Si Si3 0.926583 0.551452 0.530844
Si Si4 0.642133 0.130295 0.754533
Si Si5 0.405984 0.994970 0.287520
Si Si6 0.613227 0.553829 0.848828
Si Si7 0.594640 0.516818 0.707290
O O1 0.812272 0.130995 0.549464
O O2 0.928536 0.115702 0.549090
O O3 0.060899 0.179437 0.286545
O O4 0.032858 0.053527 0.304582
O O5 0.750000 0.250000 0.500000
O O6 0.924565 0.302809 0.198930
O O7 0.000000 0.269201 0.250000
O O8 0.910107 0.619880 0.596667
O O9 0.769719 0.528016 0.688243
O O10 0.000000 0.500000 0.500000
O O11 0.026192 0.555910 0.339843
O O12 0.584316 0.070560 0.772778
O O13 0.500000 0.980771 0.250000
O O14 0.248959 0.011563 0.493293
O O15 0.601206 0.566870 0.771803
O O16 0.500000 0.500000 0.000000
O O17 0.500000 0.547320 0.750000
#
# Coordination Sequence:
#
# PCOD8136797 Si02
#       7
#     8   8   8   8   8   8   8
#     4  10  20  36  50  69 103 138 166 199 247 297
#     4  12  22  35  51  74  99 132 175 203 234 287
#     4   9  19  33  48  71 102 131 162 204 253 296
#     4  10  20  35  50  69 103 138 164 204 246 292
#     4  11  19  31  50  78 104 125 165 210 248 295
#     4   9  19  33  50  70  97 135 168 196 248 307
#     4  11  19  32  53  75 103 134 164 202 252 300
#
# _framework density 16.515411
#
# number of rings (size 3 to 8) (size 9 to 14) (size 15 to 20)
#    0.000    1.714    4.286    1.714    2.000    0.000 
#    2.571    0.000    0.000    0.000    0.000    2.000 
#    0.000    0.000    0.000    0.000    0.000    0.000 
#
# Total GULP energy -346955.447048 kJ/mol
# GULP energy per Si atom -12391.265966 kJ/mol
# Density = 1.647782 g / cm^3
# Si number density = 16.515411 Si / 1000 Ang^3
#
#
#
# Elastic Constant Matrix: (Units=GPa)
#
#
# Indices 1 2 3 4 5 6 
#
# 1 134.7049 38.2077 54.0667 -0.0028 -1.6677 -0.0012
# 2 38.2077 54.3339 30.4567 -0.0025 6.8454 0.0007
# 3 54.0667 30.4567 102.5241 -0.0080 -1.6142 0.0057
# 4 -0.0028 -0.0025 -0.0080 22.5223 0.0043 5.4787
# 5 -1.6677 6.8454 -1.6142 0.0043 32.2456 -0.0016
# 6 -0.0012 0.0007 0.0057 5.4787 -0.0016 22.0439
#
#
#
# Elastic Compliance Matrix: (Units=1/GPa)
#
#
# Indices 1 2 3 4 5 6 
#
# 1 0.010555 -0.005404 -0.003938 -0.000002 0.001496 0.000002
# 2 -0.005404 0.025691 -0.004876 0.000002 -0.005978 -0.000001
# 3 -0.003938 -0.004876 0.013303 0.000005 0.001498 -0.000004
# 4 -0.000002 0.000002 0.000005 0.047258 -0.000007 -0.011745
# 5 0.001496 -0.005978 0.001498 -0.000007 0.032433 0.000004
# 6 0.000002 -0.000001 -0.000004 -0.011745 0.000004 0.048283
#
#
# Mechanical properties :
#
#
# Convention : Reuss Voigt Hill
#
# Bulk Modulus (GPa) = 47.36315 59.66946 53.51631
# Shear Modulus (GPa) = 23.47456 26.61781 25.04619
#
# Velocity S-wave (km/s) = 3.77420 4.01895 3.89850
# Velocity P-wave (km/s) = 6.90892 7.59894 7.26213
#
# Compressibility (1/GPa) = 0.02111346
#
# Stress axis : x y z
#
# Youngs Moduli (GPa) = 94.73904 38.92375 75.17372
#
# Poissons Ratio (x) = 0.21034 0.29600
# Poissons Ratio (y) = 0.51195 0.36658
# Poissons Ratio (z) = 0.37304 0.18981
#
# Static dielectric constant tensor:
#      x y z
#    x 3.772180 -0.000020 0.397720 
#    y -0.000020 2.990510 0.000020 
#    z 0.397720 0.000020 3.532110 
# 
# 
# High freq. dielectric constant tensor:
#      x y z
#    x 1.657610 0.000000 -0.002920 
#    y 0.000000 1.578090 0.000000 
#    z -0.002920 0.000000 1.653740 
# 
# From -- ./inp_files/57909.got.cif
#   From: 2010.06.25/outbox.cif.g09.slc.cpg/sg15_29_cif.got.tgz:57909.got - 2010.06.28 07:06:18.
