data_PCOD8136841
_publ_section_title
;
Structure prediction by ZEFSAII (Michael W. Deem and Ramdas Pophale) SiO2 
 PCOD8136841
Probable space group: C 2/C
;
_chemical_formula_sum "Si O2"
_cell_formula_units_Z 64
_cell_length_a 21.149191
_cell_length_b 12.649940
_cell_length_c 13.987163
_cell_angle_alpha 90.000000
_cell_angle_beta 104.511492
_cell_angle_gamma 90.000000
_cell_volume 3622.687857
_symmetry_space_group_name_H-M "C 2/C"
_symmetry_group_IT_number 15
_symmetry_cell_setting 'monoclinic'
loop_
_space_group_symop_operation_xyz
x,y,z
-x,y,1/2-z
-x,-y,-z
x,-y,1/2+z
1/2+x,1/2+y,z
1/2-x,1/2+y,1/2-z
1/2-x,1/2-y,-z
1/2+x,1/2-y,1/2+z
loop_
_atom_site_type_symbol
_atom_site_label
_atom_site_fract_x
_atom_site_fract_y
_atom_site_fract_z
Si Si1 0.228019 0.499703 0.366731
Si Si2 0.237328 0.487924 0.094206
Si Si3 0.387529 0.532933 0.699452
Si Si4 0.450417 0.267807 0.310704
Si Si5 0.640413 0.610987 0.149457
Si Si6 0.539337 0.417240 0.455004
Si Si7 0.328567 0.850743 0.794724
Si Si8 0.281562 0.810110 0.268528
O O1 0.221646 0.511075 0.476896
O O2 0.298121 0.536144 0.352236
O O3 0.173944 0.576079 0.300317
O O4 0.213157 0.380246 0.326063
O O5 0.314335 0.491468 0.139191
O O6 0.202180 0.590393 0.125413
O O7 0.210219 0.382295 0.133845
O O8 0.400100 0.650467 0.742563
O O9 0.404611 0.449515 0.789831
O O10 0.435313 0.518379 0.627708
O O11 0.500000 0.221023 0.250000
O O12 0.492065 0.320764 0.410574
O O13 0.405078 0.176515 0.339610
O O14 0.662070 0.722053 0.203853
O O15 0.599505 0.631226 0.037837
O O16 0.500000 0.500000 0.500000
O O17 0.289091 0.743466 0.760158
#
# Coordination Sequence:
#
# PCOD8136841 Si02
#       8
#     8   8   8   8   8   8   8   8
#     4  10  21  35  56  85 115 146 185 243 288 334
#     4  11  20  34  58  86 116 147 182 243 289 337
#     4  11  19  35  54  85 115 143 183 230 287 329
#     4  10  21  36  57  81 117 153 191 228 275 345
#     4  11  20  36  57  83 116 148 186 232 290 340
#     4  11  23  35  57  81 115 154 184 230 275 352
#     4  10  20  36  57  83 116 148 187 240 287 335
#     4  10  20  35  54  84 116 144 183 243 288 337
#
# _framework density 17.666440999999999
#
# number of rings (size 3 to 8) (size 9 to 14) (size 15 to 20)
#    0.000    1.500    7.500    0.000    0.000    4.500 
#    2.250    0.000    0.000    6.750    0.000    0.000 
#    0.000    0.000    0.000    0.000    0.000    0.000 
#
# Total GULP energy -396707.261581 kJ/mol
# GULP energy per Si atom -12397.101924 kJ/mol
# Density = 1.762623 g / cm^3
# Si number density = 17.666441 Si / 1000 Ang^3
#
#
#
# Elastic Constant Matrix: (Units=GPa)
#
#
# Indices 1 2 3 4 5 6 
#
# 1 93.6161 44.2298 34.7671 0.0000 1.5087 0.0000
# 2 44.2298 79.2323 32.9603 0.0000 -5.6637 0.0000
# 3 34.7671 32.9603 113.4789 0.0000 -11.6440 0.0000
# 4 0.0000 0.0000 0.0000 20.0933 0.0000 3.0297
# 5 1.5087 -5.6637 -11.6440 0.0000 27.9071 0.0000
# 6 0.0000 0.0000 0.0000 3.0297 0.0000 32.0874
#
#
#
# Elastic Compliance Matrix: (Units=1/GPa)
#
#
# Indices 1 2 3 4 5 6 
#
# 1 0.015432 -0.007679 -0.002866 0.000000 -0.003588 0.000000
# 2 -0.007679 0.018217 -0.002629 0.000000 0.003015 0.000000
# 3 -0.002866 -0.002629 0.010881 0.000000 0.004161 0.000000
# 4 0.000000 0.000000 0.000000 0.050487 0.000000 -0.004767
# 5 -0.003588 0.003015 0.004161 0.000000 0.038375 0.000000
# 6 0.000000 0.000000 0.000000 -0.004767 0.000000 0.031615
#
#
# Mechanical properties :
#
#
# Convention : Reuss Voigt Hill
#
# Bulk Modulus (GPa) = 54.99937 56.69353 55.84645
# Shear Modulus (GPa) = 25.32731 27.64224 26.48478
#
# Velocity S-wave (km/s) = 3.79045 3.95989 3.87610
# Velocity P-wave (km/s) = 7.09622 7.28481 7.19113
#
# Compressibility (1/GPa) = 0.01818203
#
# Stress axis : x y z
#
# Youngs Moduli (GPa) = 64.80016 54.89381 91.90455
#
# Poissons Ratio (x) = 0.42153 0.26338
# Poissons Ratio (y) = 0.49760 0.24163
# Poissons Ratio (z) = 0.18571 0.14432
#
# Static dielectric constant tensor:
#      x y z
#    x 3.195920 0.000000 -0.036670 
#    y 0.000000 3.190120 0.000000 
#    z -0.036670 0.000000 3.378780 
# 
# 
# High freq. dielectric constant tensor:
#      x y z
#    x 1.673150 0.000000 -0.001110 
#    y 0.000000 1.669600 0.000000 
#    z -0.001110 0.000000 1.688400 
# 
# From -- ./inp_files/172973.got.cif
#   From: 2010.06.25/outbox.cif.g09.slc.cpg/sg15_87_cif.got.tgz:172973.got - 2010.06.28 07:06:18.
