data_PCOD8136951
_publ_section_title
;
Structure prediction by ZEFSAII (Michael W. Deem and Ramdas Pophale) SiO2 
 PCOD8136951
Probable space group: C 2/C
;
_chemical_formula_sum "Si O2"
_cell_formula_units_Z 64
_cell_length_a 12.568270
_cell_length_b 13.750297
_cell_length_c 19.148508
_cell_angle_alpha 90.000000
_cell_angle_beta 88.047942
_cell_angle_gamma 90.000000
_cell_volume 3307.275838
_symmetry_space_group_name_H-M "C 2/C"
_symmetry_group_IT_number 15
_symmetry_cell_setting 'monoclinic'
loop_
_space_group_symop_operation_xyz
x,y,z
-x,y,1/2-z
-x,-y,-z
x,-y,1/2+z
1/2+x,1/2+y,z
1/2-x,1/2+y,1/2-z
1/2-x,1/2-y,-z
1/2+x,1/2-y,1/2+z
loop_
_atom_site_type_symbol
_atom_site_label
_atom_site_fract_x
_atom_site_fract_y
_atom_site_fract_z
Si Si1 0.369817 0.448881 0.141566
Si Si2 0.098991 0.492587 0.292293
Si Si3 0.748016 0.618281 0.287708
Si Si4 0.747612 0.835868 0.255077
Si Si5 0.734966 0.487945 0.998029
Si Si6 0.611069 0.383674 0.115485
Si Si7 0.568481 0.946801 0.942154
Si Si8 0.624779 0.167282 0.080438
O O1 0.351328 0.551714 0.183337
O O2 0.302672 0.362519 0.180033
O O3 0.491435 0.414418 0.137996
O O4 0.328287 0.464085 0.064017
O O5 0.196638 0.567051 0.279245
O O6 0.133621 0.387709 0.262702
O O7 0.075857 0.483846 0.374484
O O8 0.000000 0.530277 0.250000
O O9 0.713802 0.723797 0.261783
O O10 0.836377 0.629026 0.345770
O O11 0.824753 0.875491 0.314115
O O12 0.654006 0.465532 0.062388
O O13 0.815410 0.570540 0.026612
O O14 0.802593 0.389708 0.977949
O O15 0.628651 0.283070 0.072979
O O16 0.502707 0.850772 0.923128
O O17 0.500000 0.000000 0.000000
#
# Coordination Sequence:
#
# PCOD8136951 Si02
#       8
#     8   8   8   8   8   8   8   8
#     4  10  22  37  58  86 119 153 192 236 295 340
#     4  11  20  36  63  85 110 147 191 237 295 335
#     4   9  20  37  60  84 114 147 192 242 284 336
#     4  10  22  38  59  87 113 148 195 245 280 340
#     4  10  20  38  57  83 121 156 186 236 291 346
#     4  11  20  36  61  86 113 152 198 237 280 345
#     4  10  20  35  57  86 114 145 189 237 285 335
#     4   9  19  34  59  89 110 147 195 243 278 332
#
# _framework density 19.351272999999999
#
# number of rings (size 3 to 8) (size 9 to 14) (size 15 to 20)
#    0.000    2.000    2.500    1.125    3.500    0.000 
#    0.000    3.125    0.000    0.000    0.000    0.000 
#    0.000    0.000    0.000    0.000    0.000    0.000 
#
# Total GULP energy -396541.510585 kJ/mol
# GULP energy per Si atom -12391.922206 kJ/mol
# Density = 1.930723 g / cm^3
# Si number density = 19.351273 Si / 1000 Ang^3
#
#
#
# Elastic Constant Matrix: (Units=GPa)
#
#
# Indices 1 2 3 4 5 6 
#
# 1 61.4739 8.4258 16.9387 0.0000 -11.6915 0.0000
# 2 8.4258 64.7357 14.2776 0.0000 -4.7012 0.0000
# 3 16.9387 14.2776 79.1118 0.0000 -13.9540 0.0000
# 4 0.0000 0.0000 0.0000 24.4883 0.0000 3.6783
# 5 -11.6915 -4.7012 -13.9540 0.0000 28.3660 0.0000
# 6 0.0000 0.0000 0.0000 3.6783 0.0000 22.4006
#
#
#
# Elastic Compliance Matrix: (Units=1/GPa)
#
#
# Indices 1 2 3 4 5 6 
#
# 1 0.018323 -0.001370 -0.002610 0.000000 0.006041 0.000000
# 2 -0.001370 0.016238 -0.002477 0.000000 0.000908 0.000000
# 3 -0.002610 -0.002477 0.014656 0.000000 0.005723 0.000000
# 4 0.000000 0.000000 0.000000 0.041868 0.000000 -0.006875
# 5 0.006041 0.000908 0.005723 0.000000 0.040709 0.000000
# 6 0.000000 0.000000 0.000000 -0.006875 0.000000 0.045770
#
#
# Mechanical properties :
#
#
# Convention : Reuss Voigt Hill
#
# Bulk Modulus (GPa) = 27.54720 31.62284 29.58502
# Shear Modulus (GPa) = 24.68152 26.09630 25.38891
#
# Velocity S-wave (km/s) = 3.57521 3.67625 3.62609
# Velocity P-wave (km/s) = 5.59546 5.86487 5.73175
#
# Compressibility (1/GPa) = 0.03630133
#
# Stress axis : x y z
#
# Youngs Moduli (GPa) = 54.57602 61.58384 68.23276
#
# Poissons Ratio (x) = 0.08440 0.17811
# Poissons Ratio (y) = 0.07479 0.16901
# Poissons Ratio (z) = 0.14246 0.15254
#
# Static dielectric constant tensor:
#      x y z
#    x 3.813450 0.000000 0.079360 
#    y 0.000000 3.525660 0.000000 
#    z 0.079360 0.000000 3.631070 
# 
# 
# High freq. dielectric constant tensor:
#      x y z
#    x 1.750950 0.000000 -0.009350 
#    y 0.000000 1.732010 0.000000 
#    z -0.009350 0.000000 1.763430 
# 
# From -- ./inp_files/198339.got.cif
#   From: 2010.06.25/outbox.cif.g09.slc.cpg/sg15_100_cif.got.tgz:198339.got - 2010.06.28 07:06:18.
