data_PCOD8136741
_publ_section_title
;
Structure prediction by ZEFSAII (Michael W. Deem and Ramdas Pophale) SiO2 
 PCOD8136741
Probable space group: C 2/C
;
_chemical_formula_sum "Si O2"
_cell_formula_units_Z 36
_cell_length_a 9.406364
_cell_length_b 16.006226
_cell_length_c 14.226425
_cell_angle_alpha 90.000000
_cell_angle_beta 139.615058
_cell_angle_gamma 90.000000
_cell_volume 1387.802655
_symmetry_space_group_name_H-M "C 2/C"
_symmetry_group_IT_number 15
_symmetry_cell_setting 'monoclinic'
loop_
_space_group_symop_operation_xyz
x,y,z
-x,y,1/2-z
-x,-y,-z
x,-y,1/2+z
1/2+x,1/2+y,z
1/2-x,1/2+y,1/2-z
1/2-x,1/2-y,-z
1/2+x,1/2-y,1/2+z
loop_
_atom_site_type_symbol
_atom_site_label
_atom_site_fract_x
_atom_site_fract_y
_atom_site_fract_z
Si Si1 0.253641 0.601802 0.360886
Si Si2 0.763025 0.216048 0.609754
Si Si3 0.562708 0.498941 0.884952
Si Si4 0.887062 0.644657 0.512265
Si Si5 0.000000 0.741842 0.750000
O O1 0.286443 0.699940 0.352952
O O2 0.385205 0.578340 0.523132
O O3 0.357316 0.552241 0.325176
O O4 0.000000 0.578859 0.250000
O O5 0.750000 0.250000 0.500000
O O6 0.589900 0.140671 0.540473
O O7 0.000000 0.178248 0.750000
O O8 0.500000 0.529995 0.750000
O O9 0.781577 0.442311 0.989143
O O10 0.009047 0.683010 0.663974
O O11 0.713046 0.701475 0.370100
#
# Coordination Sequence:
#
# PCOD8136741 Si02
#       5
#     8   8   8   8   4
#     4  10  25  48  69 103 146 187 234 300 366 426
#     4  11  25  44  68 101 146 189 228 298 360 419
#     4  11  25  45  75 104 140 189 244 295 358 438
#     4  11  22  40  69 104 137 186 239 291 352 430
#     4  10  20  34  62 100 140 166 230 304 340 406
#
# _framework density 25.940287999999999
#
# number of rings (size 3 to 8) (size 9 to 14) (size 15 to 20)
#    0.000    1.333    1.111    4.000    7.778    1.778 
#    4.000    0.000    0.000    0.000    0.000    0.000 
#    0.000    0.000    0.000    0.000    0.000    0.000 
#
# Total GULP energy -223161.554307 kJ/mol
# GULP energy per Si atom -12397.864128 kJ/mol
# Density = 2.588125 g / cm^3
# Si number density = 25.940288 Si / 1000 Ang^3
#
#
#
# Elastic Constant Matrix: (Units=GPa)
#
#
# Indices 1 2 3 4 5 6 
#
# 1 136.5442 19.9986 49.0920 -0.0002 23.1872 0.0001
# 2 19.9986 91.1141 12.2395 -0.0004 16.9631 0.0001
# 3 49.0920 12.2395 133.2053 -0.0023 -0.8872 -0.0001
# 4 -0.0002 -0.0004 -0.0023 -2.3317 -0.0013 8.2945
# 5 23.1872 16.9631 -0.8872 -0.0013 61.7243 0.0001
# 6 0.0001 0.0001 -0.0001 8.2945 0.0001 15.0281
#
#
#
# Elastic Compliance Matrix: (Units=1/GPa)
#
#
# Indices 1 2 3 4 5 6 
#
# 1 0.009213 -0.000972 -0.003328 0.000002 -0.003242 -0.000001
# 2 -0.000972 0.011828 -0.000748 0.000000 -0.002896 0.000000
# 3 -0.003328 -0.000748 0.008813 -0.000003 0.001582 0.000002
# 4 0.000002 0.000000 -0.000003 -0.144724 -0.000004 0.079878
# 5 -0.003242 -0.002896 0.001582 -0.000004 0.018238 0.000002
# 6 -0.000001 0.000000 0.000002 0.079878 0.000002 0.022455
#
#
# Mechanical properties :
#
#
# Convention : Reuss Voigt Hill
#
# Bulk Modulus (GPa) = 50.60899 58.16932 54.38916
# Shear Modulus (GPa) = -86.96121 33.51970 -26.72075
#
# Velocity S-wave (km/s) = -5.79624 3.59860 -3.21298
# Velocity P-wave (km/s) = 5.02424 6.30393 2.69226
#
# Compressibility (1/GPa) = 0.01975933
#
# Stress axis : x y z
#
# Youngs Moduli (GPa) = 108.54451 84.54355 113.47048
#
# Poissons Ratio (x) = 0.08214 0.37759
# Poissons Ratio (y) = 0.10546 0.08488
# Poissons Ratio (z) = 0.36120 0.06324
#
# Static dielectric constant tensor:
#      x y z
#    x 4.853040 0.000000 -0.108920 
#    y 0.000000 5.125720 0.000000 
#    z -0.108920 0.000000 5.077720 
# 
# 
# High freq. dielectric constant tensor:
#      x y z
#    x 2.050290 0.000000 -0.005280 
#    y 0.000000 2.030180 0.000000 
#    z -0.005280 0.000000 2.051230 
# 
# From -- ./inp_files/136516.got.cif
#   From: 2010.06.25/outbox.cif.g09.slc.cpg/sg15_69_cif.got.tgz:136516.got - 2010.06.28 07:06:18.
