data_PCOD8136875
_publ_section_title
;
Structure prediction by ZEFSAII (Michael W. Deem and Ramdas Pophale) SiO2 
 PCOD8136875
Probable space group: C 2/C
;
_chemical_formula_sum "Si O2"
_cell_formula_units_Z 60
_cell_length_a 18.678658
_cell_length_b 20.863304
_cell_length_c 9.740351
_cell_angle_alpha 90.000000
_cell_angle_beta 60.018886
_cell_angle_gamma 90.000000
_cell_volume 3287.884961
_symmetry_space_group_name_H-M "C 2/C"
_symmetry_group_IT_number 15
_symmetry_cell_setting 'monoclinic'
loop_
_space_group_symop_operation_xyz
x,y,z
-x,y,1/2-z
-x,-y,-z
x,-y,1/2+z
1/2+x,1/2+y,z
1/2-x,1/2+y,1/2-z
1/2-x,1/2-y,-z
1/2+x,1/2-y,1/2+z
loop_
_atom_site_type_symbol
_atom_site_label
_atom_site_fract_x
_atom_site_fract_y
_atom_site_fract_z
Si Si1 0.843679 0.684281 0.798499
Si Si2 0.415959 0.968005 0.535022
Si Si3 0.786461 0.403253 0.830406
Si Si4 0.711193 0.917836 0.370525
Si Si5 0.089543 0.076919 0.195364
Si Si6 0.500000 0.875145 0.250000
Si Si7 0.652641 0.496930 0.378229
Si Si8 0.718809 0.679276 0.160797
O O1 0.809722 0.629795 0.731636
O O2 0.827160 0.754926 0.755388
O O3 0.942040 0.671446 0.715203
O O4 0.799407 0.684550 0.988764
O O5 0.377383 0.925230 0.693606
O O6 0.435278 0.920158 0.391969
O O7 0.500000 0.000000 0.500000
O O8 0.351516 0.022459 0.552027
O O9 0.725818 0.463197 0.877294
O O10 0.749944 0.345845 0.776396
O O11 0.791710 0.379946 0.982589
O O12 0.804122 0.942316 0.255578
O O13 0.092694 0.037599 0.335749
O O14 0.156219 0.133184 0.139534
O O15 0.000000 0.107519 0.250000
O O16 0.102370 0.031229 0.052747
#
# Coordination Sequence:
#
# PCOD8136875 Si02
#       8
#     8   8   8   8   8   4   8   8
#     4  11  23  40  60  82 114 158 199 236 281 343
#     4  11  21  33  55  92 127 150 186 237 304 354
#     4  10  21  36  58  84 117 154 192 236 285 357
#     4  11  21  35  59  84 118 157 187 235 295 352
#     4  11  21  36  59  87 114 145 189 245 292 342
#     4  12  22  38  60  92 118 154 194 248 290 352
#     4  10  20  35  55  86 116 145 186 232 300 344
#     4  10  23  41  59  82 113 157 204 233 279 346
#
# _framework density 18.248812000000001
#
# number of rings (size 3 to 8) (size 9 to 14) (size 15 to 20)
#    0.000    1.333    5.333    1.200    2.800    0.533 
#    0.000    0.000    0.000    0.000    3.467    0.000 
#    0.000    0.000    0.000    0.000    0.000    0.000 
#
# Total GULP energy -371938.236217 kJ/mol
# GULP energy per Si atom -12397.941207 kJ/mol
# Density = 1.820728 g / cm^3
# Si number density = 18.248812 Si / 1000 Ang^3
#
#
#
# Elastic Constant Matrix: (Units=GPa)
#
#
# Indices 1 2 3 4 5 6 
#
# 1 77.4719 15.4319 1.3778 0.0000 -1.6692 0.0000
# 2 15.4319 80.1735 10.1290 0.0000 -1.0056 0.0000
# 3 1.3778 10.1290 56.4820 0.0000 11.6404 0.0000
# 4 0.0000 0.0000 0.0000 25.8617 0.0000 -3.6132
# 5 -1.6692 -1.0056 11.6404 0.0000 23.0873 0.0000
# 6 0.0000 0.0000 0.0000 -3.6132 0.0000 20.1218
#
#
#
# Elastic Compliance Matrix: (Units=1/GPa)
#
#
# Indices 1 2 3 4 5 6 
#
# 1 0.013440 -0.002570 -0.000049 0.000000 0.000885 0.000000
# 2 -0.002570 0.013329 -0.002688 0.000000 0.001750 0.000000
# 3 -0.000049 -0.002688 0.020325 0.000000 -0.010368 0.000000
# 4 0.000000 0.000000 0.000000 0.039662 0.000000 0.007122
# 5 0.000885 0.001750 -0.010368 0.000000 0.048682 0.000000
# 6 0.000000 0.000000 0.000000 0.007122 0.000000 0.050976
#
#
# Mechanical properties :
#
#
# Convention : Reuss Voigt Hill
#
# Bulk Modulus (GPa) = 27.41293 29.77831 28.59562
# Shear Modulus (GPa) = 23.90194 26.29340 25.09767
#
# Velocity S-wave (km/s) = 3.62302 3.79994 3.71253
# Velocity P-wave (km/s) = 5.70579 5.96709 5.83790
#
# Compressibility (1/GPa) = 0.03647913
#
# Stress axis : x y z
#
# Youngs Moduli (GPa) = 74.40652 75.02362 49.20081
#
# Poissons Ratio (x) = 0.19278 0.00243
# Poissons Ratio (y) = 0.19119 0.13227
# Poissons Ratio (z) = 0.00367 0.20169
#
# Static dielectric constant tensor:
#      x y z
#    x 3.454040 0.000000 -0.298690 
#    y 0.000000 3.344860 0.000000 
#    z -0.298690 0.000000 4.009140 
# 
# 
# High freq. dielectric constant tensor:
#      x y z
#    x 1.710890 0.000000 -0.000710 
#    y 0.000000 1.691470 0.000000 
#    z -0.000710 0.000000 1.709020 
# 
# From -- ./inp_files/50636.got.cif
#   From: 2010.06.25/outbox.cif.g09.slc.cpg/sg15_26_cif.got.tgz:50636.got - 2010.06.28 07:06:18.
