data_PCOD8136613
_publ_section_title
;
Structure prediction by ZEFSAII (Michael W. Deem and Ramdas Pophale) SiO2 
 PCOD8136613
Probable space group: C 2/C
;
_chemical_formula_sum "Si O2"
_cell_formula_units_Z 40
_cell_length_a 11.440377
_cell_length_b 31.423426
_cell_length_c 4.922302
_cell_angle_alpha 90.000000
_cell_angle_beta 65.176217
_cell_angle_gamma 90.000000
_cell_volume 1606.046762
_symmetry_space_group_name_H-M "C 2/C"
_symmetry_group_IT_number 15
_symmetry_cell_setting 'monoclinic'
loop_
_space_group_symop_operation_xyz
x,y,z
-x,y,1/2-z
-x,-y,-z
x,-y,1/2+z
1/2+x,1/2+y,z
1/2-x,1/2+y,1/2-z
1/2-x,1/2-y,-z
1/2+x,1/2-y,1/2+z
loop_
_atom_site_type_symbol
_atom_site_label
_atom_site_fract_x
_atom_site_fract_y
_atom_site_fract_z
Si Si1 0.735875 0.881809 0.600707
Si Si2 0.500000 0.162674 0.250000
Si Si3 0.500000 0.299000 0.250000
Si Si4 0.649401 0.972312 0.600582
Si Si5 0.125756 0.265669 0.299573
Si Si6 0.175754 0.834032 0.492953
O O1 0.594415 0.866688 0.840806
O O2 0.741677 0.932927 0.593042
O O3 0.749890 0.866320 0.277041
O O4 0.837738 0.858492 0.704018
O O5 0.408759 0.189823 0.530448
O O6 0.373017 0.270909 0.464531
O O7 0.539071 0.326731 0.476006
O O8 0.500000 0.958253 0.750000
O O9 0.681308 0.988634 0.268793
O O10 0.261238 0.284541 0.022802
O O11 0.000000 0.252280 0.250000
#
# Coordination Sequence:
#
# PCOD8136613 Si02
#       6
#     8   4   4   8   8   8
#     4  11  21  38  60  86 122 158 193 234 289 368
#     4   9  18  34  52  86 116 154 196 226 288 350
#     4  11  26  40  56  84 120 152 212 264 286 342
#     4  10  20  34  57  93 127 155 181 230 300 362
#     4  10  20  37  59  80 115 157 196 250 300 353
#     4  11  25  39  60  87 114 166 200 245 301 343
#
# _framework density 24.905875000000002
#
# number of rings (size 3 to 8) (size 9 to 14) (size 15 to 20)
#    0.000    1.600    3.000    1.800    2.800    0.800 
#    0.000    0.000    0.000    0.000    0.000   14.000 
#    0.000    0.000    0.000    0.000    0.000    0.000 
#
# Total GULP energy -247779.897982 kJ/mol
# GULP energy per Si atom -12388.994899 kJ/mol
# Density = 2.484919 g / cm^3
# Si number density = 24.905875 Si / 1000 Ang^3
#
#
#
# Elastic Constant Matrix: (Units=GPa)
#
#
# Indices 1 2 3 4 5 6 
#
# 1 84.3762 29.1323 4.8968 0.0000 13.1296 0.0000
# 2 29.1323 144.7722 14.6573 0.0000 21.1236 0.0000
# 3 4.8968 14.6573 89.0518 0.0000 25.9502 0.0000
# 4 0.0000 0.0000 0.0000 15.2919 0.0000 8.8116
# 5 13.1296 21.1236 25.9502 0.0000 33.4153 0.0000
# 6 0.0000 0.0000 0.0000 8.8116 0.0000 18.7743
#
#
#
# Elastic Compliance Matrix: (Units=1/GPa)
#
#
# Indices 1 2 3 4 5 6 
#
# 1 0.013236 -0.002085 0.000965 0.000000 -0.004632 0.000000
# 2 -0.002085 0.007940 0.000041 0.000000 -0.004232 0.000000
# 3 0.000965 0.000041 0.014589 0.000000 -0.011735 0.000000
# 4 0.000000 0.000000 0.000000 0.089635 0.000000 -0.042070
# 5 -0.004632 -0.004232 -0.011735 0.000000 0.043535 0.000000
# 6 0.000000 0.000000 0.000000 -0.042070 0.000000 0.073009
#
#
# Mechanical properties :
#
#
# Convention : Reuss Voigt Hill
#
# Bulk Modulus (GPa) = 29.75505 46.17478 37.96491
# Shear Modulus (GPa) = 19.58425 31.46388 25.52407
#
# Velocity S-wave (km/s) = 2.80720 3.55817 3.20476
# Velocity P-wave (km/s) = 4.74132 5.95489 5.38242
#
# Compressibility (1/GPa) = 0.03360774
#
# Stress axis : x y z
#
# Youngs Moduli (GPa) = 75.54871 125.93851 68.54344
#
# Poissons Ratio (x) = 0.26263 -0.06616
# Poissons Ratio (y) = 0.15755 -0.00281
# Poissons Ratio (z) = -0.07292 -0.00516
#
# Static dielectric constant tensor:
#      x y z
#    x 4.448180 0.000000 -0.061170 
#    y 0.000000 4.281080 0.000000 
#    z -0.061170 0.000000 4.954250 
# 
# 
# High freq. dielectric constant tensor:
#      x y z
#    x 1.977150 0.000000 0.000130 
#    y 0.000000 1.982390 0.000000 
#    z 0.000130 0.000000 2.009830 
# 
# From -- ./inp_files/4958.got.cif
#   From: 2010.06.25/outbox.cif.g09.slc.cpg/sg15_3_cif.got.tgz:4958.got - 2010.06.28 07:06:18.
