data_PCOD8136089
_publ_section_title
;
Structure prediction by ZEFSAII (Michael W. Deem and Ramdas Pophale) SiO2 
 PCOD8136089
Probable space group: C 2/C
;
_chemical_formula_sum "Si O2"
_cell_formula_units_Z 56
_cell_length_a 17.812051
_cell_length_b 22.538396
_cell_length_c 13.766539
_cell_angle_alpha 90.000000
_cell_angle_beta 31.731793
_cell_angle_gamma 90.000000
_cell_volume 2906.704911
_symmetry_space_group_name_H-M "C 2/C"
_symmetry_group_IT_number 15
_symmetry_cell_setting 'monoclinic'
loop_
_space_group_symop_operation_xyz
x,y,z
-x,y,1/2-z
-x,-y,-z
x,-y,1/2+z
1/2+x,1/2+y,z
1/2-x,1/2+y,1/2-z
1/2-x,1/2-y,-z
1/2+x,1/2-y,1/2+z
loop_
_atom_site_type_symbol
_atom_site_label
_atom_site_fract_x
_atom_site_fract_y
_atom_site_fract_z
Si Si1 0.159540 0.305513 0.067905
Si Si2 0.950696 0.045769 0.415801
Si Si3 0.508720 0.315808 0.350839
Si Si4 0.752977 0.759449 0.306678
Si Si5 0.376611 0.572422 0.090729
Si Si6 0.793368 0.639122 0.791448
Si Si7 0.117268 0.355361 0.907704
O O1 0.194368 0.356358 0.106576
O O2 0.000000 0.281413 0.250000
O O3 0.250000 0.250000 0.000000
O O4 0.184412 0.335636 0.937298
O O5 0.823276 0.088006 0.595805
O O6 0.000000 0.057962 0.250000
O O7 0.083439 0.053460 0.343320
O O8 0.897833 0.978404 0.486637
O O9 0.500000 0.336041 0.250000
O O10 0.404668 0.260154 0.487970
O O11 0.673153 0.298960 0.191081
O O12 0.470574 0.370613 0.461012
O O13 0.751260 0.798388 0.209339
O O14 0.857325 0.702895 0.184433
O O15 0.209474 0.588910 0.270089
O O16 0.953681 0.623180 0.579181
#
# Coordination Sequence:
#
# PCOD8136089 Si02
#       7
#     8   8   8   8   8   8   8
#     4  10  20  30  51  85 121 157 188 227 287 350
#     4  11  23  41  63  87 113 154 204 248 295 345
#     4  11  22  38  59  86 118 155 195 245 296 354
#     4  11  20  35  57  86 119 154 192 241 296 353
#     4  10  23  40  63  85 115 154 201 248 291 352
#     4  11  21  36  57  85 123 155 195 244 290 355
#     4  10  21  37  56  88 124 158 194 235 301 350
#
# _framework density 19.265802000000001
#
# number of rings (size 3 to 8) (size 9 to 14) (size 15 to 20)
#    0.000    1.429    4.286    1.714    0.000    2.286 
#    0.000    0.000    0.000    0.000    0.000    0.000 
#    0.000    0.000    0.000    0.000    0.000    0.000 
#
# Total GULP energy -347038.679144 kJ/mol
# GULP energy per Si atom -12394.238541 kJ/mol
# Density = 1.922195 g / cm^3
# Si number density = 19.265802 Si / 1000 Ang^3
#
#
#
# Elastic Constant Matrix: (Units=GPa)
#
#
# Indices 1 2 3 4 5 6 
#
# 1 66.6658 10.5151 18.4572 0.0533 4.0873 -0.0076
# 2 10.5151 85.0300 45.1061 0.0537 -13.1421 -0.0183
# 3 18.4572 45.1061 80.3428 0.1171 -8.5611 -0.0422
# 4 0.0533 0.0537 0.1171 14.8065 -0.0762 -2.6160
# 5 4.0873 -13.1421 -8.5611 -0.0762 32.5388 0.0211
# 6 -0.0076 -0.0183 -0.0422 -2.6160 0.0211 19.5173
#
#
#
# Elastic Compliance Matrix: (Units=1/GPa)
#
#
# Indices 1 2 3 4 5 6 
#
# 1 0.016336 -0.000497 -0.003821 -0.000044 -0.003258 -0.000005
# 2 -0.000497 0.017404 -0.009158 0.000034 0.004682 -0.000004
# 3 -0.003821 -0.009158 0.018646 -0.000089 0.001687 0.000017
# 4 -0.000044 0.000034 -0.000089 0.069178 0.000152 0.009272
# 5 -0.003258 0.004682 0.001687 0.000152 0.033477 -0.000009
# 6 -0.000005 -0.000004 0.000017 0.009272 -0.000009 0.052479
#
#
# Mechanical properties :
#
#
# Convention : Reuss Voigt Hill
#
# Bulk Modulus (GPa) = 39.31701 42.24392 40.78046
# Shear Modulus (GPa) = 20.58047 23.90321 22.24184
#
# Velocity S-wave (km/s) = 3.27194 3.52619 3.40144
# Velocity P-wave (km/s) = 5.89288 6.20912 6.05307
#
# Compressibility (1/GPa) = 0.02543429
#
# Stress axis : x y z
#
# Youngs Moduli (GPa) = 61.21351 57.45949 53.63156
#
# Poissons Ratio (x) = 0.02854 0.20494
# Poissons Ratio (y) = 0.03041 0.49114
# Poissons Ratio (z) = 0.23391 0.52620
#
# Static dielectric constant tensor:
#      x y z
#    x 3.589290 -0.000040 -0.128460 
#    y -0.000040 3.339220 0.000110 
#    z -0.128460 0.000110 3.602670 
# 
# 
# High freq. dielectric constant tensor:
#      x y z
#    x 1.754180 0.000000 -0.007560 
#    y 0.000000 1.736230 0.000000 
#    z -0.007560 0.000000 1.746660 
# 
# From -- ./inp_files/51477.got.cif
#   From: 2010.06.25/outbox.cif.g09.slc.cpg/sg15_26_cif.got.tgz:51477.got - 2010.06.28 07:06:18.
