data_PCOD8136373
_publ_section_title
;
Structure prediction by ZEFSAII (Michael W. Deem and Ramdas Pophale) SiO2 
 PCOD8136373
Probable space group: C 2/C
;
_chemical_formula_sum "Si O2"
_cell_formula_units_Z 48
_cell_length_a 11.671963
_cell_length_b 19.081819
_cell_length_c 14.852910
_cell_angle_alpha 90.000000
_cell_angle_beta 139.617034
_cell_angle_gamma 90.000000
_cell_volume 2143.279573
_symmetry_space_group_name_H-M "C 2/C"
_symmetry_group_IT_number 15
_symmetry_cell_setting 'monoclinic'
loop_
_space_group_symop_operation_xyz
x,y,z
-x,y,1/2-z
-x,-y,-z
x,-y,1/2+z
1/2+x,1/2+y,z
1/2-x,1/2+y,1/2-z
1/2-x,1/2-y,-z
1/2+x,1/2-y,1/2+z
loop_
_atom_site_type_symbol
_atom_site_label
_atom_site_fract_x
_atom_site_fract_y
_atom_site_fract_z
Si Si1 0.704324 0.482822 0.008916
Si Si2 0.704214 0.339148 0.666269
Si Si3 0.132769 0.683026 0.652966
Si Si4 0.745599 0.138678 0.104302
Si Si5 0.086974 0.916419 0.117226
Si Si6 0.000000 0.254034 0.250000
Si Si7 0.500000 0.079356 0.250000
O O1 0.706780 0.448600 0.109638
O O2 0.873922 0.533544 0.109692
O O3 0.724227 0.429899 0.937640
O O4 0.517957 0.524594 0.888407
O O5 0.709232 0.255224 0.659748
O O6 0.660906 0.366976 0.741427
O O7 0.550761 0.363146 0.508532
O O8 0.891033 0.370594 0.750464
O O9 0.285343 0.624483 0.737540
O O10 0.076281 0.693533 0.722160
O O11 0.959599 0.655063 0.497980
O O12 0.842480 0.204955 0.114953
#
# Coordination Sequence:
#
# PCOD8136373 Si02
#       7
#     8   8   8   8   8   4   4
#     4  10  20  37  59  84 114 157 197 231 288 350
#     4  10  22  39  59  85 117 153 192 245 296 340
#     4  11  20  36  60  90 118 151 197 237 287 347
#     4  11  21  35  60  91 117 146 197 250 283 335
#     4  10  21  38  60  84 122 160 187 233 295 352
#     4  10  20  33  58  89 122 152 182 246 304 330
#     4  10  22  41  60  79 118 164 190 230 300 362
#
# _framework density 22.395585000000001
#
# number of rings (size 3 to 8) (size 9 to 14) (size 15 to 20)
#    0.000    1.667    0.000    6.500    0.000    0.667 
#    0.000   10.833    0.000    0.000    0.000    0.000 
#    0.000    0.000    0.000    0.000    0.000    0.000 
#
# Total GULP energy -297589.223266 kJ/mol
# GULP energy per Si atom -12399.550969 kJ/mol
# Density = 2.234461 g / cm^3
# Si number density = 22.395585 Si / 1000 Ang^3
#
#
#
# Elastic Constant Matrix: (Units=GPa)
#
#
# Indices 1 2 3 4 5 6 
#
# 1 60.6294 25.3514 15.3869 -0.0003 14.7343 -0.0001
# 2 25.3514 96.4169 30.9298 -0.0003 10.5822 -0.0001
# 3 15.3869 30.9298 87.1488 -0.0005 22.5267 0.0000
# 4 -0.0003 -0.0003 -0.0005 34.3629 -0.0003 7.7104
# 5 14.7343 10.5822 22.5267 -0.0003 32.3085 0.0000
# 6 -0.0001 -0.0001 0.0000 7.7104 0.0000 44.7120
#
#
#
# Elastic Compliance Matrix: (Units=1/GPa)
#
#
# Indices 1 2 3 4 5 6 
#
# 1 0.020252 -0.004479 0.000027 0.000000 -0.007788 0.000000
# 2 -0.004479 0.012729 -0.003876 0.000000 0.000576 0.000000
# 3 0.000027 -0.003876 0.015273 0.000000 -0.009392 0.000000
# 4 0.000000 0.000000 0.000000 0.030273 0.000000 -0.005220
# 5 -0.007788 0.000576 -0.009392 0.000000 0.040863 0.000000
# 6 0.000000 0.000000 0.000000 -0.005220 0.000000 0.023266
#
#
# Mechanical properties :
#
#
# Convention : Reuss Voigt Hill
#
# Bulk Modulus (GPa) = 31.64644 43.05905 37.35274
# Shear Modulus (GPa) = 29.43874 33.77849 31.60862
#
# Velocity S-wave (km/s) = 3.62952 3.88785 3.76091
# Velocity P-wave (km/s) = 5.63257 6.27871 5.96440
#
# Compressibility (1/GPa) = 0.03159913
#
# Stress axis : x y z
#
# Youngs Moduli (GPa) = 49.37737 78.55817 65.47488
#
# Poissons Ratio (x) = 0.35185 -0.00176
# Poissons Ratio (y) = 0.22116 0.25376
# Poissons Ratio (z) = -0.00133 0.30447
#
# Static dielectric constant tensor:
#      x y z
#    x 3.919060 0.000000 0.364710 
#    y 0.000000 4.099350 0.000000 
#    z 0.364710 0.000000 3.981870 
# 
# 
# High freq. dielectric constant tensor:
#      x y z
#    x 1.863950 0.000000 0.024920 
#    y 0.000000 1.889780 0.000000 
#    z 0.024920 0.000000 1.880450 
# 
# From -- ./inp_files/206747.got.cif
#   From: 2010.06.25/outbox.cif.g09.slc.cpg/sg15_104_cif.got.tgz:206747.got - 2010.06.28 07:06:18.
