data_PCOD8136070
_publ_section_title
;
Structure prediction by ZEFSAII (Michael W. Deem and Ramdas Pophale) SiO2 
 PCOD8136070
Probable space group: C 2/C
;
_chemical_formula_sum "Si O2"
_cell_formula_units_Z 44
_cell_length_a 16.194511
_cell_length_b 20.214770
_cell_length_c 7.903300
_cell_angle_alpha 90.000000
_cell_angle_beta 79.108484
_cell_angle_gamma 90.000000
_cell_volume 2540.684379
_symmetry_space_group_name_H-M "C 2/C"
_symmetry_group_IT_number 15
_symmetry_cell_setting 'monoclinic'
loop_
_space_group_symop_operation_xyz
x,y,z
-x,y,1/2-z
-x,-y,-z
x,-y,1/2+z
1/2+x,1/2+y,z
1/2-x,1/2+y,1/2-z
1/2-x,1/2-y,-z
1/2+x,1/2-y,1/2+z
loop_
_atom_site_type_symbol
_atom_site_label
_atom_site_fract_x
_atom_site_fract_y
_atom_site_fract_z
Si Si1 0.169342 0.206419 0.501555
Si Si2 0.748728 0.339324 0.651960
Si Si3 0.500000 0.014354 0.750000
Si Si4 0.582709 0.908190 0.951209
Si Si5 0.503113 0.775172 0.448797
Si Si6 0.653158 0.298311 0.380003
O O1 0.250000 0.250000 0.500000
O O2 0.188574 0.154272 0.342023
O O3 0.149868 0.171004 0.690324
O O4 0.095563 0.256517 0.475695
O O5 0.819397 0.395699 0.624616
O O6 0.694459 0.348110 0.500672
O O7 0.792656 0.268322 0.639339
O O8 0.569462 0.063553 0.643950
O O9 0.552993 0.967930 0.849088
O O10 0.526409 0.842317 0.946023
O O11 0.500000 0.785950 0.250000
O O12 0.441653 0.715559 0.524187
#
# Coordination Sequence:
#
# PCOD8136070 Si02
#       6
#     8   8   4   8   8   8
#     4  10  20  29  47  76 101 136 174 204 248 331
#     4   9  18  33  47  72  99 130 166 214 259 295
#     4  10  22  38  48  70  96 140 196 220 244 308
#     4  10  22  35  52  70 100 143 178 222 257 293
#     4  11  19  32  51  73 109 148 166 205 266 306
#     4   9  18  30  47  72 102 132 170 198 247 331
#
# _framework density 17.318169999999999
#
# number of rings (size 3 to 8) (size 9 to 14) (size 15 to 20)
#    0.000    2.182    2.727    0.545   10.182    0.000 
#    3.273    0.000    0.000    0.000    0.000    0.000 
#    0.000    5.818    0.000    0.000    0.000    0.000 
#
# Total GULP energy -272611.366679 kJ/mol
# GULP energy per Si atom -12391.425758 kJ/mol
# Density = 1.727875 g / cm^3
# Si number density = 17.318170 Si / 1000 Ang^3
#
#
#
# Elastic Constant Matrix: (Units=GPa)
#
#
# Indices 1 2 3 4 5 6 
#
# 1 109.1374 36.6497 36.2409 0.0000 -1.2670 0.0000
# 2 36.6497 45.7180 28.3729 0.0000 -7.7066 0.0000
# 3 36.2409 28.3729 122.1426 0.0000 1.6515 0.0000
# 4 0.0000 0.0000 0.0000 42.3715 0.0000 -14.6389
# 5 -1.2670 -7.7066 1.6515 0.0000 29.5365 0.0000
# 6 0.0000 0.0000 0.0000 -14.6389 0.0000 22.6649
#
#
#
# Elastic Compliance Matrix: (Units=1/GPa)
#
#
# Indices 1 2 3 4 5 6 
#
# 1 0.012917 -0.009711 -0.001551 0.000000 -0.001893 0.000000
# 2 -0.009711 0.034395 -0.005228 0.000000 0.008850 0.000000
# 3 -0.001551 -0.005228 0.009889 0.000000 -0.001983 0.000000
# 4 0.000000 0.000000 0.000000 0.030380 0.000000 0.019622
# 5 -0.001893 0.008850 -0.001983 0.000000 0.036195 0.000000
# 6 0.000000 0.000000 0.000000 0.019622 0.000000 0.056795
#
#
# Mechanical properties :
#
#
# Convention : Reuss Voigt Hill
#
# Bulk Modulus (GPa) = 41.28897 53.28053 47.28475
# Shear Modulus (GPa) = 22.56072 30.63020 26.59546
#
# Velocity S-wave (km/s) = 3.61324 4.21012 3.92305
# Velocity P-wave (km/s) = 6.42654 7.38011 6.91977
#
# Compressibility (1/GPa) = 0.02421954
#
# Stress axis : x y z
#
# Youngs Moduli (GPa) = 77.41696 29.07436 101.12662
#
# Poissons Ratio (x) = 0.28235 0.15686
# Poissons Ratio (y) = 0.75183 0.52867
# Poissons Ratio (z) = 0.12008 0.15200
#
# Static dielectric constant tensor:
#      x y z
#    x 3.261320 0.000000 -0.094570 
#    y 0.000000 2.738660 0.000000 
#    z -0.094570 0.000000 4.145240 
# 
# 
# High freq. dielectric constant tensor:
#      x y z
#    x 1.668180 0.000000 -0.001220 
#    y 0.000000 1.596770 0.000000 
#    z -0.001220 0.000000 1.698590 
# 
# From -- ./inp_files/39172.got.cif
#   From: 2010.06.25/outbox.cif.g09.slc.cpg/sg15_20_cif.got.tgz:39172.got - 2010.06.28 07:06:18.
