data_PCOD8136715
_publ_section_title
;
Structure prediction by ZEFSAII (Michael W. Deem and Ramdas Pophale) SiO2 
 PCOD8136715
Probable space group: C 2/C
;
_chemical_formula_sum "Si O2"
_cell_formula_units_Z 52
_cell_length_a 21.822408
_cell_length_b 7.736375
_cell_length_c 14.940319
_cell_angle_alpha 90.000000
_cell_angle_beta 72.960663
_cell_angle_gamma 90.000000
_cell_volume 2411.599020
_symmetry_space_group_name_H-M "C 2/C"
_symmetry_group_IT_number 15
_symmetry_cell_setting 'monoclinic'
loop_
_space_group_symop_operation_xyz
x,y,z
-x,y,1/2-z
-x,-y,-z
x,-y,1/2+z
1/2+x,1/2+y,z
1/2-x,1/2+y,1/2-z
1/2-x,1/2-y,-z
1/2+x,1/2-y,1/2+z
loop_
_atom_site_type_symbol
_atom_site_label
_atom_site_fract_x
_atom_site_fract_y
_atom_site_fract_z
Si Si1 0.643023 0.250343 0.194576
Si Si2 0.806414 0.550321 0.952605
Si Si3 0.500000 0.174790 0.250000
Si Si4 0.050696 0.124644 0.021406
Si Si5 0.018929 0.433741 0.395976
Si Si6 0.636096 0.885917 0.880764
Si Si7 0.170846 0.935097 0.573893
O O1 0.565870 0.281298 0.236869
O O2 0.673289 0.191292 0.277710
O O3 0.675192 0.434218 0.155947
O O4 0.659599 0.108447 0.111071
O O5 0.820576 0.557195 0.054103
O O6 0.729535 0.531119 0.979724
O O7 0.828747 0.731950 0.897974
O O8 0.483602 0.054144 0.340489
O O9 0.104421 0.018120 0.052423
O O10 0.008651 0.242106 0.107419
O O11 0.085387 0.239677 0.931802
O O12 0.000000 0.000000 0.000000
O O13 0.096549 0.448583 0.358107
O O14 0.000000 0.500000 0.500000
#
# Coordination Sequence:
#
# PCOD8136715 Si02
#       7
#     8   8   4   8   8   8   8
#     4  11  22  40  66  97 125 172 210 264 323 381
#     4  10  22  47  64  89 132 173 214 263 319 378
#     4  10  20  34  60  92 128 152 208 258 310 388
#     4  10  21  37  60  92 126 164 207 265 318 374
#     4   9  18  35  58  81 122 165 190 247 321 364
#     4   9  21  40  61  94 124 163 216 260 315 388
#     4  10  23  41  66  89 125 172 215 265 316 378
#
# _framework density 21.562456000000001
#
# number of rings (size 3 to 8) (size 9 to 14) (size 15 to 20)
#    0.000    2.154    0.000    3.231    8.615    0.000 
#   16.615    0.769    0.000    0.000    0.000    0.000 
#    0.000    0.000    0.000    0.000    0.000    0.000 
#
# Total GULP energy -322114.897526 kJ/mol
# GULP energy per Si atom -12389.034520 kJ/mol
# Density = 2.151338 g / cm^3
# Si number density = 21.562456 Si / 1000 Ang^3
#
#
#
# Elastic Constant Matrix: (Units=GPa)
#
#
# Indices 1 2 3 4 5 6 
#
# 1 77.6039 33.8144 19.7502 0.0000 -1.3335 0.0000
# 2 33.8144 89.7585 44.1534 0.0000 -4.3603 0.0000
# 3 19.7502 44.1534 100.6292 0.0000 18.9504 0.0000
# 4 0.0000 0.0000 0.0000 35.3005 0.0000 -3.2108
# 5 -1.3335 -4.3603 18.9504 0.0000 32.4918 0.0000
# 6 0.0000 0.0000 0.0000 -3.2108 0.0000 24.5914
#
#
#
# Elastic Compliance Matrix: (Units=1/GPa)
#
#
# Indices 1 2 3 4 5 6 
#
# 1 0.015448 -0.005465 -0.000691 0.000000 0.000304 0.000000
# 2 -0.005465 0.017358 -0.007796 0.000000 0.006652 0.000000
# 3 -0.000691 -0.007796 0.015386 0.000000 -0.010048 0.000000
# 4 0.000000 0.000000 0.000000 0.028669 0.000000 0.003743
# 5 0.000304 0.006652 -0.010048 0.000000 0.037543 0.000000
# 6 0.000000 0.000000 0.000000 0.003743 0.000000 0.041153
#
#
# Mechanical properties :
#
#
# Convention : Reuss Voigt Hill
#
# Bulk Modulus (GPa) = 49.29179 51.49193 50.39186
# Shear Modulus (GPa) = 26.28458 29.82831 28.05644
#
# Velocity S-wave (km/s) = 3.49520 3.72337 3.61109
# Velocity P-wave (km/s) = 6.26085 6.51282 6.38808
#
# Compressibility (1/GPa) = 0.02028735
#
# Stress axis : x y z
#
# Youngs Moduli (GPa) = 64.73171 57.60994 64.99268
#
# Poissons Ratio (x) = 0.31484 0.04493
# Poissons Ratio (y) = 0.35376 0.50671
# Poissons Ratio (z) = 0.04475 0.44915
#
# Static dielectric constant tensor:
#      x y z
#    x 4.109680 0.000000 -0.156700 
#    y 0.000000 4.100440 0.000000 
#    z -0.156700 0.000000 3.950850 
# 
# 
# High freq. dielectric constant tensor:
#      x y z
#    x 1.847630 0.000000 -0.001750 
#    y 0.000000 1.831470 0.000000 
#    z -0.001750 0.000000 1.834040 
# 
# From -- ./inp_files/171760.got.cif
#   From: 2010.06.25/outbox.cif.g09.slc.cpg/sg15_86_cif.got.tgz:171760.got - 2010.06.28 07:06:18.
