data_PCOD8136029
_publ_section_title
;
Structure prediction by ZEFSAII (Michael W. Deem and Ramdas Pophale) SiO2 
 PCOD8136029
Probable space group: C 2/C
;
_chemical_formula_sum "Si O2"
_cell_formula_units_Z 64
_cell_length_a 8.998291
_cell_length_b 26.582079
_cell_length_c 14.617658
_cell_angle_alpha 90.000000
_cell_angle_beta 122.857871
_cell_angle_gamma 90.000000
_cell_volume 2937.080831
_symmetry_space_group_name_H-M "C 2/C"
_symmetry_group_IT_number 15
_symmetry_cell_setting 'monoclinic'
loop_
_space_group_symop_operation_xyz
x,y,z
-x,y,1/2-z
-x,-y,-z
x,-y,1/2+z
1/2+x,1/2+y,z
1/2-x,1/2+y,1/2-z
1/2-x,1/2-y,-z
1/2+x,1/2-y,1/2+z
loop_
_atom_site_type_symbol
_atom_site_label
_atom_site_fract_x
_atom_site_fract_y
_atom_site_fract_z
Si Si1 0.696296 0.062025 0.805177
Si Si2 0.808923 0.255193 0.663320
Si Si3 0.115719 0.164031 0.197315
Si Si4 0.739073 0.966253 0.939384
Si Si5 0.590646 0.906643 0.637883
Si Si6 0.676796 0.171474 0.498968
Si Si7 0.510956 0.616989 0.984018
Si Si8 0.703074 0.502101 0.839201
O O1 0.500000 0.083781 0.750000
O O2 0.825613 0.108757 0.870007
O O3 0.732527 0.020363 0.893415
O O4 0.719357 0.038127 0.713117
O O5 0.705905 0.281150 0.713675
O O6 0.686950 0.209709 0.587020
O O7 0.850446 0.298059 0.603264
O O8 0.000000 0.231958 0.750000
O O9 0.270202 0.122114 0.251222
O O10 0.000000 0.164690 0.250000
O O11 0.990479 0.151608 0.067862
O O12 0.560700 0.935350 0.854189
O O13 0.908367 0.936630 0.955951
O O14 0.765623 0.968548 0.057087
O O15 0.490583 0.865585 0.540042
O O16 0.695551 0.948973 0.616193
O O17 0.858659 0.140674 0.548346
O O18 0.500000 0.490328 0.750000
#
# Coordination Sequence:
#
# PCOD8136029 Si02
#       8
#     8   8   8   8   8   8   8   8
#     4  12  25  41  63  92 136 187 229 278 332 384
#     4  10  19  42  71  96 126 162 217 266 347 410
#     4  11  24  39  71 106 134 164 214 287 341 401
#     4  11  24  40  61  93 136 181 233 278 319 386
#     4  11  22  39  62 100 128 174 229 272 325 393
#     4   9  21  40  68  98 124 166 217 280 322 412
#     4  10  23  41  63  95 136 173 224 271 328 387
#     4  12  25  41  61  90 133 189 235 276 324 378
#
# _framework density 21.790343
#
# number of rings (size 3 to 8) (size 9 to 14) (size 15 to 20)
#    0.000    1.250    3.750    1.875    3.500    1.000 
#    4.500    0.625    0.000    0.000    0.000    0.000 
#    0.000    0.000    0.000    0.000    0.000    0.000 
#
# Total GULP energy -396757.506292 kJ/mol
# GULP energy per Si atom -12398.672072 kJ/mol
# Density = 2.174075 g / cm^3
# Si number density = 21.790343 Si / 1000 Ang^3
#
#
#
# Elastic Constant Matrix: (Units=GPa)
#
#
# Indices 1 2 3 4 5 6 
#
# 1 100.3972 27.0222 50.7368 0.0000 8.9114 0.0000
# 2 27.0222 77.0212 36.8162 0.0000 4.2531 0.0000
# 3 50.7368 36.8162 95.1557 0.0000 -3.6935 0.0000
# 4 0.0000 0.0000 0.0000 35.5324 0.0000 1.0991
# 5 8.9114 4.2531 -3.6935 0.0000 35.3394 0.0000
# 6 0.0000 0.0000 0.0000 1.0991 0.0000 24.8845
#
#
#
# Elastic Compliance Matrix: (Units=1/GPa)
#
#
# Indices 1 2 3 4 5 6 
#
# 1 0.014395 -0.001311 -0.007333 0.000000 -0.004239 0.000000
# 2 -0.001311 0.016285 -0.005688 0.000000 -0.002224 0.000000
# 3 -0.007333 -0.005688 0.016786 0.000000 0.004288 0.000000
# 4 0.000000 0.000000 0.000000 0.028182 0.000000 -0.001245
# 5 -0.004239 -0.002224 0.004288 0.000000 0.030082 0.000000
# 6 0.000000 0.000000 0.000000 -0.001245 0.000000 0.040241
#
#
# Mechanical properties :
#
#
# Convention : Reuss Voigt Hill
#
# Bulk Modulus (GPa) = 53.18443 55.74718 54.46580
# Shear Modulus (GPa) = 27.63931 29.68452 28.66192
#
# Velocity S-wave (km/s) = 3.56535 3.69491 3.63071
# Velocity P-wave (km/s) = 6.43501 6.62134 6.52884
#
# Compressibility (1/GPa) = 0.01880250
#
# Stress axis : x y z
#
# Youngs Moduli (GPa) = 69.46730 61.40574 59.57365
#
# Poissons Ratio (x) = 0.08053 0.43683
# Poissons Ratio (y) = 0.09110 0.33885
# Poissons Ratio (z) = 0.50938 0.34927
#
# Static dielectric constant tensor:
#      x y z
#    x 3.909330 0.000000 0.247690 
#    y 0.000000 3.919260 0.000000 
#    z 0.247690 0.000000 3.912570 
# 
# 
# High freq. dielectric constant tensor:
#      x y z
#    x 1.843440 0.000000 0.016660 
#    y 0.000000 1.847080 0.000000 
#    z 0.016660 0.000000 1.855480 
# 
# From -- ./inp_files/139547.got.cif
#   From: 2010.06.25/outbox.cif.g09.slc.cpg/sg15_70_cif.got.tgz:139547.got - 2010.06.28 07:06:18.
