data_PCOD8136115
_publ_section_title
;
Structure prediction by ZEFSAII (Michael W. Deem and Ramdas Pophale) SiO2 
 PCOD8136115
Probable space group: C 2/C
;
_chemical_formula_sum "Si O2"
_cell_formula_units_Z 48
_cell_length_a 15.249046
_cell_length_b 18.325617
_cell_length_c 10.289527
_cell_angle_alpha 90.000000
_cell_angle_beta 113.234501
_cell_angle_gamma 90.000000
_cell_volume 2642.189594
_symmetry_space_group_name_H-M "C 2/C"
_symmetry_group_IT_number 15
_symmetry_cell_setting 'monoclinic'
loop_
_space_group_symop_operation_xyz
x,y,z
-x,y,1/2-z
-x,-y,-z
x,-y,1/2+z
1/2+x,1/2+y,z
1/2-x,1/2+y,1/2-z
1/2-x,1/2-y,-z
1/2+x,1/2-y,1/2+z
loop_
_atom_site_type_symbol
_atom_site_label
_atom_site_fract_x
_atom_site_fract_y
_atom_site_fract_z
Si Si1 0.289392 0.448059 0.432110
Si Si2 0.919013 0.554484 0.617089
Si Si3 0.148214 0.646661 0.163374
Si Si4 0.839412 0.784999 0.478927
Si Si5 0.000000 0.417935 0.750000
Si Si6 0.660928 0.564893 0.246310
Si Si7 0.500000 0.659593 0.250000
O O1 0.175893 0.456058 0.350475
O O2 0.316729 0.365195 0.413018
O O3 0.342866 0.500308 0.361162
O O4 0.320277 0.467173 0.598056
O O5 0.897948 0.599428 0.477713
O O6 0.000000 0.596484 0.750000
O O7 0.959310 0.472105 0.612161
O O8 0.257552 0.623066 0.245859
O O9 0.086525 0.632972 0.255285
O O10 0.138363 0.732505 0.128947
O O11 0.750000 0.750000 0.500000
O O12 0.929991 0.788456 0.627647
O O13 0.560532 0.607718 0.187569
#
# Coordination Sequence:
#
# PCOD8136115 Si02
#       7
#     8   8   8   8   4   8   4
#     4  10  20  37  59  86 116 154 192 252 279 344
#     4   9  18  30  55  83 107 144 195 236 283 338
#     4  11  20  36  54  83 119 150 185 242 292 354
#     4  11  21  37  58  85 118 150 197 241 290 344
#     4  10  20  31  53  82 116 146 184 234 298 337
#     4  10  20  38  60  84 116 150 201 239 288 340
#     4  10  22  37  63  86 110 158 198 244 286 345
#
# _framework density 18.166751000000001
#
# number of rings (size 3 to 8) (size 9 to 14) (size 15 to 20)
#    0.500    1.333    6.667    0.500    1.167    2.667 
#    0.000    2.500    0.000    2.000    0.000    0.000 
#    0.000    0.000    0.000    0.000    0.000    0.000 
#
# Total GULP energy -297434.204604 kJ/mol
# GULP energy per Si atom -12393.091859 kJ/mol
# Density = 1.812540 g / cm^3
# Si number density = 18.166751 Si / 1000 Ang^3
#
#
#
# Elastic Constant Matrix: (Units=GPa)
#
#
# Indices 1 2 3 4 5 6 
#
# 1 112.2737 38.2366 30.8117 0.0000 9.7014 0.0000
# 2 38.2366 106.3561 30.1349 0.0000 -5.7071 0.0000
# 3 30.8117 30.1349 47.7873 0.0000 4.4831 0.0000
# 4 0.0000 0.0000 0.0000 30.6361 0.0000 -3.0687
# 5 9.7014 -5.7071 4.4831 0.0000 32.4644 0.0000
# 6 0.0000 0.0000 0.0000 -3.0687 0.0000 29.7528
#
#
#
# Elastic Compliance Matrix: (Units=1/GPa)
#
#
# Indices 1 2 3 4 5 6 
#
# 1 0.011633 -0.002819 -0.005420 0.000000 -0.003223 0.000000
# 2 -0.002819 0.012437 -0.006392 0.000000 0.003912 0.000000
# 3 -0.005420 -0.006392 0.028778 0.000000 -0.003478 0.000000
# 4 0.000000 0.000000 0.000000 0.032982 0.000000 0.003402
# 5 -0.003223 0.003912 -0.003478 0.000000 0.032934 0.000000
# 6 0.000000 0.000000 0.000000 0.003402 0.000000 0.033961
#
#
# Mechanical properties :
#
#
# Convention : Reuss Voigt Hill
#
# Bulk Modulus (GPa) = 42.40029 51.64263 47.02146
# Shear Modulus (GPa) = 26.33657 29.71958 28.02807
#
# Velocity S-wave (km/s) = 3.81164 4.04905 3.93214
# Velocity P-wave (km/s) = 6.53924 7.09567 6.82313
#
# Compressibility (1/GPa) = 0.02358475
#
# Stress axis : x y z
#
# Youngs Moduli (GPa) = 85.96196 80.40531 34.74886
#
# Poissons Ratio (x) = 0.22670 0.18835
# Poissons Ratio (y) = 0.24237 0.22211
# Poissons Ratio (z) = 0.46594 0.51394
#
# Static dielectric constant tensor:
#      x y z
#    x 3.595660 0.000000 0.122120 
#    y 0.000000 3.406790 0.000000 
#    z 0.122120 0.000000 3.100580 
# 
# 
# High freq. dielectric constant tensor:
#      x y z
#    x 1.717110 0.000000 0.015980 
#    y 0.000000 1.695770 0.000000 
#    z 0.015980 0.000000 1.673280 
# 
# From -- ./inp_files/97901.got.cif
#   From: 2010.06.25/outbox.cif.g09.slc.cpg/sg15_49_cif.got.tgz:97901.got - 2010.06.28 07:06:18.
