data_PCOD8136110
_publ_section_title
;
Structure prediction by ZEFSAII (Michael W. Deem and Ramdas Pophale) SiO2 
 PCOD8136110
Probable space group: C 2/C
;
_chemical_formula_sum "Si O2"
_cell_formula_units_Z 56
_cell_length_a 27.956308
_cell_length_b 14.432739
_cell_length_c 23.380623
_cell_angle_alpha 90.000000
_cell_angle_beta 159.893051
_cell_angle_gamma 90.000000
_cell_volume 3243.076258
_symmetry_space_group_name_H-M "C 2/C"
_symmetry_group_IT_number 15
_symmetry_cell_setting 'monoclinic'
loop_
_space_group_symop_operation_xyz
x,y,z
-x,y,1/2-z
-x,-y,-z
x,-y,1/2+z
1/2+x,1/2+y,z
1/2-x,1/2+y,1/2-z
1/2-x,1/2-y,-z
1/2+x,1/2-y,1/2+z
loop_
_atom_site_type_symbol
_atom_site_label
_atom_site_fract_x
_atom_site_fract_y
_atom_site_fract_z
Si Si1 0.784614 0.236290 0.797511
Si Si2 0.661568 0.429479 0.227112
Si Si3 0.889064 0.330906 0.704156
Si Si4 0.539632 0.852522 0.076779
Si Si5 0.341809 0.426948 0.871551
Si Si6 0.195928 0.331629 0.016528
Si Si7 0.397646 0.045424 0.316950
O O1 0.817259 0.164480 0.784248
O O2 0.696657 0.187958 0.749736
O O3 0.685989 0.318052 0.664139
O O4 0.932961 0.277958 0.984870
O O5 0.707632 0.518692 0.241620
O O6 0.752145 0.418868 0.386864
O O7 0.501878 0.444561 0.065134
O O8 0.814481 0.361111 0.561505
O O9 0.806362 0.251523 0.645365
O O10 0.887866 0.422464 0.741045
O O11 0.046210 0.295786 0.870175
O O12 0.531578 0.944493 0.106078
O O13 0.489308 0.880617 0.956056
O O14 0.254379 0.467605 0.826037
#
# Coordination Sequence:
#
# PCOD8136110 Si02
#       7
#     8   8   8   8   8   8   8
#     4  11  19  33  48  75 105 140 170 210 265 324
#     4  11  21  34  52  77 115 136 177 219 268 323
#     4  10  22  37  53  78 108 144 190 213 262 324
#     4  10  20  31  51  74 104 141 171 212 275 305
#     4  10  22  33  50  80 106 142 174 219 272 320
#     4  10  22  36  55  76 107 149 180 221 262 314
#     4  10  20  34  52  75 106 142 180 219 260 330
#
# _framework density 17.267555999999999
#
# number of rings (size 3 to 8) (size 9 to 14) (size 15 to 20)
#    0.000    1.714    2.857    2.571    8.000    0.000 
#    0.000    0.000    0.000    0.000    0.000    1.000 
#    8.571    0.000    0.000    0.000    0.000    0.000 
#
# Total GULP energy -347129.786227 kJ/mol
# GULP energy per Si atom -12397.492365 kJ/mol
# Density = 1.722825 g / cm^3
# Si number density = 17.267556 Si / 1000 Ang^3
#
#
#
# Elastic Constant Matrix: (Units=GPa)
#
#
# Indices 1 2 3 4 5 6 
#
# 1 77.8108 29.3069 47.5281 0.0108 14.0544 0.0073
# 2 29.3069 73.2042 35.1449 0.0196 2.8282 0.0163
# 3 47.5281 35.1449 80.1058 0.0033 9.9380 0.0038
# 4 0.0108 0.0196 0.0033 24.2259 0.0051 1.6500
# 5 14.0544 2.8282 9.9380 0.0051 32.3828 0.0033
# 6 0.0073 0.0163 0.0038 1.6500 0.0033 24.4775
#
#
#
# Elastic Compliance Matrix: (Units=1/GPa)
#
#
# Indices 1 2 3 4 5 6 
#
# 1 0.021684 -0.003328 -0.010681 -0.000004 -0.005843 -0.000002
# 2 -0.003328 0.017839 -0.006069 -0.000012 0.001749 -0.000009
# 3 -0.010681 -0.006069 0.021667 0.000007 -0.001484 0.000004
# 4 -0.000004 -0.000012 0.000007 0.041468 -0.000005 -0.002795
# 5 -0.005843 0.001749 -0.001484 -0.000005 0.033719 -0.000003
# 6 -0.000002 -0.000009 0.000004 -0.002795 -0.000003 0.041042
#
#
# Mechanical properties :
#
#
# Convention : Reuss Voigt Hill
#
# Bulk Modulus (GPa) = 47.53891 50.56452 49.05172
# Shear Modulus (GPa) = 22.26304 24.15997 23.21151
#
# Velocity S-wave (km/s) = 3.59458 3.74458 3.67035
# Velocity P-wave (km/s) = 6.69466 6.93126 6.81399
#
# Compressibility (1/GPa) = 0.02103540
#
# Stress axis : x y z
#
# Youngs Moduli (GPa) = 46.11595 56.05768 46.15224
#
# Poissons Ratio (x) = 0.18654 0.49295
# Poissons Ratio (y) = 0.15346 0.28010
# Poissons Ratio (z) = 0.49256 0.34021
#
# Static dielectric constant tensor:
#      x y z
#    x 3.192840 -0.000010 0.319620 
#    y -0.000010 3.228850 -0.000010 
#    z 0.319620 -0.000010 3.368470 
# 
# 
# High freq. dielectric constant tensor:
#      x y z
#    x 1.652980 0.000000 0.041080 
#    y 0.000000 1.656950 0.000000 
#    z 0.041080 0.000000 1.660080 
# 
# From -- ./inp_files/284647.got.cif
#   From: 2010.06.25/outbox.cif.g09.slc.cpg/sg15_143_cif.got.tgz:284647.got - 2010.06.28 07:06:18.
