data_PCOD8136318
_publ_section_title
;
Structure prediction by ZEFSAII (Michael W. Deem and Ramdas Pophale) SiO2 
 PCOD8136318
Probable space group: C 2/C
;
_chemical_formula_sum "Si O2"
_cell_formula_units_Z 60
_cell_length_a 23.220327
_cell_length_b 24.899908
_cell_length_c 8.969124
_cell_angle_alpha 90.000000
_cell_angle_beta 31.939363
_cell_angle_gamma 90.000000
_cell_volume 2743.401655
_symmetry_space_group_name_H-M "C 2/C"
_symmetry_group_IT_number 15
_symmetry_cell_setting 'monoclinic'
loop_
_space_group_symop_operation_xyz
x,y,z
-x,y,1/2-z
-x,-y,-z
x,-y,1/2+z
1/2+x,1/2+y,z
1/2-x,1/2+y,1/2-z
1/2-x,1/2-y,-z
1/2+x,1/2-y,1/2+z
loop_
_atom_site_type_symbol
_atom_site_label
_atom_site_fract_x
_atom_site_fract_y
_atom_site_fract_z
Si Si1 0.667976 0.178528 0.078483
Si Si2 0.617315 0.093362 0.421063
Si Si3 0.743101 0.005312 0.552626
Si Si4 0.884478 0.979254 0.484566
Si Si5 0.322296 0.633538 0.158700
Si Si6 0.500000 0.648334 0.250000
Si Si7 0.784295 0.123223 0.565460
Si Si8 0.388636 0.293307 0.256253
O O1 0.609647 0.130027 0.291622
O O2 0.589626 0.230783 0.250928
O O3 0.697537 0.158782 0.847209
O O4 0.773957 0.196959 0.932290
O O5 0.706726 0.115984 0.339753
O O6 0.641057 0.032057 0.317137
O O7 0.500000 0.093007 0.750000
O O8 0.729014 0.066471 0.640248
O O9 0.854211 0.981242 0.378558
O O10 0.776188 0.997821 0.306827
O O11 0.899387 0.918321 0.507992
O O12 0.000000 0.009638 0.250000
O O13 0.306487 0.655710 0.362289
O O14 0.388776 0.675805 0.913703
O O15 0.393410 0.613895 0.430308
O O16 0.477999 0.685631 0.442816
#
# Coordination Sequence:
#
# PCOD8136318 Si02
#       8
#     8   8   8   8   8   4   8   8
#     4   9  19  38  61  87 120 156 205 262 307 364
#     4  10  21  41  66  86 114 168 213 268 307 368
#     4  10  21  36  55  89 121 157 211 247 304 364
#     4  10  20  33  54  81 121 164 194 246 297 375
#     4   9  21  37  58  88 129 154 205 251 320 365
#     4  10  22  34  62  92 120 170 208 242 306 386
#     4  10  21  38  58  88 131 162 200 256 304 374
#     4   9  19  36  60  89 120 159 201 256 310 371
#
# _framework density 21.870657000000001
#
# number of rings (size 3 to 8) (size 9 to 14) (size 15 to 20)
#    0.000    2.400    0.000    1.200    5.600    1.600 
#    0.000   11.333    2.933    0.000    0.000    0.000 
#    0.000    0.000    0.000    0.000    0.000    0.000 
#
# Total GULP energy -371665.584711 kJ/mol
# GULP energy per Si atom -12388.852824 kJ/mol
# Density = 2.182088 g / cm^3
# Si number density = 21.870657 Si / 1000 Ang^3
#
#
#
# Elastic Constant Matrix: (Units=GPa)
#
#
# Indices 1 2 3 4 5 6 
#
# 1 49.7673 12.7748 33.4900 0.0001 22.5267 -0.0001
# 2 12.7748 92.5983 53.0919 0.0002 19.8687 -0.0001
# 3 33.4900 53.0919 127.8790 0.0006 25.0003 -0.0003
# 4 0.0001 0.0002 0.0006 24.0399 -0.0003 6.7278
# 5 22.5267 19.8687 25.0003 -0.0003 42.1436 0.0002
# 6 -0.0001 -0.0001 -0.0003 6.7278 0.0002 22.9696
#
#
#
# Elastic Compliance Matrix: (Units=1/GPa)
#
#
# Indices 1 2 3 4 5 6 
#
# 1 0.029633 0.002261 -0.006102 0.000000 -0.013286 0.000000
# 2 0.002261 0.014848 -0.005828 0.000000 -0.004752 0.000000
# 3 -0.006102 -0.005828 0.012062 0.000000 -0.001146 0.000000
# 4 0.000000 0.000000 0.000000 0.045312 0.000001 -0.013272
# 5 -0.013286 -0.004752 -0.001146 0.000001 0.033750 -0.000001
# 6 0.000000 0.000000 0.000000 -0.013272 -0.000001 0.047423
#
#
# Mechanical properties :
#
#
# Convention : Reuss Voigt Hill
#
# Bulk Modulus (GPa) = 26.87765 52.10644 39.49205
# Shear Modulus (GPa) = 23.28106 29.22314 26.25210
#
# Velocity S-wave (km/s) = 3.26619 3.65935 3.46834
# Velocity P-wave (km/s) = 5.15170 6.45995 5.84256
#
# Compressibility (1/GPa) = 0.03720563
#
# Stress axis : x y z
#
# Youngs Moduli (GPa) = 33.74618 67.34729 82.90839
#
# Poissons Ratio (x) = -0.15228 0.50590
# Poissons Ratio (y) = -0.07631 0.48318
# Poissons Ratio (z) = 0.20592 0.39249
#
# Static dielectric constant tensor:
#      x y z
#    x 3.818170 0.000000 0.361980 
#    y 0.000000 4.073650 0.000000 
#    z 0.361980 0.000000 3.934600 
# 
# 
# High freq. dielectric constant tensor:
#      x y z
#    x 1.843460 0.000000 0.028310 
#    y 0.000000 1.848870 0.000000 
#    z 0.028310 0.000000 1.857560 
# 
# From -- ./inp_files/67788.got.cif
#   From: 2010.06.25/outbox.cif.g09.slc.cpg/sg15_34_cif.got.tgz:67788.got - 2010.06.28 07:06:18.
