data_PCOD8136453
_publ_section_title
;
Structure prediction by ZEFSAII (Michael W. Deem and Ramdas Pophale) SiO2 
 PCOD8136453
Probable space group: C 2/C
;
_chemical_formula_sum "Si O2"
_cell_formula_units_Z 48
_cell_length_a 23.364119
_cell_length_b 22.268390
_cell_length_c 9.265108
_cell_angle_alpha 90.000000
_cell_angle_beta 37.609296
_cell_angle_gamma 90.000000
_cell_volume 2941.801532
_symmetry_space_group_name_H-M "C 2/C"
_symmetry_group_IT_number 15
_symmetry_cell_setting 'monoclinic'
loop_
_space_group_symop_operation_xyz
x,y,z
-x,y,1/2-z
-x,-y,-z
x,-y,1/2+z
1/2+x,1/2+y,z
1/2-x,1/2+y,1/2-z
1/2-x,1/2-y,-z
1/2+x,1/2-y,1/2+z
loop_
_atom_site_type_symbol
_atom_site_label
_atom_site_fract_x
_atom_site_fract_y
_atom_site_fract_z
Si Si1 0.975503 0.255107 0.636189
Si Si2 0.110255 0.385132 0.051845
Si Si3 0.431455 0.986922 0.766830
Si Si4 0.318656 0.289793 0.267267
Si Si5 0.660410 0.231228 0.587532
Si Si6 0.658010 0.132359 0.138127
O O1 0.911841 0.205689 0.679438
O O2 0.924027 0.320311 0.741594
O O3 0.000000 0.235141 0.750000
O O4 0.070517 0.252019 0.358323
O O5 0.125133 0.453351 0.074237
O O6 0.156404 0.340859 0.076675
O O7 0.000000 0.371462 0.250000
O O8 0.165093 0.371514 0.795866
O O9 0.500000 0.962023 0.750000
O O10 0.358754 0.934365 0.884640
O O11 0.500000 0.000000 0.500000
O O12 0.250000 0.250000 0.500000
O O13 0.260390 0.351589 0.366996
O O14 0.341829 0.263065 0.064081
O O15 0.750000 0.250000 0.500000
#
# Coordination Sequence:
#
# PCOD8136453 Si02
#       6
#     8   8   8   8   8   8
#     4  11  21  34  54  78 108 146 178 221 269 322
#     4  11  19  35  52  74 112 148 168 227 270 308
#     4  11  20  32  52  77 106 147 182 208 266 329
#     4  10  20  34  53  75 108 142 179 221 267 319
#     4  12  21  34  54  80 109 143 184 222 272 324
#     4  11  20  35  53  77 113 144 176 218 267 323
#
# _framework density 16.316533
#
# number of rings (size 3 to 8) (size 9 to 14) (size 15 to 20)
#    0.000    1.000    8.333    3.000    0.000    1.333 
#    0.000    0.000    0.000    0.000    0.000    1.167 
#    0.000    0.000    0.000    0.000    0.000    0.000 
#
# Total GULP energy -297396.159584 kJ/mol
# GULP energy per Si atom -12391.506649 kJ/mol
# Density = 1.627940 g / cm^3
# Si number density = 16.316533 Si / 1000 Ang^3
#
#
#
# Elastic Constant Matrix: (Units=GPa)
#
#
# Indices 1 2 3 4 5 6 
#
# 1 127.9141 49.3633 53.2202 0.0000 -1.3420 0.0000
# 2 49.3633 96.9888 37.9095 0.0000 -14.5898 0.0000
# 3 53.2202 37.9095 107.7611 0.0000 3.2330 0.0000
# 4 0.0000 0.0000 0.0000 21.0184 0.0000 -1.1336
# 5 -1.3420 -14.5898 3.2330 0.0000 33.3467 0.0000
# 6 0.0000 0.0000 0.0000 -1.1336 0.0000 32.9919
#
#
#
# Elastic Compliance Matrix: (Units=1/GPa)
#
#
# Indices 1 2 3 4 5 6 
#
# 1 0.011093 -0.004258 -0.003950 0.000000 -0.001033 0.000000
# 2 -0.004258 0.014755 -0.003286 0.000000 0.006603 0.000000
# 3 -0.003950 -0.003286 0.012471 0.000000 -0.002806 0.000000
# 4 0.000000 0.000000 0.000000 0.047666 0.000000 0.001638
# 5 -0.001033 0.006603 -0.002806 0.000000 0.033107 0.000000
# 6 0.000000 0.000000 0.000000 0.001638 0.000000 0.030367
#
#
# Mechanical properties :
#
#
# Convention : Reuss Voigt Hill
#
# Bulk Modulus (GPa) = 65.22334 68.18334 66.70334
# Shear Modulus (GPa) = 28.16000 30.28281 29.22140
#
# Velocity S-wave (km/s) = 4.15885 4.31276 4.23650
# Velocity P-wave (km/s) = 7.94493 8.16569 8.05606
#
# Compressibility (1/GPa) = 0.01533194
#
# Stress axis : x y z
#
# Youngs Moduli (GPa) = 90.14385 67.77308 80.18774
#
# Poissons Ratio (x) = 0.28855 0.31673
# Poissons Ratio (y) = 0.38380 0.26350
# Poissons Ratio (z) = 0.35606 0.22271
#
# Static dielectric constant tensor:
#      x y z
#    x 2.317900 0.000000 0.095610 
#    y 0.000000 4.207750 0.000000 
#    z 0.095610 0.000000 3.443310 
# 
# 
# High freq. dielectric constant tensor:
#      x y z
#    x 1.632610 0.000000 0.020180 
#    y 0.000000 1.605670 0.000000 
#    z 0.020180 0.000000 1.628320 
# 
# From -- ./inp_files/40283.got.cif
#   From: 2010.06.25/outbox.cif.g09.slc.cpg/sg15_21_cif.got.tgz:40283.got - 2010.06.28 07:06:18.
