data_PCOD8136182
_publ_section_title
;
Structure prediction by ZEFSAII (Michael W. Deem and Ramdas Pophale) SiO2 
 PCOD8136182
Probable space group: C 2/C
;
_chemical_formula_sum "Si O2"
_cell_formula_units_Z 44
_cell_length_a 17.369564
_cell_length_b 9.023733
_cell_length_c 14.787446
_cell_angle_alpha 90.000000
_cell_angle_beta 95.976607
_cell_angle_gamma 90.000000
_cell_volume 2305.161060
_symmetry_space_group_name_H-M "C 2/C"
_symmetry_group_IT_number 15
_symmetry_cell_setting 'monoclinic'
loop_
_space_group_symop_operation_xyz
x,y,z
-x,y,1/2-z
-x,-y,-z
x,-y,1/2+z
1/2+x,1/2+y,z
1/2-x,1/2+y,1/2-z
1/2-x,1/2-y,-z
1/2+x,1/2-y,1/2+z
loop_
_atom_site_type_symbol
_atom_site_label
_atom_site_fract_x
_atom_site_fract_y
_atom_site_fract_z
Si Si1 0.004066 0.158846 0.107224
Si Si2 0.884465 0.404939 0.301311
Si Si3 0.000000 0.365253 0.750000
Si Si4 0.823428 0.372974 0.931372
Si Si5 0.162754 0.737632 0.876508
Si Si6 0.539458 0.330940 0.098679
O O1 0.053120 0.285139 0.160899
O O2 0.916440 0.167261 0.133722
O O3 0.042597 0.000104 0.134092
O O4 0.006274 0.182772 0.000443
O O5 0.924337 0.535399 0.250043
O O6 0.843865 0.471334 0.385769
O O7 0.824980 0.336723 0.220682
O O8 0.987848 0.264093 0.660799
O O9 0.733266 0.348452 0.901802
O O10 0.873680 0.235302 0.898164
O O11 0.839158 0.383144 0.041544
#
# Coordination Sequence:
#
# PCOD8136182 Si02
#       6
#     8   8   4   8   8   8
#     4  10  20  37  61  83 111 150 194 233 282 335
#     4  11  21  35  60  88 108 153 194 234 277 344
#     4  10  20  32  54  90 110 146 188 240 274 328
#     4   9  22  39  57  81 117 149 187 233 289 335
#     4  10  20  38  60  80 115 151 185 233 287 335
#     4   9  21  36  57  83 116 147 187 239 283 334
#
# _framework density 19.087603000000001
#
# number of rings (size 3 to 8) (size 9 to 14) (size 15 to 20)
#    0.000    2.182    1.818    0.000    5.091    3.636 
#    3.273    0.000    0.000    5.455    0.000    0.000 
#    0.000    0.000    0.000    0.000    0.000    0.000 
#
# Total GULP energy -272734.810850 kJ/mol
# GULP energy per Si atom -12397.036857 kJ/mol
# Density = 1.904416 g / cm^3
# Si number density = 19.087603 Si / 1000 Ang^3
#
#
#
# Elastic Constant Matrix: (Units=GPa)
#
#
# Indices 1 2 3 4 5 6 
#
# 1 81.5900 40.9896 39.3843 0.0000 8.4609 0.0000
# 2 40.9896 102.0491 49.3225 0.0000 3.9897 0.0000
# 3 39.3843 49.3225 94.7035 0.0000 0.4929 0.0000
# 4 0.0000 0.0000 0.0000 30.2058 0.0000 -1.2946
# 5 8.4609 3.9897 0.4929 0.0000 22.0224 0.0000
# 6 0.0000 0.0000 0.0000 -1.2946 0.0000 10.1339
#
#
#
# Elastic Compliance Matrix: (Units=1/GPa)
#
#
# Indices 1 2 3 4 5 6 
#
# 1 0.017449 -0.004396 -0.004937 0.000000 -0.005797 0.000000
# 2 -0.004396 0.014313 -0.005622 0.000000 -0.000778 0.000000
# 3 -0.004937 -0.005622 0.015527 0.000000 0.002568 0.000000
# 4 0.000000 0.000000 0.000000 0.033288 0.000000 0.004253
# 5 -0.005797 -0.000778 0.002568 0.000000 0.047719 0.000000
# 6 0.000000 0.000000 0.000000 0.004253 0.000000 0.099222
#
#
# Mechanical properties :
#
#
# Convention : Reuss Voigt Hill
#
# Bulk Modulus (GPa) = 57.54059 59.74836 58.64448
# Shear Modulus (GPa) = 18.99547 22.38216 20.68882
#
# Velocity S-wave (km/s) = 3.15806 3.42804 3.29582
# Velocity P-wave (km/s) = 6.59612 6.85848 6.72858
#
# Compressibility (1/GPa) = 0.01737904
#
# Stress axis : x y z
#
# Youngs Moduli (GPa) = 57.30950 69.86887 64.40405
#
# Poissons Ratio (x) = 0.30714 0.31796
# Poissons Ratio (y) = 0.25193 0.36207
# Poissons Ratio (z) = 0.28293 0.39280
#
# Static dielectric constant tensor:
#      x y z
#    x 3.307210 0.000000 -0.186340 
#    y 0.000000 3.532860 0.000000 
#    z -0.186340 0.000000 3.812770 
# 
# 
# High freq. dielectric constant tensor:
#      x y z
#    x 1.723390 0.000000 -0.007670 
#    y 0.000000 1.729670 0.000000 
#    z -0.007670 0.000000 1.760720 
# 
# From -- ./inp_files/159230.got.cif
#   From: 2010.06.25/outbox.cif.g09.slc.cpg/sg15_80_cif.got.tgz:159230.got - 2010.06.28 07:06:18.
