data_PCOD8136027
_publ_section_title
;
Structure prediction by ZEFSAII (Michael W. Deem and Ramdas Pophale) SiO2 
 PCOD8136027
Probable space group: C 2/C
;
_chemical_formula_sum "Si O2"
_cell_formula_units_Z 56
_cell_length_a 8.560873
_cell_length_b 16.570528
_cell_length_c 17.921808
_cell_angle_alpha 90.000000
_cell_angle_beta 60.514305
_cell_angle_gamma 90.000000
_cell_volume 2213.065798
_symmetry_space_group_name_H-M "C 2/C"
_symmetry_group_IT_number 15
_symmetry_cell_setting 'monoclinic'
loop_
_space_group_symop_operation_xyz
x,y,z
-x,y,1/2-z
-x,-y,-z
x,-y,1/2+z
1/2+x,1/2+y,z
1/2-x,1/2+y,1/2-z
1/2-x,1/2-y,-z
1/2+x,1/2-y,1/2+z
loop_
_atom_site_type_symbol
_atom_site_label
_atom_site_fract_x
_atom_site_fract_y
_atom_site_fract_z
Si Si1 0.440253 0.185107 0.875723
Si Si2 0.626218 0.373563 0.088132
Si Si3 0.375466 0.406917 0.581944
Si Si4 0.240814 0.149595 0.065558
Si Si5 0.250716 0.565732 0.681232
Si Si6 0.801499 0.255486 0.825025
Si Si7 0.793693 0.010151 0.320877
O O1 0.311206 0.262087 0.891178
O O2 0.405405 0.114623 0.824039
O O3 0.648237 0.208961 0.812455
O O4 0.408188 0.156385 0.969082
O O5 0.415646 0.374919 0.160086
O O6 0.703580 0.285943 0.092014
O O7 0.727928 0.442046 0.111715
O O8 0.661905 0.386752 0.993987
O O9 0.579865 0.389869 0.555982
O O10 0.330502 0.499530 0.605528
O O11 0.245463 0.349751 0.661279
O O12 0.289333 0.093033 0.125407
O O13 0.184965 0.519972 0.772690
O O14 0.000000 0.241229 0.750000
O O15 0.000000 0.027557 0.250000
#
# Coordination Sequence:
#
# PCOD8136027 Si02
#       7
#     8   8   8   8   8   8   8
#     4  10  23  42  78 109 145 188 261 298 369 439
#     4  11  21  42  73 103 143 198 237 290 370 444
#     4  11  21  42  79 105 149 189 247 296 372 444
#     4  10  19  42  71 117 146 194 238 312 363 449
#     4  11  21  42  75 116 144 190 241 303 366 447
#     4  11  26  49  69 103 148 198 245 315 371 422
#     4  10  20  37  68 111 157 193 229 286 387 435
#
# _framework density 25.304262000000001
#
# number of rings (size 3 to 8) (size 9 to 14) (size 15 to 20)
#    0.000    1.429    4.286    3.000    0.000    0.000 
#    5.143    8.571    0.000    0.000    0.000    0.000 
#    0.000    0.000    0.000    0.000    0.000    0.000 
#
# Total GULP energy -347185.421194 kJ/mol
# GULP energy per Si atom -12399.479328 kJ/mol
# Density = 2.524667 g / cm^3
# Si number density = 25.304262 Si / 1000 Ang^3
#
#
#
# Elastic Constant Matrix: (Units=GPa)
#
#
# Indices 1 2 3 4 5 6 
#
# 1 74.0020 34.0982 43.9193 0.0000 -10.7092 0.0000
# 2 34.0982 105.5148 26.8462 0.0000 -1.8259 0.0000
# 3 43.9193 26.8462 103.1415 0.0000 8.3930 0.0000
# 4 0.0000 0.0000 0.0000 31.8006 0.0000 16.1802
# 5 -10.7092 -1.8259 8.3930 0.0000 40.5827 0.0000
# 6 0.0000 0.0000 0.0000 16.1802 0.0000 30.5576
#
#
#
# Elastic Compliance Matrix: (Units=1/GPa)
#
#
# Indices 1 2 3 4 5 6 
#
# 1 0.021933 -0.004746 -0.008704 0.000000 0.007374 0.000000
# 2 -0.004746 0.011218 -0.000853 0.000000 -0.000571 0.000000
# 3 -0.008704 -0.000853 0.014050 0.000000 -0.005241 0.000000
# 4 0.000000 0.000000 0.000000 0.043042 0.000000 -0.022791
# 5 0.007374 -0.000571 -0.005241 0.000000 0.027645 0.000000
# 6 0.000000 0.000000 0.000000 -0.022791 0.000000 0.044793
#
#
# Mechanical properties :
#
#
# Convention : Reuss Voigt Hill
#
# Bulk Modulus (GPa) = 53.77464 54.70953 54.24209
# Shear Modulus (GPa) = 25.31841 32.44113 28.87977
#
# Velocity S-wave (km/s) = 3.16659 3.58445 3.38198
# Velocity P-wave (km/s) = 5.88788 6.22885 6.06076
#
# Compressibility (1/GPa) = 0.01859613
#
# Stress axis : x y z
#
# Youngs Moduli (GPa) = 45.59372 89.14254 71.17319
#
# Poissons Ratio (x) = 0.42304 0.61951
# Poissons Ratio (y) = 0.21637 0.06068
# Poissons Ratio (z) = 0.39686 0.07601
#
# Static dielectric constant tensor:
#      x y z
#    x 4.357130 0.000000 0.104350 
#    y 0.000000 4.834720 0.000000 
#    z 0.104350 0.000000 4.680850 
# 
# 
# High freq. dielectric constant tensor:
#      x y z
#    x 1.989390 0.000000 0.005360 
#    y 0.000000 2.020920 0.000000 
#    z 0.005360 0.000000 2.010270 
# 
# From -- ./inp_files/190927.got.cif
#   From: 2010.06.25/outbox.cif.g09.slc.cpg/sg15_96_cif.got.tgz:190927.got - 2010.06.28 07:06:18.
