data_PCOD8136053
_publ_section_title
;
Structure prediction by ZEFSAII (Michael W. Deem and Ramdas Pophale) SiO2 
 PCOD8136053
Probable space group: C 2/C
;
_chemical_formula_sum "Si O2"
_cell_formula_units_Z 44
_cell_length_a 8.715639
_cell_length_b 12.621012
_cell_length_c 16.941188
_cell_angle_alpha 90.000000
_cell_angle_beta 73.216604
_cell_angle_gamma 90.000000
_cell_volume 1784.153259
_symmetry_space_group_name_H-M "C 2/C"
_symmetry_group_IT_number 15
_symmetry_cell_setting 'monoclinic'
loop_
_space_group_symop_operation_xyz
x,y,z
-x,y,1/2-z
-x,-y,-z
x,-y,1/2+z
1/2+x,1/2+y,z
1/2-x,1/2+y,1/2-z
1/2-x,1/2-y,-z
1/2+x,1/2-y,1/2+z
loop_
_atom_site_type_symbol
_atom_site_label
_atom_site_fract_x
_atom_site_fract_y
_atom_site_fract_z
Si Si1 0.152827 0.343899 0.549819
Si Si2 0.517400 0.848732 0.156077
Si Si3 0.769738 0.526455 0.604058
Si Si4 0.291508 0.341252 0.694273
Si Si5 0.000000 0.012373 0.750000
Si Si6 0.198280 0.706676 0.374309
O O1 0.250000 0.250000 0.500000
O O2 0.209313 0.444574 0.490219
O O3 0.180443 0.373438 0.637021
O O4 0.974022 0.301910 0.560459
O O5 0.500000 0.877605 0.250000
O O6 0.445783 0.948934 0.118024
O O7 0.413444 0.747686 0.146167
O O8 0.700880 0.810049 0.110303
O O9 0.621520 0.582839 0.675565
O O10 0.716137 0.404080 0.615563
O O11 0.385991 0.444133 0.709728
O O12 0.186802 0.290625 0.780642
#
# Coordination Sequence:
#
# PCOD8136053 Si02
#       6
#     8   8   8   8   4   8
#     4  12  25  39  64 104 137 171 226 290 352 407
#     4  10  20  41  69  92 131 180 229 278 339 407
#     4  11  23  41  68 103 134 173 238 277 345 424
#     4  10  19  44  68  90 130 184 216 274 358 398
#     4  10  22  44  70  96 138 184 228 292 338 416
#     4  10  23  45  68  91 137 187 223 288 334 416
#
# _framework density 24.661560000000001
#
# number of rings (size 3 to 8) (size 9 to 14) (size 15 to 20)
#    0.000    1.455    6.364    1.091    0.000    7.273 
#    0.000    0.000    0.000    0.000    0.000    0.000 
#    0.000    0.000    0.000    0.000    0.000    0.000 
#
# Total GULP energy -272541.999736 kJ/mol
# GULP energy per Si atom -12388.272715 kJ/mol
# Density = 2.460543 g / cm^3
# Si number density = 24.661560 Si / 1000 Ang^3
#
#
#
# Elastic Constant Matrix: (Units=GPa)
#
#
# Indices 1 2 3 4 5 6 
#
# 1 84.0685 3.0335 37.9038 0.0000 -18.1357 0.0000
# 2 3.0335 28.3488 0.2828 0.0000 6.7066 0.0000
# 3 37.9038 0.2828 78.2632 0.0000 -15.2731 0.0000
# 4 0.0000 0.0000 0.0000 21.4109 0.0000 -4.1090
# 5 -18.1357 6.7066 -15.2731 0.0000 54.9386 0.0000
# 6 0.0000 0.0000 0.0000 -4.1090 0.0000 33.7873
#
#
#
# Elastic Compliance Matrix: (Units=1/GPa)
#
#
# Indices 1 2 3 4 5 6 
#
# 1 0.015918 -0.002489 -0.006995 0.000000 0.003614 0.000000
# 2 -0.002489 0.036795 0.000037 0.000000 -0.005303 0.000000
# 3 -0.006995 0.000037 0.016615 0.000000 0.002305 0.000000
# 4 0.000000 0.000000 0.000000 0.047821 0.000000 0.005816
# 5 0.003614 -0.005303 0.002305 0.000000 0.020683 0.000000
# 6 0.000000 0.000000 0.000000 0.005816 0.000000 0.030304
#
#
# Mechanical properties :
#
#
# Convention : Reuss Voigt Hill
#
# Bulk Modulus (GPa) = 19.82710 30.34674 25.08692
# Shear Modulus (GPa) = 24.52878 31.99139 28.26009
#
# Velocity S-wave (km/s) = 3.15717 3.60560 3.38881
# Velocity P-wave (km/s) = 4.62033 5.44663 5.05041
#
# Compressibility (1/GPa) = 0.05043602
#
# Stress axis : x y z
#
# Youngs Moduli (GPa) = 62.82049 27.17739 60.18654
#
# Poissons Ratio (x) = 0.06763 0.42102
# Poissons Ratio (y) = 0.15633 -0.00225
# Poissons Ratio (z) = 0.43944 -0.00102
#
# Static dielectric constant tensor:
#      x y z
#    x 4.729870 0.000000 -0.055830 
#    y 0.000000 4.229450 0.000000 
#    z -0.055830 0.000000 4.054270 
# 
# 
# High freq. dielectric constant tensor:
#      x y z
#    x 1.975460 0.000000 -0.012680 
#    y 0.000000 1.957120 0.000000 
#    z -0.012680 0.000000 1.986930 
# 
# From -- ./inp_files/188734.got.cif
#   From: 2010.06.25/outbox.cif.g09.slc.cpg/sg15_95_cif.got.tgz:188734.got - 2010.06.28 07:06:18.
