data_PCOD8136322
_publ_section_title
;
Structure prediction by ZEFSAII (Michael W. Deem and Ramdas Pophale) SiO2 
 PCOD8136322
Probable space group: C 2/C
;
_chemical_formula_sum "Si O2"
_cell_formula_units_Z 52
_cell_length_a 22.446465
_cell_length_b 11.231135
_cell_length_c 11.361190
_cell_angle_alpha 90.000000
_cell_angle_beta 73.615405
_cell_angle_gamma 90.000000
_cell_volume 2747.834339
_symmetry_space_group_name_H-M "C 2/C"
_symmetry_group_IT_number 15
_symmetry_cell_setting 'monoclinic'
loop_
_space_group_symop_operation_xyz
x,y,z
-x,y,1/2-z
-x,-y,-z
x,-y,1/2+z
1/2+x,1/2+y,z
1/2-x,1/2+y,1/2-z
1/2-x,1/2-y,-z
1/2+x,1/2-y,1/2+z
loop_
_atom_site_type_symbol
_atom_site_label
_atom_site_fract_x
_atom_site_fract_y
_atom_site_fract_z
Si Si1 0.829664 0.237505 0.856330
Si Si2 0.000000 0.116917 0.250000
Si Si3 0.307659 0.837580 0.112650
Si Si4 0.101379 0.198270 0.030752
Si Si5 0.308775 0.344221 0.811767
Si Si6 0.895427 0.040683 0.693398
Si Si7 0.170851 0.392864 0.862317
O O1 0.765662 0.163568 0.875129
O O2 0.885588 0.150401 0.788896
O O3 0.829156 0.355980 0.775312
O O4 0.842001 0.276408 0.983018
O O5 0.961917 0.203757 0.358488
O O6 0.954841 0.034014 0.199467
O O7 0.323529 0.769813 0.223530
O O8 0.336880 0.967214 0.116247
O O9 0.158719 0.165312 0.081222
O O10 0.094698 0.090784 0.942337
O O11 0.115092 0.324526 0.960819
O O12 0.333750 0.459155 0.726952
O O13 0.236305 0.353469 0.880771
#
# Coordination Sequence:
#
# PCOD8136322 Si02
#       7
#     8   4   8   8   8   8   8
#     4   9  20  35  53  83 119 152 187 227 283 345
#     4  10  22  38  62  84 110 148 202 246 286 320
#     4  10  20  33  54  84 119 154 181 224 283 356
#     4  10  22  37  57  84 113 149 190 242 286 335
#     4  10  21  32  56  87 116 149 185 225 296 348
#     4  10  20  38  59  86 115 145 190 242 285 335
#     4  10  20  35  55  82 120 152 186 232 284 352
#
# _framework density 18.923992999999999
#
# number of rings (size 3 to 8) (size 9 to 14) (size 15 to 20)
#    0.000    2.154    1.538    0.923    6.462    1.231 
#    0.000    0.000    0.000    4.615    0.000    0.000 
#    0.000    0.000    0.000    0.000    0.000    0.000 
#
# Total GULP energy -322394.424547 kJ/mol
# GULP energy per Si atom -12399.785559 kJ/mol
# Density = 1.888092 g / cm^3
# Si number density = 18.923993 Si / 1000 Ang^3
#
#
#
# Elastic Constant Matrix: (Units=GPa)
#
#
# Indices 1 2 3 4 5 6 
#
# 1 61.7550 27.2663 36.3807 0.0000 -3.2241 0.0000
# 2 27.2663 116.7755 44.3476 0.0000 -6.2674 0.0000
# 3 36.3807 44.3476 110.7967 0.0000 -8.8523 0.0000
# 4 0.0000 0.0000 0.0000 25.2015 0.0000 -2.5256
# 5 -3.2241 -6.2674 -8.8523 0.0000 25.3906 0.0000
# 6 0.0000 0.0000 0.0000 -2.5256 0.0000 19.8122
#
#
#
# Elastic Compliance Matrix: (Units=1/GPa)
#
#
# Indices 1 2 3 4 5 6 
#
# 1 0.020756 -0.002664 -0.005751 0.000000 -0.000027 0.000000
# 2 -0.002664 0.010471 -0.003227 0.000000 0.001121 0.000000
# 3 -0.005751 -0.003227 0.012430 0.000000 0.002807 0.000000
# 4 0.000000 0.000000 0.000000 0.040194 0.000000 0.005124
# 5 -0.000027 0.001121 0.002807 0.000000 0.040637 0.000000
# 6 0.000000 0.000000 0.000000 0.005124 0.000000 0.051127
#
#
# Mechanical properties :
#
#
# Convention : Reuss Voigt Hill
#
# Bulk Modulus (GPa) = 49.08453 56.14626 52.61539
# Shear Modulus (GPa) = 24.30855 26.16970 25.23912
#
# Velocity S-wave (km/s) = 3.58793 3.72275 3.65596
# Velocity P-wave (km/s) = 6.56950 6.94350 6.75909
#
# Compressibility (1/GPa) = 0.02037302
#
# Stress axis : x y z
#
# Youngs Moduli (GPa) = 48.17919 95.50138 80.45131
#
# Poissons Ratio (x) = 0.25438 0.46270
# Poissons Ratio (y) = 0.12833 0.25961
# Poissons Ratio (z) = 0.27709 0.30818
#
# Static dielectric constant tensor:
#      x y z
#    x 3.199120 0.000000 -0.070820 
#    y 0.000000 3.439420 0.000000 
#    z -0.070820 0.000000 3.603560 
# 
# 
# High freq. dielectric constant tensor:
#      x y z
#    x 1.703700 0.000000 0.003070 
#    y 0.000000 1.731230 0.000000 
#    z 0.003070 0.000000 1.749730 
# 
# From -- ./inp_files/110930.got.cif
#   From: 2010.06.25/outbox.cif.g09.slc.cpg/sg15_56_cif.got.tgz:110930.got - 2010.06.28 07:06:18.
