data_PCOD8136716
_publ_section_title
;
Structure prediction by ZEFSAII (Michael W. Deem and Ramdas Pophale) SiO2 
 PCOD8136716
Probable space group: C 2/C
;
_chemical_formula_sum "Si O2"
_cell_formula_units_Z 48
_cell_length_a 11.407866
_cell_length_b 19.762558
_cell_length_c 11.192501
_cell_angle_alpha 90.000000
_cell_angle_beta 105.144608
_cell_angle_gamma 90.000000
_cell_volume 2435.697239
_symmetry_space_group_name_H-M "C 2/C"
_symmetry_group_IT_number 15
_symmetry_cell_setting 'monoclinic'
loop_
_space_group_symop_operation_xyz
x,y,z
-x,y,1/2-z
-x,-y,-z
x,-y,1/2+z
1/2+x,1/2+y,z
1/2-x,1/2+y,1/2-z
1/2-x,1/2-y,-z
1/2+x,1/2-y,1/2+z
loop_
_atom_site_type_symbol
_atom_site_label
_atom_site_fract_x
_atom_site_fract_y
_atom_site_fract_z
Si Si1 0.720467 0.332792 0.088077
Si Si2 0.335589 0.934499 0.500003
Si Si3 0.754684 0.912579 0.774128
Si Si4 0.404547 0.082770 0.495587
Si Si5 0.369295 0.710485 0.179872
Si Si6 0.138060 0.054498 0.746356
O O1 0.764460 0.266886 0.173440
O O2 0.654454 0.386643 0.153745
O O3 0.842734 0.360833 0.059728
O O4 0.627656 0.312214 0.958338
O O5 0.300020 0.895231 0.610980
O O6 0.452179 0.900108 0.467880
O O7 0.221892 0.931131 0.382102
O O8 0.375122 0.010449 0.547242
O O9 0.643934 0.918550 0.652566
O O10 0.844513 0.853136 0.758836
O O11 0.830601 0.982217 0.803065
O O12 0.500000 0.740219 0.250000
O O13 0.000000 0.054298 0.750000
#
# Coordination Sequence:
#
# PCOD8136716 Si02
#       6
#     8   8   8   8   8   8
#     4  10  22  43  60  89 122 157 210 245 289 368
#     4  10  20  34  60  93 120 154 192 253 302 348
#     4  10  20  39  59  93 123 152 199 250 304 361
#     4   9  19  36  60  90 119 153 200 246 303 346
#     4  10  23  40  65  87 117 169 199 244 303 355
#     4  11  24  37  60  91 123 161 198 247 303 353
#
# _framework density 19.706882
#
# number of rings (size 3 to 8) (size 9 to 14) (size 15 to 20)
#    0.000    2.000    1.667    1.000    4.667    0.667 
#    0.000    5.833    0.000    0.000    0.000    0.000 
#    0.000    0.000    0.000    0.000    0.000    0.000 
#
# Total GULP energy -297666.438016 kJ/mol
# GULP energy per Si atom -12402.768251 kJ/mol
# Density = 1.966203 g / cm^3
# Si number density = 19.706882 Si / 1000 Ang^3
#
#
#
# Elastic Constant Matrix: (Units=GPa)
#
#
# Indices 1 2 3 4 5 6 
#
# 1 121.8338 23.2499 47.1387 0.0000 14.7500 0.0000
# 2 23.2499 82.2343 20.2890 0.0000 -3.4910 0.0000
# 3 47.1387 20.2890 66.3282 0.0000 -1.9304 0.0000
# 4 0.0000 0.0000 0.0000 31.0330 0.0000 -5.4141
# 5 14.7500 -3.4910 -1.9304 0.0000 30.1429 0.0000
# 6 0.0000 0.0000 0.0000 -5.4141 0.0000 23.1886
#
#
#
# Elastic Compliance Matrix: (Units=1/GPa)
#
#
# Indices 1 2 3 4 5 6 
#
# 1 0.012776 -0.001752 -0.008748 0.000000 -0.007015 0.000000
# 2 -0.001752 0.013442 -0.002802 0.000000 0.002234 0.000000
# 3 -0.008748 -0.002802 0.022308 0.000000 0.005385 0.000000
# 4 0.000000 0.000000 0.000000 0.033592 0.000000 0.007843
# 5 -0.007015 0.002234 0.005385 0.000000 0.037212 0.000000
# 6 0.000000 0.000000 0.000000 0.007843 0.000000 0.044956
#
#
# Mechanical properties :
#
#
# Convention : Reuss Voigt Hill
#
# Bulk Modulus (GPa) = 45.61587 50.19463 47.90525
# Shear Modulus (GPa) = 25.22757 28.85417 27.04087
#
# Velocity S-wave (km/s) = 3.58179 3.83059 3.70828
# Velocity P-wave (km/s) = 6.34847 6.71495 6.53428
#
# Compressibility (1/GPa) = 0.02192219
#
# Stress axis : x y z
#
# Youngs Moduli (GPa) = 78.27026 74.39525 44.82776
#
# Poissons Ratio (x) = 0.13031 0.39217
# Poissons Ratio (y) = 0.13710 0.12560
# Poissons Ratio (z) = 0.68473 0.20844
#
# Static dielectric constant tensor:
#      x y z
#    x 3.441230 0.000000 0.061050 
#    y 0.000000 3.590440 0.000000 
#    z 0.061050 0.000000 3.533940 
# 
# 
# High freq. dielectric constant tensor:
#      x y z
#    x 1.763290 0.000000 0.006990 
#    y 0.000000 1.760560 0.000000 
#    z 0.006990 0.000000 1.768080 
# 
# From -- ./inp_files/87898.got.cif
#   From: 2010.06.25/outbox.cif.g09.slc.cpg/sg15_44_cif.got.tgz:87898.got - 2010.06.28 07:06:18.
