data_PCOD8136709
_publ_section_title
;
Structure prediction by ZEFSAII (Michael W. Deem and Ramdas Pophale) SiO2 
 PCOD8136709
Probable space group: C 2/C
;
_chemical_formula_sum "Si O2"
_cell_formula_units_Z 56
_cell_length_a 18.628782
_cell_length_b 12.292785
_cell_length_c 13.850616
_cell_angle_alpha 90.000000
_cell_angle_beta 116.328625
_cell_angle_gamma 90.000000
_cell_volume 2842.760374
_symmetry_space_group_name_H-M "C 2/C"
_symmetry_group_IT_number 15
_symmetry_cell_setting 'monoclinic'
loop_
_space_group_symop_operation_xyz
x,y,z
-x,y,1/2-z
-x,-y,-z
x,-y,1/2+z
1/2+x,1/2+y,z
1/2-x,1/2+y,1/2-z
1/2-x,1/2-y,-z
1/2+x,1/2-y,1/2+z
loop_
_atom_site_type_symbol
_atom_site_label
_atom_site_fract_x
_atom_site_fract_y
_atom_site_fract_z
Si Si1 0.023918 0.392469 0.456900
Si Si2 0.935478 0.155872 0.974066
Si Si3 0.690990 0.032955 0.057655
Si Si4 0.647507 0.136682 0.690911
Si Si5 0.963490 0.012463 0.328607
Si Si6 0.271324 0.547683 0.908426
Si Si7 0.805634 0.879150 0.772974
O O1 0.041036 0.282255 0.528620
O O2 0.109823 0.419225 0.459924
O O3 0.000000 0.500000 0.500000
O O4 0.947864 0.371294 0.341984
O O5 0.961857 0.094863 0.893009
O O6 0.841324 0.138060 0.941288
O O7 0.984046 0.108291 0.093528
O O8 0.672714 0.923261 0.106570
O O9 0.727272 0.117327 0.158084
O O10 0.753740 0.015969 0.008681
O O11 0.691495 0.093549 0.811513
O O12 0.671712 0.258924 0.685254
O O13 0.000000 0.974174 0.250000
O O14 0.875090 0.058435 0.256136
O O15 0.295845 0.436956 0.870418
#
# Coordination Sequence:
#
# PCOD8136709 Si02
#       7
#     8   8   8   8   8   8   8
#     4  10  21  39  61  79 117 158 193 233 287 341
#     4  10  20  37  59  85 120 147 185 248 288 334
#     4  10  22  38  58  85 115 151 196 232 286 352
#     4  10  21  39  59  80 117 154 188 242 286 338
#     4  10  20  34  60  91 115 147 190 236 295 345
#     4  10  22  37  59  88 114 149 194 241 292 339
#     4  10  20  38  59  85 118 148 191 242 289 338
#
# _framework density 19.699162000000001
#
# number of rings (size 3 to 8) (size 9 to 14) (size 15 to 20)
#    0.000    2.000    1.429    1.714    0.000    4.571 
#    0.000    0.000   28.286    0.000    0.000    0.000 
#    0.000    0.000    0.000    0.000    0.000    0.000 
#
# Total GULP energy -346993.679345 kJ/mol
# GULP energy per Si atom -12392.631405 kJ/mol
# Density = 1.965433 g / cm^3
# Si number density = 19.699162 Si / 1000 Ang^3
#
#
#
# Elastic Constant Matrix: (Units=GPa)
#
#
# Indices 1 2 3 4 5 6 
#
# 1 104.6537 30.3421 52.9968 0.0000 0.4082 0.0000
# 2 30.3421 108.2690 30.1806 0.0000 0.7016 0.0000
# 3 52.9968 30.1806 81.7567 0.0000 8.9579 0.0000
# 4 0.0000 0.0000 0.0000 15.8114 0.0000 7.0812
# 5 0.4082 0.7016 8.9579 0.0000 46.6110 0.0000
# 6 0.0000 0.0000 0.0000 7.0812 0.0000 16.5443
#
#
#
# Elastic Compliance Matrix: (Units=1/GPa)
#
#
# Indices 1 2 3 4 5 6 
#
# 1 0.014592 -0.001575 -0.009057 0.000000 0.001636 0.000000
# 2 -0.001575 0.010482 -0.002893 0.000000 0.000412 0.000000
# 3 -0.009057 -0.002893 0.019569 0.000000 -0.003638 0.000000
# 4 0.000000 0.000000 0.000000 0.078244 0.000000 -0.033490
# 5 0.001636 0.000412 -0.003638 0.000000 0.022133 0.000000
# 6 0.000000 0.000000 0.000000 -0.033490 0.000000 0.074778
#
#
# Mechanical properties :
#
#
# Convention : Reuss Voigt Hill
#
# Bulk Modulus (GPa) = 56.84451 57.96870 57.40660
# Shear Modulus (GPa) = 19.78538 27.87067 23.82803
#
# Velocity S-wave (km/s) = 3.17263 3.76548 3.48170
# Velocity P-wave (km/s) = 6.50690 6.95672 6.73557
#
# Compressibility (1/GPa) = 0.01759185
#
# Stress axis : x y z
#
# Youngs Moduli (GPa) = 68.53073 95.40537 51.10177
#
# Poissons Ratio (x) = 0.15030 0.46281
# Poissons Ratio (y) = 0.10796 0.14785
# Poissons Ratio (z) = 0.62066 0.27603
#
# Static dielectric constant tensor:
#      x y z
#    x 3.791920 0.000000 0.520950 
#    y 0.000000 3.547120 0.000000 
#    z 0.520950 0.000000 3.626750 
# 
# 
# High freq. dielectric constant tensor:
#      x y z
#    x 1.770860 0.000000 0.030490 
#    y 0.000000 1.767050 0.000000 
#    z 0.030490 0.000000 1.763650 
# 
# From -- ./inp_files/161011.got.cif
#   From: 2010.06.25/outbox.cif.g09.slc.cpg/sg15_81_cif.got.tgz:161011.got - 2010.06.28 07:06:18.
