data_PCOD8136414
_publ_section_title
;
Structure prediction by ZEFSAII (Michael W. Deem and Ramdas Pophale) SiO2 
 PCOD8136414
Probable space group: C 2/C
;
_chemical_formula_sum "Si O2"
_cell_formula_units_Z 36
_cell_length_a 19.534110
_cell_length_b 13.362121
_cell_length_c 19.907096
_cell_angle_alpha 90.000000
_cell_angle_beta 21.311906
_cell_angle_gamma 90.000000
_cell_volume 1888.493228
_symmetry_space_group_name_H-M "C 2/C"
_symmetry_group_IT_number 15
_symmetry_cell_setting 'monoclinic'
loop_
_space_group_symop_operation_xyz
x,y,z
-x,y,1/2-z
-x,-y,-z
x,-y,1/2+z
1/2+x,1/2+y,z
1/2-x,1/2+y,1/2-z
1/2-x,1/2-y,-z
1/2+x,1/2-y,1/2+z
loop_
_atom_site_type_symbol
_atom_site_label
_atom_site_fract_x
_atom_site_fract_y
_atom_site_fract_z
Si Si1 0.305904 0.131770 0.670691
Si Si2 0.536801 0.998805 0.865157
Si Si3 0.657316 0.652345 0.557134
Si Si4 0.111146 0.850128 0.951709
Si Si5 0.500000 0.989870 0.750000
O O1 0.441097 0.095687 0.607842
O O2 0.326935 0.251286 0.645104
O O3 0.364976 0.071375 0.548741
O O4 0.090099 0.107630 0.889556
O O5 0.727361 0.933566 0.698880
O O6 0.484775 0.043087 0.837520
O O7 0.500000 0.608961 0.750000
O O8 0.750000 0.750000 0.500000
O O9 0.566527 0.680893 0.569192
O O10 0.815001 0.571136 0.404345
#
# Coordination Sequence:
#
# PCOD8136414 Si02
#       5
#     8   8   8   8   4
#     4  11  21  35  54  79 107 138 175 212 261 307
#     4  10  22  36  54  79 105 138 174 217 256 311
#     4  11  19  27  47  76 106 133 158 201 260 323
#     4  11  20  34  53  78 107 138 174 210 258 312
#     4  10  20  34  50  72 104 132 168 212 262 300
#
# _framework density 19.062816000000002
#
# number of rings (size 3 to 8) (size 9 to 14) (size 15 to 20)
#    0.000    1.333    3.333    4.667    0.000    0.000 
#    0.000    0.000    0.000    1.333    0.000    0.000 
#    0.000    0.000    0.000    0.000    0.000    0.000 
#
# Total GULP energy -223012.657097 kJ/mol
# GULP energy per Si atom -12389.592061 kJ/mol
# Density = 1.901943 g / cm^3
# Si number density = 19.062816 Si / 1000 Ang^3
#
#
#
# Elastic Constant Matrix: (Units=GPa)
#
#
# Indices 1 2 3 4 5 6 
#
# 1 103.2481 24.0087 -0.3574 -0.0012 17.0317 -0.0005
# 2 24.0087 39.6172 7.9980 -0.0031 2.3192 0.0002
# 3 -0.3574 7.9980 86.8548 -0.0101 -5.3183 0.0042
# 4 -0.0012 -0.0031 -0.0101 15.5771 -0.0018 1.2213
# 5 17.0317 2.3192 -5.3183 -0.0018 30.8450 0.0014
# 6 -0.0005 0.0002 0.0042 1.2213 0.0014 19.2654
#
#
#
# Elastic Compliance Matrix: (Units=1/GPa)
#
#
# Indices 1 2 3 4 5 6 
#
# 1 0.012394 -0.007212 0.000333 -0.000001 -0.006244 0.000001
# 2 -0.007212 0.030089 -0.002724 0.000004 0.001250 0.000000
# 3 0.000333 -0.002724 0.011893 0.000008 0.002072 -0.000003
# 4 -0.000001 0.000004 0.000008 0.064518 0.000006 -0.004090
# 5 -0.006244 0.001250 0.002072 0.000006 0.036131 -0.000003
# 6 0.000001 0.000000 -0.000003 -0.004090 -0.000003 0.052166
#
#
# Mechanical properties :
#
#
# Convention : Reuss Voigt Hill
#
# Bulk Modulus (GPa) = 28.43464 32.55763 30.49614
# Shear Modulus (GPa) = 20.99787 26.34220 23.67004
#
# Velocity S-wave (km/s) = 3.32250 3.72137 3.52758
# Velocity P-wave (km/s) = 5.44677 5.96499 5.71176
#
# Compressibility (1/GPa) = 0.03516837
#
# Stress axis : x y z
#
# Youngs Moduli (GPa) = 80.68641 33.23460 84.08651
#
# Poissons Ratio (x) = 0.23970 -0.02799
# Poissons Ratio (y) = 0.58195 0.22904
# Poissons Ratio (z) = -0.02685 0.09053
#
# Static dielectric constant tensor:
#      x y z
#    x 3.616560 -0.000010 -0.043910 
#    y -0.000010 2.963130 0.000010 
#    z -0.043910 0.000010 3.606510 
# 
# 
# High freq. dielectric constant tensor:
#      x y z
#    x 1.744090 0.000000 0.002450 
#    y 0.000000 1.689480 0.000000 
#    z 0.002450 0.000000 1.763970 
# 
# From -- ./inp_files/37578.got.cif
#   From: 2010.06.25/outbox.cif.g09.slc.cpg/sg15_19_cif.got.tgz:37578.got - 2010.06.28 07:06:18.
