data_PCOD8136143
_publ_section_title
;
Structure prediction by ZEFSAII (Michael W. Deem and Ramdas Pophale) SiO2 
 PCOD8136143
Probable space group: C 2/C
;
_chemical_formula_sum "Si O2"
_cell_formula_units_Z 64
_cell_length_a 23.430117
_cell_length_b 16.600570
_cell_length_c 9.458164
_cell_angle_alpha 90.000000
_cell_angle_beta 106.522636
_cell_angle_gamma 90.000000
_cell_volume 3526.877712
_symmetry_space_group_name_H-M "C 2/C"
_symmetry_group_IT_number 15
_symmetry_cell_setting 'monoclinic'
loop_
_space_group_symop_operation_xyz
x,y,z
-x,y,1/2-z
-x,-y,-z
x,-y,1/2+z
1/2+x,1/2+y,z
1/2-x,1/2+y,1/2-z
1/2-x,1/2-y,-z
1/2+x,1/2-y,1/2+z
loop_
_atom_site_type_symbol
_atom_site_label
_atom_site_fract_x
_atom_site_fract_y
_atom_site_fract_z
Si Si1 0.781164 0.987302 0.658315
Si Si2 0.179853 0.402526 0.999414
Si Si3 0.233050 0.335558 0.773269
Si Si4 0.303778 0.809121 0.218089
Si Si5 0.130770 0.730966 0.011334
Si Si6 0.948951 0.446620 0.598199
Si Si7 0.522078 0.123973 0.921701
Si Si8 0.315143 0.395507 0.421226
O O1 0.762446 0.920610 0.757545
O O2 0.824262 0.953009 0.564521
O O3 0.721947 0.019602 0.539770
O O4 0.815435 0.056923 0.771910
O O5 0.211697 0.337513 0.920915
O O6 0.116042 0.425164 0.886798
O O7 0.168587 0.369976 0.149149
O O8 0.283240 0.268656 0.790911
O O9 0.176516 0.318732 0.637025
O O10 0.247501 0.849027 0.098076
O O11 0.354122 0.784879 0.142341
O O12 0.133426 0.826982 0.046877
O O13 0.065062 0.697264 0.998325
O O14 0.943806 0.538423 0.540179
O O15 0.000000 0.439098 0.750000
O O16 0.965291 0.383243 0.485431
O O17 0.500000 0.142175 0.750000
#
# Coordination Sequence:
#
# PCOD8136143 Si02
#       8
#     8   8   8   8   8   8   8   8
#     4  11  19  32  50  76 108 139 177 211 257 326
#     4  11  22  31  51  74 105 146 174 209 269 306
#     4  11  19  32  48  73 107 141 170 213 259 320
#     4  10  20  32  49  74 107 135 180 210 256 324
#     4  11  19  34  55  72 104 144 176 219 272 304
#     4  10  21  36  49  74 105 140 181 218 247 304
#     4  10  21  35  53  74 102 133 183 224 252 299
#     4  10  20  33  49  78 103 139 174 216 258 324
#
# _framework density 18.146363000000001
#
# number of rings (size 3 to 8) (size 9 to 14) (size 15 to 20)
#    0.000    1.500    3.750    3.375    0.000    2.000 
#    0.000    0.000    0.000    0.000    0.000    0.875 
#    0.000    0.000    0.000    0.375    0.000    0.000 
#
# Total GULP energy -396794.289696 kJ/mol
# GULP energy per Si atom -12399.821553 kJ/mol
# Density = 1.810506 g / cm^3
# Si number density = 18.146363 Si / 1000 Ang^3
#
#
#
# Elastic Constant Matrix: (Units=GPa)
#
#
# Indices 1 2 3 4 5 6 
#
# 1 50.6258 32.3449 12.7622 0.0000 1.7537 0.0000
# 2 32.3449 96.7104 25.7208 0.0000 3.6116 0.0000
# 3 12.7622 25.7208 63.5911 0.0000 -5.4447 0.0000
# 4 0.0000 0.0000 0.0000 28.9319 0.0000 -2.3779
# 5 1.7537 3.6116 -5.4447 0.0000 22.8332 0.0000
# 6 0.0000 0.0000 0.0000 -2.3779 0.0000 26.7619
#
#
#
# Elastic Compliance Matrix: (Units=1/GPa)
#
#
# Indices 1 2 3 4 5 6 
#
# 1 0.025345 -0.007904 -0.001990 0.000000 -0.001171 0.000000
# 2 -0.007904 0.014258 -0.004412 0.000000 -0.002700 0.000000
# 3 -0.001990 -0.004412 0.018357 0.000000 0.005228 0.000000
# 4 0.000000 0.000000 0.000000 0.034818 0.000000 0.003094
# 5 -0.001171 -0.002700 0.005228 0.000000 0.045560 0.000000
# 6 0.000000 0.000000 0.000000 0.003094 0.000000 0.037641
#
#
# Mechanical properties :
#
#
# Convention : Reuss Voigt Hill
#
# Bulk Modulus (GPa) = 34.07327 39.17590 36.62458
# Shear Modulus (GPa) = 23.32394 25.04535 24.18465
#
# Velocity S-wave (km/s) = 3.58903 3.71912 3.65465
# Velocity P-wave (km/s) = 5.99938 6.33073 6.16728
#
# Compressibility (1/GPa) = 0.02934852
#
# Stress axis : x y z
#
# Youngs Moduli (GPa) = 39.45621 70.13753 54.47529
#
# Poissons Ratio (x) = 0.55433 0.10840
# Poissons Ratio (y) = 0.31184 0.24034
# Poissons Ratio (z) = 0.07852 0.30944
#
# Static dielectric constant tensor:
#      x y z
#    x 3.024640 0.000000 -0.152530 
#    y 0.000000 3.415340 0.000000 
#    z -0.152530 0.000000 3.370560 
# 
# 
# High freq. dielectric constant tensor:
#      x y z
#    x 1.659280 0.000000 -0.015640 
#    y 0.000000 1.698420 0.000000 
#    z -0.015640 0.000000 1.713460 
# 
# From -- ./inp_files/66259.got.cif
#   From: 2010.06.25/outbox.cif.g09.slc.cpg/sg15_34_cif.got.tgz:66259.got - 2010.06.28 07:06:18.
