data_PCOD8136609
_publ_section_title
;
Structure prediction by ZEFSAII (Michael W. Deem and Ramdas Pophale) SiO2 
 PCOD8136609
Probable space group: C 2/C
;
_chemical_formula_sum "Si O2"
_cell_formula_units_Z 56
_cell_length_a 12.532144
_cell_length_b 19.491743
_cell_length_c 12.540139
_cell_angle_alpha 90.000000
_cell_angle_beta 106.050798
_cell_angle_gamma 90.000000
_cell_volume 2943.807766
_symmetry_space_group_name_H-M "C 2/C"
_symmetry_group_IT_number 15
_symmetry_cell_setting 'monoclinic'
loop_
_space_group_symop_operation_xyz
x,y,z
-x,y,1/2-z
-x,-y,-z
x,-y,1/2+z
1/2+x,1/2+y,z
1/2-x,1/2+y,1/2-z
1/2-x,1/2-y,-z
1/2+x,1/2-y,1/2+z
loop_
_atom_site_type_symbol
_atom_site_label
_atom_site_fract_x
_atom_site_fract_y
_atom_site_fract_z
Si Si1 0.746405 0.054585 0.034364
Si Si2 0.813013 0.934902 0.209720
Si Si3 0.447992 0.570290 0.950181
Si Si4 0.870057 0.321298 0.614888
Si Si5 0.360207 0.667024 0.549828
Si Si6 0.097768 0.617023 0.165141
Si Si7 0.380120 0.025795 0.707281
O O1 0.678800 0.110941 0.085563
O O2 0.803503 0.996568 0.122523
O O3 0.844880 0.092330 0.997091
O O4 0.661064 0.020241 0.926516
O O5 0.912958 0.946517 0.319501
O O6 0.838762 0.863488 0.160402
O O7 0.699937 0.926776 0.244821
O O8 0.536904 0.631304 0.981356
O O9 0.500000 0.500000 0.000000
O O10 0.749829 0.348995 0.548549
O O11 0.888563 0.246438 0.570717
O O12 0.871244 0.320616 0.745356
O O13 0.969202 0.370176 0.595396
O O14 0.111509 0.549447 0.240285
O O15 0.500000 0.061650 0.750000
#
# Coordination Sequence:
#
# PCOD8136609 Si02
#       7
#     8   8   8   8   8   8   8
#     4  10  22  37  58  92 123 155 187 249 311 343
#     4  10  22  34  59  86 117 155 190 245 299 351
#     4  11  23  37  58  90 122 151 195 244 302 361
#     4  10  23  40  61  86 112 162 202 246 275 361
#     4  11  23  40  63  84 119 154 207 239 292 348
#     4  10  21  38  63  86 124 154 199 241 297 355
#     4  10  20  34  57  91 121 151 188 247 302 351
#
# _framework density 19.022981000000001
#
# number of rings (size 3 to 8) (size 9 to 14) (size 15 to 20)
#    0.000    1.714    2.857    1.286   10.000    1.143 
#    0.000    0.714    0.000    0.000    0.000    0.000 
#    0.000    0.000    0.000    0.000    0.000    0.000 
#
# Total GULP energy -347070.958067 kJ/mol
# GULP energy per Si atom -12395.391360 kJ/mol
# Density = 1.897968 g / cm^3
# Si number density = 19.022981 Si / 1000 Ang^3
#
#
#
# Elastic Constant Matrix: (Units=GPa)
#
#
# Indices 1 2 3 4 5 6 
#
# 1 152.2534 55.0882 71.7872 0.0000 5.1538 0.0000
# 2 55.0882 58.3130 30.7831 0.0000 2.0515 0.0000
# 3 71.7872 30.7831 112.0644 0.0000 7.4536 0.0000
# 4 0.0000 0.0000 0.0000 26.6311 0.0000 1.5509
# 5 5.1538 2.0515 7.4536 0.0000 36.7692 0.0000
# 6 0.0000 0.0000 0.0000 1.5509 0.0000 29.6131
#
#
#
# Elastic Compliance Matrix: (Units=1/GPa)
#
#
# Indices 1 2 3 4 5 6 
#
# 1 0.012319 -0.008739 -0.005483 0.000000 -0.000128 0.000000
# 2 -0.008739 0.026257 -0.001620 0.000000 0.000088 0.000000
# 3 -0.005483 -0.001620 0.012999 0.000000 -0.001776 0.000000
# 4 0.000000 0.000000 0.000000 0.037665 0.000000 -0.001973
# 5 -0.000128 0.000088 -0.001776 0.000000 0.027570 0.000000
# 6 0.000000 0.000000 0.000000 -0.001973 0.000000 0.033872
#
#
# Mechanical properties :
#
#
# Convention : Reuss Voigt Hill
#
# Bulk Modulus (GPa) = 50.27389 70.88310 60.57849
# Shear Modulus (GPa) = 26.45552 29.60084 28.02818
#
# Velocity S-wave (km/s) = 3.73327 3.94897 3.84263
# Velocity P-wave (km/s) = 6.71330 7.62464 7.18344
#
# Compressibility (1/GPa) = 0.01989104
#
# Stress axis : x y z
#
# Youngs Moduli (GPa) = 81.17255 38.08497 76.93109
#
# Poissons Ratio (x) = 0.33284 0.42178
# Poissons Ratio (y) = 0.70940 0.12463
# Poissons Ratio (z) = 0.44503 0.06170
#
# Static dielectric constant tensor:
#      x y z
#    x 4.003380 0.000000 -0.007510 
#    y 0.000000 3.158750 0.000000 
#    z -0.007510 0.000000 3.877740 
# 
# 
# High freq. dielectric constant tensor:
#      x y z
#    x 1.757300 0.000000 0.011580 
#    y 0.000000 1.701910 0.000000 
#    z 0.011580 0.000000 1.749950 
# 
# From -- ./inp_files/89642.got.cif
#   From: 2010.06.25/outbox.cif.g09.slc.cpg/sg15_45_cif.got.tgz:89642.got - 2010.06.28 07:06:18.
