data_PCOD8136016
_publ_section_title
;
Structure prediction by ZEFSAII (Michael W. Deem and Ramdas Pophale) SiO2 
 PCOD8136016
Probable space group: C 2/C
;
_chemical_formula_sum "Si O2"
_cell_formula_units_Z 52
_cell_length_a 10.911820
_cell_length_b 15.296461
_cell_length_c 16.785264
_cell_angle_alpha 90.000000
_cell_angle_beta 61.545810
_cell_angle_gamma 90.000000
_cell_volume 2463.219938
_symmetry_space_group_name_H-M "C 2/C"
_symmetry_group_IT_number 15
_symmetry_cell_setting 'monoclinic'
loop_
_space_group_symop_operation_xyz
x,y,z
-x,y,1/2-z
-x,-y,-z
x,-y,1/2+z
1/2+x,1/2+y,z
1/2-x,1/2+y,1/2-z
1/2-x,1/2-y,-z
1/2+x,1/2-y,1/2+z
loop_
_atom_site_type_symbol
_atom_site_label
_atom_site_fract_x
_atom_site_fract_y
_atom_site_fract_z
Si Si1 0.515199 0.145023 0.976108
Si Si2 0.002809 0.976296 0.090011
Si Si3 0.000000 0.669832 0.250000
Si Si4 0.573913 0.720917 0.870225
Si Si5 0.708467 0.019631 0.186684
Si Si6 0.121358 0.336872 0.270070
Si Si7 0.694438 0.004117 0.002774
O O1 0.583600 0.180672 0.873697
O O2 0.630214 0.096414 0.994717
O O3 0.447104 0.227925 0.040761
O O4 0.390497 0.078061 0.000803
O O5 0.993366 0.872905 0.100813
O O6 0.867795 0.023746 0.170587
O O7 0.149760 0.005552 0.082804
O O8 0.000000 0.000000 0.000000
O O9 0.018194 0.730329 0.167808
O O10 0.865365 0.610764 0.272154
O O11 0.736587 0.713247 0.796508
O O12 0.631490 0.941838 0.257201
O O13 0.702065 0.999740 0.095280
O O14 0.000000 0.300410 0.250000
#
# Coordination Sequence:
#
# PCOD8136016 Si02
#       7
#     8   8   4   8   8   8   8
#     4  11  23  41  70  99 133 176 234 276 335 408
#     4   9  22  43  65  92 130 175 219 272 344 397
#     4  12  22  42  68  98 132 170 230 282 332 406
#     4  11  27  42  66 105 134 173 229 289 334 393
#     4  10  19  42  67  90 130 179 222 266 346 402
#     4  11  23  44  66  92 135 187 219 276 346 409
#     4  10  20  40  69  97 126 175 226 272 339 412
#
# _framework density 21.110579999999999
#
# number of rings (size 3 to 8) (size 9 to 14) (size 15 to 20)
#    0.000    1.538    3.846    0.000    4.308    3.692 
#    2.769    0.000    0.000    0.000    0.000    0.000 
#    0.000    0.000    0.000    0.000    0.000    0.000 
#
# Total GULP energy -322359.267032 kJ/mol
# GULP energy per Si atom -12398.433347 kJ/mol
# Density = 2.106253 g / cm^3
# Si number density = 21.110580 Si / 1000 Ang^3
#
#
#
# Elastic Constant Matrix: (Units=GPa)
#
#
# Indices 1 2 3 4 5 6 
#
# 1 113.5822 33.6978 42.5825 0.0000 -29.6455 0.0000
# 2 33.6978 85.2423 50.3990 0.0000 -8.2151 0.0000
# 3 42.5825 50.3990 128.0207 0.0000 -5.6774 0.0000
# 4 0.0000 0.0000 0.0000 37.6519 0.0000 -5.5690
# 5 -29.6455 -8.2151 -5.6774 0.0000 36.1163 0.0000
# 6 0.0000 0.0000 0.0000 -5.5690 0.0000 20.5791
#
#
#
# Elastic Compliance Matrix: (Units=1/GPa)
#
#
# Indices 1 2 3 4 5 6 
#
# 1 0.013230 -0.002528 -0.002970 0.000000 0.009818 0.000000
# 2 -0.002528 0.016010 -0.005430 0.000000 0.000713 0.000000
# 3 -0.002970 -0.005430 0.010850 0.000000 -0.001968 0.000000
# 4 0.000000 0.000000 0.000000 0.027666 0.000000 0.007487
# 5 0.009818 0.000713 -0.001968 0.000000 0.035600 0.000000
# 6 0.000000 0.000000 0.000000 0.007487 0.000000 0.050619
#
#
# Mechanical properties :
#
#
# Convention : Reuss Voigt Hill
#
# Bulk Modulus (GPa) = 54.84487 64.46708 59.65597
# Shear Modulus (GPa) = 27.48617 32.21386 29.85002
#
# Velocity S-wave (km/s) = 3.61225 3.91059 3.76438
# Velocity P-wave (km/s) = 6.59045 7.14103 6.87126
#
# Compressibility (1/GPa) = 0.01823325
#
# Stress axis : x y z
#
# Youngs Moduli (GPa) = 75.58469 62.46116 92.16866
#
# Poissons Ratio (x) = 0.15790 0.27375
# Poissons Ratio (y) = 0.19107 0.50050
# Poissons Ratio (z) = 0.22449 0.33918
#
# Static dielectric constant tensor:
#      x y z
#    x 4.473380 0.000000 -0.391990 
#    y 0.000000 3.691150 0.000000 
#    z -0.391990 0.000000 3.919950 
# 
# 
# High freq. dielectric constant tensor:
#      x y z
#    x 1.837850 0.000000 -0.013310 
#    y 0.000000 1.817190 0.000000 
#    z -0.013310 0.000000 1.827650 
# 
# From -- ./inp_files/197714.got.cif
#   From: 2010.06.25/outbox.cif.g09.slc.cpg/sg15_99_cif.got.tgz:197714.got - 2010.06.28 07:06:18.
