data_PCOD8136600
_publ_section_title
;
Structure prediction by ZEFSAII (Michael W. Deem and Ramdas Pophale) SiO2 
 PCOD8136600
Probable space group: C 2/C
;
_chemical_formula_sum "Si O2"
_cell_formula_units_Z 56
_cell_length_a 27.677660
_cell_length_b 15.714042
_cell_length_c 9.620094
_cell_angle_alpha 90.000000
_cell_angle_beta 142.359083
_cell_angle_gamma 90.000000
_cell_volume 2555.242978
_symmetry_space_group_name_H-M "C 2/C"
_symmetry_group_IT_number 15
_symmetry_cell_setting 'monoclinic'
loop_
_space_group_symop_operation_xyz
x,y,z
-x,y,1/2-z
-x,-y,-z
x,-y,1/2+z
1/2+x,1/2+y,z
1/2-x,1/2+y,1/2-z
1/2-x,1/2-y,-z
1/2+x,1/2-y,1/2+z
loop_
_atom_site_type_symbol
_atom_site_label
_atom_site_fract_x
_atom_site_fract_y
_atom_site_fract_z
Si Si1 0.140133 0.893811 0.347048
Si Si2 0.675452 0.502297 0.673638
Si Si3 0.225498 0.653657 0.694911
Si Si4 0.468709 0.926013 0.525102
Si Si5 0.084397 0.705926 0.206047
Si Si6 0.799967 0.377216 0.073091
Si Si7 0.195633 0.313833 0.715513
O O1 0.122517 0.942948 0.161980
O O2 0.086936 0.808282 0.233036
O O3 0.234552 0.875271 0.571644
O O4 0.119558 0.953698 0.433674
O O5 0.737627 0.560338 0.731439
O O6 0.724602 0.435589 0.874960
O O7 0.135314 0.656813 0.438614
O O8 0.226283 0.684333 0.858401
O O9 0.274009 0.716837 0.704627
O O10 0.500000 0.943440 0.750000
O O11 0.497223 0.832951 0.530508
O O12 0.373733 0.930431 0.302618
O O13 0.500000 0.000000 0.500000
O O14 0.117393 0.678588 0.129871
O O15 0.827328 0.329838 0.996382
#
# Coordination Sequence:
#
# PCOD8136600 Si02
#       7
#     8   8   8   8   8   8   8
#     4  10  20  34  57  89 122 157 192 256 314 361
#     4  11  19  32  57  91 119 152 191 256 312 356
#     4  11  18  36  56  85 124 149 196 253 312 362
#     4  12  28  42  60  84 124 171 208 247 290 371
#     4  11  21  40  58  81 126 170 207 240 309 373
#     4  11  24  35  55  87 124 153 200 243 307 364
#     4  10  21  34  59  84 119 160 195 252 311 366
#
# _framework density 21.915723
#
# number of rings (size 3 to 8) (size 9 to 14) (size 15 to 20)
#    0.000    1.143    5.714    2.143    2.000    0.000 
#    0.000    0.000    0.000    0.000    0.000    4.000 
#    0.000    0.000    0.000    0.000    0.000    0.000 
#
# Total GULP energy -347137.277050 kJ/mol
# GULP energy per Si atom -12397.759895 kJ/mol
# Density = 2.186584 g / cm^3
# Si number density = 21.915723 Si / 1000 Ang^3
#
#
#
# Elastic Constant Matrix: (Units=GPa)
#
#
# Indices 1 2 3 4 5 6 
#
# 1 81.5970 27.3663 25.1830 0.0000 -38.0351 0.0000
# 2 27.3663 95.1100 14.5545 0.0000 -15.7380 0.0000
# 3 25.1830 14.5545 42.7103 0.0000 -23.9439 0.0000
# 4 0.0000 0.0000 0.0000 29.0906 0.0000 -7.3818
# 5 -38.0351 -15.7380 -23.9439 0.0000 40.3389 0.0000
# 6 0.0000 0.0000 0.0000 -7.3818 0.0000 38.5293
#
#
#
# Elastic Compliance Matrix: (Units=1/GPa)
#
#
# Indices 1 2 3 4 5 6 
#
# 1 0.022807 -0.003123 -0.001515 0.000000 0.019387 0.000000
# 2 -0.003123 0.011789 -0.001871 0.000000 0.000545 0.000000
# 3 -0.001515 -0.001871 0.035571 0.000000 0.018956 0.000000
# 4 0.000000 0.000000 0.000000 0.036132 0.000000 0.006923
# 5 0.019387 0.000545 0.018956 0.000000 0.054534 0.000000
# 6 0.000000 0.000000 0.000000 0.006923 0.000000 0.027281
#
#
# Mechanical properties :
#
#
# Convention : Reuss Voigt Hill
#
# Bulk Modulus (GPa) = 17.49759 39.29165 28.39462
# Shear Modulus (GPa) = 22.70863 31.74597 27.22730
#
# Velocity S-wave (km/s) = 3.22247 3.81011 3.52854
# Velocity P-wave (km/s) = 4.67409 6.10928 5.43923
#
# Compressibility (1/GPa) = 0.05715072
#
# Stress axis : x y z
#
# Youngs Moduli (GPa) = 43.84586 84.82456 28.11279
#
# Poissons Ratio (x) = 0.26487 0.04259
# Poissons Ratio (y) = 0.13691 0.05260
# Poissons Ratio (z) = 0.06642 0.15870
#
# Static dielectric constant tensor:
#      x y z
#    x 3.882220 0.000000 -0.405080 
#    y 0.000000 3.949610 0.000000 
#    z -0.405080 0.000000 3.762870 
# 
# 
# High freq. dielectric constant tensor:
#      x y z
#    x 1.859510 0.000000 -0.045110 
#    y 0.000000 1.860380 0.000000 
#    z -0.045110 0.000000 1.835400 
# 
# From -- ./inp_files/67172.got.cif
#   From: 2010.06.25/outbox.cif.g09.slc.cpg/sg15_34_cif.got.tgz:67172.got - 2010.06.28 07:06:18.
