data_PCOD8136403
_publ_section_title
;
Structure prediction by ZEFSAII (Michael W. Deem and Ramdas Pophale) SiO2 
 PCOD8136403
Probable space group: C 2/C
;
_chemical_formula_sum "Si O2"
_cell_formula_units_Z 64
_cell_length_a 16.888063
_cell_length_b 20.983417
_cell_length_c 19.036325
_cell_angle_alpha 90.000000
_cell_angle_beta 148.955918
_cell_angle_gamma 90.000000
_cell_volume 3478.837234
_symmetry_space_group_name_H-M "C 2/C"
_symmetry_group_IT_number 15
_symmetry_cell_setting 'monoclinic'
loop_
_space_group_symop_operation_xyz
x,y,z
-x,y,1/2-z
-x,-y,-z
x,-y,1/2+z
1/2+x,1/2+y,z
1/2-x,1/2+y,1/2-z
1/2-x,1/2-y,-z
1/2+x,1/2-y,1/2+z
loop_
_atom_site_type_symbol
_atom_site_label
_atom_site_fract_x
_atom_site_fract_y
_atom_site_fract_z
Si Si1 0.220242 0.395677 0.770242
Si Si2 0.676031 0.001862 0.958847
Si Si3 0.945709 0.819329 0.027397
Si Si4 0.256417 0.103355 0.768555
Si Si5 0.675552 0.020887 0.113085
Si Si6 0.337359 0.632495 0.590378
Si Si7 0.577176 0.826265 0.989350
Si Si8 0.324583 0.021537 0.691303
O O1 0.345839 0.342859 0.885049
O O2 0.230267 0.416511 0.696135
O O3 0.263791 0.458788 0.848340
O O4 0.050214 0.365995 0.650960
O O5 0.494917 0.994043 0.819130
O O6 0.729892 0.040404 0.929428
O O7 0.755299 0.933995 0.015396
O O8 0.710296 0.037394 0.058315
O O9 0.852417 0.830965 0.028188
O O10 0.981164 0.745215 0.043856
O O11 0.105884 0.855048 0.149627
O O12 0.308134 0.082680 0.729288
O O13 0.220408 0.040151 0.787120
O O14 0.392040 0.142552 0.910433
O O15 0.500000 0.000000 0.000000
O O16 0.500000 0.621329 0.750000
O O17 0.234262 0.674983 0.564151
#
# Coordination Sequence:
#
# PCOD8136403 Si02
#       8
#     8   8   8   8   8   8   8   8
#     4  11  21  36  58  85 108 154 201 242 279 339
#     4  11  18  35  56  90 112 147 189 237 300 353
#     4  12  26  37  54  87 120 161 196 239 284 334
#     4  11  21  41  57  82 119 149 202 242 290 341
#     4  11  17  35  61  83 113 149 188 239 298 347
#     4  12  22  37  53  84 123 162 196 229 279 349
#     4  12  22  40  59  78 121 165 202 228 279 358
#     4  10  20  33  62  82 111 147 192 249 292 345
#
# _framework density 18.396951999999999
#
# number of rings (size 3 to 8) (size 9 to 14) (size 15 to 20)
#    0.000    0.750    8.750    1.125    0.000    2.500 
#    2.250    0.000    0.000    0.000    0.000   15.750 
#    0.000    0.000    0.000    0.000    0.000    0.000 
#
# Total GULP energy -396588.872256 kJ/mol
# GULP energy per Si atom -12393.402258 kJ/mol
# Density = 1.835508 g / cm^3
# Si number density = 18.396952 Si / 1000 Ang^3
#
#
#
# Elastic Constant Matrix: (Units=GPa)
#
#
# Indices 1 2 3 4 5 6 
#
# 1 96.8695 44.4625 34.4197 0.0044 -40.1232 0.0004
# 2 44.4625 93.6979 38.3699 0.0010 -6.1296 0.0000
# 3 34.4197 38.3699 86.7948 0.0151 -10.6988 0.0060
# 4 0.0044 0.0010 0.0151 27.2793 -0.0018 -0.8116
# 5 -40.1232 -6.1296 -10.6988 -0.0018 37.7136 0.0016
# 6 0.0004 0.0000 0.0060 -0.8116 0.0016 21.0296
#
#
#
# Elastic Compliance Matrix: (Units=1/GPa)
#
#
# Indices 1 2 3 4 5 6 
#
# 1 0.026511 -0.009634 -0.003078 -0.000001 0.025766 -0.000002
# 2 -0.009634 0.016542 -0.004585 0.000003 -0.008862 0.000002
# 3 -0.003078 -0.004585 0.014791 -0.000008 0.000176 -0.000004
# 4 -0.000001 0.000003 -0.000008 0.036700 -0.000001 0.001416
# 5 0.025766 -0.008862 0.000176 -0.000001 0.052537 -0.000005
# 6 -0.000002 0.000002 -0.000004 0.001416 -0.000005 0.047607
#
#
# Mechanical properties :
#
#
# Convention : Reuss Voigt Hill
#
# Bulk Modulus (GPa) = 43.01147 56.87405 49.94276
# Shear Modulus (GPa) = 21.09419 27.87850 24.48634
#
# Velocity S-wave (km/s) = 3.38984 3.89702 3.65225
# Velocity P-wave (km/s) = 6.22509 7.15759 6.70757
#
# Compressibility (1/GPa) = 0.02324961
#
# Stress axis : x y z
#
# Youngs Moduli (GPa) = 37.71987 60.45201 67.61061
#
# Poissons Ratio (x) = 0.58241 0.20812
# Poissons Ratio (y) = 0.36340 0.30997
# Poissons Ratio (z) = 0.11611 0.27715
#
# Static dielectric constant tensor:
#      x y z
#    x 3.865140 -0.000010 -0.418270 
#    y -0.000010 3.216560 -0.000050 
#    z -0.418270 -0.000050 3.618140 
# 
# 
# High freq. dielectric constant tensor:
#      x y z
#    x 1.699110 0.000000 -0.019190 
#    y 0.000000 1.686200 0.000000 
#    z -0.019190 0.000000 1.722320 
# 
# From -- ./inp_files/249935.got.cif
#   From: 2010.06.25/outbox.cif.g09.slc.cpg/sg15_125_cif.got.tgz:249935.got - 2010.06.28 07:06:18.
