data_PCOD8136943
_publ_section_title
;
Structure prediction by ZEFSAII (Michael W. Deem and Ramdas Pophale) SiO2 
 PCOD8136943
Probable space group: C 2/C
;
_chemical_formula_sum "Si O2"
_cell_formula_units_Z 48
_cell_length_a 9.246542
_cell_length_b 16.095959
_cell_length_c 32.394808
_cell_angle_alpha 90.000000
_cell_angle_beta 153.414676
_cell_angle_gamma 90.000000
_cell_volume 2157.713639
_symmetry_space_group_name_H-M "C 2/C"
_symmetry_group_IT_number 15
_symmetry_cell_setting 'monoclinic'
loop_
_space_group_symop_operation_xyz
x,y,z
-x,y,1/2-z
-x,-y,-z
x,-y,1/2+z
1/2+x,1/2+y,z
1/2-x,1/2+y,1/2-z
1/2-x,1/2-y,-z
1/2+x,1/2-y,1/2+z
loop_
_atom_site_type_symbol
_atom_site_label
_atom_site_fract_x
_atom_site_fract_y
_atom_site_fract_z
Si Si1 0.216012 0.987978 0.844648
Si Si2 0.263049 0.770429 0.067432
Si Si3 0.404791 0.976163 0.771345
Si Si4 0.220023 0.920082 0.558944
Si Si5 0.381844 0.828912 0.265067
Si Si6 0.362095 0.837925 0.412257
O O1 0.400778 0.065173 0.912409
O O2 0.000000 0.017554 0.750000
O O3 0.490334 0.922708 0.901087
O O4 0.969637 0.951116 0.815810
O O5 0.438125 0.768517 0.156421
O O6 0.528449 0.788800 0.100426
O O7 0.980000 0.837811 0.998145
O O8 0.086172 0.684460 0.009198
O O9 0.500000 0.951276 0.750000
O O10 0.628265 0.919639 0.856888
O O11 0.460975 0.074379 0.794801
O O12 0.000000 0.000000 0.500000
O O13 0.500000 0.803017 0.250000
O O14 0.002617 0.812400 0.170734
#
# Coordination Sequence:
#
# PCOD8136943 Si02
#       6
#     8   8   8   8   8   8
#     4   9  17  34  60  81 113 159 201 239 302 370
#     4  11  21  35  59  88 115 151 202 251 302 357
#     4   9  18  34  55  80 110 150 199 241 299 363
#     4  11  18  33  57  83 113 149 195 253 296 359
#     4  10  20  37  58  79 112 156 195 242 298 365
#     4  10  20  35  57  85 113 149 197 242 295 364
#
# _framework density 22.24577
#
# number of rings (size 3 to 8) (size 9 to 14) (size 15 to 20)
#    0.000    2.000    3.333    2.500    0.000    0.667 
#    0.000    9.167    0.000    0.000    0.000    0.000 
#    0.000    0.000    0.000    0.000    0.000    0.000 
#
# Total GULP energy -297553.028488 kJ/mol
# GULP energy per Si atom -12398.042854 kJ/mol
# Density = 2.219514 g / cm^3
# Si number density = 22.245770 Si / 1000 Ang^3
#
#
#
# Elastic Constant Matrix: (Units=GPa)
#
#
# Indices 1 2 3 4 5 6 
#
# 1 186.2880 19.3945 64.9246 -0.0004 9.8421 -0.0002
# 2 19.3945 23.2740 11.5606 -0.0085 6.1654 0.0035
# 3 64.9246 11.5606 87.9318 -0.0103 4.2576 0.0082
# 4 -0.0004 -0.0085 -0.0103 35.3271 0.0033 2.2299
# 5 9.8421 6.1654 4.2576 0.0033 35.1454 -0.0005
# 6 -0.0002 0.0035 0.0082 2.2299 -0.0005 7.5994
#
#
#
# Elastic Compliance Matrix: (Units=1/GPa)
#
#
# Indices 1 2 3 4 5 6 
#
# 1 0.007549 -0.003541 -0.005065 -0.000003 -0.000879 0.000008
# 2 -0.003541 0.049612 -0.003555 0.000013 -0.007281 -0.000024
# 3 -0.005065 -0.003555 0.015572 0.000005 0.000156 -0.000017
# 4 -0.000003 0.000013 0.000005 0.028841 -0.000005 -0.008463
# 5 -0.000879 -0.007281 0.000156 -0.000005 0.029958 0.000007
# 6 0.000008 -0.000024 -0.000017 -0.008463 0.000007 0.134073
#
#
# Mechanical properties :
#
#
# Convention : Reuss Voigt Hill
#
# Bulk Modulus (GPa) = 20.65728 54.36143 37.50936
# Shear Modulus (GPa) = 16.33639 29.05532 22.69586
#
# Velocity S-wave (km/s) = 2.71285 3.61793 3.19757
# Velocity P-wave (km/s) = 4.37251 6.47629 5.52545
#
# Compressibility (1/GPa) = 0.04840909
#
# Stress axis : x y z
#
# Youngs Moduli (GPa) = 132.47645 20.15632 64.21652
#
# Poissons Ratio (x) = 0.07138 0.32528
# Poissons Ratio (y) = 0.46915 0.22831
# Poissons Ratio (z) = 0.67103 0.07166
#
# Static dielectric constant tensor:
#      x y z
#    x 4.401900 0.000000 0.359940 
#    y 0.000000 4.156440 0.000020 
#    z 0.359940 0.000020 4.500220 
# 
# 
# High freq. dielectric constant tensor:
#      x y z
#    x 1.891390 0.000000 0.015450 
#    y 0.000000 1.836800 0.000000 
#    z 0.015450 0.000000 1.878040 
# 
# From -- ./inp_files/308839.got.cif
#   From: 2010.06.25/outbox.cif.g09.slc.cpg/sg15_155_cif.got.tgz:308839.got - 2010.06.28 07:06:18.
