data_PCOD8136317
_publ_section_title
;
Structure prediction by ZEFSAII (Michael W. Deem and Ramdas Pophale) SiO2 
 PCOD8136317
Probable space group: C 2/C
;
_chemical_formula_sum "Si O2"
_cell_formula_units_Z 56
_cell_length_a 12.346040
_cell_length_b 16.170758
_cell_length_c 15.551120
_cell_angle_alpha 90.000000
_cell_angle_beta 114.198827
_cell_angle_gamma 90.000000
_cell_volume 2831.885956
_symmetry_space_group_name_H-M "C 2/C"
_symmetry_group_IT_number 15
_symmetry_cell_setting 'monoclinic'
loop_
_space_group_symop_operation_xyz
x,y,z
-x,y,1/2-z
-x,-y,-z
x,-y,1/2+z
1/2+x,1/2+y,z
1/2-x,1/2+y,1/2-z
1/2-x,1/2-y,-z
1/2+x,1/2-y,1/2+z
loop_
_atom_site_type_symbol
_atom_site_label
_atom_site_fract_x
_atom_site_fract_y
_atom_site_fract_z
Si Si1 0.611412 0.169598 0.467633
Si Si2 0.994038 0.824926 0.988130
Si Si3 0.365994 0.907931 0.346935
Si Si4 0.420535 0.080026 0.307874
Si Si5 0.560574 0.214532 0.853317
Si Si6 0.272195 0.606314 0.863284
Si Si7 0.731283 0.585090 0.119930
O O1 0.592639 0.265801 0.483801
O O2 0.661392 0.122402 0.566879
O O3 0.480726 0.145829 0.390206
O O4 0.708728 0.147061 0.428958
O O5 0.908396 0.895390 0.920573
O O6 0.061450 0.778020 0.932825
O O7 0.091067 0.868991 0.079300
O O8 0.479691 0.863597 0.345796
O O9 0.253168 0.893622 0.247376
O O10 0.401143 0.002945 0.363518
O O11 0.500000 0.057387 0.250000
O O12 0.292214 0.109934 0.230967
O O13 0.500000 0.258463 0.750000
O O14 0.691611 0.176541 0.882435
O O15 0.248632 0.513114 0.892717
#
# Coordination Sequence:
#
# PCOD8136317 Si02
#       7
#     8   8   8   8   8   8   8
#     4  10  20  33  54  81 106 136 178 224 263 308
#     4  11  22  35  54  81 111 143 173 213 268 318
#     4   9  17  32  55  81 107 137 177 222 263 308
#     4   9  17  31  53  78 104 138 179 222 265 309
#     4   9  18  34  56  80 107 136 176 225 265 303
#     4  10  20  37  57  77 106 145 179 212 262 320
#     4  10  21  38  55  76 109 145 177 214 261 318
#
# _framework density 19.774808
#
# number of rings (size 3 to 8) (size 9 to 14) (size 15 to 20)
#    0.000    2.286    0.000    4.714    0.000    4.571 
#    0.000    5.000    0.000    0.000    0.000    0.000 
#    0.000    0.000    0.000    0.000    0.000    0.000 
#
# Total GULP energy -346967.738827 kJ/mol
# GULP energy per Si atom -12391.704958 kJ/mol
# Density = 1.972980 g / cm^3
# Si number density = 19.774808 Si / 1000 Ang^3
#
#
#
# Elastic Constant Matrix: (Units=GPa)
#
#
# Indices 1 2 3 4 5 6 
#
# 1 45.2121 24.6057 35.7608 0.0000 18.6502 0.0000
# 2 24.6057 66.9460 40.3913 0.0000 7.6959 0.0000
# 3 35.7608 40.3913 123.6918 0.0000 24.3283 0.0000
# 4 0.0000 0.0000 0.0000 25.8394 0.0000 10.9994
# 5 18.6502 7.6959 24.3283 0.0000 35.6902 0.0000
# 6 0.0000 0.0000 0.0000 10.9994 0.0000 13.1474
#
#
#
# Elastic Compliance Matrix: (Units=1/GPa)
#
#
# Indices 1 2 3 4 5 6 
#
# 1 0.036560 -0.008856 -0.004961 0.000000 -0.013813 0.000000
# 2 -0.008856 0.020748 -0.004902 0.000000 0.003496 0.000000
# 3 -0.004961 -0.004902 0.012013 0.000000 -0.004539 0.000000
# 4 0.000000 0.000000 0.000000 0.060107 0.000000 -0.050286
# 5 -0.013813 0.003496 -0.004539 0.000000 0.037577 0.000000
# 6 0.000000 0.000000 0.000000 -0.050286 0.000000 0.118131
#
#
# Mechanical properties :
#
#
# Convention : Reuss Voigt Hill
#
# Bulk Modulus (GPa) = 31.36643 48.59617 39.98130
# Shear Modulus (GPa) = 15.00589 23.94153 19.47371
#
# Velocity S-wave (km/s) = 2.75769 3.48330 3.14151
# Velocity P-wave (km/s) = 5.10255 6.38795 5.78109
#
# Compressibility (1/GPa) = 0.03188122
#
# Stress axis : x y z
#
# Youngs Moduli (GPa) = 27.35251 48.19626 83.24647
#
# Poissons Ratio (x) = 0.42684 0.41299
# Poissons Ratio (y) = 0.24224 0.40811
# Poissons Ratio (z) = 0.13570 0.23628
#
# Static dielectric constant tensor:
#      x y z
#    x 3.255830 0.000000 0.048870 
#    y 0.000000 3.459800 0.000000 
#    z 0.048870 0.000000 4.140480 
# 
# 
# High freq. dielectric constant tensor:
#      x y z
#    x 1.740610 0.000000 0.015910 
#    y 0.000000 1.762400 0.000000 
#    z 0.015910 0.000000 1.788490 
# 
# From -- ./inp_files/199290.got.cif
#   From: 2010.06.25/outbox.cif.g09.slc.cpg/sg15_100_cif.got.tgz:199290.got - 2010.06.28 07:06:18.
