data_PCOD8136495
_publ_section_title
;
Structure prediction by ZEFSAII (Michael W. Deem and Ramdas Pophale) SiO2 
 PCOD8136495
Probable space group: C 2/C
;
_chemical_formula_sum "Si O2"
_cell_formula_units_Z 60
_cell_length_a 18.237000
_cell_length_b 28.942735
_cell_length_c 12.480562
_cell_angle_alpha 90.000000
_cell_angle_beta 152.194442
_cell_angle_gamma 90.000000
_cell_volume 3072.933098
_symmetry_space_group_name_H-M "C 2/C"
_symmetry_group_IT_number 15
_symmetry_cell_setting 'monoclinic'
loop_
_space_group_symop_operation_xyz
x,y,z
-x,y,1/2-z
-x,-y,-z
x,-y,1/2+z
1/2+x,1/2+y,z
1/2-x,1/2+y,1/2-z
1/2-x,1/2-y,-z
1/2+x,1/2-y,1/2+z
loop_
_atom_site_type_symbol
_atom_site_label
_atom_site_fract_x
_atom_site_fract_y
_atom_site_fract_z
Si Si1 0.319847 0.868775 0.619116
Si Si2 0.398343 0.278673 0.522167
Si Si3 0.153518 0.315484 0.645828
Si Si4 0.347564 0.102186 0.929044
Si Si5 0.500000 0.584623 0.750000
Si Si6 0.553017 0.550904 0.593436
Si Si7 0.674340 0.847601 0.315330
Si Si8 0.113838 0.859303 0.712063
O O1 0.357982 0.823302 0.739881
O O2 0.308983 0.860413 0.476246
O O3 0.156176 0.884889 0.456122
O O4 0.463182 0.905982 0.824751
O O5 0.500000 0.256428 0.750000
O O6 0.354657 0.239473 0.380489
O O7 0.237309 0.296485 0.367521
O O8 0.483080 0.322785 0.579640
O O9 0.308214 0.337773 0.793415
O O10 0.010182 0.341880 0.401710
O O11 0.291204 0.119265 0.740871
O O12 0.242289 0.056887 0.820503
O O13 0.506976 0.552361 0.657061
O O14 0.500000 0.500000 0.500000
O O15 0.464043 0.591283 0.413212
O O16 0.760474 0.867950 0.530924
#
# Coordination Sequence:
#
# PCOD8136495 Si02
#       8
#     8   8   8   8   4   8   8   8
#     4   9  19  36  63  81 113 161 195 240 294 350
#     4  10  20  34  54  85 119 160 195 237 298 360
#     4  11  20  34  57  87 116 157 196 240 296 354
#     4   9  19  38  59  81 115 156 200 240 297 346
#     4  10  20  42  64  86 116 160 192 250 304 340
#     4  11  23  39  64  89 117 156 202 244 295 355
#     4  10  20  34  57  81 122 155 187 245 297 347
#     4  11  21  36  57  87 120 154 192 245 297 350
#
# _framework density 19.525320000000001
#
# number of rings (size 3 to 8) (size 9 to 14) (size 15 to 20)
#    0.000    1.867    2.667    2.000    0.000    3.200 
#    0.000    1.333   11.733    1.600    0.000    0.000 
#    0.000    0.000    0.000    0.000    0.000    0.000 
#
# Total GULP energy -371696.666834 kJ/mol
# GULP energy per Si atom -12389.888894 kJ/mol
# Density = 1.948088 g / cm^3
# Si number density = 19.525320 Si / 1000 Ang^3
#
#
#
# Elastic Constant Matrix: (Units=GPa)
#
#
# Indices 1 2 3 4 5 6 
#
# 1 83.7601 31.7300 33.1557 0.0000 -0.3926 0.0000
# 2 31.7300 107.6847 38.6274 0.0000 -4.2004 0.0000
# 3 33.1557 38.6274 77.9429 0.0000 4.0712 0.0000
# 4 0.0000 0.0000 0.0000 21.6164 0.0000 -6.6534
# 5 -0.3926 -4.2004 4.0712 0.0000 45.7688 0.0000
# 6 0.0000 0.0000 0.0000 -6.6534 0.0000 20.3391
#
#
#
# Elastic Compliance Matrix: (Units=1/GPa)
#
#
# Indices 1 2 3 4 5 6 
#
# 1 0.014928 -0.002555 -0.005102 0.000000 0.000347 0.000000
# 2 -0.002555 0.011841 -0.004859 0.000000 0.001497 0.000000
# 3 -0.005102 -0.004859 0.017515 0.000000 -0.002048 0.000000
# 4 0.000000 0.000000 0.000000 0.051441 0.000000 0.016828
# 5 0.000347 0.001497 -0.002048 0.000000 0.022171 0.000000
# 6 0.000000 0.000000 0.000000 0.016828 0.000000 0.054671
#
#
# Mechanical properties :
#
#
# Convention : Reuss Voigt Hill
#
# Bulk Modulus (GPa) = 51.94471 52.93488 52.43980
# Shear Modulus (GPa) = 24.50772 28.60318 26.55545
#
# Velocity S-wave (km/s) = 3.54669 3.83159 3.69189
# Velocity P-wave (km/s) = 6.59041 6.83700 6.71484
#
# Compressibility (1/GPa) = 0.01925124
#
# Stress axis : x y z
#
# Youngs Moduli (GPa) = 66.98844 84.45439 57.09232
#
# Poissons Ratio (x) = 0.21577 0.29129
# Poissons Ratio (y) = 0.17115 0.27744
# Poissons Ratio (z) = 0.34178 0.41040
#
# Static dielectric constant tensor:
#      x y z
#    x 3.916110 0.000000 0.076440 
#    y 0.000000 3.039770 0.000000 
#    z 0.076440 0.000000 3.839080 
# 
# 
# High freq. dielectric constant tensor:
#      x y z
#    x 1.784210 0.000000 0.005760 
#    y 0.000000 1.704460 0.000000 
#    z 0.005760 0.000000 1.775850 
# 
# From -- ./inp_files/108600.got.cif
#   From: 2010.06.25/outbox.cif.g09.slc.cpg/sg15_55_cif.got.tgz:108600.got - 2010.06.28 07:06:18.
