data_PCOD8136617
_publ_section_title
;
Structure prediction by ZEFSAII (Michael W. Deem and Ramdas Pophale) SiO2 
 PCOD8136617
Probable space group: C 2/C
;
_chemical_formula_sum "Si O2"
_cell_formula_units_Z 52
_cell_length_a 14.212086
_cell_length_b 12.690652
_cell_length_c 24.439644
_cell_angle_alpha 90.000000
_cell_angle_beta 34.004123
_cell_angle_gamma 90.000000
_cell_volume 2465.157194
_symmetry_space_group_name_H-M "C 2/C"
_symmetry_group_IT_number 15
_symmetry_cell_setting 'monoclinic'
loop_
_space_group_symop_operation_xyz
x,y,z
-x,y,1/2-z
-x,-y,-z
x,-y,1/2+z
1/2+x,1/2+y,z
1/2-x,1/2+y,1/2-z
1/2-x,1/2-y,-z
1/2+x,1/2-y,1/2+z
loop_
_atom_site_type_symbol
_atom_site_label
_atom_site_fract_x
_atom_site_fract_y
_atom_site_fract_z
Si Si1 0.189118 0.142138 0.499528
Si Si2 0.000000 0.830987 0.250000
Si Si3 0.676699 0.545346 0.393697
Si Si4 0.188225 0.832706 0.344118
Si Si5 0.436726 0.842935 0.521219
Si Si6 0.284470 0.254367 0.685831
Si Si7 0.213223 0.459432 0.447793
O O1 0.250000 0.250000 0.500000
O O2 0.255366 0.118948 0.405219
O O3 0.258678 0.044372 0.500774
O O4 0.989090 0.138257 0.597381
O O5 0.100133 0.762678 0.247239
O O6 0.132369 0.904052 0.155905
O O7 0.500000 0.500000 0.500000
O O8 0.777383 0.440777 0.323993
O O9 0.664020 0.623254 0.347749
O O10 0.292441 0.773810 0.246442
O O11 0.160524 0.758439 0.409800
O O12 0.572878 0.817940 0.409460
O O13 0.536375 0.900082 0.522264
O O14 0.294449 0.919321 0.565915
#
# Coordination Sequence:
#
# PCOD8136617 Si02
#       7
#     8   4   8   8   8   8   8
#     4  11  18  38  65  91 120 165 214 264 315 370
#     4  10  20  34  58 104 120 158 224 274 300 376
#     4  10  22  39  63  93 129 163 213 270 325 381
#     4  11  22  39  63  93 127 169 212 264 329 383
#     4  10  21  38  59  92 133 165 208 262 325 394
#     4  11  21  37  65  91 127 169 218 265 320 384
#     4  10  20  35  60  92 127 163 206 266 322 369
#
# _framework density 21.093990000000002
#
# number of rings (size 3 to 8) (size 9 to 14) (size 15 to 20)
#    0.000    1.538    6.154    0.923    0.000    3.692 
#    0.000    0.769    0.000    0.923    0.000    0.000 
#    0.000    0.000    0.000    0.000    0.000    0.000 
#
# Total GULP energy -322153.657807 kJ/mol
# GULP energy per Si atom -12390.525300 kJ/mol
# Density = 2.104598 g / cm^3
# Si number density = 21.093990 Si / 1000 Ang^3
#
#
#
# Elastic Constant Matrix: (Units=GPa)
#
#
# Indices 1 2 3 4 5 6 
#
# 1 64.4070 47.5017 27.5143 -0.0001 18.7769 0.0000
# 2 47.5017 150.5384 43.0949 -0.0002 13.1553 0.0001
# 3 27.5143 43.0949 80.7227 -0.0009 25.0120 0.0002
# 4 -0.0001 -0.0002 -0.0009 38.2345 0.0002 10.3200
# 5 18.7769 13.1553 25.0120 0.0002 31.4175 0.0000
# 6 0.0000 0.0001 0.0002 10.3200 0.0000 44.1332
#
#
#
# Elastic Compliance Matrix: (Units=1/GPa)
#
#
# Indices 1 2 3 4 5 6 
#
# 1 0.023752 -0.006127 -0.001621 0.000000 -0.010339 0.000000
# 2 -0.006127 0.009422 -0.003788 0.000000 0.002733 0.000000
# 3 -0.001621 -0.003788 0.018812 0.000001 -0.012421 0.000000
# 4 0.000000 0.000000 0.000001 0.027916 -0.000001 -0.006528
# 5 -0.010339 0.002733 -0.012421 -0.000001 0.046753 0.000000
# 6 0.000000 0.000000 0.000000 -0.006528 0.000000 0.024185
#
#
# Mechanical properties :
#
#
# Convention : Reuss Voigt Hill
#
# Bulk Modulus (GPa) = 34.58710 59.09887 46.84299
# Shear Modulus (GPa) = 27.24034 34.59418 30.91726
#
# Velocity S-wave (km/s) = 3.59748 4.05409 3.83259
# Velocity P-wave (km/s) = 5.80414 7.07050 6.46838
#
# Compressibility (1/GPa) = 0.02891251
#
# Stress axis : x y z
#
# Youngs Moduli (GPa) = 42.10168 106.13560 53.15810
#
# Poissons Ratio (x) = 0.65032 0.08618
# Poissons Ratio (y) = 0.25797 0.20138
# Poissons Ratio (z) = 0.06825 0.40207
#
# Static dielectric constant tensor:
#      x y z
#    x 4.173360 0.000000 0.504540 
#    y 0.000000 4.209810 0.000000 
#    z 0.504540 0.000000 3.954780 
# 
# 
# High freq. dielectric constant tensor:
#      x y z
#    x 1.799840 0.000000 0.021690 
#    y 0.000000 1.833140 0.000000 
#    z 0.021690 0.000000 1.816750 
# 
# From -- ./inp_files/273791.got.cif
#   From: 2010.06.25/outbox.cif.g09.slc.cpg/sg15_137_cif.got.tgz:273791.got - 2010.06.28 07:06:18.
