data_PCOD8136591
_publ_section_title
;
Structure prediction by ZEFSAII (Michael W. Deem and Ramdas Pophale) SiO2 
 PCOD8136591
Probable space group: C 2/C
;
_chemical_formula_sum "Si O2"
_cell_formula_units_Z 40
_cell_length_a 20.685741
_cell_length_b 14.203471
_cell_length_c 16.697904
_cell_angle_alpha 90.000000
_cell_angle_beta 154.884432
_cell_angle_gamma 90.000000
_cell_volume 2082.329376
_symmetry_space_group_name_H-M "C 2/C"
_symmetry_group_IT_number 15
_symmetry_cell_setting 'monoclinic'
loop_
_space_group_symop_operation_xyz
x,y,z
-x,y,1/2-z
-x,-y,-z
x,-y,1/2+z
1/2+x,1/2+y,z
1/2-x,1/2+y,1/2-z
1/2-x,1/2-y,-z
1/2+x,1/2-y,1/2+z
loop_
_atom_site_type_symbol
_atom_site_label
_atom_site_fract_x
_atom_site_fract_y
_atom_site_fract_z
Si Si1 0.797376 0.335587 0.300262
Si Si2 0.463401 0.301029 0.885558
Si Si3 0.919912 0.394511 0.282619
Si Si4 0.849809 0.053232 0.131919
Si Si5 0.115062 0.567947 0.443756
O O1 0.615960 0.339563 0.097251
O O2 0.861514 0.357251 0.459931
O O3 0.853059 0.231441 0.334937
O O4 0.862271 0.412642 0.309361
O O5 0.494327 0.210496 0.861957
O O6 0.386539 0.383218 0.749390
O O7 0.043871 0.470320 0.396094
O O8 0.772296 0.393853 0.060393
O O9 0.776030 0.956344 0.082343
O O10 0.000000 0.028140 0.250000
O O11 0.000000 0.613900 0.250000
#
# Coordination Sequence:
#
# PCOD8136591 Si02
#       5
#     8   8   8   8   8
#     4  10  21  37  54  83 111 146 187 223 278 324
#     4  10  20  34  57  84 115 142 179 229 273 331
#     4   9  20  35  57  82 115 145 177 224 281 335
#     4  11  19  35  56  90 115 139 177 227 280 328
#     4  10  22  38  56  77 110 156 186 221 272 328
#
# _framework density 19.209257000000001
#
# number of rings (size 3 to 8) (size 9 to 14) (size 15 to 20)
#    1.200    0.800    2.000    2.400    0.000    3.200 
#    0.000    3.000    0.000    0.000    0.000    0.000 
#    0.000    0.000    0.000    0.000    0.000    0.000 
#
# Total GULP energy -247861.007468 kJ/mol
# GULP energy per Si atom -12393.050373 kJ/mol
# Density = 1.916554 g / cm^3
# Si number density = 19.209257 Si / 1000 Ang^3
#
#
#
# Elastic Constant Matrix: (Units=GPa)
#
#
# Indices 1 2 3 4 5 6 
#
# 1 103.2229 36.3697 67.6044 -0.0024 -13.7799 -0.0042
# 2 36.3697 27.0180 32.0458 -0.0017 -3.6270 -0.0019
# 3 67.6044 32.0458 133.6214 -0.0010 -14.6755 -0.0011
# 4 -0.0024 -0.0017 -0.0010 14.0306 -0.0020 -4.9291
# 5 -13.7799 -3.6270 -14.6755 -0.0020 37.5202 -0.0031
# 6 -0.0042 -0.0019 -0.0011 -4.9291 -0.0031 22.3230
#
#
#
# Elastic Compliance Matrix: (Units=1/GPa)
#
#
# Indices 1 2 3 4 5 6 
#
# 1 0.021314 -0.022201 -0.005052 0.000002 0.003706 0.000003
# 2 -0.022201 0.074853 -0.007126 0.000005 -0.003705 0.000002
# 3 -0.005052 -0.007126 0.011984 -0.000001 0.002143 -0.000001
# 4 0.000002 0.000005 -0.000001 0.077267 0.000006 0.017061
# 5 0.003706 -0.003705 0.002143 0.000006 0.028493 0.000006
# 6 0.000003 0.000002 -0.000001 0.017061 0.000006 0.048564
#
#
# Mechanical properties :
#
#
# Convention : Reuss Voigt Hill
#
# Bulk Modulus (GPa) = 25.38581 59.54465 42.46523
# Shear Modulus (GPa) = 14.51951 23.29758 18.90855
#
# Velocity S-wave (km/s) = 2.75227 3.48635 3.14083
# Velocity P-wave (km/s) = 4.83157 6.87542 5.94203
#
# Compressibility (1/GPa) = 0.03939208
#
# Stress axis : x y z
#
# Youngs Moduli (GPa) = 46.91828 13.35953 83.44303
#
# Poissons Ratio (x) = 0.29660 0.42155
# Poissons Ratio (y) = 1.04165 0.59462
# Poissons Ratio (z) = 0.23703 0.09520
#
# Static dielectric constant tensor:
#      x y z
#    x 3.545230 0.000000 0.018630 
#    y 0.000000 2.993810 0.000000 
#    z 0.018630 0.000000 3.552040 
# 
# 
# High freq. dielectric constant tensor:
#      x y z
#    x 1.745660 0.000000 0.003080 
#    y 0.000000 1.696840 0.000000 
#    z 0.003080 0.000000 1.761050 
# 
# From -- ./inp_files/38714.got.cif
#   From: 2010.06.25/outbox.cif.g09.slc.cpg/sg15_20_cif.got.tgz:38714.got - 2010.06.28 07:06:18.
