data_PCOD8136280
_publ_section_title
;
Structure prediction by ZEFSAII (Michael W. Deem and Ramdas Pophale) SiO2 
 PCOD8136280
Probable space group: C 2/C
;
_chemical_formula_sum "Si O2"
_cell_formula_units_Z 48
_cell_length_a 13.039686
_cell_length_b 12.948309
_cell_length_c 16.911897
_cell_angle_alpha 90.000000
_cell_angle_beta 66.588770
_cell_angle_gamma 90.000000
_cell_volume 2620.367776
_symmetry_space_group_name_H-M "C 2/C"
_symmetry_group_IT_number 15
_symmetry_cell_setting 'monoclinic'
loop_
_space_group_symop_operation_xyz
x,y,z
-x,y,1/2-z
-x,-y,-z
x,-y,1/2+z
1/2+x,1/2+y,z
1/2-x,1/2+y,1/2-z
1/2-x,1/2-y,-z
1/2+x,1/2-y,1/2+z
loop_
_atom_site_type_symbol
_atom_site_label
_atom_site_fract_x
_atom_site_fract_y
_atom_site_fract_z
Si Si1 0.206341 0.701789 0.330492
Si Si2 0.962402 0.869575 0.172332
Si Si3 0.879236 0.624212 0.819624
Si Si4 0.888410 0.965273 0.492037
Si Si5 0.782595 0.960774 0.682798
Si Si6 0.782008 0.633716 0.007841
O O1 0.097808 0.764813 0.336677
O O2 0.303649 0.776756 0.328362
O O3 0.257805 0.636784 0.243791
O O4 0.174050 0.627506 0.414930
O O5 0.000000 0.856673 0.250000
O O6 0.075858 0.882322 0.085476
O O7 0.882990 0.969528 0.187152
O O8 0.830257 0.527706 0.786449
O O9 0.000000 0.649333 0.750000
O O10 0.877687 0.600607 0.914926
O O11 0.811262 0.918740 0.585684
O O12 0.826976 0.061940 0.469695
O O13 0.000000 0.000000 0.500000
O O14 0.750000 0.750000 0.000000
#
# Coordination Sequence:
#
# PCOD8136280 Si02
#       6
#     8   8   8   8   8   8
#     4  10  20  33  52  77 103 134 173 213 253 305
#     4  10  20  34  52  77 104 135 174 215 258 308
#     4   9  19  33  51  75 103 131 166 207 251 302
#     4   9  17  31  52  76 104 136 169 212 259 307
#     4   9  19  34  51  75 104 132 167 210 255 304
#     4   9  17  31  50  76 105 132 168 213 253 300
#
# _framework density 18.318038999999999
#
# number of rings (size 3 to 8) (size 9 to 14) (size 15 to 20)
#    0.000    2.667    0.000    4.000    0.000    8.000 
#    0.000    1.667    0.000    0.000    0.000    0.000 
#    0.000    0.000    0.000    0.000    0.000    0.000 
#
# Total GULP energy -297414.015150 kJ/mol
# GULP energy per Si atom -12392.250631 kJ/mol
# Density = 1.827635 g / cm^3
# Si number density = 18.318039 Si / 1000 Ang^3
#
#
#
# Elastic Constant Matrix: (Units=GPa)
#
#
# Indices 1 2 3 4 5 6 
#
# 1 77.8017 28.2243 63.3443 0.0000 8.9850 0.0000
# 2 28.2243 65.3683 53.9390 0.0000 8.0998 0.0000
# 3 63.3443 53.9390 156.8905 0.0000 15.5660 0.0000
# 4 0.0000 0.0000 0.0000 26.5423 0.0000 -1.8299
# 5 8.9850 8.0998 15.5660 0.0000 28.1654 0.0000
# 6 0.0000 0.0000 0.0000 -1.8299 0.0000 19.6874
#
#
#
# Elastic Compliance Matrix: (Units=1/GPa)
#
#
# Indices 1 2 3 4 5 6 
#
# 1 0.019556 -0.002592 -0.006834 0.000000 -0.001716 0.000000
# 2 -0.002592 0.021830 -0.006261 0.000000 -0.001991 0.000000
# 3 -0.006834 -0.006261 0.011523 0.000000 -0.002387 0.000000
# 4 0.000000 0.000000 0.000000 0.037919 0.000000 0.003525
# 5 -0.001716 -0.001991 -0.002387 0.000000 0.037944 0.000000
# 6 0.000000 0.000000 0.000000 0.003525 0.000000 0.051121
#
#
# Mechanical properties :
#
#
# Convention : Reuss Voigt Hill
#
# Bulk Modulus (GPa) = 46.43795 65.67507 56.05651
# Shear Modulus (GPa) = 22.88897 25.18256 24.03576
#
# Velocity S-wave (km/s) = 3.53871 3.71177 3.62627
# Velocity P-wave (km/s) = 6.48865 7.36887 6.94272
#
# Compressibility (1/GPa) = 0.02153411
#
# Stress axis : x y z
#
# Youngs Moduli (GPa) = 51.13524 45.80813 86.78472
#
# Poissons Ratio (x) = 0.11872 0.59312
# Poissons Ratio (y) = 0.13253 0.54339
# Poissons Ratio (z) = 0.34948 0.28682
#
# Static dielectric constant tensor:
#      x y z
#    x 3.302460 0.000000 0.251820 
#    y 0.000000 3.169030 0.000000 
#    z 0.251820 0.000000 4.749420 
# 
# 
# High freq. dielectric constant tensor:
#      x y z
#    x 1.689250 0.000000 0.006890 
#    y 0.000000 1.687000 0.000000 
#    z 0.006890 0.000000 1.734400 
# 
# From -- ./inp_files/143792.got.cif
#   From: 2010.06.25/outbox.cif.g09.slc.cpg/sg15_72_cif.got.tgz:143792.got - 2010.06.28 07:06:18.
