data_PCOD8136028
_publ_section_title
;
Structure prediction by ZEFSAII (Michael W. Deem and Ramdas Pophale) SiO2 
 PCOD8136028
Probable space group: C 2/C
;
_chemical_formula_sum "Si O2"
_cell_formula_units_Z 64
_cell_length_a 15.661792
_cell_length_b 9.026629
_cell_length_c 30.472133
_cell_angle_alpha 90.000000
_cell_angle_beta 40.652856
_cell_angle_gamma 90.000000
_cell_volume 2806.514169
_symmetry_space_group_name_H-M "C 2/C"
_symmetry_group_IT_number 15
_symmetry_cell_setting 'monoclinic'
loop_
_space_group_symop_operation_xyz
x,y,z
-x,y,1/2-z
-x,-y,-z
x,-y,1/2+z
1/2+x,1/2+y,z
1/2-x,1/2+y,1/2-z
1/2-x,1/2-y,-z
1/2+x,1/2-y,1/2+z
loop_
_atom_site_type_symbol
_atom_site_label
_atom_site_fract_x
_atom_site_fract_y
_atom_site_fract_z
Si Si1 0.772628 0.224178 0.669901
Si Si2 0.590807 0.887898 0.618520
Si Si3 0.821093 0.260869 0.747275
Si Si4 0.647749 0.481327 0.198001
Si Si5 0.259188 0.852049 0.068367
Si Si6 0.747796 0.073959 0.500457
Si Si7 0.349772 0.946966 0.811756
Si Si8 0.540314 0.398282 0.025677
O O1 0.739672 0.233569 0.735008
O O2 0.752393 0.386054 0.657386
O O3 0.660125 0.120790 0.693714
O O4 0.913910 0.155746 0.603046
O O5 0.439413 0.868329 0.686100
O O6 0.654429 0.733537 0.577075
O O7 0.612333 0.022455 0.576701
O O8 0.687599 0.918521 0.623146
O O9 0.856913 0.101834 0.753288
O O10 0.758184 0.357691 0.811945
O O11 0.500000 0.541061 0.250000
O O12 0.695732 0.368067 0.141620
O O13 0.393288 0.756289 0.016383
O O14 0.268874 0.015265 0.042984
O O15 0.750000 0.250000 0.500000
O O16 0.870960 0.001666 0.477536
O O17 0.500000 0.890798 0.750000
O O18 0.500000 0.500000 0.000000
#
# Coordination Sequence:
#
# PCOD8136028 Si02
#       8
#     8   8   8   8   8   8   8   8
#     4  12  25  41  64 100 142 169 227 295 350 400
#     4  10  19  42  71  92 131 183 228 271 347 414
#     4  11  21  43  65 100 126 181 226 283 350 407
#     4  12  25  43  72 100 132 181 237 285 338 423
#     4  11  22  44  71  97 139 183 233 284 346 420
#     4  11  25  44  72 104 134 184 242 286 338 425
#     4  10  21  40  65  90 132 184 224 271 348 424
#     4  11  26  47  69 102 143 190 228 290 365 418
#
# _framework density 22.804089999999999
#
# number of rings (size 3 to 8) (size 9 to 14) (size 15 to 20)
#    0.000    1.000    2.500    6.000    3.500    0.500 
#    2.250    0.000    0.000    0.000    0.000    0.000 
#    0.000    0.000    0.000    0.000    0.000    0.000 
#
# Total GULP energy -396470.901510 kJ/mol
# GULP energy per Si atom -12389.715672 kJ/mol
# Density = 2.275219 g / cm^3
# Si number density = 22.804090 Si / 1000 Ang^3
#
#
#
# Elastic Constant Matrix: (Units=GPa)
#
#
# Indices 1 2 3 4 5 6 
#
# 1 66.1753 31.3230 20.4200 0.0023 5.8195 0.0066
# 2 31.3230 144.3563 31.5390 0.0041 2.1166 0.0080
# 3 20.4200 31.5390 82.4820 0.0007 13.0011 0.0015
# 4 0.0023 0.0041 0.0007 23.7225 0.0003 2.9871
# 5 5.8195 2.1166 13.0011 0.0003 27.7060 0.0022
# 6 0.0066 0.0080 0.0015 2.9871 0.0022 39.8443
#
#
#
# Elastic Compliance Matrix: (Units=1/GPa)
#
#
# Indices 1 2 3 4 5 6 
#
# 1 0.017679 -0.003189 -0.002819 -0.000001 -0.002147 -0.000002
# 2 -0.003189 0.008152 -0.002522 -0.000001 0.001230 -0.000001
# 3 -0.002819 -0.002522 0.014754 0.000000 -0.006138 0.000001
# 4 -0.000001 -0.000001 0.000000 0.042556 0.000000 -0.003190
# 5 -0.002147 0.001230 -0.006138 0.000000 0.039331 -0.000002
# 6 -0.000002 -0.000001 0.000001 -0.003190 -0.000002 0.025337
#
#
# Mechanical properties :
#
#
# Convention : Reuss Voigt Hill
#
# Bulk Modulus (GPa) = 42.50621 51.06418 46.78520
# Shear Modulus (GPa) = 28.95032 32.23665 30.59349
#
# Velocity S-wave (km/s) = 3.56690 3.76391 3.66673
# Velocity P-wave (km/s) = 5.97025 6.42888 6.20381
#
# Compressibility (1/GPa) = 0.02352598
#
# Stress axis : x y z
#
# Youngs Moduli (GPa) = 56.56288 122.66774 67.78021
#
# Poissons Ratio (x) = 0.39116 0.19108
# Poissons Ratio (y) = 0.18036 0.17092
# Poissons Ratio (z) = 0.15946 0.30932
#
# Static dielectric constant tensor:
#      x y z
#    x 4.125410 0.000000 0.374850 
#    y 0.000000 4.097140 -0.000010 
#    z 0.374850 -0.000010 4.326670 
# 
# 
# High freq. dielectric constant tensor:
#      x y z
#    x 1.884960 0.000000 0.023220 
#    y 0.000000 1.906490 0.000000 
#    z 0.023220 0.000000 1.902710 
# 
# From -- ./inp_files/313128.got.cif
#   From: 2010.06.25/outbox.cif.g09.slc.cpg/sg15_157_cif.got.tgz:313128.got - 2010.06.28 07:06:18.
