data_PCOD8136272
_publ_section_title
;
Structure prediction by ZEFSAII (Michael W. Deem and Ramdas Pophale) SiO2 
 PCOD8136272
Probable space group: C 2/C
;
_chemical_formula_sum "Si O2"
_cell_formula_units_Z 56
_cell_length_a 11.125046
_cell_length_b 27.721709
_cell_length_c 9.674335
_cell_angle_alpha 90.000000
_cell_angle_beta 96.177548
_cell_angle_gamma 90.000000
_cell_volume 2966.290833
_symmetry_space_group_name_H-M "C 2/C"
_symmetry_group_IT_number 15
_symmetry_cell_setting 'monoclinic'
loop_
_space_group_symop_operation_xyz
x,y,z
-x,y,1/2-z
-x,-y,-z
x,-y,1/2+z
1/2+x,1/2+y,z
1/2-x,1/2+y,1/2-z
1/2-x,1/2-y,-z
1/2+x,1/2-y,1/2+z
loop_
_atom_site_type_symbol
_atom_site_label
_atom_site_fract_x
_atom_site_fract_y
_atom_site_fract_z
Si Si1 0.646085 0.548747 0.776454
Si Si2 0.066535 0.263939 0.400343
Si Si3 0.123969 0.130962 0.197451
Si Si4 0.646103 0.287778 0.479358
Si Si5 0.731430 0.679025 0.449414
Si Si6 0.367367 0.349016 0.277920
Si Si7 0.621636 0.526260 0.065194
O O1 0.500000 0.546202 0.750000
O O2 0.705258 0.600783 0.749145
O O3 0.696774 0.509410 0.673984
O O4 0.696274 0.536374 0.935273
O O5 0.131986 0.310690 0.479026
O O6 0.174098 0.227053 0.372300
O O7 0.000000 0.279702 0.250000
O O8 0.977973 0.240225 0.502686
O O9 0.161724 0.164872 0.075195
O O10 0.226551 0.136941 0.331281
O O11 0.101454 0.076464 0.144888
O O12 0.000000 0.150980 0.250000
O O13 0.750000 0.250000 0.500000
O O14 0.664693 0.304466 0.323624
O O15 0.642654 0.665658 0.564576
O O16 0.500000 0.365206 0.250000
O O17 0.500000 0.500000 0.000000
#
# Coordination Sequence:
#
# PCOD8136272 Si02
#       7
#     8   8   8   8   8   8   8
#     4   9  19  30  48  74 108 147 185 222 286 352
#     4  11  21  40  54  78 112 150 205 248 288 345
#     4  12  21  37  55  82 119 160 197 233 291 366
#     4  12  23  36  57  78 117 160 200 249 293 340
#     4  11  23  34  59  79 108 158 199 239 293 351
#     4  11  20  33  50  80 111 147 195 237 285 341
#     4  10  20  33  51  80 115 158 184 231 295 365
#
# _framework density 18.878796000000001
#
# number of rings (size 3 to 8) (size 9 to 14) (size 15 to 20)
#    0.000    1.143    5.714    2.143    8.000    0.000 
#    0.000    0.000    0.000    0.000    0.000    0.000 
#    0.000   12.571    0.000    0.000    0.000    0.000 
#
# Total GULP energy -346883.135738 kJ/mol
# GULP energy per Si atom -12388.683419 kJ/mol
# Density = 1.883583 g / cm^3
# Si number density = 18.878796 Si / 1000 Ang^3
#
#
#
# Elastic Constant Matrix: (Units=GPa)
#
#
# Indices 1 2 3 4 5 6 
#
# 1 38.7017 30.3376 21.3937 0.0000 7.5161 0.0000
# 2 30.3376 113.7809 51.9205 0.0000 6.2719 0.0000
# 3 21.3937 51.9205 132.7760 0.0000 4.8310 0.0000
# 4 0.0000 0.0000 0.0000 66.6719 0.0000 5.0867
# 5 7.5161 6.2719 4.8310 0.0000 22.3695 0.0000
# 6 0.0000 0.0000 0.0000 5.0867 0.0000 12.4243
#
#
#
# Elastic Compliance Matrix: (Units=1/GPa)
#
#
# Indices 1 2 3 4 5 6 
#
# 1 0.034954 -0.007791 -0.002256 0.000000 -0.009073 0.000000
# 2 -0.007791 0.012534 -0.003642 0.000000 -0.000110 0.000000
# 3 -0.002256 -0.003642 0.009328 0.000000 -0.000235 0.000000
# 4 0.000000 0.000000 0.000000 0.015482 0.000000 -0.006339
# 5 -0.009073 -0.000110 -0.000235 0.000000 0.047834 0.000000
# 6 0.000000 0.000000 0.000000 -0.006339 0.000000 0.083082
#
#
# Mechanical properties :
#
#
# Convention : Reuss Voigt Hill
#
# Bulk Modulus (GPa) = 33.96759 54.72914 44.34836
# Shear Modulus (GPa) = 20.79830 32.40028 26.59929
#
# Velocity S-wave (km/s) = 3.32275 4.14723 3.75767
# Velocity P-wave (km/s) = 5.72297 7.21009 6.50914
#
# Compressibility (1/GPa) = 0.02943982
#
# Stress axis : x y z
#
# Youngs Moduli (GPa) = 28.60869 79.78276 107.20823
#
# Poissons Ratio (x) = 0.62156 0.24181
# Poissons Ratio (y) = 0.22288 0.39045
# Poissons Ratio (z) = 0.06453 0.29057
#
# Static dielectric constant tensor:
#      x y z
#    x 2.980120 0.000000 -0.160690 
#    y 0.000000 2.983920 0.000000 
#    z -0.160690 0.000000 4.614090 
# 
# 
# High freq. dielectric constant tensor:
#      x y z
#    x 1.654540 0.000000 -0.014590 
#    y 0.000000 1.737610 0.000000 
#    z -0.014590 0.000000 1.760060 
# 
# From -- ./inp_files/35307.got.cif
#   From: 2010.06.25/outbox.cif.g09.slc.cpg/sg15_18_cif.got.tgz:35307.got - 2010.06.28 07:06:18.
