data_PCOD8136760
_publ_section_title
;
Structure prediction by ZEFSAII (Michael W. Deem and Ramdas Pophale) SiO2 
 PCOD8136760
Probable space group: C 2/C
;
_chemical_formula_sum "Si O2"
_cell_formula_units_Z 36
_cell_length_a 24.805620
_cell_length_b 9.190496
_cell_length_c 12.522553
_cell_angle_alpha 90.000000
_cell_angle_beta 153.254702
_cell_angle_gamma 90.000000
_cell_volume 1284.750239
_symmetry_space_group_name_H-M "C 2/C"
_symmetry_group_IT_number 15
_symmetry_cell_setting 'monoclinic'
loop_
_space_group_symop_operation_xyz
x,y,z
-x,y,1/2-z
-x,-y,-z
x,-y,1/2+z
1/2+x,1/2+y,z
1/2-x,1/2+y,1/2-z
1/2-x,1/2-y,-z
1/2+x,1/2-y,1/2+z
loop_
_atom_site_type_symbol
_atom_site_label
_atom_site_fract_x
_atom_site_fract_y
_atom_site_fract_z
Si Si1 0.833671 0.240128 0.816515
Si Si2 0.000000 0.811801 0.250000
Si Si3 0.584060 0.201378 0.701285
Si Si4 0.888116 0.610305 0.209350
Si Si5 0.694457 0.592250 0.243914
O O1 0.802912 0.335507 0.656110
O O2 0.792251 0.315425 0.851472
O O3 0.773083 0.080491 0.683459
O O4 0.978123 0.222100 0.081596
O O5 0.891920 0.714501 0.110874
O O6 0.066863 0.911444 0.455711
O O7 0.528019 0.121602 0.496409
O O8 0.677687 0.323859 0.828036
O O9 0.641191 0.063071 0.869559
#
# Coordination Sequence:
#
# PCOD8136760 Si02
#       5
#     8   4   8   8   8
#     4  10  20  34  63  80 109 152 193 221 261 352
#     4  10  22  34  58  84 116 142 176 242 290 312
#     4   8  17  35  58  79 108 148 189 223 266 342
#     4   8  17  35  57  78 112 143 187 220 284 317
#     4  11  21  36  60  85 110 145 194 223 282 323
#
# _framework density 28.021011000000001
#
# number of rings (size 3 to 8) (size 9 to 14) (size 15 to 20)
#    1.333    1.333    0.000    2.000    3.111    0.889 
#    0.000    1.111    0.000    2.667    0.000    0.000 
#    0.000    0.000    0.000    0.000    0.000    0.000 
#
# Total GULP energy -223196.998088 kJ/mol
# GULP energy per Si atom -12399.833227 kJ/mol
# Density = 2.795723 g / cm^3
# Si number density = 28.021011 Si / 1000 Ang^3
#
#
#
# Elastic Constant Matrix: (Units=GPa)
#
#
# Indices 1 2 3 4 5 6 
#
# 1 133.2835 70.0250 40.6387 0.0000 48.1015 0.0000
# 2 70.0250 216.6448 66.4750 0.0000 20.6315 0.0000
# 3 40.6387 66.4750 89.4386 0.0000 -1.1380 0.0000
# 4 0.0000 0.0000 0.0000 60.6984 0.0000 -2.4280
# 5 48.1015 20.6315 -1.1380 0.0000 42.4653 0.0000
# 6 0.0000 0.0000 0.0000 -2.4280 0.0000 52.9458
#
#
#
# Elastic Compliance Matrix: (Units=1/GPa)
#
#
# Indices 1 2 3 4 5 6 
#
# 1 0.017345 -0.001689 -0.006868 0.000000 -0.019011 0.000000
# 2 -0.001689 0.006559 -0.004126 0.000000 -0.001385 0.000000
# 3 -0.006868 -0.004126 0.017498 0.000000 0.010253 0.000000
# 4 0.000000 0.000000 0.000000 0.016505 0.000000 0.000757
# 5 -0.019011 -0.001385 0.010253 0.000000 0.046030 0.000000
# 6 0.000000 0.000000 0.000000 0.000757 0.000000 0.018922
#
#
# Mechanical properties :
#
#
# Convention : Reuss Voigt Hill
#
# Bulk Modulus (GPa) = 62.35077 88.18269 75.26673
# Shear Modulus (GPa) = 32.55838 48.70379 40.63109
#
# Velocity S-wave (km/s) = 3.41240 4.17360 3.81205
# Velocity P-wave (km/s) = 6.15026 7.40025 6.80402
#
# Compressibility (1/GPa) = 0.01603830
#
# Stress axis : x y z
#
# Youngs Moduli (GPa) = 57.65393 152.45266 57.14821
#
# Poissons Ratio (x) = 0.25742 0.39249
# Poissons Ratio (y) = 0.09735 0.23578
# Poissons Ratio (z) = 0.39597 0.62897
#
# Static dielectric constant tensor:
#      x y z
#    x 4.688100 0.000000 -0.101530 
#    y 0.000000 4.931970 0.000000 
#    z -0.101530 0.000000 5.510880 
# 
# 
# High freq. dielectric constant tensor:
#      x y z
#    x 2.112150 0.000000 -0.002290 
#    y 0.000000 2.132210 0.000000 
#    z -0.002290 0.000000 2.209580 
# 
# From -- ./inp_files/158651.got.cif
#   From: 2010.06.25/outbox.cif.g09.slc.cpg/sg15_80_cif.got.tgz:158651.got - 2010.06.28 07:06:18.
