data_PCOD8136924
_publ_section_title
;
Structure prediction by ZEFSAII (Michael W. Deem and Ramdas Pophale) SiO2 
 PCOD8136924
Probable space group: C 2/C
;
_chemical_formula_sum "Si O2"
_cell_formula_units_Z 48
_cell_length_a 13.233632
_cell_length_b 8.732375
_cell_length_c 26.880743
_cell_angle_alpha 90.000000
_cell_angle_beta 135.983811
_cell_angle_gamma 90.000000
_cell_volume 2158.494805
_symmetry_space_group_name_H-M "C 2/C"
_symmetry_group_IT_number 15
_symmetry_cell_setting 'monoclinic'
loop_
_space_group_symop_operation_xyz
x,y,z
-x,y,1/2-z
-x,-y,-z
x,-y,1/2+z
1/2+x,1/2+y,z
1/2-x,1/2+y,1/2-z
1/2-x,1/2-y,-z
1/2+x,1/2-y,1/2+z
loop_
_atom_site_type_symbol
_atom_site_label
_atom_site_fract_x
_atom_site_fract_y
_atom_site_fract_z
Si Si1 0.227085 0.933146 0.072074
Si Si2 0.467764 0.591083 0.416479
Si Si3 0.336220 0.636200 0.798804
Si Si4 0.666716 0.693301 0.322309
Si Si5 0.555102 0.164807 0.319197
Si Si6 0.275686 0.880220 0.345087
O O1 0.317891 0.782079 0.119745
O O2 0.110398 0.979098 0.072378
O O3 0.342992 0.068953 0.107927
O O4 0.140604 0.907395 0.989570
O O5 0.433163 0.510564 0.351187
O O6 0.414024 0.768096 0.401171
O O7 0.224674 0.693281 0.800462
O O8 0.432915 0.776598 0.813298
O O9 0.241499 0.579538 0.719094
O O10 0.500000 0.645975 0.250000
O O11 0.777247 0.549408 0.369421
O O12 0.500000 0.068540 0.250000
O O13 0.636313 0.303556 0.320827
#
# Coordination Sequence:
#
# PCOD8136924 Si02
#       6
#     8   8   8   8   8   8
#     4   9  19  35  55  81 116 149 184 228 278 340
#     4   9  19  36  56  81 112 150 187 226 280 338
#     4  10  20  36  60  84 109 145 192 237 281 339
#     4  11  22  35  56  84 113 147 190 239 283 332
#     4   9  18  35  58  84 112 148 187 227 279 337
#     4  10  20  35  57  81 111 146 187 236 279 328
#
# _framework density 22.237718000000001
#
# number of rings (size 3 to 8) (size 9 to 14) (size 15 to 20)
#    0.000    2.333    0.000    3.000    0.000    5.333 
#    0.000    0.833    0.000   14.000    0.000    0.000 
#    0.000    0.000    0.000    0.000    0.000    0.000 
#
# Total GULP energy -297334.073296 kJ/mol
# GULP energy per Si atom -12388.919721 kJ/mol
# Density = 2.218710 g / cm^3
# Si number density = 22.237718 Si / 1000 Ang^3
#
#
#
# Elastic Constant Matrix: (Units=GPa)
#
#
# Indices 1 2 3 4 5 6 
#
# 1 43.0554 7.7012 13.0291 0.0000 4.0047 0.0000
# 2 7.7012 103.5973 43.5874 0.0000 5.0892 0.0000
# 3 13.0291 43.5874 111.7193 0.0000 10.8797 0.0000
# 4 0.0000 0.0000 0.0000 22.0692 0.0000 0.8257
# 5 4.0047 5.0892 10.8797 0.0000 22.3742 0.0000
# 6 0.0000 0.0000 0.0000 0.8257 0.0000 9.8941
#
#
#
# Elastic Compliance Matrix: (Units=1/GPa)
#
#
# Indices 1 2 3 4 5 6 
#
# 1 0.024324 -0.000705 -0.002260 0.000000 -0.003094 0.000000
# 2 -0.000705 0.011573 -0.004397 0.000000 -0.000368 0.000000
# 3 -0.002260 -0.004397 0.011330 0.000000 -0.004105 0.000000
# 4 0.000000 0.000000 0.000000 0.045454 0.000000 -0.003793
# 5 -0.003094 -0.000368 -0.004105 0.000000 0.047328 0.000000
# 6 0.000000 0.000000 0.000000 -0.003793 0.000000 0.101387
#
#
# Mechanical properties :
#
#
# Convention : Reuss Voigt Hill
#
# Bulk Modulus (GPa) = 30.76771 43.00083 36.88427
# Shear Modulus (GPa) = 18.72973 23.80444 21.26708
#
# Velocity S-wave (km/s) = 2.90530 3.27533 3.09585
# Velocity P-wave (km/s) = 5.01201 5.80367 5.42231
#
# Compressibility (1/GPa) = 0.03250161
#
# Stress axis : x y z
#
# Youngs Moduli (GPa) = 41.11200 86.40533 88.26182
#
# Poissons Ratio (x) = 0.06093 0.19950
# Poissons Ratio (y) = 0.02899 0.38811
# Poissons Ratio (z) = 0.09292 0.37995
#
# Static dielectric constant tensor:
#      x y z
#    x 3.695390 0.000000 -0.000690 
#    y 0.000000 3.942690 0.000000 
#    z -0.000690 0.000000 4.257140 
# 
# 
# High freq. dielectric constant tensor:
#      x y z
#    x 1.854220 0.000000 0.003810 
#    y 0.000000 1.878080 0.000000 
#    z 0.003810 0.000000 1.860910 
# 
# From -- ./inp_files/295454.got.cif
#   From: 2010.06.25/outbox.cif.g09.slc.cpg/sg15_148_cif.got.tgz:295454.got - 2010.06.28 07:06:18.
