data_PCOD8136449
_publ_section_title
;
Structure prediction by ZEFSAII (Michael W. Deem and Ramdas Pophale) SiO2 
 PCOD8136449
Probable space group: C 2/C
;
_chemical_formula_sum "Si O2"
_cell_formula_units_Z 60
_cell_length_a 6.255325
_cell_length_b 24.734688
_cell_length_c 23.836713
_cell_angle_alpha 90.000000
_cell_angle_beta 60.092039
_cell_angle_gamma 90.000000
_cell_volume 3196.946382
_symmetry_space_group_name_H-M "C 2/C"
_symmetry_group_IT_number 15
_symmetry_cell_setting 'monoclinic'
loop_
_space_group_symop_operation_xyz
x,y,z
-x,y,1/2-z
-x,-y,-z
x,-y,1/2+z
1/2+x,1/2+y,z
1/2-x,1/2+y,1/2-z
1/2-x,1/2-y,-z
1/2+x,1/2-y,1/2+z
loop_
_atom_site_type_symbol
_atom_site_label
_atom_site_fract_x
_atom_site_fract_y
_atom_site_fract_z
Si Si1 0.516959 0.360369 0.586271
Si Si2 0.078727 0.713437 0.416293
Si Si3 0.480690 0.836644 0.689263
Si Si4 0.500000 0.410747 0.750000
Si Si5 0.607375 0.995827 0.548269
Si Si6 0.528205 0.440324 0.438666
Si Si7 0.567279 0.326358 0.025265
Si Si8 0.101855 0.032470 0.128484
O O1 0.664907 0.316456 0.604107
O O2 0.549285 0.341119 0.518999
O O3 0.626659 0.420341 0.578635
O O4 0.236311 0.367359 0.643961
O O5 0.033943 0.710991 0.355032
O O6 0.088370 0.776502 0.430070
O O7 0.858149 0.685991 0.481272
O O8 0.500000 0.813005 0.750000
O O9 0.245121 0.875050 0.710566
O O10 0.552367 0.448277 0.797408
O O11 0.379069 0.976569 0.616031
O O12 0.828519 0.952700 0.514426
O O13 0.500000 0.000000 0.500000
O O14 0.708127 0.050002 0.565611
O O15 0.484238 0.377836 0.427190
O O16 0.506744 0.478391 0.386325
#
# Coordination Sequence:
#
# PCOD8136449 Si02
#       8
#     8   8   8   4   8   8   8   8
#     4  11  20  34  58  86 116 146 185 230 297 344
#     4  10  21  37  56  87 117 149 194 239 288 342
#     4  11  21  37  58  85 109 148 186 241 288 338
#     4  12  24  38  58  86 116 144 194 244 294 342
#     4   9  18  32  52  80 114 148 183 224 277 342
#     4  10  20  34  52  82 116 153 188 223 284 350
#     4  10  21  35  58  83 121 152 185 236 288 348
#     4  11  22  34  56  84 114 152 187 239 288 350
#
# _framework density 18.767907999999998
#
# number of rings (size 3 to 8) (size 9 to 14) (size 15 to 20)
#    0.000    1.600    2.667    3.600    3.733    1.067 
#    0.000    0.000    1.467    0.000    3.467    0.000 
#    0.000    0.000    0.000    0.000    0.000    0.000 
#
# Total GULP energy -371751.414768 kJ/mol
# GULP energy per Si atom -12391.713826 kJ/mol
# Density = 1.872519 g / cm^3
# Si number density = 18.767908 Si / 1000 Ang^3
#
#
#
# Elastic Constant Matrix: (Units=GPa)
#
#
# Indices 1 2 3 4 5 6 
#
# 1 104.9794 51.5525 33.8150 0.0000 -7.2306 0.0000
# 2 51.5525 149.0482 45.7897 0.0000 6.0614 0.0000
# 3 33.8150 45.7897 78.2451 0.0000 10.7776 0.0000
# 4 0.0000 0.0000 0.0000 25.6391 0.0000 3.0849
# 5 -7.2306 6.0614 10.7776 0.0000 36.7387 0.0000
# 6 0.0000 0.0000 0.0000 3.0849 0.0000 24.2222
#
#
#
# Elastic Compliance Matrix: (Units=1/GPa)
#
#
# Indices 1 2 3 4 5 6 
#
# 1 0.012796 -0.003316 -0.004181 0.000000 0.004292 0.000000
# 2 -0.003316 0.009039 -0.003711 0.000000 -0.001055 0.000000
# 3 -0.004181 -0.003711 0.017495 0.000000 -0.005343 0.000000
# 4 0.000000 0.000000 0.000000 0.039610 0.000000 -0.005045
# 5 0.004292 -0.001055 -0.005343 0.000000 0.029805 0.000000
# 6 0.000000 0.000000 0.000000 -0.005045 0.000000 0.041927
#
#
# Mechanical properties :
#
#
# Convention : Reuss Voigt Hill
#
# Bulk Modulus (GPa) = 59.12215 66.06523 62.59369
# Shear Modulus (GPa) = 27.97552 30.72772 29.35162
#
# Velocity S-wave (km/s) = 3.86502 4.05068 3.95894
# Velocity P-wave (km/s) = 7.17551 7.56009 7.37031
#
# Compressibility (1/GPa) = 0.01691413
#
# Stress axis : x y z
#
# Youngs Moduli (GPa) = 78.14673 110.62761 57.15918
#
# Poissons Ratio (x) = 0.36686 0.23897
# Poissons Ratio (y) = 0.25915 0.21214
# Poissons Ratio (z) = 0.32671 0.41058
#
# Static dielectric constant tensor:
#      x y z
#    x 3.872870 0.000000 -0.225240 
#    y 0.000000 3.353390 0.000000 
#    z -0.225240 0.000000 3.487250 
# 
# 
# High freq. dielectric constant tensor:
#      x y z
#    x 1.748850 0.000000 -0.000280 
#    y 0.000000 1.706610 0.000000 
#    z -0.000280 0.000000 1.703570 
# 
# From -- ./inp_files/228529.got.cif
#   From: 2010.06.25/outbox.cif.g09.slc.cpg/sg15_115_cif.got.tgz:228529.got - 2010.06.28 07:06:18.
