data_PCOD8136462
_publ_section_title
;
Structure prediction by ZEFSAII (Michael W. Deem and Ramdas Pophale) SiO2 
 PCOD8136462
Probable space group: C 2/C
;
_chemical_formula_sum "Si O2"
_cell_formula_units_Z 40
_cell_length_a 9.259906
_cell_length_b 21.565632
_cell_length_c 10.339122
_cell_angle_alpha 90.000000
_cell_angle_beta 56.193697
_cell_angle_gamma 90.000000
_cell_volume 1715.589376
_symmetry_space_group_name_H-M "C 2/C"
_symmetry_group_IT_number 15
_symmetry_cell_setting 'monoclinic'
loop_
_space_group_symop_operation_xyz
x,y,z
-x,y,1/2-z
-x,-y,-z
x,-y,1/2+z
1/2+x,1/2+y,z
1/2-x,1/2+y,1/2-z
1/2-x,1/2-y,-z
1/2+x,1/2-y,1/2+z
loop_
_atom_site_type_symbol
_atom_site_label
_atom_site_fract_x
_atom_site_fract_y
_atom_site_fract_z
Si Si1 0.131585 0.734326 0.288316
Si Si2 0.861986 0.117305 0.425534
Si Si3 0.010498 0.752047 0.608281
Si Si4 0.500517 0.944333 0.399311
Si Si5 0.364535 0.617557 0.712193
O O1 0.328192 0.713343 0.162692
O O2 0.127622 0.808461 0.288671
O O3 0.000000 0.705096 0.250000
O O4 0.068068 0.709726 0.460078
O O5 0.670659 0.095247 0.483871
O O6 0.916169 0.093606 0.542448
O O7 0.000000 0.092792 0.250000
O O8 0.852657 0.192746 0.431461
O O9 0.000000 0.712840 0.750000
O O10 0.500000 0.967622 0.250000
O O11 0.330609 0.902561 0.155751
O O12 0.500000 0.000000 0.500000
O O13 0.500000 0.589795 0.750000
#
# Coordination Sequence:
#
# PCOD8136462 Si02
#       5
#     8   8   8   8   8
#     4  10  20  34  53  80 114 152 189 224 269 327
#     4   9  20  38  56  83 116 145 183 232 278 331
#     4  10  20  34  54  81 113 151 188 226 269 323
#     4  10  22  40  61  83 109 144 187 234 287 340
#     4   9  20  38  58  81 113 150 187 230 278 329
#
# _framework density 23.315602999999999
#
# number of rings (size 3 to 8) (size 9 to 14) (size 15 to 20)
#    0.000    2.400    0.000    1.200    0.000    9.600 
#    0.000    4.000    0.000    1.200    0.000    0.000 
#    0.000    0.000    0.000    0.000    0.000    0.000 
#
# Total GULP energy -247881.366021 kJ/mol
# GULP energy per Si atom -12394.068301 kJ/mol
# Density = 2.326254 g / cm^3
# Si number density = 23.315603 Si / 1000 Ang^3
#
#
#
# Elastic Constant Matrix: (Units=GPa)
#
#
# Indices 1 2 3 4 5 6 
#
# 1 163.8695 14.8473 65.4865 0.0000 16.6958 0.0000
# 2 14.8473 33.5801 22.9035 0.0000 11.7786 0.0000
# 3 65.4865 22.9035 165.8847 0.0000 6.8845 0.0000
# 4 0.0000 0.0000 0.0000 17.3655 0.0000 -3.8188
# 5 16.6958 11.7786 6.8845 0.0000 31.0147 0.0000
# 6 0.0000 0.0000 0.0000 -3.8188 0.0000 22.6967
#
#
#
# Elastic Compliance Matrix: (Units=1/GPa)
#
#
# Indices 1 2 3 4 5 6 
#
# 1 0.007597 -0.000251 -0.002825 0.000000 -0.003367 0.000000
# 2 -0.000251 0.037599 -0.004547 0.000000 -0.013135 0.000000
# 3 -0.002825 -0.004547 0.007707 0.000000 0.001537 0.000000
# 4 0.000000 0.000000 0.000000 0.059798 0.000000 0.010061
# 5 -0.003367 -0.013135 0.001537 0.000000 0.038702 0.000000
# 6 0.000000 0.000000 0.000000 0.010061 0.000000 0.045752
#
#
# Mechanical properties :
#
#
# Convention : Reuss Voigt Hill
#
# Bulk Modulus (GPa) = 26.55507 63.31210 44.93359
# Shear Modulus (GPa) = 22.22673 31.55518 26.89095
#
# Velocity S-wave (km/s) = 3.09090 3.68284 3.39978
# Velocity P-wave (km/s) = 4.91451 6.73036 5.89280
#
# Compressibility (1/GPa) = 0.03765759
#
# Stress axis : x y z
#
# Youngs Moduli (GPa) = 131.62987 26.59644 129.74556
#
# Poissons Ratio (x) = 0.00669 0.36649
# Poissons Ratio (y) = 0.03309 0.58994
# Poissons Ratio (z) = 0.37181 0.12093
#
# Static dielectric constant tensor:
#      x y z
#    x 4.759470 0.000000 0.130780 
#    y 0.000000 3.506600 0.000000 
#    z 0.130780 0.000000 4.709760 
# 
# 
# High freq. dielectric constant tensor:
#      x y z
#    x 1.949480 0.000000 -0.001770 
#    y 0.000000 1.849220 0.000000 
#    z -0.001770 0.000000 1.943710 
# 
# From -- ./inp_files/78978.got.cif
#   From: 2010.06.25/outbox.cif.g09.slc.cpg/sg15_40_cif.got.tgz:78978.got - 2010.06.28 07:06:18.
