data_PCOD8136328
_publ_section_title
;
Structure prediction by ZEFSAII (Michael W. Deem and Ramdas Pophale) SiO2 
 PCOD8136328
Probable space group: C 2/C
;
_chemical_formula_sum "Si O2"
_cell_formula_units_Z 48
_cell_length_a 10.323365
_cell_length_b 23.238081
_cell_length_c 10.726037
_cell_angle_alpha 90.000000
_cell_angle_beta 74.708854
_cell_angle_gamma 90.000000
_cell_volume 2482.031418
_symmetry_space_group_name_H-M "C 2/C"
_symmetry_group_IT_number 15
_symmetry_cell_setting 'monoclinic'
loop_
_space_group_symop_operation_xyz
x,y,z
-x,y,1/2-z
-x,-y,-z
x,-y,1/2+z
1/2+x,1/2+y,z
1/2-x,1/2+y,1/2-z
1/2-x,1/2-y,-z
1/2+x,1/2-y,1/2+z
loop_
_atom_site_type_symbol
_atom_site_label
_atom_site_fract_x
_atom_site_fract_y
_atom_site_fract_z
Si Si1 0.725169 0.666249 0.841148
Si Si2 0.727839 0.729994 0.317048
Si Si3 0.470717 0.262656 0.415788
Si Si4 0.662131 0.045430 0.713068
Si Si5 0.361353 0.030439 0.054766
Si Si6 0.165358 0.339026 0.915906
O O1 0.819257 0.713776 0.748697
O O2 0.568859 0.683505 0.862442
O O3 0.763722 0.605020 0.771672
O O4 0.750176 0.667431 0.981046
O O5 0.632543 0.714340 0.454111
O O6 0.882326 0.744241 0.318712
O O7 0.734968 0.674843 0.224468
O O8 0.544494 0.206386 0.450165
O O9 0.500000 0.054010 0.750000
O O10 0.713925 0.025701 0.561133
O O11 0.710113 0.000914 0.808936
O O12 0.389106 0.096422 0.084987
O O13 0.500000 0.000000 0.000000
#
# Coordination Sequence:
#
# PCOD8136328 Si02
#       6
#     8   8   8   8   8   8
#     4  10  20  33  55  79 109 141 176 226 267 332
#     4  10  21  34  53  79 109 146 177 222 270 335
#     4  10  21  35  51  83 110 142 183 216 280 327
#     4   9  19  34  53  83 110 140 183 229 281 331
#     4   9  19  33  52  81 109 141 179 230 278 322
#     4  10  20  34  54  81 110 138 178 229 271 328
#
# _framework density 19.338998
#
# number of rings (size 3 to 8) (size 9 to 14) (size 15 to 20)
#    0.000    2.333    0.000    4.000    7.000    6.000 
#    3.000    0.000    0.000    1.000    4.333    0.000 
#    0.000    0.000    0.000    0.000    0.000    0.000 
#
# Total GULP energy -297386.039010 kJ/mol
# GULP energy per Si atom -12391.084959 kJ/mol
# Density = 1.929498 g / cm^3
# Si number density = 19.338998 Si / 1000 Ang^3
#
#
#
# Elastic Constant Matrix: (Units=GPa)
#
#
# Indices 1 2 3 4 5 6 
#
# 1 48.6029 25.7683 17.8949 0.0000 -1.0621 0.0000
# 2 25.7683 115.5627 43.4597 0.0000 4.9520 0.0000
# 3 17.8949 43.4597 94.3735 0.0000 16.4481 0.0000
# 4 0.0000 0.0000 0.0000 33.1957 0.0000 1.3098
# 5 -1.0621 4.9520 16.4481 0.0000 21.0653 0.0000
# 6 0.0000 0.0000 0.0000 1.3098 0.0000 26.2437
#
#
#
# Elastic Compliance Matrix: (Units=1/GPa)
#
#
# Indices 1 2 3 4 5 6 
#
# 1 0.024249 -0.004312 -0.003475 0.000000 0.004950 0.000000
# 2 -0.004312 0.011274 -0.004485 0.000000 0.000634 0.000000
# 3 -0.003475 -0.004485 0.015241 0.000000 -0.011022 0.000000
# 4 0.000000 0.000000 0.000000 0.030184 0.000000 -0.001506
# 5 0.004950 0.000634 -0.011022 0.000000 0.056178 0.000000
# 6 0.000000 0.000000 0.000000 -0.001506 0.000000 0.038180
#
#
# Mechanical properties :
#
#
# Convention : Reuss Voigt Hill
#
# Bulk Modulus (GPa) = 38.13789 48.08721 43.11255
# Shear Modulus (GPa) = 23.97058 27.52870 25.74964
#
# Velocity S-wave (km/s) = 3.52447 3.77700 3.65291
# Velocity P-wave (km/s) = 6.02711 6.62875 6.33507
#
# Compressibility (1/GPa) = 0.02622065
#
# Stress axis : x y z
#
# Youngs Moduli (GPa) = 41.23927 88.69760 65.61153
#
# Poissons Ratio (x) = 0.38249 0.22799
# Poissons Ratio (y) = 0.17784 0.29425
# Poissons Ratio (z) = 0.14330 0.39778
#
# Static dielectric constant tensor:
#      x y z
#    x 3.302750 0.000000 0.111810 
#    y 0.000000 3.673640 0.000000 
#    z 0.111810 0.000000 4.665630 
# 
# 
# High freq. dielectric constant tensor:
#      x y z
#    x 1.714990 0.000000 0.015080 
#    y 0.000000 1.741610 0.000000 
#    z 0.015080 0.000000 1.783610 
# 
# From -- ./inp_files/88356.got.cif
#   From: 2010.06.25/outbox.cif.g09.slc.cpg/sg15_45_cif.got.tgz:88356.got - 2010.06.28 07:06:18.
