data_PCOD8136152
_publ_section_title
;
Structure prediction by ZEFSAII (Michael W. Deem and Ramdas Pophale) SiO2 
 PCOD8136152
Probable space group: C 2/C
;
_chemical_formula_sum "Si O2"
_cell_formula_units_Z 48
_cell_length_a 29.699162
_cell_length_b 9.841246
_cell_length_c 17.365068
_cell_angle_alpha 90.000000
_cell_angle_beta 150.165384
_cell_angle_gamma 90.000000
_cell_volume 2525.004956
_symmetry_space_group_name_H-M "C 2/C"
_symmetry_group_IT_number 15
_symmetry_cell_setting 'monoclinic'
loop_
_space_group_symop_operation_xyz
x,y,z
-x,y,1/2-z
-x,-y,-z
x,-y,1/2+z
1/2+x,1/2+y,z
1/2-x,1/2+y,1/2-z
1/2-x,1/2-y,-z
1/2+x,1/2-y,1/2+z
loop_
_atom_site_type_symbol
_atom_site_label
_atom_site_fract_x
_atom_site_fract_y
_atom_site_fract_z
Si Si1 0.332392 0.677214 0.698370
Si Si2 0.410595 0.354822 0.480553
Si Si3 0.966461 0.923740 0.276968
Si Si4 0.050017 0.639440 0.745656
Si Si5 0.827815 0.144532 0.013137
Si Si6 0.191832 0.534922 0.390980
O O1 0.366281 0.636545 0.831814
O O2 0.411799 0.673690 0.752369
O O3 0.251981 0.572878 0.555768
O O4 0.301974 0.833815 0.655223
O O5 0.455391 0.502627 0.558169
O O6 0.483424 0.231109 0.594338
O O7 0.330599 0.334430 0.424727
O O8 0.000000 0.841026 0.250000
O O9 0.906873 0.041762 0.151687
O O10 0.144962 0.715105 0.905365
O O11 0.087949 0.504996 0.758363
O O12 0.000000 0.597385 0.750000
O O13 0.731879 0.090560 0.900720
#
# Coordination Sequence:
#
# PCOD8136152 Si02
#       6
#     8   8   8   8   8   8
#     4  10  20  32  50  76 109 136 165 209 263 312
#     4   9  17  33  54  76  99 130 182 219 243 297
#     4   8  15  30  54  74  99 138 173 207 250 304
#     4   9  18  34  57  76  97 134 176 213 251 300
#     4   8  16  33  53  73  98 135 172 211 251 302
#     4  10  20  34  51  73 108 141 164 204 267 314
#
# _framework density 19.009862999999999
#
# number of rings (size 3 to 8) (size 9 to 14) (size 15 to 20)
#    0.000    3.000    0.000    3.000    0.000    1.333 
#    6.000    0.000   11.000    0.000    0.000    0.000 
#    0.000    0.000    0.000    0.000    0.000    0.000 
#
# Total GULP energy -297399.213115 kJ/mol
# GULP energy per Si atom -12391.633880 kJ/mol
# Density = 1.896660 g / cm^3
# Si number density = 19.009863 Si / 1000 Ang^3
#
#
#
# Elastic Constant Matrix: (Units=GPa)
#
#
# Indices 1 2 3 4 5 6 
#
# 1 103.5461 29.8312 46.8635 0.0000 -8.0561 0.0000
# 2 29.8312 49.6044 17.8397 0.0000 6.8881 0.0000
# 3 46.8635 17.8397 75.4681 0.0000 -14.0397 0.0000
# 4 0.0000 0.0000 0.0000 17.0549 0.0000 6.8942
# 5 -8.0561 6.8881 -14.0397 0.0000 34.1480 0.0000
# 6 0.0000 0.0000 0.0000 6.8942 0.0000 24.9046
#
#
#
# Elastic Compliance Matrix: (Units=1/GPa)
#
#
# Indices 1 2 3 4 5 6 
#
# 1 0.015091 -0.006648 -0.007458 0.000000 0.001835 0.000000
# 2 -0.006648 0.026691 -0.003762 0.000000 -0.008499 0.000000
# 3 -0.007458 -0.003762 0.020124 0.000000 0.007273 0.000000
# 4 0.000000 0.000000 0.000000 0.066022 0.000000 -0.018277
# 5 0.001835 -0.008499 0.007273 0.000000 0.034422 0.000000
# 6 0.000000 0.000000 0.000000 -0.018277 0.000000 0.045213
#
#
# Mechanical properties :
#
#
# Convention : Reuss Voigt Hill
#
# Bulk Modulus (GPa) = 38.21285 46.40971 42.31128
# Shear Modulus (GPa) = 19.83942 24.16043 21.99993
#
# Velocity S-wave (km/s) = 3.23404 3.56889 3.40559
# Velocity P-wave (km/s) = 5.83872 6.43810 6.14572
#
# Compressibility (1/GPa) = 0.02616921
#
# Stress axis : x y z
#
# Youngs Moduli (GPa) = 66.26431 37.46616 49.69073
#
# Poissons Ratio (x) = 0.24908 0.37061
# Poissons Ratio (y) = 0.44053 0.18695
# Poissons Ratio (z) = 0.49422 0.14096
#
# Static dielectric constant tensor:
#      x y z
#    x 3.630760 0.000000 0.133940 
#    y 0.000000 3.302700 0.000000 
#    z 0.133940 0.000000 3.237100 
# 
# 
# High freq. dielectric constant tensor:
#      x y z
#    x 1.744670 0.000000 0.005140 
#    y 0.000000 1.721310 0.000000 
#    z 0.005140 0.000000 1.709940 
# 
# From -- ./inp_files/208969.got.cif
#   From: 2010.06.25/outbox.cif.g09.slc.cpg/sg15_105_cif.got.tgz:208969.got - 2010.06.28 07:06:18.
