data_PCOD8136432
_publ_section_title
;
Structure prediction by ZEFSAII (Michael W. Deem and Ramdas Pophale) SiO2 
 PCOD8136432
Probable space group: C 2/C
;
_chemical_formula_sum "Si O2"
_cell_formula_units_Z 44
_cell_length_a 18.417874
_cell_length_b 20.759937
_cell_length_c 5.076409
_cell_angle_alpha 90.000000
_cell_angle_beta 111.732380
_cell_angle_gamma 90.000000
_cell_volume 1803.026326
_symmetry_space_group_name_H-M "C 2/C"
_symmetry_group_IT_number 15
_symmetry_cell_setting 'monoclinic'
loop_
_space_group_symop_operation_xyz
x,y,z
-x,y,1/2-z
-x,-y,-z
x,-y,1/2+z
1/2+x,1/2+y,z
1/2-x,1/2+y,1/2-z
1/2-x,1/2-y,-z
1/2+x,1/2-y,1/2+z
loop_
_atom_site_type_symbol
_atom_site_label
_atom_site_fract_x
_atom_site_fract_y
_atom_site_fract_z
Si Si1 0.833753 0.875115 0.941110
Si Si2 0.000000 0.646461 0.250000
Si Si3 0.000000 0.780762 0.750000
Si Si4 0.421291 0.957855 0.326614
Si Si5 0.500000 0.367000 0.250000
Si Si6 0.235737 0.386343 0.304796
Si Si7 0.629141 0.229508 0.583390
O O1 0.801385 0.893518 0.613686
O O2 0.841668 0.797832 0.986351
O O3 0.920802 0.907294 0.081486
O O4 0.775494 0.903124 0.080284
O O5 0.022993 0.602870 0.532451
O O6 0.075650 0.692113 0.290278
O O7 0.976701 0.823802 0.468962
O O8 0.925385 0.737567 0.730774
O O9 0.331401 0.938409 0.236654
O O10 0.438218 0.017329 0.551526
O O11 0.203465 0.313437 0.262215
#
# Coordination Sequence:
#
# PCOD8136432 Si02
#       7
#     8   4   4   8   4   8   8
#     4  11  21  38  57  87 124 162 198 247 308 384
#     4  10  23  38  63  94 126 172 213 240 301 372
#     4  10  20  34  51  78 120 174 203 228 280 346
#     4  11  24  45  65  88 121 163 216 273 307 345
#     4  10  21  36  56  80 116 160 198 234 293 368
#     4  11  24  37  60  89 116 159 211 256 317 368
#     4  10  21  35  55  87 130 166 202 247 292 369
#
# _framework density 24.403417000000001
#
# number of rings (size 3 to 8) (size 9 to 14) (size 15 to 20)
#    0.000    1.455    0.000    7.091    0.000    8.727 
#    0.000    0.000    0.000    0.000    0.000   12.727 
#    0.000    0.000    0.000    0.000    0.000    0.000 
#
# Total GULP energy -272726.616956 kJ/mol
# GULP energy per Si atom -12396.664407 kJ/mol
# Density = 2.434787 g / cm^3
# Si number density = 24.403417 Si / 1000 Ang^3
#
#
#
# Elastic Constant Matrix: (Units=GPa)
#
#
# Indices 1 2 3 4 5 6 
#
# 1 127.1683 2.8670 42.8337 0.0000 -2.6041 0.0000
# 2 2.8670 52.0160 17.7859 0.0000 0.2211 0.0000
# 3 42.8337 17.7859 129.6897 0.0000 9.4361 0.0000
# 4 0.0000 0.0000 0.0000 17.3437 0.0000 -4.6545
# 5 -2.6041 0.2211 9.4361 0.0000 55.4370 0.0000
# 6 0.0000 0.0000 0.0000 -4.6545 0.0000 80.5544
#
#
#
# Elastic Compliance Matrix: (Units=1/GPa)
#
#
# Indices 1 2 3 4 5 6 
#
# 1 0.008911 0.000561 -0.003088 0.000000 0.000942 0.000000
# 2 0.000561 0.020215 -0.002991 0.000000 0.000455 0.000000
# 3 -0.003088 -0.002991 0.009265 0.000000 -0.001710 0.000000
# 4 0.000000 0.000000 0.000000 0.058566 0.000000 0.003384
# 5 0.000942 0.000455 -0.001710 0.000000 0.018372 0.000000
# 6 0.000000 0.000000 0.000000 0.003384 0.000000 0.012610
#
#
# Mechanical properties :
#
#
# Convention : Reuss Voigt Hill
#
# Bulk Modulus (GPa) = 36.55751 48.42747 42.49249
# Shear Modulus (GPa) = 33.76274 47.02617 40.39446
#
# Velocity S-wave (km/s) = 3.72361 4.39456 4.07293
# Velocity P-wave (km/s) = 5.78792 6.75553 6.29036
#
# Compressibility (1/GPa) = 0.02735416
#
# Stress axis : x y z
#
# Youngs Moduli (GPa) = 112.22712 49.46925 107.92943
#
# Poissons Ratio (x) = -0.02775 0.33333
# Poissons Ratio (y) = -0.06295 0.32277
# Poissons Ratio (z) = 0.34660 0.14794
#
# Static dielectric constant tensor:
#      x y z
#    x 4.692840 0.000000 0.545110 
#    y 0.000000 4.162510 0.000000 
#    z 0.545110 0.000000 3.362600 
# 
# 
# High freq. dielectric constant tensor:
#      x y z
#    x 1.985450 0.000000 0.013740 
#    y 0.000000 1.928220 0.000000 
#    z 0.013740 0.000000 1.982030 
# 
# From -- ./inp_files/10432.got.cif
#   From: 2010.06.25/outbox.cif.g09.slc.cpg/sg15_6_cif.got.tgz:10432.got - 2010.06.28 07:06:18.
