data_PCOD8136551
_publ_section_title
;
Structure prediction by ZEFSAII (Michael W. Deem and Ramdas Pophale) SiO2 
 PCOD8136551
Probable space group: C 2/C
;
_chemical_formula_sum "Si O2"
_cell_formula_units_Z 56
_cell_length_a 12.329805
_cell_length_b 18.232916
_cell_length_c 14.494446
_cell_angle_alpha 90.000000
_cell_angle_beta 114.442835
_cell_angle_gamma 90.000000
_cell_volume 2966.429799
_symmetry_space_group_name_H-M "C 2/C"
_symmetry_group_IT_number 15
_symmetry_cell_setting 'monoclinic'
loop_
_space_group_symop_operation_xyz
x,y,z
-x,y,1/2-z
-x,-y,-z
x,-y,1/2+z
1/2+x,1/2+y,z
1/2-x,1/2+y,1/2-z
1/2-x,1/2-y,-z
1/2+x,1/2-y,1/2+z
loop_
_atom_site_type_symbol
_atom_site_label
_atom_site_fract_x
_atom_site_fract_y
_atom_site_fract_z
Si Si1 0.218672 0.562682 0.692196
Si Si2 0.957488 0.449283 0.136843
Si Si3 0.907417 0.086837 0.050424
Si Si4 0.257829 0.160369 0.633349
Si Si5 0.240431 0.455069 0.994247
Si Si6 0.635314 0.687458 0.300680
Si Si7 0.817841 0.919205 0.834565
O O1 0.258864 0.631370 0.768160
O O2 0.273555 0.573379 0.608472
O O3 0.256699 0.486773 0.756669
O O4 0.077114 0.571167 0.624828
O O5 0.868959 0.380352 0.122203
O O6 0.891908 0.511124 0.053357
O O7 0.000000 0.482048 0.250000
O O8 0.862399 0.116815 0.132648
O O9 0.043824 0.063792 0.098968
O O10 0.869055 0.148265 0.961854
O O11 0.835703 0.015378 0.997506
O O12 0.280054 0.247028 0.637692
O O13 0.253700 0.400795 0.910571
O O14 0.500000 0.717895 0.250000
O O15 0.687365 0.657119 0.222879
#
# Coordination Sequence:
#
# PCOD8136551 Si02
#       7
#     8   8   8   8   8   8   8
#     4  11  20  33  55  83 109 146 184 227 280 327
#     4   9  17  33  54  78 109 136 182 232 276 311
#     4  10  20  34  56  84 111 144 185 232 282 321
#     4  10  20  36  57  82 112 143 188 235 274 325
#     4  11  20  33  54  82 112 143 180 229 277 332
#     4  10  20  35  57  81 112 145 186 233 280 324
#     4  11  21  35  54  83 118 145 182 230 276 337
#
# _framework density 18.877911000000001
#
# number of rings (size 3 to 8) (size 9 to 14) (size 15 to 20)
#    0.000    1.714    5.714    2.571    0.000    0.000 
#    0.000    0.714    0.000    0.000    3.714    0.000 
#    0.000    0.000    0.000    0.000    0.000    0.000 
#
# Total GULP energy -346914.294557 kJ/mol
# GULP energy per Si atom -12389.796234 kJ/mol
# Density = 1.883494 g / cm^3
# Si number density = 18.877911 Si / 1000 Ang^3
#
#
#
# Elastic Constant Matrix: (Units=GPa)
#
#
# Indices 1 2 3 4 5 6 
#
# 1 60.7330 20.1713 33.7582 0.0000 -7.6448 0.0000
# 2 20.1713 41.4076 4.9472 0.0000 -2.2639 0.0000
# 3 33.7582 4.9472 86.5456 0.0000 -14.9172 0.0000
# 4 0.0000 0.0000 0.0000 18.4987 0.0000 4.9483
# 5 -7.6448 -2.2639 -14.9172 0.0000 41.1357 0.0000
# 6 0.0000 0.0000 0.0000 4.9483 0.0000 12.6177
#
#
#
# Elastic Compliance Matrix: (Units=1/GPa)
#
#
# Indices 1 2 3 4 5 6 
#
# 1 0.025357 -0.011221 -0.009113 0.000000 0.000790 0.000000
# 2 -0.011221 0.029312 0.002794 0.000000 0.000541 0.000000
# 3 -0.009113 0.002794 0.015663 0.000000 0.004140 0.000000
# 4 0.000000 0.000000 0.000000 0.060393 0.000000 -0.023684
# 5 0.000790 0.000541 0.004140 0.000000 0.025988 0.000000
# 6 0.000000 0.000000 0.000000 -0.023684 0.000000 0.088542
#
#
# Mechanical properties :
#
#
# Convention : Reuss Voigt Hill
#
# Bulk Modulus (GPa) = 28.36594 34.04885 31.20739
# Shear Modulus (GPa) = 17.11827 23.10437 20.11132
#
# Velocity S-wave (km/s) = 3.01456 3.50220 3.26749
# Velocity P-wave (km/s) = 5.21300 5.86766 5.54999
#
# Compressibility (1/GPa) = 0.03525355
#
# Stress axis : x y z
#
# Youngs Moduli (GPa) = 39.43645 34.11588 63.84376
#
# Poissons Ratio (x) = 0.38280 0.58183
# Poissons Ratio (y) = 0.44250 -0.17841
# Poissons Ratio (z) = 0.35940 -0.09533
#
# Static dielectric constant tensor:
#      x y z
#    x 3.496390 0.000000 0.108140 
#    y 0.000000 3.066400 0.000000 
#    z 0.108140 0.000000 3.742980 
# 
# 
# High freq. dielectric constant tensor:
#      x y z
#    x 1.719160 0.000000 0.006660 
#    y 0.000000 1.690040 0.000000 
#    z 0.006660 0.000000 1.755700 
# 
# From -- ./inp_files/145741.got.cif
#   From: 2010.06.25/outbox.cif.g09.slc.cpg/sg15_73_cif.got.tgz:145741.got - 2010.06.28 07:06:18.
