data_PCOD8136386
_publ_section_title
;
Structure prediction by ZEFSAII (Michael W. Deem and Ramdas Pophale) SiO2 
 PCOD8136386
Probable space group: C 2/C
;
_chemical_formula_sum "Si O2"
_cell_formula_units_Z 64
_cell_length_a 23.856442
_cell_length_b 24.923048
_cell_length_c 11.139565
_cell_angle_alpha 90.000000
_cell_angle_beta 151.588525
_cell_angle_gamma 90.000000
_cell_volume 3151.373191
_symmetry_space_group_name_H-M "C 2/C"
_symmetry_group_IT_number 15
_symmetry_cell_setting 'monoclinic'
loop_
_space_group_symop_operation_xyz
x,y,z
-x,y,1/2-z
-x,-y,-z
x,-y,1/2+z
1/2+x,1/2+y,z
1/2-x,1/2+y,1/2-z
1/2-x,1/2-y,-z
1/2+x,1/2-y,1/2+z
loop_
_atom_site_type_symbol
_atom_site_label
_atom_site_fract_x
_atom_site_fract_y
_atom_site_fract_z
Si Si1 0.579993 0.788247 0.130942
Si Si2 0.601276 0.336855 0.709783
Si Si3 0.841438 0.821753 0.255903
Si Si4 0.278846 0.858570 0.251163
Si Si5 0.865614 0.525490 0.874608
Si Si6 0.662667 0.202608 0.222985
Si Si7 0.690331 0.139005 0.036301
Si Si8 0.627782 0.020817 0.875117
O O1 0.600932 0.725804 0.180109
O O2 0.631486 0.808893 0.101041
O O3 0.655781 0.815641 0.377291
O O4 0.445051 0.807189 0.888609
O O5 0.464001 0.352735 0.462644
O O6 0.668382 0.367559 0.725292
O O7 0.662109 0.352601 0.949844
O O8 0.760953 0.860544 0.185320
O O9 0.850984 0.764683 0.345998
O O10 0.784383 0.808843 0.019985
O O11 0.353618 0.910909 0.358808
O O12 0.812616 0.507619 0.643434
O O13 0.801105 0.500775 0.872358
O O14 0.000529 0.506856 0.133909
O O15 0.657049 0.160607 0.104168
O O16 0.618504 0.084754 0.875912
#
# Coordination Sequence:
#
# PCOD8136386 Si02
#       8
#     8   8   8   8   8   8   8   8
#     4  10  20  33  59  91 124 154 202 246 303 379
#     4  10  20  37  60  87 119 163 207 246 290 372
#     4  10  22  38  54  88 127 165 207 245 296 371
#     4  11  20  37  59  86 117 160 204 247 313 366
#     4  10  22  37  57  87 119 158 199 263 322 384
#     4  10  22  34  55  90 131 163 197 248 307 370
#     4  11  20  36  61  88 120 163 201 247 318 376
#     4  10  22  38  58  87 126 150 202 261 326 383
#
# _framework density 20.308606999999999
#
# number of rings (size 3 to 8) (size 9 to 14) (size 15 to 20)
#    0.000    1.750    2.500    3.750    3.500    6.000 
#    0.000    3.750    0.000    0.750    3.250    0.000 
#    0.000    0.000    0.000    0.000    0.000    0.000 
#
# Total GULP energy -396442.809673 kJ/mol
# GULP energy per Si atom -12388.837802 kJ/mol
# Density = 2.026238 g / cm^3
# Si number density = 20.308607 Si / 1000 Ang^3
#
#
#
# Elastic Constant Matrix: (Units=GPa)
#
#
# Indices 1 2 3 4 5 6 
#
# 1 92.0267 42.6480 32.3116 0.0000 2.5231 0.0000
# 2 42.6480 66.7167 25.5078 0.0000 3.7395 0.0000
# 3 32.3116 25.5078 62.6695 0.0000 15.9803 0.0000
# 4 0.0000 0.0000 0.0000 25.8155 0.0000 2.7368
# 5 2.5231 3.7395 15.9803 0.0000 36.6274 0.0000
# 6 0.0000 0.0000 0.0000 2.7368 0.0000 29.3066
#
#
#
# Elastic Compliance Matrix: (Units=1/GPa)
#
#
# Indices 1 2 3 4 5 6 
#
# 1 0.016846 -0.008712 -0.005705 0.000000 0.002218 0.000000
# 2 -0.008712 0.022331 -0.004691 0.000000 0.000367 0.000000
# 3 -0.005705 -0.004691 0.023162 0.000000 -0.009234 0.000000
# 4 0.000000 0.000000 0.000000 0.039124 0.000000 -0.003654
# 5 0.002218 0.000367 -0.009234 0.000000 0.031140 0.000000
# 6 0.000000 0.000000 0.000000 -0.003654 0.000000 0.034463
#
#
# Mechanical properties :
#
#
# Convention : Reuss Voigt Hill
#
# Bulk Modulus (GPa) = 41.45466 46.92753 44.19109
# Shear Modulus (GPa) = 23.43865 26.41294 24.92579
#
# Velocity S-wave (km/s) = 3.40093 3.61027 3.50716
# Velocity P-wave (km/s) = 5.98986 6.36679 6.18120
#
# Compressibility (1/GPa) = 0.02412274
#
# Stress axis : x y z
#
# Youngs Moduli (GPa) = 59.36098 44.78171 43.17389
#
# Poissons Ratio (x) = 0.39012 0.24632
# Poissons Ratio (y) = 0.51713 0.20253
# Poissons Ratio (z) = 0.33868 0.21007
#
# Static dielectric constant tensor:
#      x y z
#    x 4.380040 0.000000 0.036520 
#    y 0.000000 3.550430 0.000000 
#    z 0.036520 0.000000 3.706850 
# 
# 
# High freq. dielectric constant tensor:
#      x y z
#    x 1.808180 0.000000 -0.002240 
#    y 0.000000 1.772540 0.000000 
#    z -0.002240 0.000000 1.764380 
# 
# From -- ./inp_files/120272.got.cif
#   From: 2010.06.25/outbox.cif.g09.slc.cpg/sg15_61_cif.got.tgz:120272.got - 2010.06.28 07:06:18.
