data_PCOD8136911
_publ_section_title
;
Structure prediction by ZEFSAII (Michael W. Deem and Ramdas Pophale) SiO2 
 PCOD8136911
Probable space group: C 2/C
;
_chemical_formula_sum "Si O2"
_cell_formula_units_Z 60
_cell_length_a 11.497312
_cell_length_b 26.655294
_cell_length_c 10.155955
_cell_angle_alpha 90.000000
_cell_angle_beta 94.297650
_cell_angle_gamma 90.000000
_cell_volume 3103.685419
_symmetry_space_group_name_H-M "C 2/C"
_symmetry_group_IT_number 15
_symmetry_cell_setting 'monoclinic'
loop_
_space_group_symop_operation_xyz
x,y,z
-x,y,1/2-z
-x,-y,-z
x,-y,1/2+z
1/2+x,1/2+y,z
1/2-x,1/2+y,1/2-z
1/2-x,1/2-y,-z
1/2+x,1/2-y,1/2+z
loop_
_atom_site_type_symbol
_atom_site_label
_atom_site_fract_x
_atom_site_fract_y
_atom_site_fract_z
Si Si1 0.871179 0.657643 0.290052
Si Si2 0.698630 0.425571 0.772606
Si Si3 0.197921 0.790598 0.593340
Si Si4 0.138023 0.963804 0.270656
Si Si5 0.856527 0.887742 0.446886
Si Si6 0.000000 0.254464 0.250000
Si Si7 0.189413 0.300460 0.446355
Si Si8 0.883442 0.108512 0.502882
O O1 0.822930 0.601494 0.255250
O O2 0.788919 0.700225 0.218686
O O3 0.876474 0.669719 0.444373
O O4 0.000000 0.662075 0.250000
O O5 0.711577 0.485051 0.789768
O O6 0.610990 0.414979 0.643530
O O7 0.651252 0.399620 0.899838
O O8 0.250000 0.750000 0.500000
O O9 0.070657 0.778453 0.647189
O O10 0.190320 0.840555 0.504619
O O11 0.183481 0.935040 0.144613
O O12 0.172414 0.931707 0.402233
O O13 0.000000 0.976188 0.250000
O O14 0.787061 0.838099 0.397405
O O15 0.991029 0.877193 0.428480
O O16 0.905285 0.289656 0.173028
O O17 0.250000 0.250000 0.500000
#
# Coordination Sequence:
#
# PCOD8136911 Si02
#       8
#     8   8   8   8   8   4   8   8
#     4  10  22  41  61  86 121 161 206 254 299 366
#     4  10  20  35  61  84 116 157 200 246 303 373
#     4  11  24  39  62  92 123 164 208 257 308 375
#     4  10  20  35  56  89 122 153 192 255 313 358
#     4  10  21  35  58  87 123 153 197 247 307 363
#     4  12  24  40  66  88 126 166 210 254 318 366
#     4  11  22  39  61  89 121 160 203 250 305 370
#     4  10  21  34  59  89 121 157 197 250 304 369
#
# _framework density 19.331855999999998
#
# number of rings (size 3 to 8) (size 9 to 14) (size 15 to 20)
#    0.000    1.600    1.333    3.600    5.600    2.133 
#    0.000    0.667    1.467    4.800    0.000    0.000 
#    0.000    0.000    0.000    0.000    0.000    0.000 
#
# Total GULP energy -371982.209738 kJ/mol
# GULP energy per Si atom -12399.406991 kJ/mol
# Density = 1.928786 g / cm^3
# Si number density = 19.331856 Si / 1000 Ang^3
#
#
#
# Elastic Constant Matrix: (Units=GPa)
#
#
# Indices 1 2 3 4 5 6 
#
# 1 80.4620 40.2234 22.0750 0.0000 2.0045 0.0000
# 2 40.2234 140.4618 43.3275 0.0000 3.7544 0.0000
# 3 22.0750 43.3275 94.4809 0.0000 8.7166 0.0000
# 4 0.0000 0.0000 0.0000 36.2059 0.0000 -0.2450
# 5 2.0045 3.7544 8.7166 0.0000 33.3458 0.0000
# 6 0.0000 0.0000 0.0000 -0.2450 0.0000 29.5110
#
#
#
# Elastic Compliance Matrix: (Units=1/GPa)
#
#
# Indices 1 2 3 4 5 6 
#
# 1 0.014751 -0.003682 -0.001757 0.000000 -0.000013 0.000000
# 2 -0.003682 0.009212 -0.003370 0.000000 0.000065 0.000000
# 3 -0.001757 -0.003370 0.012804 0.000000 -0.002862 0.000000
# 4 0.000000 0.000000 0.000000 0.027621 0.000000 0.000229
# 5 -0.000013 0.000065 -0.002862 0.000000 0.030730 0.000000
# 6 0.000000 0.000000 0.000000 0.000229 0.000000 0.033888
#
#
# Mechanical properties :
#
#
# Convention : Reuss Voigt Hill
#
# Bulk Modulus (GPa) = 52.22156 58.51739 55.36947
# Shear Modulus (GPa) = 32.67828 33.79779 33.23803
#
# Velocity S-wave (km/s) = 4.11589 4.18580 4.15099
# Velocity P-wave (km/s) = 7.04693 7.32781 7.18874
#
# Compressibility (1/GPa) = 0.01914918
#
# Stress axis : x y z
#
# Youngs Moduli (GPa) = 67.79118 108.55946 78.09993
#
# Poissons Ratio (x) = 0.39971 0.13721
# Poissons Ratio (y) = 0.24960 0.26320
# Poissons Ratio (z) = 0.11910 0.36585
#
# Static dielectric constant tensor:
#      x y z
#    x 3.387900 0.000000 0.056710 
#    y 0.000000 3.664180 0.000000 
#    z 0.056710 0.000000 3.719790 
# 
# 
# High freq. dielectric constant tensor:
#      x y z
#    x 1.724720 0.000000 0.003470 
#    y 0.000000 1.758320 0.000000 
#    z 0.003470 0.000000 1.764760 
# 
# From -- ./inp_files/34271.got.cif
#   From: 2010.06.25/outbox.cif.g09.slc.cpg/sg15_18_cif.got.tgz:34271.got - 2010.06.28 07:06:18.
