data_PCOD8136501
_publ_section_title
;
Structure prediction by ZEFSAII (Michael W. Deem and Ramdas Pophale) SiO2 
 PCOD8136501
Probable space group: C 2/C
;
_chemical_formula_sum "Si O2"
_cell_formula_units_Z 52
_cell_length_a 12.360885
_cell_length_b 21.372962
_cell_length_c 16.274465
_cell_angle_alpha 90.000000
_cell_angle_beta 36.527227
_cell_angle_gamma 90.000000
_cell_volume 2559.100618
_symmetry_space_group_name_H-M "C 2/C"
_symmetry_group_IT_number 15
_symmetry_cell_setting 'monoclinic'
loop_
_space_group_symop_operation_xyz
x,y,z
-x,y,1/2-z
-x,-y,-z
x,-y,1/2+z
1/2+x,1/2+y,z
1/2-x,1/2+y,1/2-z
1/2-x,1/2-y,-z
1/2+x,1/2-y,1/2+z
loop_
_atom_site_type_symbol
_atom_site_label
_atom_site_fract_x
_atom_site_fract_y
_atom_site_fract_z
Si Si1 0.037726 0.264993 0.941600
Si Si2 0.339482 0.688883 0.784833
Si Si3 0.903578 0.978370 0.640271
Si Si4 0.083083 0.854882 0.517598
Si Si5 0.289674 0.865141 0.551482
Si Si6 0.818079 0.590323 0.736155
Si Si7 0.000000 0.036361 0.250000
O O1 0.113754 0.245343 0.806593
O O2 0.011161 0.206313 0.017632
O O3 0.177427 0.313495 0.898405
O O4 0.838977 0.294866 0.053185
O O5 0.500000 0.676987 0.750000
O O6 0.306492 0.625241 0.755214
O O7 0.708938 0.014747 0.759561
O O8 0.000000 0.000000 0.500000
O O9 0.910327 0.902428 0.633826
O O10 0.014862 0.001498 0.655013
O O11 0.163345 0.835611 0.557331
O O12 0.247386 0.888565 0.368553
O O13 0.474630 0.890828 0.399417
O O14 0.182809 0.923393 0.655254
#
# Coordination Sequence:
#
# PCOD8136501 Si02
#       7
#     8   8   8   8   8   8   4
#     4  10  21  35  58  83 116 149 187 234 287 345
#     4  10  21  36  56  79 108 152 193 236 280 335
#     4   9  19  36  57  79 111 147 189 233 274 338
#     4   9  18  35  57  84 113 150 183 228 293 339
#     4  10  20  34  54  87 118 145 185 234 286 346
#     4   9  19  35  56  80 109 150 194 230 279 335
#     4  10  22  34  58  84 114 154 188 234 294 330
#
# _framework density 20.319638000000001
#
# number of rings (size 3 to 8) (size 9 to 14) (size 15 to 20)
#    0.000    2.462    0.000    1.385    5.385    0.615 
#    2.769    0.000    0.000    5.538    0.000    0.000 
#    0.000    0.000    0.000    0.000    0.000    0.000 
#
# Total GULP energy -322130.907136 kJ/mol
# GULP energy per Si atom -12389.650274 kJ/mol
# Density = 2.027339 g / cm^3
# Si number density = 20.319638 Si / 1000 Ang^3
#
#
#
# Elastic Constant Matrix: (Units=GPa)
#
#
# Indices 1 2 3 4 5 6 
#
# 1 98.1169 15.3021 7.7536 0.0016 9.3487 -0.0016
# 2 15.3021 59.8134 10.0321 -0.0050 -10.6786 -0.0002
# 3 7.7536 10.0321 46.6196 -0.0215 6.7260 0.0015
# 4 0.0016 -0.0050 -0.0215 24.2447 0.0050 -4.6727
# 5 9.3487 -10.6786 6.7260 0.0050 33.7554 -0.0029
# 6 -0.0016 -0.0002 0.0015 -4.6727 -0.0029 27.7129
#
#
#
# Elastic Compliance Matrix: (Units=1/GPa)
#
#
# Indices 1 2 3 4 5 6 
#
# 1 0.011169 -0.003503 -0.000512 -0.000001 -0.004100 0.000000
# 2 -0.003503 0.019907 -0.004890 -0.000002 0.008242 0.000001
# 3 -0.000512 -0.004890 0.023465 0.000021 -0.006081 0.000002
# 4 -0.000001 -0.000002 0.000021 0.042631 -0.000010 0.007188
# 5 -0.004100 0.008242 -0.006081 -0.000010 0.034579 0.000002
# 6 0.000000 0.000001 0.000002 0.007188 0.000002 0.037296
#
#
# Mechanical properties :
#
#
# Convention : Reuss Voigt Hill
#
# Bulk Modulus (GPa) = 27.22625 30.08062 28.65344
# Shear Modulus (GPa) = 25.11260 28.57340 26.84300
#
# Velocity S-wave (km/s) = 3.51932 3.75400 3.63855
# Velocity P-wave (km/s) = 5.47195 5.79878 5.63773
#
# Compressibility (1/GPa) = 0.03672926
#
# Stress axis : x y z
#
# Youngs Moduli (GPa) = 89.53012 50.23443 42.61658
#
# Poissons Ratio (x) = 0.17600 0.02183
# Poissons Ratio (y) = 0.31367 0.20840
# Poissons Ratio (z) = 0.04586 0.24566
#
# Static dielectric constant tensor:
#      x y z
#    x 3.782230 0.000000 0.266330 
#    y 0.000000 3.855180 0.000020 
#    z 0.266330 0.000020 3.776490 
# 
# 
# High freq. dielectric constant tensor:
#      x y z
#    x 1.790310 0.000000 0.021220 
#    y 0.000000 1.780740 0.000000 
#    z 0.021220 0.000000 1.796400 
# 
# From -- ./inp_files/200328.got.cif
#   From: 2010.06.25/outbox.cif.g09.slc.cpg/sg15_101_cif.got.tgz:200328.got - 2010.06.28 07:06:18.
