data_PCOD8136542
_publ_section_title
;
Structure prediction by ZEFSAII (Michael W. Deem and Ramdas Pophale) SiO2 
 PCOD8136542
Probable space group: C 2/C
;
_chemical_formula_sum "Si O2"
_cell_formula_units_Z 56
_cell_length_a 23.106692
_cell_length_b 8.697807
_cell_length_c 15.746626
_cell_angle_alpha 90.000000
_cell_angle_beta 71.591499
_cell_angle_gamma 90.000000
_cell_volume 3002.777007
_symmetry_space_group_name_H-M "C 2/C"
_symmetry_group_IT_number 15
_symmetry_cell_setting 'monoclinic'
loop_
_space_group_symop_operation_xyz
x,y,z
-x,y,1/2-z
-x,-y,-z
x,-y,1/2+z
1/2+x,1/2+y,z
1/2-x,1/2+y,1/2-z
1/2-x,1/2-y,-z
1/2+x,1/2-y,1/2+z
loop_
_atom_site_type_symbol
_atom_site_label
_atom_site_fract_x
_atom_site_fract_y
_atom_site_fract_z
Si Si1 0.380962 0.325867 0.632111
Si Si2 0.781618 0.981501 0.268978
Si Si3 0.698902 0.325875 0.583083
Si Si4 0.387189 0.581351 0.943432
Si Si5 0.019428 0.971068 0.332103
Si Si6 0.378215 0.746622 0.775001
Si Si7 0.656624 0.916839 0.236142
O O1 0.321238 0.392436 0.703427
O O2 0.368873 0.331487 0.537738
O O3 0.442075 0.410649 0.631045
O O4 0.384143 0.153823 0.668446
O O5 0.768231 0.052170 0.368760
O O6 0.819290 0.821725 0.253901
O O7 0.722630 0.954442 0.241510
O O8 0.750000 0.250000 0.500000
O O9 0.649060 0.419573 0.549868
O O10 0.662409 0.193864 0.651395
O O11 0.459736 0.558077 0.915140
O O12 0.371609 0.695193 0.874892
O O13 0.059188 0.816989 0.295844
O O14 0.000000 0.043277 0.250000
O O15 0.378746 0.929584 0.773721
#
# Coordination Sequence:
#
# PCOD8136542 Si02
#       7
#     8   8   8   8   8   8   8
#     4  10  20  34  56  81 101 135 183 219 256 313
#     4   9  19  35  53  74 108 146 174 209 264 320
#     4  10  21  35  55  82 108 140 181 221 263 318
#     4  10  20  37  55  76 107 142 175 215 267 321
#     4   9  18  37  57  74 102 144 179 210 260 322
#     4   9  19  34  53  75 106 142 174 214 267 315
#     4  11  20  34  53  80 108 137 177 224 265 309
#
# _framework density 18.649404000000001
#
# number of rings (size 3 to 8) (size 9 to 14) (size 15 to 20)
#    0.000    2.286    0.000    5.571    0.000    2.286 
#    0.000   10.714    0.000    0.000    0.000    0.000 
#    0.000    0.000    0.000    0.000    0.000    0.000 
#
# Total GULP energy -347101.751361 kJ/mol
# GULP energy per Si atom -12396.491120 kJ/mol
# Density = 1.860696 g / cm^3
# Si number density = 18.649404 Si / 1000 Ang^3
#
#
#
# Elastic Constant Matrix: (Units=GPa)
#
#
# Indices 1 2 3 4 5 6 
#
# 1 89.0056 39.2340 36.6229 0.0000 0.3418 0.0000
# 2 39.2340 123.6005 44.9939 0.0000 -3.0201 0.0000
# 3 36.6229 44.9939 99.8130 0.0000 -7.9867 0.0000
# 4 0.0000 0.0000 0.0000 26.8021 0.0000 23.0063
# 5 0.3418 -3.0201 -7.9867 0.0000 20.8862 0.0000
# 6 0.0000 0.0000 0.0000 23.0063 0.0000 65.4143
#
#
#
# Elastic Compliance Matrix: (Units=1/GPa)
#
#
# Indices 1 2 3 4 5 6 
#
# 1 0.014269 -0.003126 -0.004004 0.000000 -0.002217 0.000000
# 2 -0.003126 0.010365 -0.003509 0.000000 0.000208 0.000000
# 3 -0.004004 -0.003509 0.013446 0.000000 0.004700 0.000000
# 4 0.000000 0.000000 0.000000 0.053445 0.000000 -0.018797
# 5 -0.002217 0.000208 0.004700 0.000000 0.049742 0.000000
# 6 0.000000 0.000000 0.000000 -0.018797 0.000000 0.021898
#
#
# Mechanical properties :
#
#
# Convention : Reuss Voigt Hill
#
# Bulk Modulus (GPa) = 59.51436 61.56898 60.54167
# Shear Modulus (GPa) = 26.30977 35.39172 30.85074
#
# Velocity S-wave (km/s) = 3.76008 4.36103 4.07166
# Velocity P-wave (km/s) = 7.12968 7.64485 7.39176
#
# Compressibility (1/GPa) = 0.01680267
#
# Stress axis : x y z
#
# Youngs Moduli (GPa) = 70.08116 96.47599 74.37416
#
# Poissons Ratio (x) = 0.30159 0.29778
# Poissons Ratio (y) = 0.21908 0.26096
# Poissons Ratio (z) = 0.28059 0.33852
#
# Static dielectric constant tensor:
#      x y z
#    x 3.439380 0.000000 0.027160 
#    y 0.000000 3.544540 0.000000 
#    z 0.027160 0.000000 3.477560 
# 
# 
# High freq. dielectric constant tensor:
#      x y z
#    x 1.724800 0.000000 0.005280 
#    y 0.000000 1.713220 0.000000 
#    z 0.005280 0.000000 1.724330 
# 
# From -- ./inp_files/171823.got.cif
#   From: 2010.06.25/outbox.cif.g09.slc.cpg/sg15_86_cif.got.tgz:171823.got - 2010.06.28 07:06:18.
