data_PCOD8137016
_publ_section_title
;
Structure prediction by ZEFSAII (Michael W. Deem and Ramdas Pophale) SiO2 
 PCOD8137016
Probable space group: C 2/C
;
_chemical_formula_sum "Si O2"
_cell_formula_units_Z 60
_cell_length_a 13.669728
_cell_length_b 21.760991
_cell_length_c 14.678652
_cell_angle_alpha 90.000000
_cell_angle_beta 136.620428
_cell_angle_gamma 90.000000
_cell_volume 2998.975877
_symmetry_space_group_name_H-M "C 2/C"
_symmetry_group_IT_number 15
_symmetry_cell_setting 'monoclinic'
loop_
_space_group_symop_operation_xyz
x,y,z
-x,y,1/2-z
-x,-y,-z
x,-y,1/2+z
1/2+x,1/2+y,z
1/2-x,1/2+y,1/2-z
1/2-x,1/2-y,-z
1/2+x,1/2-y,1/2+z
loop_
_atom_site_type_symbol
_atom_site_label
_atom_site_fract_x
_atom_site_fract_y
_atom_site_fract_z
Si Si1 0.360674 0.692260 0.373370
Si Si2 0.500000 0.283771 0.250000
Si Si3 0.930865 0.278823 0.890547
Si Si4 0.951409 0.916247 0.810620
Si Si5 0.304822 0.997846 0.803115
Si Si6 0.206751 0.868106 0.490270
Si Si7 0.062216 0.592200 0.484793
Si Si8 0.373478 0.507528 0.484191
O O1 0.242642 0.723833 0.227033
O O2 0.497853 0.734069 0.487086
O O3 0.425570 0.632339 0.371896
O O4 0.274651 0.674526 0.407553
O O5 0.518703 0.240332 0.175778
O O6 0.634044 0.328676 0.359981
O O7 0.980630 0.345897 0.957305
O O8 0.000000 0.883081 0.750000
O O9 0.813778 0.961605 0.717004
O O10 0.098535 0.954371 0.924062
O O11 0.267414 0.003875 0.670721
O O12 0.450763 0.961307 0.894417
O O13 0.329044 0.065535 0.864548
O O14 0.356512 0.892777 0.554340
O O15 0.114971 0.926955 0.457983
O O16 0.500000 0.500000 0.500000
#
# Coordination Sequence:
#
# PCOD8137016 Si02
#       8
#     8   4   8   8   8   8   8   8
#     4  11  23  41  62  89 121 163 203 258 308 371
#     4  10  24  34  60  96 126 164 208 238 306 386
#     4  11  22  41  59  89 130 160 202 251 307 371
#     4  11  22  41  63  85 115 157 209 256 304 354
#     4  10  22  39  58  94 124 161 202 243 312 361
#     4  11  21  36  60  94 126 164 200 251 308 370
#     4  11  22  36  64  88 130 165 194 246 308 381
#     4  10  20  35  58  86 122 154 200 250 293 356
#
# _framework density 20.006830000000001
#
# number of rings (size 3 to 8) (size 9 to 14) (size 15 to 20)
#    0.000    1.333    4.000    2.400    4.667    4.800 
#    0.000    0.667    0.000    0.000    0.000    0.000 
#    0.000    0.000    0.000    0.000    0.000    0.000 
#
# Total GULP energy -371703.318573 kJ/mol
# GULP energy per Si atom -12390.110619 kJ/mol
# Density = 1.996129 g / cm^3
# Si number density = 20.006830 Si / 1000 Ang^3
#
#
#
# Elastic Constant Matrix: (Units=GPa)
#
#
# Indices 1 2 3 4 5 6 
#
# 1 41.0314 6.6710 15.0741 0.0000 4.4237 0.0000
# 2 6.6710 99.4194 59.5289 0.0000 4.5845 0.0000
# 3 15.0741 59.5289 102.2657 0.0000 13.9984 0.0000
# 4 0.0000 0.0000 0.0000 38.2918 0.0000 -0.4300
# 5 4.4237 4.5845 13.9984 0.0000 21.3894 0.0000
# 6 0.0000 0.0000 0.0000 -0.4300 0.0000 19.9937
#
#
#
# Elastic Compliance Matrix: (Units=1/GPa)
#
#
# Indices 1 2 3 4 5 6 
#
# 1 0.025988 0.000678 -0.003811 0.000000 -0.003026 0.000000
# 2 0.000678 0.015615 -0.009569 0.000000 0.002776 0.000000
# 3 -0.003811 -0.009569 0.017049 0.000000 -0.008319 0.000000
# 4 0.000000 0.000000 0.000000 0.026122 0.000000 0.000562
# 5 -0.003026 0.002776 -0.008319 0.000000 0.052227 0.000000
# 6 0.000000 0.000000 0.000000 0.000562 0.000000 0.050028
#
#
# Mechanical properties :
#
#
# Convention : Reuss Voigt Hill
#
# Bulk Modulus (GPa) = 30.07826 45.02939 37.55382
# Shear Modulus (GPa) = 22.36990 26.69783 24.53386
#
# Velocity S-wave (km/s) = 3.34745 3.65696 3.50562
# Velocity P-wave (km/s) = 5.47788 6.35507 5.93271
#
# Compressibility (1/GPa) = 0.03324661
#
# Stress axis : x y z
#
# Youngs Moduli (GPa) = 38.47977 64.04282 58.65442
#
# Poissons Ratio (x) = -0.04339 0.22352
# Poissons Ratio (y) = -0.02607 0.56127
# Poissons Ratio (z) = 0.14664 0.61283
#
# Static dielectric constant tensor:
#      x y z
#    x 3.399100 0.000000 -0.372830 
#    y 0.000000 4.073460 0.000000 
#    z -0.372830 0.000000 8.102200 
# 
# 
# High freq. dielectric constant tensor:
#      x y z
#    x 1.750540 0.000000 0.008350 
#    y 0.000000 1.783560 0.000000 
#    z 0.008350 0.000000 1.790950 
# 
# From -- ./inp_files/156385.got.cif
#   From: 2010.06.25/outbox.cif.g09.slc.cpg/sg15_79_cif.got.tgz:156385.got - 2010.06.28 07:06:18.
