data_PCOD8137343
_publ_section_title
;
Structure prediction by ZEFSAII (Michael W. Deem and Ramdas Pophale) SiO2 
 PCOD8137343
Probable space group: C 2/C
;
_chemical_formula_sum "Si O2"
_cell_formula_units_Z 56
_cell_length_a 8.655049
_cell_length_b 31.573807
_cell_length_c 13.852372
_cell_angle_alpha 90.000000
_cell_angle_beta 49.222264
_cell_angle_gamma 90.000000
_cell_volume 2866.548411
_symmetry_space_group_name_H-M "C 2/C"
_symmetry_group_IT_number 15
_symmetry_cell_setting 'monoclinic'
loop_
_space_group_symop_operation_xyz
x,y,z
-x,y,1/2-z
-x,-y,-z
x,-y,1/2+z
1/2+x,1/2+y,z
1/2-x,1/2+y,1/2-z
1/2-x,1/2-y,-z
1/2+x,1/2-y,1/2+z
loop_
_atom_site_type_symbol
_atom_site_label
_atom_site_fract_x
_atom_site_fract_y
_atom_site_fract_z
Si Si1 0.941000 0.778442 0.620336
Si Si2 0.342017 0.962312 0.577255
Si Si3 0.171483 0.288029 0.907893
Si Si4 0.035937 0.623015 0.390676
Si Si5 0.223815 0.489920 0.692056
Si Si6 0.595329 0.441911 0.487889
Si Si7 0.670869 0.366947 0.904803
O O1 0.758739 0.768069 0.771454
O O2 0.872390 0.817282 0.582091
O O3 0.988581 0.739900 0.528059
O O4 0.144286 0.792003 0.592706
O O5 0.456587 0.917475 0.542790
O O6 0.220270 0.976246 0.722473
O O7 0.191321 0.956676 0.549726
O O8 0.500000 0.000000 0.500000
O O9 0.082442 0.334669 0.931142
O O10 0.208526 0.616862 0.238624
O O11 0.808278 0.625789 0.442450
O O12 0.375503 0.463984 0.561195
O O13 0.258362 0.540518 0.657917
O O14 0.000000 0.475825 0.750000
O O15 0.547001 0.391820 0.499720
#
# Coordination Sequence:
#
# PCOD8137343 Si02
#       7
#     8   8   8   8   8   8   8
#     4   9  18  34  60  84 113 144 184 232 286 351
#     4  12  23  37  59  83 113 154 194 242 290 339
#     4   9  18  35  58  87 111 144 185 231 287 346
#     4  10  21  35  56  82 115 144 194 241 274 339
#     4  11  22  39  55  82 114 147 195 243 288 344
#     4  11  23  36  61  81 112 155 192 245 289 343
#     4  10  20  36  57  83 112 149 189 236 285 333
#
# _framework density 19.535688
#
# number of rings (size 3 to 8) (size 9 to 14) (size 15 to 20)
#    0.000    1.714    2.857    2.143    2.000    1.714 
#    0.000    1.429    3.143    1.714    0.000    0.000 
#    0.000    0.000    0.000    0.000    0.000    0.000 
#
# Total GULP energy -347065.352383 kJ/mol
# GULP energy per Si atom -12395.191157 kJ/mol
# Density = 1.949122 g / cm^3
# Si number density = 19.535688 Si / 1000 Ang^3
#
#
#
# Elastic Constant Matrix: (Units=GPa)
#
#
# Indices 1 2 3 4 5 6 
#
# 1 94.9720 54.7949 30.7055 0.0000 0.7963 0.0000
# 2 54.7949 134.3919 56.5260 0.0000 5.8196 0.0000
# 3 30.7055 56.5260 67.1979 0.0000 4.5043 0.0000
# 4 0.0000 0.0000 0.0000 38.7306 0.0000 -1.7369
# 5 0.7963 5.8196 4.5043 0.0000 21.7246 0.0000
# 6 0.0000 0.0000 0.0000 -1.7369 0.0000 32.4398
#
#
#
# Elastic Compliance Matrix: (Units=1/GPa)
#
#
# Indices 1 2 3 4 5 6 
#
# 1 0.014064 -0.004721 -0.002541 0.000000 0.001276 0.000000
# 2 -0.004721 0.013125 -0.008782 0.000000 -0.001522 0.000000
# 3 -0.002541 -0.008782 0.023593 0.000000 -0.002446 0.000000
# 4 0.000000 0.000000 0.000000 0.025882 0.000000 0.001386
# 5 0.001276 -0.001522 -0.002446 0.000000 0.046899 0.000000
# 6 0.000000 0.000000 0.000000 0.001386 0.000000 0.030901
#
#
# Mechanical properties :
#
#
# Convention : Reuss Voigt Hill
#
# Bulk Modulus (GPa) = 53.48728 64.51275 59.00001
# Shear Modulus (GPa) = 25.93605 28.88136 27.40871
#
# Velocity S-wave (km/s) = 3.64761 3.84915 3.74974
# Velocity P-wave (km/s) = 6.72152 7.26976 7.00101
#
# Compressibility (1/GPa) = 0.01869603
#
# Stress axis : x y z
#
# Youngs Moduli (GPa) = 71.10417 76.18927 42.38476
#
# Poissons Ratio (x) = 0.35967 0.10769
# Poissons Ratio (y) = 0.33566 0.37221
# Poissons Ratio (z) = 0.18066 0.66907
#
# Static dielectric constant tensor:
#      x y z
#    x 3.655330 0.000000 0.142330 
#    y 0.000000 3.679980 0.000000 
#    z 0.142330 0.000000 3.834290 
# 
# 
# High freq. dielectric constant tensor:
#      x y z
#    x 1.766870 0.000000 -0.002660 
#    y 0.000000 1.762550 0.000000 
#    z -0.002660 0.000000 1.733670 
# 
# From -- ./inp_files/139470.got.cif
#   From: 2010.06.25/outbox.cif.g09.slc.cpg/sg15_70_cif.got.tgz:139470.got - 2010.06.28 07:06:18.
