data_PCOD8137725
_publ_section_title
;
Structure prediction by ZEFSAII (Michael W. Deem and Ramdas Pophale) SiO2 
 PCOD8137725
Probable space group: C 2/C
;
_chemical_formula_sum "Si O2"
_cell_formula_units_Z 52
_cell_length_a 11.672642
_cell_length_b 12.285221
_cell_length_c 23.517009
_cell_angle_alpha 90.000000
_cell_angle_beta 128.657017
_cell_angle_gamma 90.000000
_cell_volume 2633.475157
_symmetry_space_group_name_H-M "C 2/C"
_symmetry_group_IT_number 15
_symmetry_cell_setting 'monoclinic'
loop_
_space_group_symop_operation_xyz
x,y,z
-x,y,1/2-z
-x,-y,-z
x,-y,1/2+z
1/2+x,1/2+y,z
1/2-x,1/2+y,1/2-z
1/2-x,1/2-y,-z
1/2+x,1/2-y,1/2+z
loop_
_atom_site_type_symbol
_atom_site_label
_atom_site_fract_x
_atom_site_fract_y
_atom_site_fract_z
Si Si1 0.777295 0.090595 0.892781
Si Si2 0.500000 0.742154 0.750000
Si Si3 0.514915 0.867765 0.134360
Si Si4 0.452476 0.108994 0.387574
Si Si5 0.516486 0.765824 0.492921
Si Si6 0.798867 0.200306 0.782129
Si Si7 0.776794 0.648851 0.102234
O O1 0.610291 0.117916 0.857528
O O2 0.802380 0.113909 0.834071
O O3 0.807640 0.963837 0.912208
O O4 0.888469 0.158657 0.965846
O O5 0.428299 0.668009 0.777444
O O6 0.628329 0.820023 0.813147
O O7 0.449079 0.804140 0.060132
O O8 0.642678 0.797482 0.202716
O O9 0.581331 0.982789 0.133906
O O10 0.440024 0.137262 0.450414
O O11 0.331637 0.178371 0.315514
O O12 0.617122 0.139450 0.419179
O O13 0.344438 0.740244 0.447449
#
# Coordination Sequence:
#
# PCOD8137725 Si02
#       7
#     8   4   8   8   8   8   8
#     4  10  23  36  59  88 118 151 192 231 287 351
#     4  10  20  38  58  86 108 148 194 244 282 336
#     4  11  21  37  62  83 118 159 190 228 293 345
#     4   9  22  37  58  87 115 153 196 231 287 341
#     4  11  20  38  58  86 122 147 190 240 283 338
#     4  10  21  37  60  82 116 145 199 239 278 332
#     4  10  20  36  62  85 112 151 196 234 285 333
#
# _framework density 19.745773
#
# number of rings (size 3 to 8) (size 9 to 14) (size 15 to 20)
#    0.000    1.846    1.538    2.308    6.462    0.000 
#    0.000    0.000   13.538    0.000    0.000    0.000 
#    0.000    0.000    0.000    0.000    0.000    0.000 
#
# Total GULP energy -322464.398095 kJ/mol
# GULP energy per Si atom -12402.476850 kJ/mol
# Density = 1.970083 g / cm^3
# Si number density = 19.745773 Si / 1000 Ang^3
#
#
#
# Elastic Constant Matrix: (Units=GPa)
#
#
# Indices 1 2 3 4 5 6 
#
# 1 79.5202 32.0543 34.1282 0.0000 -13.4362 0.0000
# 2 32.0543 75.7552 43.6214 0.0000 -0.1868 0.0000
# 3 34.1282 43.6214 114.3631 0.0000 -3.2605 0.0000
# 4 0.0000 0.0000 0.0000 23.1647 0.0000 5.1554
# 5 -13.4362 -0.1868 -3.2605 0.0000 38.2233 0.0000
# 6 0.0000 0.0000 0.0000 5.1554 0.0000 30.4125
#
#
#
# Elastic Compliance Matrix: (Units=1/GPa)
#
#
# Indices 1 2 3 4 5 6 
#
# 1 0.016977 -0.005569 -0.002779 0.000000 0.005703 0.000000
# 2 -0.005569 0.018751 -0.005557 0.000000 -0.002340 0.000000
# 3 -0.002779 -0.005557 0.011693 0.000000 -0.000007 0.000000
# 4 0.000000 0.000000 0.000000 0.044862 0.000000 -0.007605
# 5 0.005703 -0.002340 -0.000007 0.000000 0.028155 0.000000
# 6 0.000000 0.000000 0.000000 -0.007605 0.000000 0.034170
#
#
# Mechanical properties :
#
#
# Convention : Reuss Voigt Hill
#
# Bulk Modulus (GPa) = 50.99458 54.36070 52.67764
# Shear Modulus (GPa) = 26.46139 29.01574 27.73857
#
# Velocity S-wave (km/s) = 3.66471 3.83752 3.75211
# Velocity P-wave (km/s) = 6.61729 6.87208 6.74589
#
# Compressibility (1/GPa) = 0.01960993
#
# Stress axis : x y z
#
# Youngs Moduli (GPa) = 58.90404 53.33106 85.52182
#
# Poissons Ratio (x) = 0.29699 0.23771
# Poissons Ratio (y) = 0.32803 0.47524
# Poissons Ratio (z) = 0.16372 0.29636
#
# Static dielectric constant tensor:
#      x y z
#    x 3.656570 0.000000 -0.084860 
#    y 0.000000 3.428520 0.000000 
#    z -0.084860 0.000000 3.592550 
# 
# 
# High freq. dielectric constant tensor:
#      x y z
#    x 1.770890 0.000000 -0.006750 
#    y 0.000000 1.753040 0.000000 
#    z -0.006750 0.000000 1.779370 
# 
# From -- ./inp_files/236891.got.cif
#   From: 2010.06.25/outbox.cif.g09.slc.cpg/sg15_119_cif.got.tgz:236891.got - 2010.06.28 07:06:18.
