data_PCOD8137964
_publ_section_title
;
Structure prediction by ZEFSAII (Michael W. Deem and Ramdas Pophale) SiO2 
 PCOD8137964
Probable space group: C 2/C
;
_chemical_formula_sum "Si O2"
_cell_formula_units_Z 48
_cell_length_a 22.544152
_cell_length_b 13.415128
_cell_length_c 22.491202
_cell_angle_alpha 90.000000
_cell_angle_beta 22.639486
_cell_angle_gamma 90.000000
_cell_volume 2618.332587
_symmetry_space_group_name_H-M "C 2/C"
_symmetry_group_IT_number 15
_symmetry_cell_setting 'monoclinic'
loop_
_space_group_symop_operation_xyz
x,y,z
-x,y,1/2-z
-x,-y,-z
x,-y,1/2+z
1/2+x,1/2+y,z
1/2-x,1/2+y,1/2-z
1/2-x,1/2-y,-z
1/2+x,1/2-y,1/2+z
loop_
_atom_site_type_symbol
_atom_site_label
_atom_site_fract_x
_atom_site_fract_y
_atom_site_fract_z
Si Si1 0.721966 0.019163 0.867073
Si Si2 0.858837 0.334898 0.838158
Si Si3 0.841738 0.886516 0.371274
Si Si4 0.130948 0.549268 0.290877
Si Si5 0.330250 0.339068 0.696753
Si Si6 0.312867 0.368811 0.167869
O O1 0.764520 0.037777 0.896452
O O2 0.796711 0.098586 0.751944
O O3 0.791992 0.910767 0.787603
O O4 0.537604 0.020733 0.028351
O O5 0.834046 0.219249 0.842996
O O6 0.888090 0.407953 0.756859
O O7 0.000000 0.335612 0.750000
O O8 0.725574 0.379059 0.000766
O O9 0.000000 0.928525 0.250000
O O10 0.210605 0.636185 0.254962
O O11 0.244901 0.454602 0.187865
O O12 0.507481 0.350740 0.512470
O O13 0.292977 0.226176 0.749014
#
# Coordination Sequence:
#
# PCOD8137964 Si02
#       6
#     8   8   8   8   8   8
#     4  11  21  37  57  86 114 149 184 228 279 330
#     4  10  20  37  53  84 114 151 183 224 276 326
#     4  10  22  33  57  82 118 149 186 224 272 332
#     4  11  21  36  60  82 117 147 185 229 276 333
#     4  11  23  38  58  83 112 145 188 231 281 330
#     4  11  23  38  58  83 111 147 186 233 280 330
#
# _framework density 18.332277999999999
#
# number of rings (size 3 to 8) (size 9 to 14) (size 15 to 20)
#    0.000    1.333    1.667    7.000    4.667    0.000 
#    0.000    0.000    0.000    2.000    0.000    0.000 
#    0.000    0.000    0.000    0.000    0.000    0.000 
#
# Total GULP energy -297382.452103 kJ/mol
# GULP energy per Si atom -12390.935504 kJ/mol
# Density = 1.829055 g / cm^3
# Si number density = 18.332278 Si / 1000 Ang^3
#
#
#
# Elastic Constant Matrix: (Units=GPa)
#
#
# Indices 1 2 3 4 5 6 
#
# 1 83.4252 28.5493 5.7755 -0.0074 -9.7902 0.0020
# 2 28.5493 82.6286 8.1563 -0.0264 6.2352 0.0141
# 3 5.7755 8.1563 105.5918 -0.0153 -10.5206 0.0096
# 4 -0.0074 -0.0264 -0.0153 31.1346 0.0100 -1.2722
# 5 -9.7902 6.2352 -10.5206 0.0100 36.5466 -0.0035
# 6 0.0020 0.0141 0.0096 -1.2722 -0.0035 22.6532
#
#
#
# Elastic Compliance Matrix: (Units=1/GPa)
#
#
# Indices 1 2 3 4 5 6 
#
# 1 0.014368 -0.005336 0.000103 -0.000003 0.004789 0.000003
# 2 -0.005336 0.014389 -0.001242 0.000011 -0.004242 -0.000008
# 3 0.000103 -0.001242 0.009868 0.000003 0.003080 -0.000003
# 4 -0.000003 0.000011 0.000003 0.032192 -0.000010 0.001808
# 5 0.004789 -0.004242 0.003080 -0.000010 0.030256 0.000005
# 6 0.000003 -0.000008 -0.000003 0.001808 0.000005 0.044245
#
#
# Mechanical properties :
#
#
# Convention : Reuss Voigt Hill
#
# Bulk Modulus (GPa) = 38.94876 39.62309 39.28593
# Shear Modulus (GPa) = 29.97155 33.34450 31.65803
#
# Velocity S-wave (km/s) = 4.04778 4.26948 4.16011
# Velocity P-wave (km/s) = 6.56797 6.77978 6.67471
#
# Compressibility (1/GPa) = 0.02567476
#
# Stress axis : x y z
#
# Youngs Moduli (GPa) = 69.60091 69.49913 101.34149
#
# Poissons Ratio (x) = 0.37083 -0.01048
# Poissons Ratio (y) = 0.37138 0.12589
# Poissons Ratio (z) = -0.00720 0.08633
#
# Static dielectric constant tensor:
#      x y z
#    x 3.137410 -0.000020 -0.122060 
#    y -0.000020 3.250010 0.000050 
#    z -0.122060 0.000050 3.492530 
# 
# 
# High freq. dielectric constant tensor:
#      x y z
#    x 1.699570 0.000000 -0.009200 
#    y 0.000000 1.699100 0.000000 
#    z -0.009200 0.000000 1.735990 
# 
# From -- ./inp_files/65825.got.cif
#   From: 2010.06.25/outbox.cif.g09.slc.cpg/sg15_33_cif.got.tgz:65825.got - 2010.06.28 07:06:18.
