data_PCOD8137764
_publ_section_title
;
Structure prediction by ZEFSAII (Michael W. Deem and Ramdas Pophale) SiO2 
 PCOD8137764
Probable space group: C 2/C
;
_chemical_formula_sum "Si O2"
_cell_formula_units_Z 56
_cell_length_a 24.432124
_cell_length_b 8.534866
_cell_length_c 15.252364
_cell_angle_alpha 90.000000
_cell_angle_beta 57.233880
_cell_angle_gamma 90.000000
_cell_volume 2674.438502
_symmetry_space_group_name_H-M "C 2/C"
_symmetry_group_IT_number 15
_symmetry_cell_setting 'monoclinic'
loop_
_space_group_symop_operation_xyz
x,y,z
-x,y,1/2-z
-x,-y,-z
x,-y,1/2+z
1/2+x,1/2+y,z
1/2-x,1/2+y,1/2-z
1/2-x,1/2-y,-z
1/2+x,1/2-y,1/2+z
loop_
_atom_site_type_symbol
_atom_site_label
_atom_site_fract_x
_atom_site_fract_y
_atom_site_fract_z
Si Si1 0.072269 0.295320 0.541686
Si Si2 0.878642 0.020805 0.543469
Si Si3 0.676423 0.301649 0.573459
Si Si4 0.058175 0.322213 0.949301
Si Si5 0.296539 0.357381 0.764558
Si Si6 0.330549 0.038726 0.661413
Si Si7 0.437056 0.075775 0.855454
O O1 0.139889 0.358827 0.442915
O O2 0.066414 0.383609 0.641537
O O3 0.011271 0.342444 0.534333
O O4 0.075549 0.107624 0.544651
O O5 0.839361 0.098540 0.498548
O O6 0.921645 0.140370 0.562794
O O7 0.831953 0.939662 0.653705
O O8 0.750000 0.250000 0.500000
O O9 0.670974 0.399913 0.669364
O O10 0.627901 0.153999 0.625905
O O11 0.111834 0.427143 0.849179
O O12 0.053769 0.383085 0.051413
O O13 0.299392 0.165978 0.755227
O O14 0.222377 0.416458 0.829753
O O15 0.500000 0.138883 0.750000
#
# Coordination Sequence:
#
# PCOD8137764 Si02
#       7
#     8   8   8   8   8   8   8
#     4  10  21  39  61  83 130 160 203 257 318 362
#     4  10  23  42  61  96 125 165 211 261 310 383
#     4  11  23  42  66  89 130 169 211 263 322 372
#     4  10  20  39  64  86 123 168 202 254 321 370
#     4  11  22  39  66  91 125 166 211 262 318 374
#     4  10  20  36  62  91 119 156 213 250 305 382
#     4  10  22  37  60  93 122 161 218 256 308 386
#
# _framework density 20.938974999999999
#
# number of rings (size 3 to 8) (size 9 to 14) (size 15 to 20)
#    0.000    1.714    0.000    6.429    6.000    0.000 
#    2.571    8.571    0.000    0.000    0.000    0.000 
#    0.000    0.000    0.000    0.000    0.000    0.000 
#
# Total GULP energy -346930.133771 kJ/mol
# GULP energy per Si atom -12390.361920 kJ/mol
# Density = 2.089132 g / cm^3
# Si number density = 20.938975 Si / 1000 Ang^3
#
#
#
# Elastic Constant Matrix: (Units=GPa)
#
#
# Indices 1 2 3 4 5 6 
#
# 1 107.1327 38.6404 52.5886 0.0000 -13.9497 0.0000
# 2 38.6404 123.0975 37.1796 0.0000 -16.0011 0.0000
# 3 52.5886 37.1796 75.7077 0.0000 -5.8115 0.0000
# 4 0.0000 0.0000 0.0000 26.1573 0.0000 -3.6847
# 5 -13.9497 -16.0011 -5.8115 0.0000 34.9605 0.0000
# 6 0.0000 0.0000 0.0000 -3.6847 0.0000 33.7562
#
#
#
# Elastic Compliance Matrix: (Units=1/GPa)
#
#
# Indices 1 2 3 4 5 6 
#
# 1 0.014939 -0.001353 -0.009423 0.000000 0.003775 0.000000
# 2 -0.001353 0.010139 -0.003773 0.000000 0.003474 0.000000
# 3 -0.009423 -0.003773 0.021460 0.000000 -0.001920 0.000000
# 4 0.000000 0.000000 0.000000 0.038827 0.000000 0.004238
# 5 0.003775 0.003474 -0.001920 0.000000 0.031381 0.000000
# 6 0.000000 0.000000 0.000000 0.004238 0.000000 0.030087
#
#
# Mechanical properties :
#
#
# Convention : Reuss Voigt Hill
#
# Bulk Modulus (GPa) = 57.33712 62.52834 59.93273
# Shear Modulus (GPa) = 27.51104 30.81007 29.16056
#
# Velocity S-wave (km/s) = 3.62866 3.84007 3.73586
# Velocity P-wave (km/s) = 6.70811 7.04191 6.87704
#
# Compressibility (1/GPa) = 0.01744071
#
# Stress axis : x y z
#
# Youngs Moduli (GPa) = 66.93777 98.62519 46.59845
#
# Poissons Ratio (x) = 0.13340 0.43910
# Poissons Ratio (y) = 0.09054 0.17583
# Poissons Ratio (z) = 0.63077 0.37213
#
# Static dielectric constant tensor:
#      x y z
#    x 3.845320 0.000000 -0.083520 
#    y 0.000000 4.723650 0.000000 
#    z -0.083520 0.000000 3.918200 
# 
# 
# High freq. dielectric constant tensor:
#      x y z
#    x 1.816060 0.000000 -0.015730 
#    y 0.000000 1.830970 0.000000 
#    z -0.015730 0.000000 1.811810 
# 
# From -- ./inp_files/172262.got.cif
#   From: 2010.06.25/outbox.cif.g09.slc.cpg/sg15_87_cif.got.tgz:172262.got - 2010.06.28 07:06:18.
