data_PCOD8137221
_publ_section_title
;
Structure prediction by ZEFSAII (Michael W. Deem and Ramdas Pophale) SiO2 
 PCOD8137221
Probable space group: C 2/C
;
_chemical_formula_sum "Si O2"
_cell_formula_units_Z 52
_cell_length_a 18.502181
_cell_length_b 16.566909
_cell_length_c 18.541192
_cell_angle_alpha 90.000000
_cell_angle_beta 30.797245
_cell_angle_gamma 90.000000
_cell_volume 2909.868406
_symmetry_space_group_name_H-M "C 2/C"
_symmetry_group_IT_number 15
_symmetry_cell_setting 'monoclinic'
loop_
_space_group_symop_operation_xyz
x,y,z
-x,y,1/2-z
-x,-y,-z
x,-y,1/2+z
1/2+x,1/2+y,z
1/2-x,1/2+y,1/2-z
1/2-x,1/2-y,-z
1/2+x,1/2-y,1/2+z
loop_
_atom_site_type_symbol
_atom_site_label
_atom_site_fract_x
_atom_site_fract_y
_atom_site_fract_z
Si Si1 0.974652 0.740478 0.484593
Si Si2 0.415280 0.075400 0.102318
Si Si3 0.675997 0.260382 0.179435
Si Si4 0.500000 0.617374 0.750000
Si Si5 0.886219 0.420505 0.789305
Si Si6 0.412752 0.601835 0.111161
Si Si7 0.911647 0.019396 0.962853
O O1 0.838083 0.721204 0.554427
O O2 0.936722 0.802238 0.582257
O O3 0.025780 0.659029 0.481231
O O4 0.092230 0.770701 0.326709
O O5 0.455092 0.075253 0.152077
O O6 0.246662 0.074036 0.232783
O O7 0.500000 0.000000 0.000000
O O8 0.630310 0.324273 0.157618
O O9 0.665708 0.171081 0.153715
O O10 0.476062 0.559525 0.837548
O O11 0.000000 0.448262 0.750000
O O12 0.756841 0.484182 0.903539
O O13 0.518762 0.568661 0.082190
O O14 0.453793 0.571336 0.996446
#
# Coordination Sequence:
#
# PCOD8137221 Si02
#       7
#     8   8   8   4   8   8   8
#     4  11  20  38  56  82 116 157 191 236 294 348
#     4  10  23  37  56  86 113 150 195 249 290 344
#     4  11  21  31  53  85 120 152 190 226 292 364
#     4  12  22  30  54  90 114 160 186 234 300 354
#     4  10  20  36  50  81 120 153 183 233 292 359
#     4  10  20  41  52  80 118 156 200 235 285 352
#     4  10  22  33  54  78 117 156 191 233 282 340
#
# _framework density 17.870224
#
# number of rings (size 3 to 8) (size 9 to 14) (size 15 to 20)
#    0.000    1.538    6.923    0.000    6.462    2.462 
#    0.000    0.000    0.000    0.000    2.000    2.154 
#    0.000    0.000    0.000    0.000    0.000    0.000 
#
# Total GULP energy -322277.379454 kJ/mol
# GULP energy per Si atom -12395.283825 kJ/mol
# Density = 1.782955 g / cm^3
# Si number density = 17.870224 Si / 1000 Ang^3
#
#
#
# Elastic Constant Matrix: (Units=GPa)
#
#
# Indices 1 2 3 4 5 6 
#
# 1 98.5044 59.5427 35.3978 -0.0004 -15.5235 0.0000
# 2 59.5427 108.3270 46.7703 -0.0017 -6.2957 0.0009
# 3 35.3978 46.7703 76.0370 0.0011 -9.4583 0.0000
# 4 -0.0004 -0.0017 0.0011 27.7337 -0.0003 0.2246
# 5 -15.5235 -6.2957 -9.4583 -0.0003 24.9949 -0.0001
# 6 0.0000 0.0009 0.0000 0.2246 -0.0001 35.4103
#
#
#
# Elastic Compliance Matrix: (Units=1/GPa)
#
#
# Indices 1 2 3 4 5 6 
#
# 1 0.016917 -0.007985 -0.002002 0.000000 0.007738 0.000000
# 2 -0.007985 0.016340 -0.006756 0.000001 -0.003400 0.000000
# 3 -0.002002 -0.006756 0.018756 -0.000001 0.004152 0.000000
# 4 0.000000 0.000001 -0.000001 0.036059 0.000000 -0.000229
# 5 0.007738 -0.003400 0.004152 0.000000 0.045529 0.000000
# 6 0.000000 0.000000 0.000000 -0.000229 0.000000 0.028242
#
#
# Mechanical properties :
#
#
# Convention : Reuss Voigt Hill
#
# Bulk Modulus (GPa) = 53.97464 62.92112 58.44788
# Shear Modulus (GPa) = 24.81356 27.03828 25.92592
#
# Velocity S-wave (km/s) = 3.73036 3.89400 3.81305
# Velocity P-wave (km/s) = 6.98737 7.45011 7.22244
#
# Compressibility (1/GPa) = 0.01852722
#
# Stress axis : x y z
#
# Youngs Moduli (GPa) = 59.11199 61.20118 53.31755
#
# Poissons Ratio (x) = 0.48867 0.10672
# Poissons Ratio (y) = 0.47199 0.36023
# Poissons Ratio (z) = 0.11832 0.41349
#
# Static dielectric constant tensor:
#      x y z
#    x 3.241470 0.000000 -0.144940 
#    y 0.000000 3.480900 0.000000 
#    z -0.144940 0.000000 3.349130 
# 
# 
# High freq. dielectric constant tensor:
#      x y z
#    x 1.667300 0.000000 -0.016380 
#    y 0.000000 1.672140 0.000000 
#    z -0.016380 0.000000 1.698340 
# 
# From -- ./inp_files/70381.got.cif
#   From: 2010.06.25/outbox.cif.g09.slc.cpg/sg15_36_cif.got.tgz:70381.got - 2010.06.28 07:06:18.
