data_PCOD8137323
_publ_section_title
;
Structure prediction by ZEFSAII (Michael W. Deem and Ramdas Pophale) SiO2 
 PCOD8137323
Probable space group: C 2/C
;
_chemical_formula_sum "Si O2"
_cell_formula_units_Z 60
_cell_length_a 19.284838
_cell_length_b 23.603028
_cell_length_c 9.197458
_cell_angle_alpha 90.000000
_cell_angle_beta 136.507042
_cell_angle_gamma 90.000000
_cell_volume 2881.426052
_symmetry_space_group_name_H-M "C 2/C"
_symmetry_group_IT_number 15
_symmetry_cell_setting 'monoclinic'
loop_
_space_group_symop_operation_xyz
x,y,z
-x,y,1/2-z
-x,-y,-z
x,-y,1/2+z
1/2+x,1/2+y,z
1/2-x,1/2+y,1/2-z
1/2-x,1/2-y,-z
1/2+x,1/2-y,1/2+z
loop_
_atom_site_type_symbol
_atom_site_label
_atom_site_fract_x
_atom_site_fract_y
_atom_site_fract_z
Si Si1 0.427462 0.013204 0.519143
Si Si2 0.883645 0.283668 0.055489
Si Si3 0.864758 0.113428 0.315467
Si Si4 0.613313 0.491708 0.227236
Si Si5 0.500000 0.423233 0.250000
Si Si6 0.236747 0.822061 0.076467
Si Si7 0.186945 0.621305 0.249167
Si Si8 0.216364 0.413389 0.113675
O O1 0.375562 0.955873 0.497096
O O2 0.500000 0.000000 0.500000
O O3 0.345940 0.058952 0.349416
O O4 0.500000 0.040253 0.750000
O O5 0.836575 0.307908 0.134245
O O6 0.000000 0.265644 0.250000
O O7 0.812290 0.229749 0.908088
O O8 0.883534 0.328817 0.922288
O O9 0.974328 0.112356 0.563522
O O10 0.794739 0.131786 0.342023
O O11 0.834926 0.053296 0.193984
O O12 0.854217 0.158557 0.170455
O O13 0.598393 0.463385 0.365515
O O14 0.680145 0.448562 0.236130
O O15 0.500000 0.500000 0.000000
O O16 0.273462 0.870235 0.239708
O O17 0.193197 0.622885 0.433050
#
# Coordination Sequence:
#
# PCOD8137323 Si02
#       8
#     8   8   8   8   4   8   8   8
#     4  12  26  40  63 105 140 176 220 265 338 407
#     4  10  24  49  71  91 127 173 229 276 335 387
#     4  10  21  38  62  89 134 172 213 266 322 388
#     4  10  22  35  57  91 136 175 210 254 322 394
#     4  10  20  36  56  94 130 174 220 248 316 400
#     4  10  26  43  70  99 125 172 222 279 334 396
#     4  11  23  41  68  91 132 181 213 273 330 388
#     4  12  25  41  66 100 141 169 224 273 334 399
#
# _framework density 20.823022000000002
#
# number of rings (size 3 to 8) (size 9 to 14) (size 15 to 20)
#    0.000    1.333    4.000    0.400   11.200    2.667 
#    0.000    0.000    0.000    0.000    0.000    0.000 
#    0.000    0.000    0.000    0.000    0.000    0.000 
#
# Total GULP energy -371754.426053 kJ/mol
# GULP energy per Si atom -12391.814202 kJ/mol
# Density = 2.077563 g / cm^3
# Si number density = 20.823022 Si / 1000 Ang^3
#
#
#
# Elastic Constant Matrix: (Units=GPa)
#
#
# Indices 1 2 3 4 5 6 
#
# 1 94.7880 23.5848 26.5616 0.0000 3.5964 0.0000
# 2 23.5848 81.8141 25.2968 0.0000 -3.1234 0.0000
# 3 26.5616 25.2968 93.2623 0.0000 -8.4549 0.0000
# 4 0.0000 0.0000 0.0000 26.6493 0.0000 -1.5844
# 5 3.5964 -3.1234 -8.4549 0.0000 30.7033 0.0000
# 6 0.0000 0.0000 0.0000 -1.5844 0.0000 25.6743
#
#
#
# Elastic Compliance Matrix: (Units=1/GPa)
#
#
# Indices 1 2 3 4 5 6 
#
# 1 0.012141 -0.002681 -0.002958 0.000000 -0.002509 0.000000
# 2 -0.002681 0.013938 -0.002933 0.000000 0.000924 0.000000
# 3 -0.002958 -0.002933 0.012681 0.000000 0.003540 0.000000
# 4 0.000000 0.000000 0.000000 0.037663 0.000000 0.002324
# 5 -0.002509 0.000924 0.003540 0.000000 0.033933 0.000000
# 6 0.000000 0.000000 0.000000 0.002324 0.000000 0.039093
#
#
# Mechanical properties :
#
#
# Convention : Reuss Voigt Hill
#
# Bulk Modulus (GPa) = 46.26272 46.75012 46.50642
# Shear Modulus (GPa) = 28.76890 29.56679 29.16784
#
# Velocity S-wave (km/s) = 3.72101 3.77226 3.74672
# Velocity P-wave (km/s) = 6.38173 6.43996 6.41091
#
# Compressibility (1/GPa) = 0.02161568
#
# Stress axis : x y z
#
# Youngs Moduli (GPa) = 82.36481 71.74660 78.85505
#
# Poissons Ratio (x) = 0.19236 0.23326
# Poissons Ratio (y) = 0.22083 0.23130
# Poissons Ratio (z) = 0.24365 0.21045
#
# Static dielectric constant tensor:
#      x y z
#    x 3.955080 0.000000 -0.158050 
#    y 0.000000 3.745060 0.000000 
#    z -0.158050 0.000000 3.753580 
# 
# 
# High freq. dielectric constant tensor:
#      x y z
#    x 1.823220 0.000000 -0.001620 
#    y 0.000000 1.803010 0.000000 
#    z -0.001620 0.000000 1.809950 
# 
# From -- ./inp_files/58791.got.cif
#   From: 2010.06.25/outbox.cif.g09.slc.cpg/sg15_30_cif.got.tgz:58791.got - 2010.06.28 07:06:18.
