data_PCOD8137234
_publ_section_title
;
Structure prediction by ZEFSAII (Michael W. Deem and Ramdas Pophale) SiO2 
 PCOD8137234
Probable space group: C 2/C
;
_chemical_formula_sum "Si O2"
_cell_formula_units_Z 52
_cell_length_a 31.218723
_cell_length_b 16.816951
_cell_length_c 8.875830
_cell_angle_alpha 90.000000
_cell_angle_beta 34.927427
_cell_angle_gamma 90.000000
_cell_volume 2667.939607
_symmetry_space_group_name_H-M "C 2/C"
_symmetry_group_IT_number 15
_symmetry_cell_setting 'monoclinic'
loop_
_space_group_symop_operation_xyz
x,y,z
-x,y,1/2-z
-x,-y,-z
x,-y,1/2+z
1/2+x,1/2+y,z
1/2-x,1/2+y,1/2-z
1/2-x,1/2-y,-z
1/2+x,1/2-y,1/2+z
loop_
_atom_site_type_symbol
_atom_site_label
_atom_site_fract_x
_atom_site_fract_y
_atom_site_fract_z
Si Si1 0.286023 0.209995 0.751929
Si Si2 0.912435 0.401972 0.978811
Si Si3 0.099120 0.957936 0.213436
Si Si4 0.773938 0.147858 0.068881
Si Si5 0.500000 0.509018 0.750000
Si Si6 0.339113 0.031222 0.981227
Si Si7 0.709371 0.583888 0.800160
O O1 0.370658 0.178615 0.539848
O O2 0.277798 0.262952 0.623199
O O3 0.234774 0.133359 0.871998
O O4 0.250000 0.250000 0.000000
O O5 0.895100 0.475024 0.915134
O O6 0.885193 0.424114 0.222218
O O7 0.000000 0.384497 0.750000
O O8 0.035456 0.935089 0.276321
O O9 0.064311 0.956757 0.482025
O O10 0.163818 0.894800 0.009654
O O11 0.130688 0.044999 0.075424
O O12 0.695191 0.102135 0.316594
O O13 0.797448 0.141060 0.826216
O O14 0.272714 0.983002 0.089999
#
# Coordination Sequence:
#
# PCOD8137234 Si02
#       7
#     8   8   8   8   4   8   8
#     4  11  24  38  61  86 120 159 198 242 299 360
#     4  11  22  40  60  91 121 153 195 247 308 359
#     4  10  21  35  61  86 115 154 200 249 290 348
#     4  11  20  38  60  85 119 154 201 246 293 351
#     4  10  20  36  52  88 120 146 192 246 298 342
#     4  10  20  36  65  89 111 150 198 254 295 344
#     4  10  21  37  62  88 112 150 205 248 292 345
#
# _framework density 19.490696
#
# number of rings (size 3 to 8) (size 9 to 14) (size 15 to 20)
#    0.000    1.538    4.615    0.923    2.154    0.000 
#    1.385    0.000    0.000    0.000    0.000    0.000 
#    0.000    0.000    0.000    0.000    0.000    0.000 
#
# Total GULP energy -322194.368514 kJ/mol
# GULP energy per Si atom -12392.091097 kJ/mol
# Density = 1.944633 g / cm^3
# Si number density = 19.490696 Si / 1000 Ang^3
#
#
#
# Elastic Constant Matrix: (Units=GPa)
#
#
# Indices 1 2 3 4 5 6 
#
# 1 88.8431 32.1124 35.3301 0.0000 -7.6173 0.0000
# 2 32.1124 79.3222 35.3440 0.0000 -6.9096 0.0000
# 3 35.3301 35.3440 106.1004 0.0000 2.9092 0.0000
# 4 0.0000 0.0000 0.0000 21.9350 0.0000 6.4169
# 5 -7.6173 -6.9096 2.9092 0.0000 34.6942 0.0000
# 6 0.0000 0.0000 0.0000 6.4169 0.0000 29.8563
#
#
#
# Elastic Compliance Matrix: (Units=1/GPa)
#
#
# Indices 1 2 3 4 5 6 
#
# 1 0.014325 -0.004006 -0.003508 0.000000 0.002641 0.000000
# 2 -0.004006 0.016328 -0.004180 0.000000 0.002723 0.000000
# 3 -0.003508 -0.004180 0.012057 0.000000 -0.002614 0.000000
# 4 0.000000 0.000000 0.000000 0.048648 0.000000 -0.010456
# 5 0.002641 0.002723 -0.002614 0.000000 0.030165 0.000000
# 6 0.000000 0.000000 0.000000 -0.010456 0.000000 0.035741
#
#
# Mechanical properties :
#
#
# Convention : Reuss Voigt Hill
#
# Bulk Modulus (GPa) = 51.75291 53.31540 52.53416
# Shear Modulus (GPa) = 26.72458 28.72906 27.72682
#
# Velocity S-wave (km/s) = 3.70692 3.84342 3.77578
# Velocity P-wave (km/s) = 6.70313 6.86364 6.78386
#
# Compressibility (1/GPa) = 0.01932259
#
# Stress axis : x y z
#
# Youngs Moduli (GPa) = 69.80629 61.24340 82.93777
#
# Poissons Ratio (x) = 0.24535 0.29095
# Poissons Ratio (y) = 0.27966 0.34667
# Poissons Ratio (z) = 0.24488 0.25599
#
# Static dielectric constant tensor:
#      x y z
#    x 3.688010 0.000000 -0.020420 
#    y 0.000000 3.479730 0.000000 
#    z -0.020420 0.000000 3.510280 
# 
# 
# High freq. dielectric constant tensor:
#      x y z
#    x 1.774380 0.000000 0.008000 
#    y 0.000000 1.733630 0.000000 
#    z 0.008000 0.000000 1.755740 
# 
# From -- ./inp_files/48447.got.cif
#   From: 2010.06.25/outbox.cif.g09.slc.cpg/sg15_25_cif.got.tgz:48447.got - 2010.06.28 07:06:18.
