data_PCOD8137748
_publ_section_title
;
Structure prediction by ZEFSAII (Michael W. Deem and Ramdas Pophale) SiO2 
 PCOD8137748
Probable space group: C 2/C
;
_chemical_formula_sum "Si O2"
_cell_formula_units_Z 60
_cell_length_a 16.742426
_cell_length_b 9.412902
_cell_length_c 26.965615
_cell_angle_alpha 90.000000
_cell_angle_beta 136.513938
_cell_angle_gamma 90.000000
_cell_volume 2924.509937
_symmetry_space_group_name_H-M "C 2/C"
_symmetry_group_IT_number 15
_symmetry_cell_setting 'monoclinic'
loop_
_space_group_symop_operation_xyz
x,y,z
-x,y,1/2-z
-x,-y,-z
x,-y,1/2+z
1/2+x,1/2+y,z
1/2-x,1/2+y,1/2-z
1/2-x,1/2-y,-z
1/2+x,1/2-y,1/2+z
loop_
_atom_site_type_symbol
_atom_site_label
_atom_site_fract_x
_atom_site_fract_y
_atom_site_fract_z
Si Si1 0.449757 0.558972 0.625788
Si Si2 0.768545 0.225186 0.698591
Si Si3 0.107441 0.106746 0.547580
Si Si4 0.000000 0.858827 0.250000
Si Si5 0.056675 0.651245 0.530886
Si Si6 0.679730 0.527683 0.684996
Si Si7 0.370524 0.826416 0.546462
Si Si8 0.250262 0.912313 0.016965
O O1 0.458185 0.536404 0.688135
O O2 0.550831 0.476311 0.642226
O O3 0.461190 0.729953 0.618928
O O4 0.329395 0.490519 0.558300
O O5 0.887898 0.227959 0.720242
O O6 0.660317 0.168309 0.617194
O O7 0.754533 0.386666 0.710373
O O8 0.771204 0.124736 0.748363
O O9 0.171054 0.115337 0.629534
O O10 0.206363 0.063633 0.552940
O O11 0.054403 0.254123 0.504871
O O12 0.000000 0.000000 0.500000
O O13 0.102911 0.698015 0.498731
O O14 0.000000 0.500000 0.500000
O O15 0.250000 0.750000 0.500000
O O16 0.369486 0.993490 0.564101
O O17 0.250000 0.750000 0.000000
#
# Coordination Sequence:
#
# PCOD8137748 Si02
#       8
#     8   8   8   4   8   8   8   8
#     4  10  20  41  61  88 123 169 210 256 310 393
#     4  11  25  44  66  95 131 173 216 274 327 396
#     4  12  21  41  67  92 125 172 213 263 328 386
#     4  10  24  40  68  88 128 172 220 250 326 396
#     4  12  24  39  68 101 130 165 223 274 322 386
#     4  11  24  42  67  93 129 168 218 265 329 393
#     4  10  20  36  62  89 122 162 213 254 310 375
#     4  11  22  36  60  95 129 159 207 269 320 364
#
# _framework density 20.516259000000002
#
# number of rings (size 3 to 8) (size 9 to 14) (size 15 to 20)
#    0.000    1.067    4.000    3.200    3.733    0.000 
#    2.400    0.000    0.000    0.800    0.000    0.000 
#    0.000    0.000    0.000    0.000    0.000    0.000 
#
# Total GULP energy -371692.872053 kJ/mol
# GULP energy per Si atom -12389.762402 kJ/mol
# Density = 2.046956 g / cm^3
# Si number density = 20.516259 Si / 1000 Ang^3
#
#
#
# Elastic Constant Matrix: (Units=GPa)
#
#
# Indices 1 2 3 4 5 6 
#
# 1 92.3114 22.7666 39.7994 0.0000 -14.0632 0.0000
# 2 22.7666 123.9870 41.0742 0.0000 3.4815 0.0000
# 3 39.7994 41.0742 127.1120 0.0000 -22.3828 0.0000
# 4 0.0000 0.0000 0.0000 26.8125 0.0000 2.3693
# 5 -14.0632 3.4815 -22.3828 0.0000 35.2283 0.0000
# 6 0.0000 0.0000 0.0000 2.3693 0.0000 34.5589
#
#
#
# Elastic Compliance Matrix: (Units=1/GPa)
#
#
# Indices 1 2 3 4 5 6 
#
# 1 0.013014 -0.001498 -0.002984 0.000000 0.003448 0.000000
# 2 -0.001498 0.009514 -0.003239 0.000000 -0.003596 0.000000
# 3 -0.002984 -0.003239 0.010916 0.000000 0.006064 0.000000
# 4 0.000000 0.000000 0.000000 0.037523 0.000000 -0.002573
# 5 0.003448 -0.003596 0.006064 0.000000 0.033971 0.000000
# 6 0.000000 0.000000 0.000000 -0.002573 0.000000 0.029112
#
#
# Mechanical properties :
#
#
# Convention : Reuss Voigt Hill
#
# Bulk Modulus (GPa) = 55.54488 61.18786 58.36637
# Shear Modulus (GPa) = 32.15600 35.30463 33.73031
#
# Velocity S-wave (km/s) = 3.96326 4.15277 4.05912
# Velocity P-wave (km/s) = 6.93366 7.27206 7.10487
#
# Compressibility (1/GPa) = 0.01800346
#
# Stress axis : x y z
#
# Youngs Moduli (GPa) = 76.84079 105.10534 91.61210
#
# Poissons Ratio (x) = 0.15745 0.27333
# Poissons Ratio (y) = 0.11511 0.29669
# Poissons Ratio (z) = 0.22926 0.34039
#
# Static dielectric constant tensor:
#      x y z
#    x 0.745030 0.000000 -1.079000 
#    y 0.000000 5.384150 0.000000 
#    z -1.079000 0.000000 4.453480 
# 
# 
# High freq. dielectric constant tensor:
#      x y z
#    x 1.814190 0.000000 -0.014910 
#    y 0.000000 1.795160 0.000000 
#    z -0.014910 0.000000 1.802320 
# 
# From -- ./inp_files/298403.got.cif
#   From: 2010.06.25/outbox.cif.g09.slc.cpg/sg15_150_cif.got.tgz:298403.got - 2010.06.28 07:06:18.
