data_PCOD8137672
_publ_section_title
;
Structure prediction by ZEFSAII (Michael W. Deem and Ramdas Pophale) SiO2 
 PCOD8137672
Probable space group: C 2/C
;
_chemical_formula_sum "Si O2"
_cell_formula_units_Z 56
_cell_length_a 8.997198
_cell_length_b 28.926258
_cell_length_c 12.061994
_cell_angle_alpha 90.000000
_cell_angle_beta 52.431347
_cell_angle_gamma 90.000000
_cell_volume 2488.201218
_symmetry_space_group_name_H-M "C 2/C"
_symmetry_group_IT_number 15
_symmetry_cell_setting 'monoclinic'
loop_
_space_group_symop_operation_xyz
x,y,z
-x,y,1/2-z
-x,-y,-z
x,-y,1/2+z
1/2+x,1/2+y,z
1/2-x,1/2+y,1/2-z
1/2-x,1/2-y,-z
1/2+x,1/2-y,1/2+z
loop_
_atom_site_type_symbol
_atom_site_label
_atom_site_fract_x
_atom_site_fract_y
_atom_site_fract_z
Si Si1 0.289652 0.057260 0.587822
Si Si2 0.318167 0.036050 0.178670
Si Si3 0.112093 0.910920 0.957959
Si Si4 0.839797 0.889312 0.903895
Si Si5 0.221596 0.214814 0.656490
Si Si6 0.802741 0.684581 0.380280
Si Si7 0.959713 0.640503 0.643996
O O1 0.457144 0.040199 0.430765
O O2 0.115819 0.070909 0.583863
O O3 0.339664 0.102451 0.634271
O O4 0.244244 0.016562 0.695627
O O5 0.250708 0.055905 0.326366
O O6 0.229689 0.063644 0.118094
O O7 0.161278 0.856775 0.927619
O O8 0.908881 0.908088 0.992988
O O9 0.000000 0.867242 0.750000
O O10 0.666009 0.853558 0.993415
O O11 0.254612 0.269433 0.662988
O O12 0.323039 0.199138 0.498355
O O13 0.333767 0.187199 0.701247
O O14 0.000000 0.203256 0.750000
O O15 0.000000 0.664894 0.250000
O O16 0.000000 0.624467 0.750000
#
# Coordination Sequence:
#
# PCOD8137672 Si02
#       7
#     8   8   8   8   8   8   8
#     4  10  20  36  61  88 121 172 217 262 324 382
#     4   9  20  36  56  90 128 160 217 277 314 376
#     4  11  20  37  66  93 123 172 224 265 319 382
#     4   9  22  40  60  92 131 167 220 269 315 384
#     4  10  23  43  65  99 132 161 218 270 327 387
#     4  10  21  39  73  98 122 165 222 272 307 384
#     4  11  24  41  62  91 136 172 206 266 340 386
#
# _framework density 22.506218000000001
#
# number of rings (size 3 to 8) (size 9 to 14) (size 15 to 20)
#    0.000    2.000    1.429    1.286    6.000    4.000 
#    0.000    7.857    0.000    0.000    0.000    0.000 
#    0.000    0.000    0.000    0.000    0.000    0.000 
#
# Total GULP energy -347018.416519 kJ/mol
# GULP energy per Si atom -12393.514876 kJ/mol
# Density = 2.245499 g / cm^3
# Si number density = 22.506218 Si / 1000 Ang^3
#
#
#
# Elastic Constant Matrix: (Units=GPa)
#
#
# Indices 1 2 3 4 5 6 
#
# 1 105.4864 30.8272 14.3171 0.0000 21.9616 0.0000
# 2 30.8272 112.6136 16.4172 0.0000 4.7164 0.0000
# 3 14.3171 16.4172 42.2092 0.0000 6.4591 0.0000
# 4 0.0000 0.0000 0.0000 27.8496 0.0000 0.4043
# 5 21.9616 4.7164 6.4591 0.0000 38.5360 0.0000
# 6 0.0000 0.0000 0.0000 0.4043 0.0000 -3.8560
#
#
#
# Elastic Compliance Matrix: (Units=1/GPa)
#
#
# Indices 1 2 3 4 5 6 
#
# 1 0.011800 -0.002680 -0.002033 0.000000 -0.006056 0.000000
# 2 -0.002680 0.010034 -0.003119 0.000000 0.000822 0.000000
# 3 -0.002033 -0.003119 0.026026 0.000000 -0.002822 0.000000
# 4 0.000000 0.000000 0.000000 0.035853 0.000000 0.003759
# 5 -0.006056 0.000822 -0.002822 0.000000 0.029773 0.000000
# 6 0.000000 0.000000 0.000000 0.003759 0.000000 -0.258939
#
#
# Mechanical properties :
#
#
# Convention : Reuss Voigt Hill
#
# Bulk Modulus (GPa) = 31.06126 42.60359 36.83242
# Shear Modulus (GPa) = -41.99697 25.75574 -8.12061
#
# Velocity S-wave (km/s) = -4.32443 3.38654 -1.90158
# Velocity P-wave (km/s) = 3.33213 5.85341 3.40289
#
# Compressibility (1/GPa) = 0.03219444
#
# Stress axis : x y z
#
# Youngs Moduli (GPa) = 84.74648 99.66208 38.42269
#
# Poissons Ratio (x) = 0.26710 0.07813
# Poissons Ratio (y) = 0.22713 0.11986
# Poissons Ratio (z) = 0.17232 0.31089
#
# Static dielectric constant tensor:
#      x y z
#    x 4.173360 0.000000 -0.146690 
#    y 0.000000 4.071260 0.000000 
#    z -0.146690 0.000000 4.113630 
# 
# 
# High freq. dielectric constant tensor:
#      x y z
#    x 1.886310 0.000000 -0.000550 
#    y 0.000000 1.877540 0.000000 
#    z -0.000550 0.000000 1.878870 
# 
# From -- ./inp_files/82468.got.cif
#   From: 2010.06.25/outbox.cif.g09.slc.cpg/sg15_42_cif.got.tgz:82468.got - 2010.06.28 07:06:18.
