data_PCOD8137450
_publ_section_title
;
Structure prediction by ZEFSAII (Michael W. Deem and Ramdas Pophale) SiO2 
 PCOD8137450
Probable space group: C 2/C
;
_chemical_formula_sum "Si O2"
_cell_formula_units_Z 56
_cell_length_a 23.712560
_cell_length_b 5.165228
_cell_length_c 23.612366
_cell_angle_alpha 90.000000
_cell_angle_beta 110.054437
_cell_angle_gamma 90.000000
_cell_volume 2716.707344
_symmetry_space_group_name_H-M "C 2/C"
_symmetry_group_IT_number 15
_symmetry_cell_setting 'monoclinic'
loop_
_space_group_symop_operation_xyz
x,y,z
-x,y,1/2-z
-x,-y,-z
x,-y,1/2+z
1/2+x,1/2+y,z
1/2-x,1/2+y,1/2-z
1/2-x,1/2-y,-z
1/2+x,1/2-y,1/2+z
loop_
_atom_site_type_symbol
_atom_site_label
_atom_site_fract_x
_atom_site_fract_y
_atom_site_fract_z
Si Si1 0.062474 0.042614 0.129342
Si Si2 0.048826 0.530175 0.191651
Si Si3 0.853636 0.939690 0.948726
Si Si4 0.717270 0.959296 0.549825
Si Si5 0.580292 0.867371 0.826939
Si Si6 0.326507 0.851761 0.080431
Si Si7 0.428323 0.526515 0.077967
O O1 0.063409 0.747696 0.150405
O O2 0.995528 0.101475 0.082877
O O3 0.078656 0.257146 0.183289
O O4 0.109525 0.071747 0.095930
O O5 0.075309 0.657793 0.257814
O O6 0.977548 0.464184 0.172651
O O7 0.801396 0.723101 0.925632
O O8 0.824115 0.220652 0.944617
O O9 0.897205 0.861713 0.016419
O O10 0.713826 0.003792 0.480017
O O11 0.786762 0.891038 0.589257
O O12 0.647747 0.978352 0.859368
O O13 0.574201 0.602809 0.860375
O O14 0.387905 0.780747 0.068920
#
# Coordination Sequence:
#
# PCOD8137450 Si02
#       7
#     8   8   8   8   8   8   8
#     4  11  22  39  57  86 121 160 194 235 290 366
#     4  10  23  36  59  86 119 156 194 241 302 345
#     4  11  22  39  58  85 124 158 194 235 289 365
#     4  10  23  36  59  88 117 158 191 239 299 343
#     4  10  20  36  58  88 121 146 196 252 300 350
#     4  10  20  36  59  87 122 144 196 248 298 349
#     4  10  21  35  60  92 117 150 191 246 311 343
#
# _framework density 20.613187
#
# number of rings (size 3 to 8) (size 9 to 14) (size 15 to 20)
#    0.000    1.714    2.857    1.286    4.000    2.857 
#    0.000    4.286    0.000    3.429    0.000    0.000 
#    0.000    0.000    0.000    0.000    0.000    0.000 
#
# Total GULP energy -346939.782244 kJ/mol
# GULP energy per Si atom -12390.706509 kJ/mol
# Density = 2.056627 g / cm^3
# Si number density = 20.613187 Si / 1000 Ang^3
#
#
#
# Elastic Constant Matrix: (Units=GPa)
#
#
# Indices 1 2 3 4 5 6 
#
# 1 71.2688 0.0805 25.4632 0.0005 -2.7867 -0.0005
# 2 0.0805 61.9195 7.6939 0.0004 -2.2513 0.0001
# 3 25.4632 7.6939 72.1014 0.0004 -0.6915 -0.0001
# 4 0.0005 0.0004 0.0004 20.9219 0.0001 -1.1325
# 5 -2.7867 -2.2513 -0.6915 0.0001 28.3016 -0.0001
# 6 -0.0005 0.0001 -0.0001 -1.1325 -0.0001 34.8017
#
#
#
# Elastic Compliance Matrix: (Units=1/GPa)
#
#
# Indices 1 2 3 4 5 6 
#
# 1 0.016151 0.000751 -0.005769 0.000000 0.001509 0.000000
# 2 0.000751 0.016447 -0.002007 0.000000 0.001333 0.000000
# 3 -0.005769 -0.002007 0.016118 0.000000 -0.000334 0.000000
# 4 0.000000 0.000000 0.000000 0.047881 0.000000 0.001558
# 5 0.001509 0.001333 -0.000334 0.000000 0.035580 0.000000
# 6 0.000000 0.000000 0.000000 0.001558 0.000000 0.028785
#
#
# Mechanical properties :
#
#
# Convention : Reuss Voigt Hill
#
# Bulk Modulus (GPa) = 28.84877 30.19611 29.52244
# Shear Modulus (GPa) = 26.79979 28.27517 27.53748
#
# Velocity S-wave (km/s) = 3.60964 3.70767 3.65898
# Velocity P-wave (km/s) = 5.60342 5.74542 5.67486
#
# Compressibility (1/GPa) = 0.03466352
#
# Stress axis : x y z
#
# Youngs Moduli (GPa) = 61.91616 60.80156 62.04289
#
# Poissons Ratio (x) = -0.04565 0.35795
# Poissons Ratio (y) = -0.04648 0.12455
# Poissons Ratio (z) = 0.35722 0.12205
#
# Static dielectric constant tensor:
#      x y z
#    x 3.839260 0.000000 0.257150 
#    y 0.000000 3.540910 0.000000 
#    z 0.257150 0.000000 3.711660 
# 
# 
# High freq. dielectric constant tensor:
#      x y z
#    x 1.801310 0.000000 0.008640 
#    y 0.000000 1.803830 0.000000 
#    z 0.008640 0.000000 1.781220 
# 
# From -- ./inp_files/278678.got.cif
#   From: 2010.06.25/outbox.cif.g09.slc.cpg/sg15_140_cif.got.tgz:278678.got - 2010.06.28 07:06:18.
