data_PCOD8137510
_publ_section_title
;
Structure prediction by ZEFSAII (Michael W. Deem and Ramdas Pophale) SiO2 
 PCOD8137510
Probable space group: C 2/C
;
_chemical_formula_sum "Si O2"
_cell_formula_units_Z 56
_cell_length_a 21.232711
_cell_length_b 19.699844
_cell_length_c 8.919418
_cell_angle_alpha 90.000000
_cell_angle_beta 129.623057
_cell_angle_gamma 90.000000
_cell_volume 2873.692003
_symmetry_space_group_name_H-M "C 2/C"
_symmetry_group_IT_number 15
_symmetry_cell_setting 'monoclinic'
loop_
_space_group_symop_operation_xyz
x,y,z
-x,y,1/2-z
-x,-y,-z
x,-y,1/2+z
1/2+x,1/2+y,z
1/2-x,1/2+y,1/2-z
1/2-x,1/2-y,-z
1/2+x,1/2-y,1/2+z
loop_
_atom_site_type_symbol
_atom_site_label
_atom_site_fract_x
_atom_site_fract_y
_atom_site_fract_z
Si Si1 0.681072 0.553087 0.968345
Si Si2 0.404447 0.050764 0.103664
Si Si3 0.314070 0.344074 0.609246
Si Si4 0.764033 0.246863 0.777328
Si Si5 0.803404 0.337612 0.584627
Si Si6 0.683660 0.951263 0.331672
Si Si7 0.411975 0.464175 0.882172
O O1 0.650850 0.521858 0.765832
O O2 0.715398 0.627478 0.986144
O O3 0.753728 0.506329 0.142337
O O4 0.606315 0.554128 0.973027
O O5 0.500000 0.044920 0.250000
O O6 0.376397 0.108979 0.177417
O O7 0.367482 0.979951 0.105652
O O8 0.375787 0.069332 0.893476
O O9 0.298579 0.294094 0.724755
O O10 0.323730 0.298889 0.473011
O O11 0.230659 0.386215 0.465500
O O12 0.392765 0.394564 0.756279
O O13 0.823552 0.289717 0.757293
O O14 0.704845 0.202143 0.583582
O O15 0.500000 0.500000 0.000000
#
# Coordination Sequence:
#
# PCOD8137510 Si02
#       7
#     8   8   8   8   8   8   8
#     4  10  20  36  59  86 113 151 201 248 295 361
#     4  11  22  36  58  89 121 148 184 247 312 356
#     4  10  20  37  63  88 119 147 212 242 295 355
#     4  10  20  36  64  87 109 163 208 253 273 353
#     4  10  20  37  63  84 115 150 211 241 292 350
#     4  10  20  36  59  87 112 152 192 247 291 354
#     4  11  22  36  58  89 123 154 188 259 318 355
#
# _framework density 19.487127000000001
#
# number of rings (size 3 to 8) (size 9 to 14) (size 15 to 20)
#    0.000    1.714    2.857    3.429    4.000    0.000 
#    0.000    0.000    6.286    1.714    0.000    0.000 
#    0.000    0.000    0.000    0.000    0.000    0.000 
#
# Total GULP energy -347032.919089 kJ/mol
# GULP energy per Si atom -12394.032825 kJ/mol
# Density = 1.944277 g / cm^3
# Si number density = 19.487127 Si / 1000 Ang^3
#
#
#
# Elastic Constant Matrix: (Units=GPa)
#
#
# Indices 1 2 3 4 5 6 
#
# 1 100.8578 43.5648 46.3529 0.0000 -1.6845 0.0000
# 2 43.5648 107.4256 46.1608 0.0000 -3.6913 0.0000
# 3 46.3529 46.1608 89.2209 0.0000 -4.9279 0.0000
# 4 0.0000 0.0000 0.0000 32.8113 0.0000 -5.3940
# 5 -1.6845 -3.6913 -4.9279 0.0000 35.6508 0.0000
# 6 0.0000 0.0000 0.0000 -5.3940 0.0000 28.4326
#
#
#
# Elastic Compliance Matrix: (Units=1/GPa)
#
#
# Indices 1 2 3 4 5 6 
#
# 1 0.013860 -0.003255 -0.005541 0.000000 -0.000448 0.000000
# 2 -0.003255 0.012740 -0.004873 0.000000 0.000492 0.000000
# 3 -0.005541 -0.004873 0.016693 0.000000 0.001541 0.000000
# 4 0.000000 0.000000 0.000000 0.031458 0.000000 0.005968
# 5 -0.000448 0.000492 0.001541 0.000000 0.028293 0.000000
# 6 0.000000 0.000000 0.000000 0.005968 0.000000 0.036303
#
#
# Mechanical properties :
#
#
# Convention : Reuss Voigt Hill
#
# Bulk Modulus (GPa) = 62.67894 63.29569 62.98731
# Shear Modulus (GPa) = 29.06905 30.14067 29.60486
#
# Velocity S-wave (km/s) = 3.86645 3.93707 3.90192
# Velocity P-wave (km/s) = 7.22265 7.29511 7.25897
#
# Compressibility (1/GPa) = 0.01595432
#
# Stress axis : x y z
#
# Youngs Moduli (GPa) = 72.14882 78.49550 59.90412
#
# Poissons Ratio (x) = 0.25551 0.33196
# Poissons Ratio (y) = 0.23485 0.29191
# Poissons Ratio (z) = 0.39981 0.38250
#
# Static dielectric constant tensor:
#      x y z
#    x 3.358280 0.000000 -0.253130 
#    y 0.000000 3.823150 0.000000 
#    z -0.253130 0.000000 3.534290 
# 
# 
# High freq. dielectric constant tensor:
#      x y z
#    x 1.737260 0.000000 -0.032660 
#    y 0.000000 1.767040 0.000000 
#    z -0.032660 0.000000 1.750710 
# 
# From -- ./inp_files/57910.got.cif
#   From: 2010.06.25/outbox.cif.g09.slc.cpg/sg15_29_cif.got.tgz:57910.got - 2010.06.28 07:06:18.
