data_PCOD8137843
_publ_section_title
;
Structure prediction by ZEFSAII (Michael W. Deem and Ramdas Pophale) SiO2 
 PCOD8137843
Probable space group: C 2/C
;
_chemical_formula_sum "Si O2"
_cell_formula_units_Z 36
_cell_length_a 15.712281
_cell_length_b 7.642464
_cell_length_c 32.025687
_cell_angle_alpha 90.000000
_cell_angle_beta 153.716966
_cell_angle_gamma 90.000000
_cell_volume 1702.881028
_symmetry_space_group_name_H-M "C 2/C"
_symmetry_group_IT_number 15
_symmetry_cell_setting 'monoclinic'
loop_
_space_group_symop_operation_xyz
x,y,z
-x,y,1/2-z
-x,-y,-z
x,-y,1/2+z
1/2+x,1/2+y,z
1/2-x,1/2+y,1/2-z
1/2-x,1/2-y,-z
1/2+x,1/2-y,1/2+z
loop_
_atom_site_type_symbol
_atom_site_label
_atom_site_fract_x
_atom_site_fract_y
_atom_site_fract_z
Si Si1 0.500000 0.638463 0.750000
Si Si2 0.862913 0.884585 0.342989
Si Si3 0.793587 0.804653 0.648443
Si Si4 0.366695 0.547574 0.979963
Si Si5 0.527695 0.141440 0.183984
O O1 0.321202 0.514486 0.656743
O O2 0.414310 0.756647 0.748699
O O3 0.840797 0.750441 0.372000
O O4 0.954896 0.774136 0.346572
O O5 0.667919 0.974715 0.240779
O O6 0.009002 0.039497 0.422630
O O7 0.717484 0.738624 0.569660
O O8 0.000000 0.714452 0.750000
O O9 0.192429 0.413372 0.908827
O O10 0.500000 0.500000 0.000000
#
# Coordination Sequence:
#
# PCOD8137843 Si02
#       5
#     4   8   8   8   8
#     4  10  20  36  64  82 118 166 196 248 302 362
#     4  11  23  38  63  91 122 164 199 260 304 359
#     4   9  18  39  61  86 120 159 202 244 305 360
#     4  10  21  39  65  90 122 163 204 250 304 369
#     4  12  22  41  60  92 125 160 208 250 308 360
#
# _framework density 21.140640999999999
#
# number of rings (size 3 to 8) (size 9 to 14) (size 15 to 20)
#    0.667    0.889    2.222    4.667    0.000    0.000 
#    0.000   16.667    0.000    0.000    0.000    0.000 
#    0.000    0.000    0.000    0.000    0.000    0.000 
#
# Total GULP energy -223050.618132 kJ/mol
# GULP energy per Si atom -12391.701007 kJ/mol
# Density = 2.109252 g / cm^3
# Si number density = 21.140641 Si / 1000 Ang^3
#
#
#
# Elastic Constant Matrix: (Units=GPa)
#
#
# Indices 1 2 3 4 5 6 
#
# 1 132.0027 46.0173 37.3211 0.0016 0.8020 0.0001
# 2 46.0173 60.3279 12.4835 0.0045 5.8149 -0.0022
# 3 37.3211 12.4835 85.0750 -0.0003 15.6205 0.0002
# 4 0.0016 0.0045 -0.0003 18.9427 -0.0001 -5.8422
# 5 0.8020 5.8149 15.6205 -0.0001 29.3803 -0.0006
# 6 0.0001 -0.0022 0.0002 -5.8422 -0.0006 40.1441
#
#
#
# Elastic Compliance Matrix: (Units=1/GPa)
#
#
# Indices 1 2 3 4 5 6 
#
# 1 0.011794 -0.008403 -0.004640 0.000001 0.003808 0.000000
# 2 -0.008403 0.023220 0.001198 -0.000005 -0.005003 0.000001
# 3 -0.004640 0.001198 0.015109 0.000000 -0.008143 0.000000
# 4 0.000001 -0.000005 0.000000 0.055271 0.000001 0.008044
# 5 0.003808 -0.005003 -0.008143 0.000001 0.039252 0.000000
# 6 0.000000 0.000001 0.000000 0.008044 0.000000 0.026081
#
#
# Mechanical properties :
#
#
# Convention : Reuss Voigt Hill
#
# Bulk Modulus (GPa) = 37.83197 52.11658 44.97428
# Shear Modulus (GPa) = 24.60280 29.79900 27.20090
#
# Velocity S-wave (km/s) = 3.41511 3.75848 3.59090
# Velocity P-wave (km/s) = 5.78661 6.59854 6.20587
#
# Compressibility (1/GPa) = 0.02643267
#
# Stress axis : x y z
#
# Youngs Moduli (GPa) = 84.79141 43.06604 66.18468
#
# Poissons Ratio (x) = 0.36188 0.30709
# Poissons Ratio (y) = 0.71250 -0.07927
# Poissons Ratio (z) = 0.39342 -0.05158
#
# Static dielectric constant tensor:
#      x y z
#    x 3.749930 0.000000 -0.010900 
#    y 0.000000 3.668520 0.000000 
#    z -0.010900 0.000000 4.079160 
# 
# 
# High freq. dielectric constant tensor:
#      x y z
#    x 1.827470 0.000000 0.008620 
#    y 0.000000 1.814300 0.000000 
#    z 0.008620 0.000000 1.825170 
# 
# From -- ./inp_files/150144.got.cif
#   From: 2010.06.25/outbox.cif.g09.slc.cpg/sg15_76_cif.got.tgz:150144.got - 2010.06.28 07:06:18.
