data_PCOD8137087
_publ_section_title
;
Structure prediction by ZEFSAII (Michael W. Deem and Ramdas Pophale) SiO2 
 PCOD8137087
Probable space group: C 2/C
;
_chemical_formula_sum "Si O2"
_cell_formula_units_Z 56
_cell_length_a 13.050950
_cell_length_b 12.058737
_cell_length_c 20.054631
_cell_angle_alpha 90.000000
_cell_angle_beta 74.696468
_cell_angle_gamma 90.000000
_cell_volume 3044.243485
_symmetry_space_group_name_H-M "C 2/C"
_symmetry_group_IT_number 15
_symmetry_cell_setting 'monoclinic'
loop_
_space_group_symop_operation_xyz
x,y,z
-x,y,1/2-z
-x,-y,-z
x,-y,1/2+z
1/2+x,1/2+y,z
1/2-x,1/2+y,1/2-z
1/2-x,1/2-y,-z
1/2+x,1/2-y,1/2+z
loop_
_atom_site_type_symbol
_atom_site_label
_atom_site_fract_x
_atom_site_fract_y
_atom_site_fract_z
Si Si1 0.122254 0.750796 0.720259
Si Si2 0.252206 0.918770 0.620903
Si Si3 0.597179 0.120963 0.595482
Si Si4 0.303256 0.465561 0.015906
Si Si5 0.859295 0.637320 0.646338
Si Si6 0.087970 0.749079 0.466111
Si Si7 0.353285 0.287746 0.521940
O O1 0.182911 0.863378 0.691121
O O2 0.140226 0.663968 0.658131
O O3 0.167970 0.692720 0.778358
O O4 0.000000 0.783255 0.750000
O O5 0.185666 0.938775 0.564583
O O6 0.355464 0.842169 0.589898
O O7 0.279425 0.038934 0.644848
O O8 0.677248 0.024763 0.556481
O O9 0.476206 0.080566 0.623573
O O10 0.603265 0.220584 0.541325
O O11 0.358467 0.369866 0.050891
O O12 0.358793 0.579726 0.026146
O O13 0.847048 0.736414 0.596144
O O14 0.963200 0.749549 0.467680
O O15 0.250000 0.250000 0.500000
#
# Coordination Sequence:
#
# PCOD8137087 Si02
#       7
#     8   8   8   8   8   8   8
#     4  10  20  39  58  80 112 145 195 234 272 337
#     4  11  20  38  61  83 112 145 192 236 278 334
#     4   9  18  35  61  86 105 143 196 233 269 328
#     4  11  19  35  62  86 117 142 189 236 280 331
#     4  10  23  36  57  84 114 151 185 229 290 335
#     4  10  20  35  60  88 109 148 189 233 281 326
#     4  11  23  36  53  89 124 147 179 232 293 338
#
# _framework density 18.395374
#
# number of rings (size 3 to 8) (size 9 to 14) (size 15 to 20)
#    0.000    1.714    4.286    1.286    2.000    2.857 
#    0.000    0.000    0.000    0.000    0.000    0.000 
#    0.000    0.000    0.000    0.000    0.000    0.000 
#
# Total GULP energy -347145.631929 kJ/mol
# GULP energy per Si atom -12398.058283 kJ/mol
# Density = 1.835351 g / cm^3
# Si number density = 18.395374 Si / 1000 Ang^3
#
#
#
# Elastic Constant Matrix: (Units=GPa)
#
#
# Indices 1 2 3 4 5 6 
#
# 1 81.6149 33.5528 34.5306 0.0000 -0.9656 0.0000
# 2 33.5528 108.5723 37.1768 0.0000 -3.2395 0.0000
# 3 34.5306 37.1768 92.5692 0.0000 -7.2860 0.0000
# 4 0.0000 0.0000 0.0000 23.3789 0.0000 -0.4891
# 5 -0.9656 -3.2395 -7.2860 0.0000 22.5260 0.0000
# 6 0.0000 0.0000 0.0000 -0.4891 0.0000 28.0565
#
#
#
# Elastic Compliance Matrix: (Units=1/GPa)
#
#
# Indices 1 2 3 4 5 6 
#
# 1 0.015517 -0.003266 -0.004578 0.000000 -0.001285 0.000000
# 2 -0.003266 0.011367 -0.003313 0.000000 0.000423 0.000000
# 3 -0.004578 -0.003313 0.014148 0.000000 0.003903 0.000000
# 4 0.000000 0.000000 0.000000 0.042789 0.000000 0.000746
# 5 -0.001285 0.000423 0.003903 0.000000 0.045661 0.000000
# 6 0.000000 0.000000 0.000000 0.000746 0.000000 0.035655
#
#
# Mechanical properties :
#
#
# Convention : Reuss Voigt Hill
#
# Bulk Modulus (GPa) = 53.42542 54.80854 54.11698
# Shear Modulus (GPa) = 25.81417 26.62537 26.21977
#
# Velocity S-wave (km/s) = 3.75012 3.80859 3.77947
# Velocity P-wave (km/s) = 6.91789 7.01426 6.96624
#
# Compressibility (1/GPa) = 0.01871768
#
# Stress axis : x y z
#
# Youngs Moduli (GPa) = 64.44547 87.97380 70.68006
#
# Poissons Ratio (x) = 0.28734 0.32355
# Poissons Ratio (y) = 0.21049 0.23419
# Poissons Ratio (z) = 0.29501 0.29150
#
# Static dielectric constant tensor:
#      x y z
#    x 3.578210 0.000000 -0.204520 
#    y 0.000000 3.294480 0.000000 
#    z -0.204520 0.000000 3.423180 
# 
# 
# High freq. dielectric constant tensor:
#      x y z
#    x 1.712970 0.000000 -0.008630 
#    y 0.000000 1.706910 0.000000 
#    z -0.008630 0.000000 1.700800 
# 
# From -- ./inp_files/203933.got.cif
#   From: 2010.06.25/outbox.cif.g09.slc.cpg/sg15_102_cif.got.tgz:203933.got - 2010.06.28 07:06:18.
