data_PCOD8137340
_publ_section_title
;
Structure prediction by ZEFSAII (Michael W. Deem and Ramdas Pophale) SiO2 
 PCOD8137340
Probable space group: C 2/C
;
_chemical_formula_sum "Si O2"
_cell_formula_units_Z 48
_cell_length_a 12.857891
_cell_length_b 26.844731
_cell_length_c 7.860167
_cell_angle_alpha 90.000000
_cell_angle_beta 123.578431
_cell_angle_gamma 90.000000
_cell_volume 2260.336433
_symmetry_space_group_name_H-M "C 2/C"
_symmetry_group_IT_number 15
_symmetry_cell_setting 'monoclinic'
loop_
_space_group_symop_operation_xyz
x,y,z
-x,y,1/2-z
-x,-y,-z
x,-y,1/2+z
1/2+x,1/2+y,z
1/2-x,1/2+y,1/2-z
1/2-x,1/2-y,-z
1/2+x,1/2-y,1/2+z
loop_
_atom_site_type_symbol
_atom_site_label
_atom_site_fract_x
_atom_site_fract_y
_atom_site_fract_z
Si Si1 0.132130 0.427505 0.938666
Si Si2 0.868712 0.754841 0.227869
Si Si3 0.135593 0.286283 0.432054
Si Si4 0.626662 0.444989 0.956440
Si Si5 0.730459 0.984724 0.710366
Si Si6 0.731627 0.352110 0.199718
O O1 0.204890 0.447035 0.839573
O O2 0.000000 0.409763 0.750000
O O3 0.123942 0.473408 0.068046
O O4 0.196397 0.379123 0.079971
O O5 0.870227 0.709301 0.366863
O O6 0.852736 0.806948 0.310737
O O7 0.000000 0.754226 0.250000
O O8 0.750000 0.750000 0.000000
O O9 0.250000 0.250000 0.500000
O O10 0.166643 0.336379 0.353445
O O11 0.000000 0.265632 0.250000
O O12 0.500000 0.457055 0.750000
O O13 0.742515 0.452324 0.931810
O O14 0.645894 0.483130 0.130075
O O15 0.630183 0.388645 0.025198
#
# Coordination Sequence:
#
# PCOD8137340 Si02
#       6
#     8   8   8   8   8   8
#     4  10  20  37  58  85 120 156 196 245 293 348
#     4  11  24  43  65  89 119 158 201 251 307 368
#     4  10  22  43  65  87 119 157 197 245 306 370
#     4  10  20  36  57  82 116 154 192 241 291 345
#     4   9  20  36  56  83 114 157 201 233 288 352
#     4  10  24  37  57  92 118 150 200 245 299 359
#
# _framework density 21.235779000000001
#
# number of rings (size 3 to 8) (size 9 to 14) (size 15 to 20)
#    0.000    2.000    0.000    3.000    0.000   10.000 
#    0.000    3.333    0.000    0.000    0.000    0.000 
#    0.000    0.000    0.000    0.000    0.000    0.000 
#
# Total GULP energy -297374.788436 kJ/mol
# GULP energy per Si atom -12390.616185 kJ/mol
# Density = 2.118745 g / cm^3
# Si number density = 21.235779 Si / 1000 Ang^3
#
#
#
# Elastic Constant Matrix: (Units=GPa)
#
#
# Indices 1 2 3 4 5 6 
#
# 1 102.1711 21.8651 29.4174 0.0000 -5.9209 0.0000
# 2 21.8651 51.1668 2.7090 0.0000 -14.3699 0.0000
# 3 29.4174 2.7090 112.8911 0.0000 -0.7993 0.0000
# 4 0.0000 0.0000 0.0000 38.8561 0.0000 -16.5225
# 5 -5.9209 -14.3699 -0.7993 0.0000 45.3920 0.0000
# 6 0.0000 0.0000 0.0000 -16.5225 0.0000 35.4694
#
#
#
# Elastic Compliance Matrix: (Units=1/GPa)
#
#
# Indices 1 2 3 4 5 6 
#
# 1 0.011663 -0.004847 -0.002923 0.000000 -0.000065 0.000000
# 2 -0.004847 0.023490 0.000748 0.000000 0.006817 0.000000
# 3 -0.002923 0.000748 0.009602 0.000000 0.000024 0.000000
# 4 0.000000 0.000000 0.000000 0.032093 0.000000 0.014950
# 5 -0.000065 0.006817 0.000024 0.000000 0.024180 0.000000
# 6 0.000000 0.000000 0.000000 0.014950 0.000000 0.035157
#
#
# Mechanical properties :
#
#
# Convention : Reuss Voigt Hill
#
# Bulk Modulus (GPa) = 32.56318 41.57912 37.07115
# Shear Modulus (GPa) = 31.15887 38.09268 34.62577
#
# Velocity S-wave (km/s) = 3.83467 4.23992 4.04237
# Velocity P-wave (km/s) = 5.91385 6.60238 6.26758
#
# Compressibility (1/GPa) = 0.03070953
#
# Stress axis : x y z
#
# Youngs Moduli (GPa) = 85.74300 42.57071 104.14424
#
# Poissons Ratio (x) = 0.20635 0.30444
# Poissons Ratio (y) = 0.41562 -0.07787
# Poissons Ratio (z) = 0.25065 -0.03183
#
# Static dielectric constant tensor:
#      x y z
#    x 3.821800 0.000000 -0.402860 
#    y 0.000000 3.796110 0.000000 
#    z -0.402860 0.000000 4.148690 
# 
# 
# High freq. dielectric constant tensor:
#      x y z
#    x 1.819950 0.000000 -0.010810 
#    y 0.000000 1.821090 0.000000 
#    z -0.010810 0.000000 1.857440 
# 
# From -- ./inp_files/33776.got.cif
#   From: 2010.06.25/outbox.cif.g09.slc.cpg/sg15_17_cif.got.tgz:33776.got - 2010.06.28 07:06:18.
