data_PCOD8137559
_publ_section_title
;
Structure prediction by ZEFSAII (Michael W. Deem and Ramdas Pophale) SiO2 
 PCOD8137559
Probable space group: C 2/C
;
_chemical_formula_sum "Si O2"
_cell_formula_units_Z 52
_cell_length_a 11.450353
_cell_length_b 21.168646
_cell_length_c 12.178430
_cell_angle_alpha 90.000000
_cell_angle_beta 122.321675
_cell_angle_gamma 90.000000
_cell_volume 2494.540814
_symmetry_space_group_name_H-M "C 2/C"
_symmetry_group_IT_number 15
_symmetry_cell_setting 'monoclinic'
loop_
_space_group_symop_operation_xyz
x,y,z
-x,y,1/2-z
-x,-y,-z
x,-y,1/2+z
1/2+x,1/2+y,z
1/2-x,1/2+y,1/2-z
1/2-x,1/2-y,-z
1/2+x,1/2-y,1/2+z
loop_
_atom_site_type_symbol
_atom_site_label
_atom_site_fract_x
_atom_site_fract_y
_atom_site_fract_z
Si Si1 0.792226 0.551895 0.114522
Si Si2 0.772043 0.806913 0.428840
Si Si3 0.445071 0.356053 0.990415
Si Si4 0.041795 0.399538 0.612455
Si Si5 0.000000 0.194884 0.750000
Si Si6 0.103573 0.426270 0.397099
Si Si7 0.289963 0.778015 0.735028
O O1 0.634940 0.576864 0.052812
O O2 0.865038 0.551073 0.271040
O O3 0.782372 0.482638 0.053531
O O4 0.885007 0.599095 0.083082
O O5 0.750000 0.750000 0.500000
O O6 0.655971 0.857602 0.393984
O O7 0.747678 0.776276 0.298793
O O8 0.916743 0.846066 0.512962
O O9 0.344411 0.303978 0.890406
O O10 0.490944 0.348051 0.138627
O O11 0.036980 0.423637 0.484719
O O12 0.111963 0.330414 0.657284
O O13 0.130341 0.241370 0.819823
O O14 0.000000 0.447308 0.250000
#
# Coordination Sequence:
#
# PCOD8137559 Si02
#       7
#     8   8   8   8   4   8   8
#     4  10  22  42  68  94 124 165 220 263 325 369
#     4  11  25  42  60  95 131 164 214 252 320 388
#     4  10  23  40  63  91 131 170 206 267 317 374
#     4  10  20  41  63  98 126 163 213 267 319 382
#     4  10  20  36  60 102 122 164 212 252 316 380
#     4  12  25  40  68  95 126 170 213 269 315 386
#     4  10  20  38  66  88 133 163 203 260 319 382
#
# _framework density 20.845521000000002
#
# number of rings (size 3 to 8) (size 9 to 14) (size 15 to 20)
#    0.000    1.538    3.077    2.769    2.154    4.308 
#    0.000    0.000    0.000    0.000    0.000    0.000 
#    0.000    0.000    0.000    0.000    0.000    0.000 
#
# Total GULP energy -322126.573959 kJ/mol
# GULP energy per Si atom -12389.483614 kJ/mol
# Density = 2.079808 g / cm^3
# Si number density = 20.845521 Si / 1000 Ang^3
#
#
#
# Elastic Constant Matrix: (Units=GPa)
#
#
# Indices 1 2 3 4 5 6 
#
# 1 80.4302 30.2380 30.8765 0.0000 -12.4474 0.0000
# 2 30.2380 100.9505 13.7756 0.0000 -4.3970 0.0000
# 3 30.8765 13.7756 88.9783 0.0000 -12.2738 0.0000
# 4 0.0000 0.0000 0.0000 16.6084 0.0000 0.5485
# 5 -12.4474 -4.3970 -12.2738 0.0000 29.2694 0.0000
# 6 0.0000 0.0000 0.0000 0.5485 0.0000 19.6463
#
#
#
# Elastic Compliance Matrix: (Units=1/GPa)
#
#
# Indices 1 2 3 4 5 6 
#
# 1 0.016370 -0.004104 -0.004426 0.000000 0.004489 0.000000
# 2 -0.004104 0.011172 -0.000334 0.000000 -0.000207 0.000000
# 3 -0.004426 -0.000334 0.013331 0.000000 0.003658 0.000000
# 4 0.000000 0.000000 0.000000 0.060266 0.000000 -0.001682
# 5 0.004489 -0.000207 0.003658 0.000000 0.037577 0.000000
# 6 0.000000 0.000000 0.000000 -0.001682 0.000000 0.050947
#
#
# Mechanical properties :
#
#
# Convention : Reuss Voigt Hill
#
# Bulk Modulus (GPa) = 43.20657 46.68214 44.94435
# Shear Modulus (GPa) = 23.24442 26.13606 24.69024
#
# Velocity S-wave (km/s) = 3.34290 3.54474 3.44530
# Velocity P-wave (km/s) = 5.97261 6.26071 6.11836
#
# Compressibility (1/GPa) = 0.02314463
#
# Stress axis : x y z
#
# Youngs Moduli (GPa) = 61.08809 89.51243 75.01414
#
# Poissons Ratio (x) = 0.36734 0.33201
# Poissons Ratio (y) = 0.25069 0.02506
# Poissons Ratio (z) = 0.27037 0.02991
#
# Static dielectric constant tensor:
#      x y z
#    x 5.189440 0.000000 -0.542640 
#    y 0.000000 3.970150 0.000000 
#    z -0.542640 0.000000 3.824040 
# 
# 
# High freq. dielectric constant tensor:
#      x y z
#    x 1.814020 0.000000 -0.012820 
#    y 0.000000 1.818140 0.000000 
#    z -0.012820 0.000000 1.805640 
# 
# From -- ./inp_files/89700.got.cif
#   From: 2010.06.25/outbox.cif.g09.slc.cpg/sg15_45_cif.got.tgz:89700.got - 2010.06.28 07:06:18.
