data_PCOD8137020
_publ_section_title
;
Structure prediction by ZEFSAII (Michael W. Deem and Ramdas Pophale) SiO2 
 PCOD8137020
Probable space group: C 2/C
;
_chemical_formula_sum "Si O2"
_cell_formula_units_Z 56
_cell_length_a 9.437015
_cell_length_b 21.563366
_cell_length_c 13.986882
_cell_angle_alpha 90.000000
_cell_angle_beta 66.290741
_cell_angle_gamma 90.000000
_cell_volume 2606.014147
_symmetry_space_group_name_H-M "C 2/C"
_symmetry_group_IT_number 15
_symmetry_cell_setting 'monoclinic'
loop_
_space_group_symop_operation_xyz
x,y,z
-x,y,1/2-z
-x,-y,-z
x,-y,1/2+z
1/2+x,1/2+y,z
1/2-x,1/2+y,1/2-z
1/2-x,1/2-y,-z
1/2+x,1/2-y,1/2+z
loop_
_atom_site_type_symbol
_atom_site_label
_atom_site_fract_x
_atom_site_fract_y
_atom_site_fract_z
Si Si1 0.391269 0.438751 0.586082
Si Si2 0.647124 0.647778 0.081648
Si Si3 0.339085 0.165847 0.346927
Si Si4 0.310103 0.688453 0.639096
Si Si5 0.457725 0.562975 0.651661
Si Si6 0.086098 0.252480 0.336387
Si Si7 0.539834 0.810793 0.952501
O O1 0.555103 0.416606 0.590698
O O2 0.252372 0.395739 0.658160
O O3 0.352446 0.506899 0.637517
O O4 0.404189 0.434475 0.465967
O O5 0.530885 0.697274 0.160509
O O6 0.804665 0.645680 0.102854
O O7 0.713752 0.672364 0.964012
O O8 0.500000 0.170942 0.250000
O O9 0.232672 0.225283 0.355159
O O10 0.387790 0.160072 0.444949
O O11 0.370299 0.628620 0.680484
O O12 0.145372 0.711310 0.725933
O O13 0.432235 0.744963 0.609413
O O14 0.500000 0.546833 0.750000
O O15 0.999892 0.302135 0.425988
#
# Coordination Sequence:
#
# PCOD8137020 Si02
#       7
#     8   8   8   8   8   8   8
#     4   9  22  45  64  88 122 158 216 255 300 361
#     4   9  21  39  60  90 121 163 199 249 292 371
#     4  11  22  38  59  90 122 162 196 253 295 360
#     4  10  20  35  59  92 123 154 203 241 303 365
#     4  10  22  39  69  88 116 164 212 256 301 368
#     4  10  20  35  58  87 130 156 189 245 309 358
#     4  11  22  35  59  95 125 155 198 245 309 362
#
# _framework density 21.488754
#
# number of rings (size 3 to 8) (size 9 to 14) (size 15 to 20)
#    0.000    2.000    1.429    3.000    4.000    3.429 
#    0.000    0.000   12.571    8.571    0.000    0.000 
#    0.000    0.000    0.000    0.000    0.000    0.000 
#
# Total GULP energy -346909.472136 kJ/mol
# GULP energy per Si atom -12389.624005 kJ/mol
# Density = 2.143984 g / cm^3
# Si number density = 21.488754 Si / 1000 Ang^3
#
#
#
# Elastic Constant Matrix: (Units=GPa)
#
#
# Indices 1 2 3 4 5 6 
#
# 1 103.4520 24.1276 15.8168 0.0000 -8.9384 0.0000
# 2 24.1276 77.6692 22.3648 0.0000 -2.3399 0.0000
# 3 15.8168 22.3648 96.0779 0.0000 -2.0857 0.0000
# 4 0.0000 0.0000 0.0000 23.9799 0.0000 2.3809
# 5 -8.9384 -2.3399 -2.0857 0.0000 32.5261 0.0000
# 6 0.0000 0.0000 0.0000 2.3809 0.0000 22.7707
#
#
#
# Elastic Compliance Matrix: (Units=1/GPa)
#
#
# Indices 1 2 3 4 5 6 
#
# 1 0.010745 -0.002963 -0.001021 0.000000 0.002674 0.000000
# 2 -0.002963 0.014638 -0.002918 0.000000 0.000052 0.000000
# 3 -0.001021 -0.002918 0.011261 0.000000 0.000232 0.000000
# 4 0.000000 0.000000 0.000000 0.042139 0.000000 -0.004406
# 5 0.002674 0.000052 0.000232 0.000000 0.031498 0.000000
# 6 0.000000 0.000000 0.000000 -0.004406 0.000000 0.044377
#
#
# Mechanical properties :
#
#
# Convention : Reuss Voigt Hill
#
# Bulk Modulus (GPa) = 43.78741 44.64640 44.21691
# Shear Modulus (GPa) = 28.39713 30.18133 29.28923
#
# Velocity S-wave (km/s) = 3.63917 3.75175 3.69589
# Velocity P-wave (km/s) = 6.17084 6.29200 6.23171
#
# Compressibility (1/GPa) = 0.02283761
#
# Stress axis : x y z
#
# Youngs Moduli (GPa) = 93.07038 68.31765 88.80481
#
# Poissons Ratio (x) = 0.20244 0.09067
# Poissons Ratio (y) = 0.27579 0.25916
# Poissons Ratio (z) = 0.09503 0.19937
#
# Static dielectric constant tensor:
#      x y z
#    x 4.257710 0.000000 0.117150 
#    y 0.000000 3.805960 0.000000 
#    z 0.117150 0.000000 4.104820 
# 
# 
# High freq. dielectric constant tensor:
#      x y z
#    x 1.836330 0.000000 0.007030 
#    y 0.000000 1.814320 0.000000 
#    z 0.007030 0.000000 1.858760 
# 
# From -- ./inp_files/137729.got.cif
#   From: 2010.06.25/outbox.cif.g09.slc.cpg/sg15_69_cif.got.tgz:137729.got - 2010.06.28 07:06:18.
