data_PCOD8137715
_publ_section_title
;
Structure prediction by ZEFSAII (Michael W. Deem and Ramdas Pophale) SiO2 
 PCOD8137715
Probable space group: C 2/C
;
_chemical_formula_sum "Si O2"
_cell_formula_units_Z 36
_cell_length_a 8.586077
_cell_length_b 16.947347
_cell_length_c 9.070442
_cell_angle_alpha 90.000000
_cell_angle_beta 91.200152
_cell_angle_gamma 90.000000
_cell_volume 1319.561600
_symmetry_space_group_name_H-M "C 2/C"
_symmetry_group_IT_number 15
_symmetry_cell_setting 'monoclinic'
loop_
_space_group_symop_operation_xyz
x,y,z
-x,y,1/2-z
-x,-y,-z
x,-y,1/2+z
1/2+x,1/2+y,z
1/2-x,1/2+y,1/2-z
1/2-x,1/2-y,-z
1/2+x,1/2-y,1/2+z
loop_
_atom_site_type_symbol
_atom_site_label
_atom_site_fract_x
_atom_site_fract_y
_atom_site_fract_z
Si Si1 0.785131 0.541055 0.996353
Si Si2 0.310644 0.314658 0.161195
Si Si3 0.000000 0.491129 0.750000
Si Si4 0.298754 0.365619 0.478887
Si Si5 0.995494 0.268793 0.057088
O O1 0.689278 0.458760 0.991178
O O2 0.869332 0.557685 0.155679
O O3 0.670730 0.613374 0.957685
O O4 0.912031 0.545186 0.867262
O O5 0.373950 0.342803 0.320990
O O6 0.126654 0.289431 0.183622
O O7 0.404807 0.242038 0.093172
O O8 0.116729 0.342690 0.480837
O O9 0.395881 0.310783 0.594719
#
# Coordination Sequence:
#
# PCOD8137715 Si02
#       5
#     8   8   4   8   8
#     4  11  22  41  70  96 134 178 224 280 332 394
#     4  11  23  46  67 100 134 177 221 287 327 403
#     4  10  20  36  62 102 126 172 218 270 328 398
#     4  11  23  46  67 100 134 177 221 287 327 403
#     4  10  24  43  65  93 135 179 219 266 348 388
#
# _framework density 27.281786
#
# number of rings (size 3 to 8) (size 9 to 14) (size 15 to 20)
#    0.000    1.333    2.222    4.000    0.000    0.889 
#   40.000    0.000    0.000    0.000    0.000    0.000 
#    0.000    0.000    0.000    0.000    0.000    0.000 
#
# Total GULP energy -223126.653853 kJ/mol
# GULP energy per Si atom -12395.925214 kJ/mol
# Density = 2.721969 g / cm^3
# Si number density = 27.281786 Si / 1000 Ang^3
#
#
#
# Elastic Constant Matrix: (Units=GPa)
#
#
# Indices 1 2 3 4 5 6 
#
# 1 35.5535 -2.5197 -9.8008 0.0000 -2.5670 0.0000
# 2 -2.5197 112.6605 14.0778 0.0000 21.4169 0.0000
# 3 -9.8008 14.0778 92.3148 0.0000 20.4662 0.0000
# 4 0.0000 0.0000 0.0000 32.8913 0.0000 0.5943
# 5 -2.5670 21.4169 20.4662 0.0000 45.2148 0.0000
# 6 0.0000 0.0000 0.0000 0.5943 0.0000 32.7878
#
#
#
# Elastic Compliance Matrix: (Units=1/GPa)
#
#
# Indices 1 2 3 4 5 6 
#
# 1 0.028984 0.000240 0.003002 0.000000 0.000173 0.000000
# 2 0.000240 0.009779 -0.000491 0.000000 -0.004396 0.000000
# 3 0.003002 -0.000491 0.012379 0.000000 -0.005200 0.000000
# 4 0.000000 0.000000 0.000000 0.030413 0.000000 -0.000551
# 5 0.000173 -0.004396 -0.005200 0.000000 0.026563 0.000000
# 6 0.000000 0.000000 0.000000 -0.000551 0.000000 0.030509
#
#
# Mechanical properties :
#
#
# Convention : Reuss Voigt Hill
#
# Bulk Modulus (GPa) = 17.65417 27.11596 22.38506
# Shear Modulus (GPa) = 32.89368 38.09689 35.49529
#
# Velocity S-wave (km/s) = 3.47609 3.74093 3.61094
# Velocity P-wave (km/s) = 4.75353 5.34978 5.06044
#
# Compressibility (1/GPa) = 0.05664385
#
# Stress axis : x y z
#
# Youngs Moduli (GPa) = 34.50216 102.26378 80.78187
#
# Poissons Ratio (x) = -0.02457 -0.24252
# Poissons Ratio (y) = -0.00829 0.03968
# Poissons Ratio (z) = -0.10358 0.05023
#
# Static dielectric constant tensor:
#      x y z
#    x 5.125320 0.000000 0.168190 
#    y 0.000000 4.647020 0.000000 
#    z 0.168190 0.000000 4.915680 
# 
# 
# High freq. dielectric constant tensor:
#      x y z
#    x 2.114820 0.000000 -0.001980 
#    y 0.000000 2.086660 0.000000 
#    z -0.001980 0.000000 2.091630 
# 
# From -- ./inp_files/22542.got.cif
#   From: 2010.06.25/outbox.cif.g09.slc.cpg/sg15_12_cif.got.tgz:22542.got - 2010.06.28 07:06:18.
