data_PCOD8137219
_publ_section_title
;
Structure prediction by ZEFSAII (Michael W. Deem and Ramdas Pophale) SiO2 
 PCOD8137219
Probable space group: C 2/C
;
_chemical_formula_sum "Si O2"
_cell_formula_units_Z 52
_cell_length_a 14.254538
_cell_length_b 8.229861
_cell_length_c 21.012790
_cell_angle_alpha 90.000000
_cell_angle_beta 63.111910
_cell_angle_gamma 90.000000
_cell_volume 2198.575679
_symmetry_space_group_name_H-M "C 2/C"
_symmetry_group_IT_number 15
_symmetry_cell_setting 'monoclinic'
loop_
_space_group_symop_operation_xyz
x,y,z
-x,y,1/2-z
-x,-y,-z
x,-y,1/2+z
1/2+x,1/2+y,z
1/2-x,1/2+y,1/2-z
1/2-x,1/2-y,-z
1/2+x,1/2-y,1/2+z
loop_
_atom_site_type_symbol
_atom_site_label
_atom_site_fract_x
_atom_site_fract_y
_atom_site_fract_z
Si Si1 0.292456 0.789693 0.339055
Si Si2 0.090436 0.827415 0.160945
Si Si3 0.000000 0.113190 0.250000
Si Si4 0.619871 0.117108 0.839055
Si Si5 0.097012 0.500000 0.104482
Si Si6 0.806595 0.306595 0.750000
Si Si7 0.790754 0.500000 0.063869
O O1 0.396416 0.722194 0.268713
O O2 0.319449 0.962684 0.364063
O O3 0.197160 0.788205 0.317448
O O4 0.264146 0.673284 0.406902
O O5 0.042446 0.675421 0.135937
O O6 0.105824 0.775566 0.231287
O O7 0.202333 0.860238 0.093098
O O8 0.021926 0.992709 0.182552
O O9 0.494870 0.138105 0.864063
O O10 0.689869 0.280914 0.817448
O O11 0.624383 0.033521 0.906902
O O12 0.671982 0.997760 0.768713
O O13 0.153062 0.500000 0.020408
#
# Coordination Sequence:
#
# PCOD8137219 Si02
#       7
#     8   8   4   8   8   8   8
#     4  10  21  35  57  78 111 143 175 230 268 320
#     4  10  21  35  57  78 111 143 175 230 268 320
#     4  10  20  36  50  78 106 136 174 216 286 310
#     4  10  21  35  57  78 111 143 175 230 268 320
#     4  12  21  34  58  87 102 141 198 220 250 327
#     4  10  20  36  50  78 106 136 174 216 286 310
#     4   9  21  39  52  76 117 153 172 214 282 321
#
# _framework density 23.651676999999999
#
# number of rings (size 3 to 8) (size 9 to 14) (size 15 to 20)
#    0.000    1.846    0.000    5.077    0.000    1.846 
#    0.000    0.000    0.000    0.000    0.000   25.846 
#    0.000    0.000    0.000    0.000    0.000    0.000 
#
# Total GULP energy -322187.176166 kJ/mol
# GULP energy per Si atom -12391.814468 kJ/mol
# Density = 2.359784 g / cm^3
# Si number density = 23.651677 Si / 1000 Ang^3
#
#
#
# Elastic Constant Matrix: (Units=GPa)
#
#
# Indices 1 2 3 4 5 6 
#
# 1 63.6863 3.6814 11.8051 0.0000 5.8637 0.0000
# 2 3.6814 62.4967 12.7985 0.0000 -5.7527 0.0000
# 3 11.8051 12.7985 134.9388 0.0000 3.8670 0.0000
# 4 0.0000 0.0000 0.0000 23.2797 0.0000 -6.4618
# 5 5.8637 -5.7527 3.8670 0.0000 22.2514 0.0000
# 6 0.0000 0.0000 0.0000 -6.4618 0.0000 28.4893
#
#
#
# Elastic Compliance Matrix: (Units=1/GPa)
#
#
# Indices 1 2 3 4 5 6 
#
# 1 0.016395 -0.001125 -0.001201 0.000000 -0.004403 0.000000
# 2 -0.001125 0.016858 -0.001642 0.000000 0.004940 0.000000
# 3 -0.001201 -0.001642 0.007713 0.000000 -0.001448 0.000000
# 4 0.000000 0.000000 0.000000 0.045842 0.000000 0.010398
# 5 -0.004403 0.004940 -0.001448 0.000000 0.047630 0.000000
# 6 0.000000 0.000000 0.000000 0.010398 0.000000 0.037459
#
#
# Mechanical properties :
#
#
# Convention : Reuss Voigt Hill
#
# Bulk Modulus (GPa) = 30.27615 35.29908 32.78762
# Shear Modulus (GPa) = 26.19934 30.32653 28.26293
#
# Velocity S-wave (km/s) = 3.33185 3.58469 3.46058
# Velocity P-wave (km/s) = 5.25645 5.66483 5.46445
#
# Compressibility (1/GPa) = 0.03302930
#
# Stress axis : x y z
#
# Youngs Moduli (GPa) = 60.99403 59.31857 129.64907
#
# Poissons Ratio (x) = 0.06673 0.15577
# Poissons Ratio (y) = 0.06862 0.21290
# Poissons Ratio (z) = 0.07328 0.09741
#
# Static dielectric constant tensor:
#      x y z
#    x 4.272820 0.000000 -0.012270 
#    y 0.000000 4.273420 0.000000 
#    z -0.012270 0.000000 4.024890 
# 
# 
# High freq. dielectric constant tensor:
#      x y z
#    x 1.933310 0.000000 -0.000400 
#    y 0.000000 1.933330 0.000000 
#    z -0.000400 0.000000 1.925180 
# 
# From -- ./inp_files/242513.got.cif
#   From: 2010.06.25/outbox.cif.g09.slc.cpg/sg15_122_cif.got.tgz:242513.got - 2010.06.28 07:06:18.
