data_PCOD8137585
_publ_section_title
;
Structure prediction by ZEFSAII (Michael W. Deem and Ramdas Pophale) SiO2 
 PCOD8137585
Probable space group: C 2/C
;
_chemical_formula_sum "Si O2"
_cell_formula_units_Z 60
_cell_length_a 18.130761
_cell_length_b 11.799121
_cell_length_c 21.594890
_cell_angle_alpha 90.000000
_cell_angle_beta 39.076944
_cell_angle_gamma 90.000000
_cell_volume 2912.109651
_symmetry_space_group_name_H-M "C 2/C"
_symmetry_group_IT_number 15
_symmetry_cell_setting 'monoclinic'
loop_
_space_group_symop_operation_xyz
x,y,z
-x,y,1/2-z
-x,-y,-z
x,-y,1/2+z
1/2+x,1/2+y,z
1/2-x,1/2+y,1/2-z
1/2-x,1/2-y,-z
1/2+x,1/2-y,1/2+z
loop_
_atom_site_type_symbol
_atom_site_label
_atom_site_fract_x
_atom_site_fract_y
_atom_site_fract_z
Si Si1 0.500000 0.510369 0.250000
Si Si2 0.061880 0.328012 0.822622
Si Si3 0.816263 0.100861 0.281719
Si Si4 0.432566 0.285718 0.590618
Si Si5 0.245629 0.300858 0.605965
Si Si6 0.345624 0.949152 0.186254
Si Si7 0.628646 0.341370 0.088115
Si Si8 0.665611 0.305159 0.367558
O O1 0.394382 0.583535 0.291901
O O2 0.535970 0.435636 0.167289
O O3 0.128799 0.345762 0.714143
O O4 0.063873 0.452361 0.852132
O O5 0.128441 0.238515 0.823526
O O6 0.934382 0.277283 0.891582
O O7 0.893508 0.129185 0.170188
O O8 0.739553 0.207449 0.352343
O O9 0.731904 0.994205 0.321311
O O10 0.343927 0.282971 0.592137
O O11 0.431255 0.155533 0.614706
O O12 0.556835 0.330314 0.483746
O O13 0.295805 0.385394 0.519922
O O14 0.212618 0.183855 0.591772
O O15 0.250005 0.914197 0.301825
#
# Coordination Sequence:
#
# PCOD8137585 Si02
#       8
#     4   8   8   8   8   8   8   8
#     4  12  22  42  62  80 118 156 202 246 318 344
#     4  11  19  37  58  88 125 155 197 240 297 356
#     4  10  23  38  62  87 113 159 204 247 293 365
#     4  11  21  39  61  89 123 156 203 246 293 352
#     4  11  20  37  57  89 128 150 192 238 294 364
#     4  10  20  36  60  86 117 155 194 246 295 343
#     4  11  23  35  61  90 124 158 184 250 304 359
#     4  10  21  38  59  88 122 155 198 250 288 347
#
# _framework density 20.603618999999998
#
# number of rings (size 3 to 8) (size 9 to 14) (size 15 to 20)
#    0.000    1.333    6.667    1.600    0.000    3.733 
#    4.800    0.667   11.733    0.000    0.000    0.000 
#    0.000    0.000    0.000    0.000    0.000    0.000 
#
# Total GULP energy -371750.412977 kJ/mol
# GULP energy per Si atom -12391.680433 kJ/mol
# Density = 2.055672 g / cm^3
# Si number density = 20.603619 Si / 1000 Ang^3
#
#
#
# Elastic Constant Matrix: (Units=GPa)
#
#
# Indices 1 2 3 4 5 6 
#
# 1 91.3335 21.1930 8.9724 0.0000 -1.4875 0.0000
# 2 21.1930 51.5975 -9.8567 0.0000 -0.8492 0.0000
# 3 8.9724 -9.8567 78.4329 0.0000 4.6191 0.0000
# 4 0.0000 0.0000 0.0000 15.1799 0.0000 -5.2934
# 5 -1.4875 -0.8492 4.6191 0.0000 29.7964 0.0000
# 6 0.0000 0.0000 0.0000 -5.2934 0.0000 20.4380
#
#
#
# Elastic Compliance Matrix: (Units=1/GPa)
#
#
# Indices 1 2 3 4 5 6 
#
# 1 0.012455 -0.005516 -0.002165 0.000000 0.000800 0.000000
# 2 -0.005516 0.022301 0.003444 0.000000 -0.000174 0.000000
# 3 -0.002165 0.003444 0.013555 0.000000 -0.002111 0.000000
# 4 0.000000 0.000000 0.000000 0.072417 0.000000 0.018756
# 5 0.000800 -0.000174 -0.002111 0.000000 0.033923 0.000000
# 6 0.000000 0.000000 0.000000 0.018756 0.000000 0.053786
#
#
# Mechanical properties :
#
#
# Convention : Reuss Voigt Hill
#
# Bulk Modulus (GPa) = 25.10283 29.10904 27.10594
# Shear Modulus (GPa) = 21.72116 26.48652 24.10384
#
# Velocity S-wave (km/s) = 3.25043 3.58932 3.42407
# Velocity P-wave (km/s) = 5.12808 5.59789 5.36813
#
# Compressibility (1/GPa) = 0.03983615
#
# Stress axis : x y z
#
# Youngs Moduli (GPa) = 80.29200 44.84019 73.77594
#
# Poissons Ratio (x) = 0.24734 0.15973
# Poissons Ratio (y) = 0.44289 -0.25407
# Poissons Ratio (z) = 0.17384 -0.15442
#
# Static dielectric constant tensor:
#      x y z
#    x 3.629800 0.000000 -0.048380 
#    y 0.000000 3.540400 0.000000 
#    z -0.048380 0.000000 4.185130 
# 
# 
# High freq. dielectric constant tensor:
#      x y z
#    x 1.793760 0.000000 -0.003100 
#    y 0.000000 1.779140 0.000000 
#    z -0.003100 0.000000 1.816550 
# 
# From -- ./inp_files/248761.got.cif
#   From: 2010.06.25/outbox.cif.g09.slc.cpg/sg15_125_cif.got.tgz:248761.got - 2010.06.28 07:06:18.
