data_PCOD8137836
_publ_section_title
;
Structure prediction by ZEFSAII (Michael W. Deem and Ramdas Pophale) SiO2 
 PCOD8137836
Probable space group: C 2/C
;
_chemical_formula_sum "Si O2"
_cell_formula_units_Z 44
_cell_length_a 10.378745
_cell_length_b 20.951847
_cell_length_c 11.700069
_cell_angle_alpha 90.000000
_cell_angle_beta 54.957009
_cell_angle_gamma 90.000000
_cell_volume 2083.011856
_symmetry_space_group_name_H-M "C 2/C"
_symmetry_group_IT_number 15
_symmetry_cell_setting 'monoclinic'
loop_
_space_group_symop_operation_xyz
x,y,z
-x,y,1/2-z
-x,-y,-z
x,-y,1/2+z
1/2+x,1/2+y,z
1/2-x,1/2+y,1/2-z
1/2-x,1/2-y,-z
1/2+x,1/2-y,1/2+z
loop_
_atom_site_type_symbol
_atom_site_label
_atom_site_fract_x
_atom_site_fract_y
_atom_site_fract_z
Si Si1 0.176060 0.767156 0.658297
Si Si2 0.951009 0.634339 0.405939
Si Si3 0.878858 0.101376 0.992822
Si Si4 0.466891 0.728258 0.634747
Si Si5 0.272539 0.590291 0.298732
Si Si6 0.500000 0.511669 0.750000
O O1 0.250000 0.750000 0.500000
O O2 0.279795 0.733479 0.704928
O O3 0.167305 0.842999 0.682182
O O4 0.000000 0.738848 0.750000
O O5 0.777398 0.605797 0.507485
O O6 0.000000 0.642087 0.250000
O O7 0.953147 0.706691 0.453326
O O8 0.081301 0.589678 0.401406
O O9 0.957543 0.170224 0.973929
O O10 0.998342 0.054938 0.865146
O O11 0.835160 0.075920 0.139256
O O12 0.500000 0.714630 0.750000
O O13 0.343649 0.532501 0.336432
#
# Coordination Sequence:
#
# PCOD8137836 Si02
#       6
#     8   8   8   8   8   4
#     4  11  23  42  69 101 136 177 218 280 353 405
#     4   8  18  35  61  86 116 160 205 271 331 377
#     4  11  21  39  61  91 127 169 222 271 330 391
#     4  10  20  36  63  97 129 161 211 278 335 400
#     4  10  22  41  61  87 127 176 215 270 333 399
#     4  12  24  38  62  88 130 182 226 258 322 408
#
# _framework density 21.123259999999998
#
# number of rings (size 3 to 8) (size 9 to 14) (size 15 to 20)
#    0.000    1.818    1.818    3.273    0.000    3.636 
#    0.000    0.000    0.000    0.000    0.000    0.000 
#    0.000    0.000    0.000    0.000    0.000    0.000 
#
# Total GULP energy -272767.496872 kJ/mol
# GULP energy per Si atom -12398.522585 kJ/mol
# Density = 2.107518 g / cm^3
# Si number density = 21.123260 Si / 1000 Ang^3
#
#
#
# Elastic Constant Matrix: (Units=GPa)
#
#
# Indices 1 2 3 4 5 6 
#
# 1 129.9687 33.5899 21.1296 0.0000 -16.5701 0.0000
# 2 33.5899 93.5282 23.1484 0.0000 -7.8186 0.0000
# 3 21.1296 23.1484 69.5211 0.0000 -2.7394 0.0000
# 4 0.0000 0.0000 0.0000 23.7048 0.0000 -10.0553
# 5 -16.5701 -7.8186 -2.7394 0.0000 33.4998 0.0000
# 6 0.0000 0.0000 0.0000 -10.0553 0.0000 21.2955
#
#
#
# Elastic Compliance Matrix: (Units=1/GPa)
#
#
# Indices 1 2 3 4 5 6 
#
# 1 0.009116 -0.002517 -0.001784 0.000000 0.003776 0.000000
# 2 -0.002517 0.012544 -0.003356 0.000000 0.001408 0.000000
# 3 -0.001784 -0.003356 0.016030 0.000000 -0.000355 0.000000
# 4 0.000000 0.000000 0.000000 0.052751 0.000000 0.024908
# 5 0.003776 0.001408 -0.000355 0.000000 0.032018 0.000000
# 6 0.000000 0.000000 0.000000 0.024908 0.000000 0.058719
#
#
# Mechanical properties :
#
#
# Convention : Reuss Voigt Hill
#
# Bulk Modulus (GPa) = 44.69059 49.86152 47.27606
# Shear Modulus (GPa) = 24.51558 30.04336 27.27947
#
# Velocity S-wave (km/s) = 3.41045 3.77541 3.59756
# Velocity P-wave (km/s) = 6.05898 6.53156 6.29970
#
# Compressibility (1/GPa) = 0.02237608
#
# Stress axis : x y z
#
# Youngs Moduli (GPa) = 109.69703 79.71738 62.38341
#
# Poissons Ratio (x) = 0.20063 0.11128
# Poissons Ratio (y) = 0.27609 0.20939
# Poissons Ratio (z) = 0.19568 0.26757
#
# Static dielectric constant tensor:
#      x y z
#    x 4.894040 0.000000 0.142780 
#    y 0.000000 3.649990 0.000000 
#    z 0.142780 0.000000 3.553340 
# 
# 
# High freq. dielectric constant tensor:
#      x y z
#    x 1.841270 0.000000 -0.005840 
#    y 0.000000 1.811880 0.000000 
#    z -0.005840 0.000000 1.803050 
# 
# From -- ./inp_files/30719.got.cif
#   From: 2010.06.25/outbox.cif.g09.slc.cpg/sg15_16_cif.got.tgz:30719.got - 2010.06.28 07:06:18.
