data_PCOD8137291
_publ_section_title
;
Structure prediction by ZEFSAII (Michael W. Deem and Ramdas Pophale) SiO2 
 PCOD8137291
Probable space group: C 2/C
;
_chemical_formula_sum "Si O2"
_cell_formula_units_Z 52
_cell_length_a 17.683837
_cell_length_b 5.085654
_cell_length_c 26.988052
_cell_angle_alpha 90.000000
_cell_angle_beta 114.652299
_cell_angle_gamma 90.000000
_cell_volume 2205.920274
_symmetry_space_group_name_H-M "C 2/C"
_symmetry_group_IT_number 15
_symmetry_cell_setting 'monoclinic'
loop_
_space_group_symop_operation_xyz
x,y,z
-x,y,1/2-z
-x,-y,-z
x,-y,1/2+z
1/2+x,1/2+y,z
1/2-x,1/2+y,1/2-z
1/2-x,1/2-y,-z
1/2+x,1/2-y,1/2+z
loop_
_atom_site_type_symbol
_atom_site_label
_atom_site_fract_x
_atom_site_fract_y
_atom_site_fract_z
Si Si1 0.337716 0.668729 0.152993
Si Si2 0.529288 0.805611 0.066467
Si Si3 0.048400 0.572862 0.166614
Si Si4 0.636521 0.817854 0.899427
Si Si5 0.575885 0.693641 0.979335
Si Si6 0.000000 0.702048 0.750000
Si Si7 0.275709 0.234188 0.286603
O O1 0.314814 0.394951 0.120259
O O2 0.427526 0.628295 0.204068
O O3 0.265911 0.748829 0.171049
O O4 0.340573 0.890955 0.111423
O O5 0.562329 0.825424 0.132138
O O6 0.452561 0.601904 0.041848
O O7 0.500876 0.104184 0.047256
O O8 0.599624 0.716278 0.044783
O O9 0.047843 0.473848 0.222893
O O10 0.125045 0.775181 0.181076
O O11 0.963079 0.728798 0.132819
O O12 0.652033 0.774543 0.963031
O O13 0.261957 0.946647 0.260295
#
# Coordination Sequence:
#
# PCOD8137291 Si02
#       7
#     8   8   8   8   8   4   8
#     4  11  23  37  56  82 113 149 187 232 287 328
#     4   9  18  31  54  85 114 147 179 236 284 338
#     4  10  22  38  58  84 114 150 193 230 282 336
#     4  10  21  36  60  85 108 145 188 239 276 336
#     4   9  16  32  55  85 116 138 184 235 290 326
#     4  10  20  36  56  82 106 146 186 242 262 338
#     4  12  26  41  55  79 116 159 187 233 282 343
#
# _framework density 23.572927
#
# number of rings (size 3 to 8) (size 9 to 14) (size 15 to 20)
#    0.000    1.846    1.538    3.692    4.308    3.077 
#    0.000    0.000    0.000    1.846    0.000    0.000 
#    0.000    0.000    0.000    0.000    0.000    0.000 
#
# Total GULP energy -322190.756384 kJ/mol
# GULP energy per Si atom -12391.952169 kJ/mol
# Density = 2.351927 g / cm^3
# Si number density = 23.572927 Si / 1000 Ang^3
#
#
#
# Elastic Constant Matrix: (Units=GPa)
#
#
# Indices 1 2 3 4 5 6 
#
# 1 79.9754 4.7257 23.3210 -0.0008 -22.7348 0.0010
# 2 4.7257 90.0374 23.5462 0.0000 -7.3742 0.0047
# 3 23.3210 23.5462 107.5115 0.0004 -57.6616 0.0002
# 4 -0.0008 0.0000 0.0004 38.9275 -0.0005 -4.4602
# 5 -22.7348 -7.3742 -57.6616 -0.0005 40.4942 -0.0001
# 6 0.0010 0.0047 0.0002 -4.4602 -0.0001 25.1033
#
#
#
# Elastic Compliance Matrix: (Units=1/GPa)
#
#
# Indices 1 2 3 4 5 6 
#
# 1 0.015710 -0.001003 0.006113 0.000000 0.017342 0.000000
# 2 -0.001003 0.012260 -0.006653 0.000000 -0.007804 -0.000002
# 3 0.006113 -0.006653 0.044958 0.000001 0.066238 0.000001
# 4 0.000000 0.000000 0.000001 0.026223 0.000001 0.004659
# 5 0.017342 -0.007804 0.066238 0.000001 0.127329 0.000001
# 6 0.000000 -0.000002 0.000001 0.004659 0.000001 0.040663
#
#
# Mechanical properties :
#
#
# Convention : Reuss Voigt Hill
#
# Bulk Modulus (GPa) = 14.31799 42.30113 28.30956
# Shear Modulus (GPa) = 17.03522 35.96711 26.50116
#
# Velocity S-wave (km/s) = 2.69115 3.91036 3.35658
# Velocity P-wave (km/s) = 3.96781 6.19449 5.20169
#
# Compressibility (1/GPa) = 0.06984221
#
# Stress axis : x y z
#
# Youngs Moduli (GPa) = 63.65181 81.56722 22.24315
#
# Poissons Ratio (x) = 0.08180 -0.13597
# Poissons Ratio (y) = 0.06383 0.14798
# Poissons Ratio (z) = -0.38910 0.54266
#
# Static dielectric constant tensor:
#      x y z
#    x 4.040110 0.000000 -0.618090 
#    y 0.000000 3.957080 0.000000 
#    z -0.618090 0.000000 4.964440 
# 
# 
# High freq. dielectric constant tensor:
#      x y z
#    x 1.900640 0.000000 -0.052960 
#    y 0.000000 1.928220 0.000000 
#    z -0.052960 0.000000 1.939050 
# 
# From -- ./inp_files/297515.got.cif
#   From: 2010.06.25/outbox.cif.g09.slc.cpg/sg15_149_cif.got.tgz:297515.got - 2010.06.28 07:06:18.
