data_PCOD8137904
_publ_section_title
;
Structure prediction by ZEFSAII (Michael W. Deem and Ramdas Pophale) SiO2 
 PCOD8137904
Probable space group: C 2/C
;
_chemical_formula_sum "Si O2"
_cell_formula_units_Z 48
_cell_length_a 15.336743
_cell_length_b 19.383832
_cell_length_c 13.780555
_cell_angle_alpha 90.000000
_cell_angle_beta 142.448036
_cell_angle_gamma 90.000000
_cell_volume 2496.890213
_symmetry_space_group_name_H-M "C 2/C"
_symmetry_group_IT_number 15
_symmetry_cell_setting 'monoclinic'
loop_
_space_group_symop_operation_xyz
x,y,z
-x,y,1/2-z
-x,-y,-z
x,-y,1/2+z
1/2+x,1/2+y,z
1/2-x,1/2+y,1/2-z
1/2-x,1/2-y,-z
1/2+x,1/2-y,1/2+z
loop_
_atom_site_type_symbol
_atom_site_label
_atom_site_fract_x
_atom_site_fract_y
_atom_site_fract_z
Si Si1 0.835898 0.478624 0.084775
Si Si2 0.935234 0.899285 0.593746
Si Si3 0.190909 0.008610 0.262721
Si Si4 0.420918 0.637421 0.872006
Si Si5 0.856595 0.261885 0.680725
Si Si6 0.266680 0.598967 0.383340
O O1 0.797663 0.555912 0.084418
O O2 0.000000 0.458029 0.250000
O O3 0.728880 0.422863 0.038616
O O4 0.812052 0.478713 0.949060
O O5 0.943763 0.847650 0.508373
O O6 0.000000 0.864577 0.750000
O O7 0.032749 0.966680 0.656831
O O8 0.247777 0.052183 0.223487
O O9 0.182685 0.928465 0.227653
O O10 0.349886 0.701936 0.755729
O O11 0.570474 0.621008 0.951247
O O12 0.750000 0.250000 0.500000
O O13 0.825227 0.331889 0.711659
O O14 0.000000 0.268587 0.750000
#
# Coordination Sequence:
#
# PCOD8137904 Si02
#       6
#     8   8   8   8   8   8
#     4  11  21  34  54  90 127 147 192 256 310 350
#     4   9  18  36  63  88 111 151 207 255 297 348
#     4  10  20  36  66  85 112 164 210 253 291 352
#     4  11  20  39  64  87 117 161 213 252 289 361
#     4  12  25  40  60  90 130 166 194 239 311 374
#     4  11  21  40  59  90 121 158 209 245 304 358
#
# _framework density 19.223911999999999
#
# number of rings (size 3 to 8) (size 9 to 14) (size 15 to 20)
#    0.000    1.333    5.000    2.500    0.000    0.667 
#    3.000    0.000    0.000   10.000    0.000    0.000 
#    0.000    0.000    0.000    0.000    0.000    0.000 
#
# Total GULP energy -297547.261281 kJ/mol
# GULP energy per Si atom -12397.802553 kJ/mol
# Density = 1.918016 g / cm^3
# Si number density = 19.223912 Si / 1000 Ang^3
#
#
#
# Elastic Constant Matrix: (Units=GPa)
#
#
# Indices 1 2 3 4 5 6 
#
# 1 74.9489 49.5370 48.4624 0.0000 -1.7255 0.0000
# 2 49.5370 115.0267 47.8450 0.0000 -10.8175 0.0000
# 3 48.4624 47.8450 127.1212 0.0000 1.8462 0.0000
# 4 0.0000 0.0000 0.0000 29.2428 0.0000 -4.0148
# 5 -1.7255 -10.8175 1.8462 0.0000 34.9285 0.0000
# 6 0.0000 0.0000 0.0000 -4.0148 0.0000 29.1875
#
#
#
# Elastic Compliance Matrix: (Units=1/GPa)
#
#
# Indices 1 2 3 4 5 6 
#
# 1 0.021585 -0.007061 -0.005559 0.000000 -0.000827 0.000000
# 2 -0.007061 0.013037 -0.002270 0.000000 0.003809 0.000000
# 3 -0.005559 -0.002270 0.010863 0.000000 -0.001552 0.000000
# 4 0.000000 0.000000 0.000000 0.034855 0.000000 0.004794
# 5 -0.000827 0.003809 -0.001552 0.000000 0.029851 0.000000
# 6 0.000000 0.000000 0.000000 0.004794 0.000000 0.034921
#
#
# Mechanical properties :
#
#
# Convention : Reuss Voigt Hill
#
# Bulk Modulus (GPa) = 63.67892 67.64283 65.66087
# Shear Modulus (GPa) = 27.75825 30.08859 28.92342
#
# Velocity S-wave (km/s) = 3.80405 3.96051 3.88307
# Velocity P-wave (km/s) = 7.24508 7.49516 7.37118
#
# Compressibility (1/GPa) = 0.01570378
#
# Stress axis : x y z
#
# Youngs Moduli (GPa) = 46.32842 76.70468 92.05708
#
# Poissons Ratio (x) = 0.54162 0.51177
# Poissons Ratio (y) = 0.32713 0.20899
# Poissons Ratio (z) = 0.25755 0.17413
#
# Static dielectric constant tensor:
#      x y z
#    x 3.651470 0.000000 -0.203570 
#    y 0.000000 3.346250 0.000000 
#    z -0.203570 0.000000 3.598820 
# 
# 
# High freq. dielectric constant tensor:
#      x y z
#    x 1.754410 0.000000 -0.011150 
#    y 0.000000 1.715740 0.000000 
#    z -0.011150 0.000000 1.751830 
# 
# From -- ./inp_files/48366.got.cif
#   From: 2010.06.25/outbox.cif.g09.slc.cpg/sg15_25_cif.got.tgz:48366.got - 2010.06.28 07:06:18.
