data_PCOD8137225
_publ_section_title
;
Structure prediction by ZEFSAII (Michael W. Deem and Ramdas Pophale) SiO2 
 PCOD8137225
Probable space group: C 2/C
;
_chemical_formula_sum "Si O2"
_cell_formula_units_Z 56
_cell_length_a 24.838402
_cell_length_b 12.686252
_cell_length_c 27.375788
_cell_angle_alpha 90.000000
_cell_angle_beta 159.711983
_cell_angle_gamma 90.000000
_cell_volume 2991.072379
_symmetry_space_group_name_H-M "C 2/C"
_symmetry_group_IT_number 15
_symmetry_cell_setting 'monoclinic'
loop_
_space_group_symop_operation_xyz
x,y,z
-x,y,1/2-z
-x,-y,-z
x,-y,1/2+z
1/2+x,1/2+y,z
1/2-x,1/2+y,1/2-z
1/2-x,1/2-y,-z
1/2+x,1/2-y,1/2+z
loop_
_atom_site_type_symbol
_atom_site_label
_atom_site_fract_x
_atom_site_fract_y
_atom_site_fract_z
Si Si1 0.209608 0.820554 0.332191
Si Si2 0.494950 0.922592 0.931084
Si Si3 0.686335 0.364869 0.635908
Si Si4 0.110182 0.351495 0.558214
Si Si5 0.547902 0.660172 0.120925
Si Si6 0.070207 0.047658 0.939323
Si Si7 0.325064 0.179266 0.107144
O O1 0.376279 0.864779 0.492283
O O2 0.237254 0.751363 0.306388
O O3 0.145270 0.752092 0.321092
O O4 0.092519 0.915653 0.221833
O O5 0.334711 0.944210 0.766194
O O6 0.459358 0.842595 0.946304
O O7 0.576411 0.029931 0.014940
O O8 0.580653 0.379402 0.593688
O O9 0.584791 0.392474 0.502878
O O10 0.293020 0.326742 0.714050
O O11 0.035977 0.272671 0.455422
O O12 0.437873 0.577677 0.056596
O O13 0.211294 0.080502 0.023122
O O14 0.500000 0.133830 0.250000
O O15 0.250000 0.250000 0.000000
#
# Coordination Sequence:
#
# PCOD8137225 Si02
#       7
#     8   8   8   8   8   8   8
#     4  11  20  37  57  85 124 152 195 241 297 363
#     4  10  20  36  51  82 115 165 196 237 284 340
#     4  10  21  31  55  80 120 161 198 231 285 349
#     4  10  22  35  54  76 119 161 206 235 277 337
#     4  11  22  36  52  81 117 164 201 242 277 350
#     4  11  23  36  55  86 119 154 196 244 305 355
#     4  11  23  41  62  88 115 147 190 252 317 364
#
# _framework density 18.722382
#
# number of rings (size 3 to 8) (size 9 to 14) (size 15 to 20)
#    0.000    1.429    4.286    2.143    6.000    0.000 
#    0.000    0.000    0.000    0.000    0.000    5.000 
#    0.000    0.000    0.000    0.000    0.000    0.000 
#
# Total GULP energy -346982.320511 kJ/mol
# GULP energy per Si atom -12392.225733 kJ/mol
# Density = 1.867977 g / cm^3
# Si number density = 18.722382 Si / 1000 Ang^3
#
#
#
# Elastic Constant Matrix: (Units=GPa)
#
#
# Indices 1 2 3 4 5 6 
#
# 1 62.0532 26.6874 28.3902 -0.0023 12.9218 0.0001
# 2 26.6874 77.1316 29.6443 0.0177 9.4597 -0.0015
# 3 28.3902 29.6443 95.7651 0.0174 13.0930 -0.0035
# 4 -0.0023 0.0177 0.0174 31.9718 0.0039 4.3100
# 5 12.9218 9.4597 13.0930 0.0039 27.5796 -0.0018
# 6 0.0001 -0.0015 -0.0035 4.3100 -0.0018 29.0204
#
#
#
# Elastic Compliance Matrix: (Units=1/GPa)
#
#
# Indices 1 2 3 4 5 6 
#
# 1 0.021443 -0.005136 -0.003887 0.000008 -0.006440 -0.000002
# 2 -0.005136 0.016195 -0.003273 -0.000008 -0.001595 0.000001
# 3 -0.003887 -0.003273 0.013052 -0.000005 -0.003253 0.000002
# 4 0.000008 -0.000008 -0.000005 0.031917 -0.000003 -0.004740
# 5 -0.006440 -0.001595 -0.003253 -0.000003 0.041367 0.000003
# 6 -0.000002 0.000001 0.000002 -0.004740 0.000003 0.035163
#
#
# Mechanical properties :
#
#
# Convention : Reuss Voigt Hill
#
# Bulk Modulus (GPa) = 38.31346 44.93264 41.62305
# Shear Modulus (GPa) = 25.98378 27.72952 26.85665
#
# Velocity S-wave (km/s) = 3.72942 3.85267 3.79155
# Velocity P-wave (km/s) = 6.24926 6.62135 6.43799
#
# Compressibility (1/GPa) = 0.02610049
#
# Stress axis : x y z
#
# Youngs Moduli (GPa) = 46.63476 61.74654 76.61504
#
# Poissons Ratio (x) = 0.31711 0.29778
# Poissons Ratio (y) = 0.23950 0.25074
# Poissons Ratio (z) = 0.18126 0.20208
#
# Static dielectric constant tensor:
#      x y z
#    x 3.273780 -0.000020 0.084820 
#    y -0.000020 3.288340 -0.000050 
#    z 0.084820 -0.000050 3.589840 
# 
# 
# High freq. dielectric constant tensor:
#      x y z
#    x 1.687180 0.000000 0.003890 
#    y 0.000000 1.706480 0.000000 
#    z 0.003890 0.000000 1.750980 
# 
# From -- ./inp_files/319512.got.cif
#   From: 2010.06.25/outbox.cif.g09.slc.cpg/sg15_160_cif.got.tgz:319512.got - 2010.06.28 07:06:18.
