data_PCOD8137401
_publ_section_title
;
Structure prediction by ZEFSAII (Michael W. Deem and Ramdas Pophale) SiO2 
 PCOD8137401
Probable space group: C 2/C
;
_chemical_formula_sum "Si O2"
_cell_formula_units_Z 60
_cell_length_a 22.022194
_cell_length_b 8.843797
_cell_length_c 21.462437
_cell_angle_alpha 90.000000
_cell_angle_beta 49.836149
_cell_angle_gamma 90.000000
_cell_volume 3194.384445
_symmetry_space_group_name_H-M "C 2/C"
_symmetry_group_IT_number 15
_symmetry_cell_setting 'monoclinic'
loop_
_space_group_symop_operation_xyz
x,y,z
-x,y,1/2-z
-x,-y,-z
x,-y,1/2+z
1/2+x,1/2+y,z
1/2-x,1/2+y,1/2-z
1/2-x,1/2-y,-z
1/2+x,1/2-y,1/2+z
loop_
_atom_site_type_symbol
_atom_site_label
_atom_site_fract_x
_atom_site_fract_y
_atom_site_fract_z
Si Si1 0.222747 0.076823 0.827459
Si Si2 0.425417 0.417211 0.520990
Si Si3 0.735332 0.923923 0.824596
Si Si4 0.538528 0.421744 0.145936
Si Si5 0.424796 0.913275 0.077093
Si Si6 0.899578 0.416713 0.239792
Si Si7 0.000000 0.349125 0.750000
Si Si8 0.107752 0.914541 0.710116
O O1 0.210261 0.254162 0.824525
O O2 0.306361 0.047324 0.805548
O O3 0.153747 0.012911 0.916242
O O4 0.218985 0.993888 0.764091
O O5 0.500000 0.500000 0.500000
O O6 0.433276 0.404186 0.442320
O O7 0.421347 0.256367 0.556041
O O8 0.798512 0.934728 0.839008
O O9 0.655519 0.011030 0.895584
O O10 0.549242 0.257054 0.170098
O O11 0.446208 0.474598 0.211137
O O12 0.591857 0.544897 0.148194
O O13 0.428939 0.915930 0.149002
O O14 0.500000 0.000000 0.000000
O O15 0.940395 0.549423 0.250303
O O16 0.919236 0.256817 0.258486
#
# Coordination Sequence:
#
# PCOD8137401 Si02
#       8
#     8   8   8   8   8   8   4   8
#     4  10  21  36  58  85 112 147 190 233 281 337
#     4  12  23  38  58  84 117 149 184 235 288 332
#     4  10  20  37  59  83 112 149 189 232 281 337
#     4  10  22  36  56  84 112 146 188 230 278 332
#     4  11  23  37  57  87 117 146 188 237 285 336
#     4  10  20  37  59  82 109 148 190 229 277 337
#     4  10  20  36  58  82 112 146 186 234 276 328
#     4   9  19  38  59  79 108 150 191 225 275 341
#
# _framework density 18.782961
#
# number of rings (size 3 to 8) (size 9 to 14) (size 15 to 20)
#    0.000    1.867    0.000    6.400    0.000    7.467 
#    0.000    8.000    0.000    0.000    0.000    0.000 
#    0.000    0.000    0.000    0.000    0.000    0.000 
#
# Total GULP energy -372020.569501 kJ/mol
# GULP energy per Si atom -12400.685650 kJ/mol
# Density = 1.874021 g / cm^3
# Si number density = 18.782961 Si / 1000 Ang^3
#
#
#
# Elastic Constant Matrix: (Units=GPa)
#
#
# Indices 1 2 3 4 5 6 
#
# 1 117.8323 75.7288 67.4838 0.0004 1.3503 0.0001
# 2 75.7288 156.0472 62.1872 0.0008 1.5365 -0.0001
# 3 67.4838 62.1872 131.5163 0.0004 1.1454 -0.0002
# 4 0.0004 0.0008 0.0004 30.3634 -0.0004 -1.7673
# 5 1.3503 1.5365 1.1454 -0.0004 25.4450 0.0001
# 6 0.0001 -0.0001 -0.0002 -1.7673 0.0001 34.8572
#
#
#
# Elastic Compliance Matrix: (Units=1/GPa)
#
#
# Indices 1 2 3 4 5 6 
#
# 1 0.014698 -0.005084 -0.005136 0.000000 -0.000242 0.000000
# 2 -0.005084 0.009657 -0.001956 0.000000 -0.000225 0.000000
# 3 -0.005136 -0.001956 0.011165 0.000000 -0.000112 0.000000
# 4 0.000000 0.000000 0.000000 0.033032 0.000001 0.001675
# 5 -0.000242 -0.000225 -0.000112 0.000001 0.039332 0.000000
# 6 0.000000 0.000000 0.000000 0.001675 0.000000 0.028773
#
#
# Mechanical properties :
#
#
# Convention : Reuss Voigt Hill
#
# Bulk Modulus (GPa) = 89.53417 90.68839 90.11128
# Shear Modulus (GPa) = 30.35251 31.46617 30.90934
#
# Velocity S-wave (km/s) = 4.02426 4.09742 4.06101
# Velocity P-wave (km/s) = 8.32851 8.41262 8.37067
#
# Compressibility (1/GPa) = 0.01116892
#
# Stress axis : x y z
#
# Youngs Moduli (GPa) = 68.03627 103.55120 89.56774
#
# Poissons Ratio (x) = 0.52643 0.46001
# Poissons Ratio (y) = 0.34588 0.17517
# Poissons Ratio (z) = 0.34943 0.20252
#
# Static dielectric constant tensor:
#      x y z
#    x 3.503920 0.000000 -0.040120 
#    y 0.000000 3.130490 0.000000 
#    z -0.040120 0.000000 3.452080 
# 
# 
# High freq. dielectric constant tensor:
#      x y z
#    x 1.737560 0.000000 -0.004540 
#    y 0.000000 1.750040 0.000000 
#    z -0.004540 0.000000 1.717110 
# 
# From -- ./inp_files/252098.got.cif
#   From: 2010.06.25/outbox.cif.g09.slc.cpg/sg15_127_cif.got.tgz:252098.got - 2010.06.28 07:06:18.
