data_PCOD8137901
_publ_section_title
;
Structure prediction by ZEFSAII (Michael W. Deem and Ramdas Pophale) SiO2 
 PCOD8137901
Probable space group: C 2/C
;
_chemical_formula_sum "Si O2"
_cell_formula_units_Z 56
_cell_length_a 29.341783
_cell_length_b 12.269462
_cell_length_c 14.452562
_cell_angle_alpha 90.000000
_cell_angle_beta 29.840382
_cell_angle_gamma 90.000000
_cell_volume 2588.955131
_symmetry_space_group_name_H-M "C 2/C"
_symmetry_group_IT_number 15
_symmetry_cell_setting 'monoclinic'
loop_
_space_group_symop_operation_xyz
x,y,z
-x,y,1/2-z
-x,-y,-z
x,-y,1/2+z
1/2+x,1/2+y,z
1/2-x,1/2+y,1/2-z
1/2-x,1/2-y,-z
1/2+x,1/2-y,1/2+z
loop_
_atom_site_type_symbol
_atom_site_label
_atom_site_fract_x
_atom_site_fract_y
_atom_site_fract_z
Si Si1 0.117597 0.631624 0.157175
Si Si2 0.597659 0.353681 0.708124
Si Si3 0.073764 0.787281 0.398582
Si Si4 0.648312 0.801783 0.952981
Si Si5 0.797952 0.954165 0.416518
Si Si6 0.000000 0.521378 0.750000
Si Si7 0.500000 0.482107 0.250000
Si Si8 0.169789 0.838732 0.955019
O O1 0.090814 0.686622 0.300717
O O2 0.035303 0.553078 0.272010
O O3 0.208768 0.559529 0.010540
O O4 0.136566 0.718797 0.043029
O O5 0.633699 0.266103 0.571881
O O6 0.682818 0.416623 0.605214
O O7 0.531721 0.444212 0.778851
O O8 0.535819 0.294761 0.894385
O O9 0.124051 0.772049 0.407778
O O10 0.113413 0.897598 0.285028
O O11 0.755218 0.833994 0.758914
O O12 0.583485 0.906956 0.064869
O O13 0.780898 0.897873 0.545682
O O14 0.416567 0.406158 0.431514
#
# Coordination Sequence:
#
# PCOD8137901 Si02
#       8
#     8   8   8   8   8   4   4   8
#     4  11  23  44  64  92 129 178 228 264 326 396
#     4  11  22  39  68 101 131 169 219 272 327 390
#     4  11  19  42  70  93 133 174 213 272 331 389
#     4  12  22  43  66  94 138 175 209 268 340 384
#     4  10  21  39  69  96 124 171 224 269 328 388
#     4  12  28  42  64  96 132 180 224 266 334 400
#     4  10  20  36  66 100 128 160 228 264 314 392
#     4  10  21  40  65  96 132 172 211 274 321 385
#
# _framework density 21.630348000000001
#
# number of rings (size 3 to 8) (size 9 to 14) (size 15 to 20)
#    0.000    1.143    5.714    1.714    0.000    4.000 
#    0.000    2.143    6.286    0.000    0.000    0.000 
#    0.000    0.000    0.000    0.000    0.000    0.000 
#
# Total GULP energy -347304.843704 kJ/mol
# GULP energy per Si atom -12403.744418 kJ/mol
# Density = 2.158112 g / cm^3
# Si number density = 21.630348 Si / 1000 Ang^3
#
#
#
# Elastic Constant Matrix: (Units=GPa)
#
#
# Indices 1 2 3 4 5 6 
#
# 1 39.6906 16.0401 29.9666 0.0000 -8.3373 0.0000
# 2 16.0401 72.6277 61.2024 0.0000 -13.5139 0.0000
# 3 29.9666 61.2024 170.4489 0.0000 1.7644 0.0000
# 4 0.0000 0.0000 0.0000 26.6252 0.0000 -8.2311
# 5 -8.3373 -13.5139 1.7644 0.0000 32.5379 0.0000
# 6 0.0000 0.0000 0.0000 -8.2311 0.0000 30.7979
#
#
#
# Elastic Compliance Matrix: (Units=1/GPa)
#
#
# Indices 1 2 3 4 5 6 
#
# 1 0.031181 -0.001064 -0.005181 0.000000 0.007829 0.000000
# 2 -0.001064 0.022510 -0.007994 0.000000 0.009510 0.000000
# 3 -0.005181 -0.007994 0.009702 0.000000 -0.005174 0.000000
# 4 0.000000 0.000000 0.000000 0.040941 0.000000 0.010942
# 5 0.007829 0.009510 -0.005174 0.000000 0.036970 0.000000
# 6 0.000000 0.000000 0.000000 0.010942 0.000000 0.035394
#
#
# Mechanical properties :
#
#
# Convention : Reuss Voigt Hill
#
# Bulk Modulus (GPa) = 28.64105 55.24282 41.94193
# Shear Modulus (GPa) = 23.06140 29.69607 26.37874
#
# Velocity S-wave (km/s) = 3.26875 3.70927 3.49596
# Velocity P-wave (km/s) = 5.24559 6.62872 5.97729
#
# Compressibility (1/GPa) = 0.03491492
#
# Stress axis : x y z
#
# Youngs Moduli (GPa) = 32.07088 44.42558 103.07583
#
# Poissons Ratio (x) = 0.04726 0.53404
# Poissons Ratio (y) = 0.03412 0.82397
# Poissons Ratio (z) = 0.16616 0.35513
#
# Static dielectric constant tensor:
#      x y z
#    x 3.769990 0.000000 -0.083690 
#    y 0.000000 3.967020 0.000000 
#    z -0.083690 0.000000 3.995560 
# 
# 
# High freq. dielectric constant tensor:
#      x y z
#    x 1.833940 0.000000 -0.002460 
#    y 0.000000 1.848740 0.000000 
#    z -0.002460 0.000000 1.854080 
# 
# From -- ./inp_files/181944.got.cif
#   From: 2010.06.25/outbox.cif.g09.slc.cpg/sg15_91_cif.got.tgz:181944.got - 2010.06.28 07:06:18.
