data_PCOD8137145
_publ_section_title
;
Structure prediction by ZEFSAII (Michael W. Deem and Ramdas Pophale) SiO2 
 PCOD8137145
Probable space group: C 2/C
;
_chemical_formula_sum "Si O2"
_cell_formula_units_Z 48
_cell_length_a 12.102244
_cell_length_b 17.024341
_cell_length_c 12.666980
_cell_angle_alpha 90.000000
_cell_angle_beta 62.193494
_cell_angle_gamma 90.000000
_cell_volume 2308.452219
_symmetry_space_group_name_H-M "C 2/C"
_symmetry_group_IT_number 15
_symmetry_cell_setting 'monoclinic'
loop_
_space_group_symop_operation_xyz
x,y,z
-x,y,1/2-z
-x,-y,-z
x,-y,1/2+z
1/2+x,1/2+y,z
1/2-x,1/2+y,1/2-z
1/2-x,1/2-y,-z
1/2+x,1/2-y,1/2+z
loop_
_atom_site_type_symbol
_atom_site_label
_atom_site_fract_x
_atom_site_fract_y
_atom_site_fract_z
Si Si1 0.879146 0.119414 0.733816
Si Si2 0.118173 0.689554 0.626297
Si Si3 0.909914 0.433734 0.647752
Si Si4 0.337858 0.772955 0.621475
Si Si5 0.682812 0.056020 0.970914
Si Si6 0.757955 0.468682 0.369502
O O1 0.892130 0.202183 0.668500
O O2 0.754584 0.117835 0.863605
O O3 0.857992 0.048897 0.657980
O O4 0.000000 0.101395 0.750000
O O5 0.196652 0.759399 0.645436
O O6 0.080604 0.712156 0.522473
O O7 0.201981 0.611871 0.592862
O O8 0.000000 0.673864 0.750000
O O9 0.837499 0.351026 0.693046
O O10 0.863135 0.475716 0.562802
O O11 0.877176 0.492343 0.757582
O O12 0.056110 0.408375 0.577285
O O13 0.779231 0.029690 0.021102
#
# Coordination Sequence:
#
# PCOD8137145 Si02
#       6
#     8   8   8   8   8   8
#     4  10  24  42  57  85 129 165 199 245 305 368
#     4  10  20  38  66  91 122 161 205 249 297 358
#     4  10  20  35  62 100 119 144 203 262 302 350
#     4  10  22  38  60  91 128 157 198 250 299 368
#     4  10  20  37  65  89 118 160 200 252 307 346
#     4  10  20  38  67  92 116 157 209 256 301 356
#
# _framework density 20.793153
#
# number of rings (size 3 to 8) (size 9 to 14) (size 15 to 20)
#    0.000    2.000    1.667    1.500    7.000    2.000 
#    3.000    5.000    0.000    0.000    0.000    0.000 
#    0.000    0.000    0.000    0.000    0.000    0.000 
#
# Total GULP energy -297378.774729 kJ/mol
# GULP energy per Si atom -12390.782280 kJ/mol
# Density = 2.074583 g / cm^3
# Si number density = 20.793153 Si / 1000 Ang^3
#
#
#
# Elastic Constant Matrix: (Units=GPa)
#
#
# Indices 1 2 3 4 5 6 
#
# 1 90.4573 33.1138 32.6999 0.0000 19.3209 0.0000
# 2 33.1138 97.8134 31.6954 0.0000 10.0454 0.0000
# 3 32.6999 31.6954 71.7190 0.0000 20.7427 0.0000
# 4 0.0000 0.0000 0.0000 33.8105 0.0000 6.3574
# 5 19.3209 10.0454 20.7427 0.0000 28.5435 0.0000
# 6 0.0000 0.0000 0.0000 6.3574 0.0000 20.9584
#
#
#
# Elastic Compliance Matrix: (Units=1/GPa)
#
#
# Indices 1 2 3 4 5 6 
#
# 1 0.014871 -0.003245 -0.003501 0.000000 -0.006380 0.000000
# 2 -0.003245 0.012645 -0.004377 0.000000 0.000927 0.000000
# 3 -0.003501 -0.004377 0.020692 0.000000 -0.011127 0.000000
# 4 0.000000 0.000000 0.000000 0.031366 0.000000 -0.009514
# 5 -0.006380 0.000927 -0.011127 0.000000 0.047112 0.000000
# 6 0.000000 0.000000 0.000000 -0.009514 0.000000 0.050600
#
#
# Mechanical properties :
#
#
# Convention : Reuss Voigt Hill
#
# Bulk Modulus (GPa) = 38.51726 50.55644 44.53685
# Shear Modulus (GPa) = 24.01696 27.49450 25.75573
#
# Velocity S-wave (km/s) = 3.40228 3.64027 3.52328
# Velocity P-wave (km/s) = 5.83080 6.48348 6.16578
#
# Compressibility (1/GPa) = 0.02596239
#
# Stress axis : x y z
#
# Youngs Moduli (GPa) = 67.24447 79.08155 48.32752
#
# Poissons Ratio (x) = 0.25660 0.16921
# Poissons Ratio (y) = 0.21819 0.21153
# Poissons Ratio (z) = 0.23544 0.34615
#
# Static dielectric constant tensor:
#      x y z
#    x 3.654540 0.000000 0.319440 
#    y 0.000000 3.631250 0.000000 
#    z 0.319440 0.000000 3.873160 
# 
# 
# High freq. dielectric constant tensor:
#      x y z
#    x 1.795280 0.000000 0.028670 
#    y 0.000000 1.801600 0.000000 
#    z 0.028670 0.000000 1.815410 
# 
# From -- ./inp_files/87761.got.cif
#   From: 2010.06.25/outbox.cif.g09.slc.cpg/sg15_44_cif.got.tgz:87761.got - 2010.06.28 07:06:18.
