data_PCOD8137902
_publ_section_title
;
Structure prediction by ZEFSAII (Michael W. Deem and Ramdas Pophale) SiO2 
 PCOD8137902
Probable space group: C 2/C
;
_chemical_formula_sum "Si O2"
_cell_formula_units_Z 60
_cell_length_a 11.620504
_cell_length_b 15.604448
_cell_length_c 18.474946
_cell_angle_alpha 90.000000
_cell_angle_beta 61.549479
_cell_angle_gamma 90.000000
_cell_volume 2945.496292
_symmetry_space_group_name_H-M "C 2/C"
_symmetry_group_IT_number 15
_symmetry_cell_setting 'monoclinic'
loop_
_space_group_symop_operation_xyz
x,y,z
-x,y,1/2-z
-x,-y,-z
x,-y,1/2+z
1/2+x,1/2+y,z
1/2-x,1/2+y,1/2-z
1/2-x,1/2-y,-z
1/2+x,1/2-y,1/2+z
loop_
_atom_site_type_symbol
_atom_site_label
_atom_site_fract_x
_atom_site_fract_y
_atom_site_fract_z
Si Si1 0.048235 0.357313 0.654958
Si Si2 0.408226 0.975005 0.592657
Si Si3 0.621167 0.710372 0.862817
Si Si4 0.785059 0.945460 0.245153
Si Si5 0.302629 0.547893 0.101540
Si Si6 0.790128 0.161731 0.393933
Si Si7 0.000000 0.054796 0.250000
Si Si8 0.917328 0.894106 0.990446
O O1 0.205262 0.374430 0.606428
O O2 0.000000 0.346396 0.750000
O O3 0.988810 0.441623 0.636840
O O4 0.994904 0.273444 0.628540
O O5 0.330246 0.901078 0.576838
O O6 0.500000 0.000000 0.500000
O O7 0.315496 0.048431 0.656375
O O8 0.683339 0.654835 0.778487
O O9 0.746748 0.752546 0.865433
O O10 0.554262 0.646910 0.939901
O O11 0.734026 0.994473 0.187875
O O12 0.919177 0.992656 0.222904
O O13 0.335567 0.482902 0.025205
O O14 0.439798 0.589092 0.086924
O O15 0.914067 0.119014 0.321200
O O16 0.832399 0.171337 0.465761
#
# Coordination Sequence:
#
# PCOD8137902 Si02
#       8
#     8   8   8   8   8   8   4   8
#     4  11  22  40  61  88 132 171 196 254 322 378
#     4  10  21  39  66  94 120 161 216 259 311 370
#     4  10  24  38  59  96 129 161 201 256 321 364
#     4  10  20  40  62  94 119 161 209 258 299 376
#     4  10  20  37  64  90 119 166 215 250 304 373
#     4  10  20  39  62  89 124 162 200 263 311 366
#     4  10  20  36  66  84 112 164 216 238 302 370
#     4  10  20  38  64  90 123 161 215 259 302 367
#
# _framework density 20.370082
#
# number of rings (size 3 to 8) (size 9 to 14) (size 15 to 20)
#    0.000    1.867    2.667    1.200    0.933    0.533 
#    0.000    9.333    0.000    0.000    0.000    0.000 
#    0.000    0.000    0.000    0.000    0.000    0.000 
#
# Total GULP energy -371700.232599 kJ/mol
# GULP energy per Si atom -12390.007753 kJ/mol
# Density = 2.032372 g / cm^3
# Si number density = 20.370082 Si / 1000 Ang^3
#
#
#
# Elastic Constant Matrix: (Units=GPa)
#
#
# Indices 1 2 3 4 5 6 
#
# 1 89.9097 29.5992 43.6307 0.0000 -3.2991 0.0000
# 2 29.5992 87.4523 47.9042 0.0000 -6.4749 0.0000
# 3 43.6307 47.9042 98.6646 0.0000 -10.2516 0.0000
# 4 0.0000 0.0000 0.0000 55.1228 0.0000 -10.9378
# 5 -3.2991 -6.4749 -10.2516 0.0000 32.1955 0.0000
# 6 0.0000 0.0000 0.0000 -10.9378 0.0000 0.3642
#
#
#
# Elastic Compliance Matrix: (Units=1/GPa)
#
#
# Indices 1 2 3 4 5 6 
#
# 1 0.014400 -0.001903 -0.005512 0.000000 -0.000663 0.000000
# 2 -0.001903 0.015847 -0.006765 0.000000 0.000838 0.000000
# 3 -0.005512 -0.006765 0.016194 0.000000 0.003231 0.000000
# 4 0.000000 0.000000 0.000000 -0.003658 0.000000 -0.109861
# 5 -0.000663 0.000838 0.003231 0.000000 0.032190 0.000000
# 6 0.000000 0.000000 0.000000 -0.109861 0.000000 -0.553663
#
#
# Mechanical properties :
#
#
# Convention : Reuss Voigt Hill
#
# Bulk Modulus (GPa) = 55.31627 57.58833 56.45230
# Shear Modulus (GPa) = -11.25358 27.86266 8.30454
#
# Velocity S-wave (km/s) = -2.35299 3.70242 2.02131
# Velocity P-wave (km/s) = 4.45337 6.82712 5.76377
#
# Compressibility (1/GPa) = 0.01807786
#
# Stress axis : x y z
#
# Youngs Moduli (GPa) = 69.44661 63.10377 61.75305
#
# Poissons Ratio (x) = 0.12010 0.34041
# Poissons Ratio (y) = 0.13217 0.41779
# Poissons Ratio (z) = 0.38282 0.42693
#
# Static dielectric constant tensor:
#      x y z
#    x 3.885780 0.000000 0.092520 
#    y 0.000000 3.697660 0.000000 
#    z 0.092520 0.000000 3.603350 
# 
# 
# High freq. dielectric constant tensor:
#      x y z
#    x 1.802640 0.000000 0.009000 
#    y 0.000000 1.777770 0.000000 
#    z 0.009000 0.000000 1.797300 
# 
# From -- ./inp_files/238706.got.cif
#   From: 2010.06.25/outbox.cif.g09.slc.cpg/sg15_120_cif.got.tgz:238706.got - 2010.06.28 07:06:18.
