data_PCOD8137490
_publ_section_title
;
Structure prediction by ZEFSAII (Michael W. Deem and Ramdas Pophale) SiO2 
 PCOD8137490
Probable space group: C 2/C
;
_chemical_formula_sum "Si O2"
_cell_formula_units_Z 56
_cell_length_a 20.851563
_cell_length_b 20.212194
_cell_length_c 8.912319
_cell_angle_alpha 90.000000
_cell_angle_beta 50.959638
_cell_angle_gamma 90.000000
_cell_volume 2917.410000
_symmetry_space_group_name_H-M "C 2/C"
_symmetry_group_IT_number 15
_symmetry_cell_setting 'monoclinic'
loop_
_space_group_symop_operation_xyz
x,y,z
-x,y,1/2-z
-x,-y,-z
x,-y,1/2+z
1/2+x,1/2+y,z
1/2-x,1/2+y,1/2-z
1/2-x,1/2-y,-z
1/2+x,1/2-y,1/2+z
loop_
_atom_site_type_symbol
_atom_site_label
_atom_site_fract_x
_atom_site_fract_y
_atom_site_fract_z
Si Si1 0.433341 0.048725 0.227207
Si Si2 0.558835 0.345276 0.431696
Si Si3 0.155281 0.551996 0.854654
Si Si4 0.500000 0.247154 0.750000
Si Si5 0.157700 0.038813 0.906406
Si Si6 0.500000 0.730850 0.750000
Si Si7 0.930533 0.949979 0.657057
Si Si8 0.453036 0.165298 0.547327
O O1 0.500000 0.020474 0.250000
O O2 0.351948 0.054925 0.452826
O O3 0.409740 0.999820 0.125938
O O4 0.467218 0.118319 0.109493
O O5 0.564244 0.291031 0.557040
O O6 0.633687 0.397914 0.336947
O O7 0.562388 0.312689 0.261070
O O8 0.466196 0.376784 0.580400
O O9 0.249412 0.539870 0.669963
O O10 0.130799 0.623590 0.829113
O O11 0.452291 0.197965 0.710703
O O12 0.091757 0.040577 0.137108
O O13 0.148447 0.969485 0.829128
O O14 0.555630 0.776638 0.561530
O O15 0.000000 0.000000 0.500000
#
# Coordination Sequence:
#
# PCOD8137490 Si02
#       8
#     8   8   8   4   8   4   8   8
#     4  10  20  37  58  85 112 147 190 233 273 343
#     4  10  20  37  60  81 109 143 200 226 274 327
#     4  11  22  36  57  87 120 142 180 235 297 333
#     4  10  20  36  62  80 104 154 196 234 258 322
#     4  11  22  37  56  88 119 145 176 241 293 336
#     4  10  20  36  62  80 102 152 200 236 254 326
#     4  10  20  36  59  84 110 148 190 229 278 336
#     4  10  20  37  60  82 110 143 201 225 274 331
#
# _framework density 19.195108000000001
#
# number of rings (size 3 to 8) (size 9 to 14) (size 15 to 20)
#    0.000    1.714    3.571    3.857    7.000    0.000 
#    0.000    1.429    0.000    0.000    0.000    0.000 
#    0.000    0.000    0.000    0.000    0.000    0.000 
#
# Total GULP energy -346909.407526 kJ/mol
# GULP energy per Si atom -12389.621697 kJ/mol
# Density = 1.915142 g / cm^3
# Si number density = 19.195108 Si / 1000 Ang^3
#
#
#
# Elastic Constant Matrix: (Units=GPa)
#
#
# Indices 1 2 3 4 5 6 
#
# 1 97.9694 53.0233 35.8321 0.0000 6.5826 0.0000
# 2 53.0233 94.6393 34.9107 0.0000 15.1206 0.0000
# 3 35.8321 34.9107 75.4110 0.0000 17.4385 0.0000
# 4 0.0000 0.0000 0.0000 22.8162 0.0000 9.6746
# 5 6.5826 15.1206 17.4385 0.0000 36.8350 0.0000
# 6 0.0000 0.0000 0.0000 9.6746 0.0000 28.7849
#
#
#
# Elastic Compliance Matrix: (Units=1/GPa)
#
#
# Indices 1 2 3 4 5 6 
#
# 1 0.015808 -0.007559 -0.004577 0.000000 0.002445 0.000000
# 2 -0.007559 0.016608 -0.003181 0.000000 -0.003961 0.000000
# 3 -0.004577 -0.003181 0.018435 0.000000 -0.006604 0.000000
# 4 0.000000 0.000000 0.000000 0.051113 0.000000 -0.017179
# 5 0.002445 -0.003961 -0.006604 0.000000 0.031464 0.000000
# 6 0.000000 0.000000 0.000000 -0.017179 0.000000 0.040514
#
#
# Mechanical properties :
#
#
# Convention : Reuss Voigt Hill
#
# Bulk Modulus (GPa) = 49.46357 57.28353 53.37355
# Shear Modulus (GPa) = 23.66137 27.30413 25.48275
#
# Velocity S-wave (km/s) = 3.51476 3.77563 3.64753
# Velocity P-wave (km/s) = 6.50355 6.99391 6.75318
#
# Compressibility (1/GPa) = 0.02021690
#
# Stress axis : x y z
#
# Youngs Moduli (GPa) = 63.25805 60.21357 54.24379
#
# Poissons Ratio (x) = 0.45515 0.24830
# Poissons Ratio (y) = 0.47816 0.17253
# Poissons Ratio (z) = 0.28956 0.19152
#
# Static dielectric constant tensor:
#      x y z
#    x 3.591960 0.000000 0.311750 
#    y 0.000000 3.772440 0.000000 
#    z 0.311750 0.000000 3.547350 
# 
# 
# High freq. dielectric constant tensor:
#      x y z
#    x 1.725810 0.000000 0.032220 
#    y 0.000000 1.747520 0.000000 
#    z 0.032220 0.000000 1.745280 
# 
# From -- ./inp_files/50162.got.cif
#   From: 2010.06.25/outbox.cif.g09.slc.cpg/sg15_26_cif.got.tgz:50162.got - 2010.06.28 07:06:18.
