data_PCOD8137915
_publ_section_title
;
Structure prediction by ZEFSAII (Michael W. Deem and Ramdas Pophale) SiO2 
 PCOD8137915
Probable space group: C 2/C
;
_chemical_formula_sum "Si O2"
_cell_formula_units_Z 56
_cell_length_a 16.907015
_cell_length_b 6.202253
_cell_length_c 27.187141
_cell_angle_alpha 90.000000
_cell_angle_beta 60.334922
_cell_angle_gamma 90.000000
_cell_volume 2477.230479
_symmetry_space_group_name_H-M "C 2/C"
_symmetry_group_IT_number 15
_symmetry_cell_setting 'monoclinic'
loop_
_space_group_symop_operation_xyz
x,y,z
-x,y,1/2-z
-x,-y,-z
x,-y,1/2+z
1/2+x,1/2+y,z
1/2-x,1/2+y,1/2-z
1/2-x,1/2-y,-z
1/2+x,1/2-y,1/2+z
loop_
_atom_site_type_symbol
_atom_site_label
_atom_site_fract_x
_atom_site_fract_y
_atom_site_fract_z
Si Si1 0.776046 0.775742 0.880840
Si Si2 0.676759 0.607561 0.460877
Si Si3 0.140726 0.373270 0.239807
Si Si4 0.641224 0.872694 0.383763
Si Si5 0.857596 0.875774 0.420555
Si Si6 0.538001 0.140890 0.342858
Si Si7 0.329936 0.477271 0.702434
O O1 0.704203 0.626002 0.931496
O O2 0.839457 0.631403 0.824582
O O3 0.718434 0.946623 0.867301
O O4 0.845161 0.895307 0.896824
O O5 0.767783 0.737781 0.443247
O O6 0.621061 0.574854 0.528652
O O7 0.614657 0.754065 0.443424
O O8 0.059618 0.532762 0.282436
O O9 0.228885 0.438671 0.245606
O O10 0.121459 0.129965 0.264865
O O11 0.552441 0.967273 0.382822
O O12 0.685194 0.684665 0.338036
O O13 0.936710 0.732039 0.372332
O O14 0.606704 0.330795 0.334772
#
# Coordination Sequence:
#
# PCOD8137915 Si02
#       7
#     8   8   8   8   8   8   8
#     4  11  21  40  66  89 121 171 218 257 322 399
#     4  10  21  44  68  86 119 175 220 265 326 392
#     4  11  20  34  64  88 120 164 207 259 318 391
#     4  10  20  36  66  95 118 161 214 264 320 385
#     4  10  25  42  62  91 129 168 216 270 324 386
#     4  11  23  38  60  96 131 160 209 275 325 387
#     4  11  19  36  61  92 120 158 207 260 318 377
#
# _framework density 22.605889999999999
#
# number of rings (size 3 to 8) (size 9 to 14) (size 15 to 20)
#    0.000    1.429    4.286    1.286    0.000    2.857 
#    0.000    7.143    0.000    0.000    0.000    0.000 
#    0.000    0.000    0.000    0.000    0.000    0.000 
#
# Total GULP energy -347088.847426 kJ/mol
# GULP energy per Si atom -12396.030265 kJ/mol
# Density = 2.255444 g / cm^3
# Si number density = 22.605890 Si / 1000 Ang^3
#
#
#
# Elastic Constant Matrix: (Units=GPa)
#
#
# Indices 1 2 3 4 5 6 
#
# 1 27.3933 17.3141 13.9531 0.0008 -2.2365 0.0005
# 2 17.3141 103.9572 40.9950 0.0020 7.7703 0.0055
# 3 13.9531 40.9950 111.7296 -0.0028 8.0271 -0.0050
# 4 0.0008 0.0020 -0.0028 30.0413 -0.0030 7.9981
# 5 -2.2365 7.7703 8.0271 -0.0030 24.7591 -0.0049
# 6 0.0005 0.0055 -0.0050 7.9981 -0.0049 29.8315
#
#
#
# Elastic Compliance Matrix: (Units=1/GPa)
#
#
# Indices 1 2 3 4 5 6 
#
# 1 0.042841 -0.006255 -0.003557 -0.000001 0.006986 0.000001
# 2 -0.006255 0.012283 -0.003489 0.000000 -0.003288 -0.000003
# 3 -0.003557 -0.003489 0.010872 0.000001 -0.002751 0.000002
# 4 -0.000001 0.000000 0.000001 0.035846 0.000002 -0.009611
# 5 0.006986 -0.003288 -0.002751 0.000002 0.042944 0.000007
# 6 0.000001 -0.000003 0.000002 -0.009611 0.000007 0.036098
#
#
# Mechanical properties :
#
#
# Convention : Reuss Voigt Hill
#
# Bulk Modulus (GPa) = 25.38472 43.06719 34.22595
# Shear Modulus (GPa) = 22.66361 28.31424 25.48893
#
# Velocity S-wave (km/s) = 3.16975 3.54293 3.36152
# Velocity P-wave (km/s) = 4.96488 5.98574 5.49905
#
# Compressibility (1/GPa) = 0.03939378
#
# Stress axis : x y z
#
# Youngs Moduli (GPa) = 23.34230 81.41415 91.97639
#
# Poissons Ratio (x) = 0.50921 0.32717
# Poissons Ratio (y) = 0.14600 0.32094
# Poissons Ratio (z) = 0.08303 0.28409
#
# Static dielectric constant tensor:
#      x y z
#    x 3.808740 -0.000010 0.339350 
#    y -0.000010 4.389090 -0.000020 
#    z 0.339350 -0.000020 4.187730 
# 
# 
# High freq. dielectric constant tensor:
#      x y z
#    x 1.856970 0.000000 0.022690 
#    y 0.000000 1.910360 0.000000 
#    z 0.022690 0.000000 1.885910 
# 
# From -- ./inp_files/315012.got.cif
#   From: 2010.06.25/outbox.cif.g09.slc.cpg/sg15_158_cif.got.tgz:315012.got - 2010.06.28 07:06:18.
