data_PCOD8137173
_publ_section_title
;
Structure prediction by ZEFSAII (Michael W. Deem and Ramdas Pophale) SiO2 
 PCOD8137173
Probable space group: C 2/C
;
_chemical_formula_sum "Si O2"
_cell_formula_units_Z 56
_cell_length_a 9.190470
_cell_length_b 23.039811
_cell_length_c 13.499968
_cell_angle_alpha 90.000000
_cell_angle_beta 76.307800
_cell_angle_gamma 90.000000
_cell_volume 2777.336771
_symmetry_space_group_name_H-M "C 2/C"
_symmetry_group_IT_number 15
_symmetry_cell_setting 'monoclinic'
loop_
_space_group_symop_operation_xyz
x,y,z
-x,y,1/2-z
-x,-y,-z
x,-y,1/2+z
1/2+x,1/2+y,z
1/2-x,1/2+y,1/2-z
1/2-x,1/2-y,-z
1/2+x,1/2-y,1/2+z
loop_
_atom_site_type_symbol
_atom_site_label
_atom_site_fract_x
_atom_site_fract_y
_atom_site_fract_z
Si Si1 0.508832 0.247181 0.056411
Si Si2 0.857832 0.159401 0.706893
Si Si3 0.409845 0.122183 0.049103
Si Si4 0.223234 0.241080 0.342464
Si Si5 0.328977 0.625917 0.254479
Si Si6 0.139401 0.571619 0.654587
Si Si7 0.371275 0.060608 0.351632
O O1 0.409093 0.301985 0.104642
O O2 0.407492 0.191468 0.055716
O O3 0.621491 0.229301 0.126205
O O4 0.587991 0.263171 0.941039
O O5 0.734876 0.195614 0.789984
O O6 0.784402 0.099528 0.683299
O O7 0.000000 0.141924 0.750000
O O8 0.268029 0.101908 0.137471
O O9 0.565230 0.092475 0.060664
O O10 0.393822 0.106745 0.938273
O O11 0.198372 0.194212 0.260016
O O12 0.500000 0.611649 0.250000
O O13 0.278218 0.592657 0.162612
O O14 0.173434 0.505502 0.618675
O O15 0.000000 0.575508 0.750000
O O16 0.500000 0.065517 0.250000
#
# Coordination Sequence:
#
# PCOD8137173 Si02
#       7
#     8   8   8   8   8   8   8
#     4  10  20  35  63  88 118 162 201 240 311 368
#     4  10  22  39  60  88 128 163 194 249 316 370
#     4  11  21  40  67  88 117 165 207 251 302 368
#     4  10  20  37  59  90 121 160 200 244 303 375
#     4  11  23  38  63  93 121 154 208 259 304 358
#     4  11  24  41  61  93 124 159 211 256 300 363
#     4   9  21  42  66  85 119 165 208 255 304 362
#
# _framework density 20.1632
#
# number of rings (size 3 to 8) (size 9 to 14) (size 15 to 20)
#    0.000    1.714    2.857    1.286    2.000    2.857 
#    0.000    0.714    0.000    0.000    0.000    0.000 
#    0.000    0.000    0.000    0.000    0.000    0.000 
#
# Total GULP energy -347259.871773 kJ/mol
# GULP energy per Si atom -12402.138278 kJ/mol
# Density = 2.011731 g / cm^3
# Si number density = 20.163200 Si / 1000 Ang^3
#
#
#
# Elastic Constant Matrix: (Units=GPa)
#
#
# Indices 1 2 3 4 5 6 
#
# 1 100.8691 42.1947 27.2535 0.0000 13.7156 0.0000
# 2 42.1947 94.2169 12.1259 0.0000 11.6195 0.0000
# 3 27.2535 12.1259 85.9129 0.0000 2.7185 0.0000
# 4 0.0000 0.0000 0.0000 10.2045 0.0000 7.2923
# 5 13.7156 11.6195 2.7185 0.0000 29.0101 0.0000
# 6 0.0000 0.0000 0.0000 7.2923 0.0000 20.0488
#
#
#
# Elastic Compliance Matrix: (Units=1/GPa)
#
#
# Indices 1 2 3 4 5 6 
#
# 1 0.013534 -0.005122 -0.003443 0.000000 -0.004025 0.000000
# 2 -0.005122 0.013284 -0.000159 0.000000 -0.002884 0.000000
# 3 -0.003443 -0.000159 0.012739 0.000000 0.000498 0.000000
# 4 0.000000 0.000000 0.000000 0.132414 0.000000 -0.048163
# 5 -0.004025 -0.002884 0.000498 0.000000 0.037482 0.000000
# 6 0.000000 0.000000 0.000000 -0.048163 0.000000 0.067397
#
#
# Mechanical properties :
#
#
# Convention : Reuss Voigt Hill
#
# Bulk Modulus (GPa) = 45.23055 49.34971 47.29013
# Shear Modulus (GPa) = 16.57464 25.14767 20.86115
#
# Velocity S-wave (km/s) = 2.87021 3.53541 3.22003
# Velocity P-wave (km/s) = 5.78490 6.41824 6.10978
#
# Compressibility (1/GPa) = 0.02210895
#
# Stress axis : x y z
#
# Youngs Moduli (GPa) = 73.88939 75.28055 78.50177
#
# Poissons Ratio (x) = 0.38555 0.27028
# Poissons Ratio (y) = 0.37843 0.01248
# Poissons Ratio (z) = 0.25440 0.01196
#
# Static dielectric constant tensor:
#      x y z
#    x 3.593230 0.000000 -0.005070 
#    y 0.000000 3.628140 0.000000 
#    z -0.005070 0.000000 3.693280 
# 
# 
# High freq. dielectric constant tensor:
#      x y z
#    x 1.775400 0.000000 0.004360 
#    y 0.000000 1.780960 0.000000 
#    z 0.004360 0.000000 1.790030 
# 
# From -- ./inp_files/136472.got.cif
#   From: 2010.06.25/outbox.cif.g09.slc.cpg/sg15_69_cif.got.tgz:136472.got - 2010.06.28 07:06:18.
