data_PCOD8137478
_publ_section_title
;
Structure prediction by ZEFSAII (Michael W. Deem and Ramdas Pophale) SiO2 
 PCOD8137478
Probable space group: C 2/C
;
_chemical_formula_sum "Si O2"
_cell_formula_units_Z 44
_cell_length_a 33.135059
_cell_length_b 17.395965
_cell_length_c 9.646130
_cell_angle_alpha 90.000000
_cell_angle_beta 153.828774
_cell_angle_gamma 90.000000
_cell_volume 2452.349272
_symmetry_space_group_name_H-M "C 2/C"
_symmetry_group_IT_number 15
_symmetry_cell_setting 'monoclinic'
loop_
_space_group_symop_operation_xyz
x,y,z
-x,y,1/2-z
-x,-y,-z
x,-y,1/2+z
1/2+x,1/2+y,z
1/2-x,1/2+y,1/2-z
1/2-x,1/2-y,-z
1/2+x,1/2-y,1/2+z
loop_
_atom_site_type_symbol
_atom_site_label
_atom_site_fract_x
_atom_site_fract_y
_atom_site_fract_z
Si Si1 0.519778 0.183183 0.153992
Si Si2 0.000000 0.941443 0.750000
Si Si3 0.589659 0.044842 0.730197
Si Si4 0.374816 0.581412 0.358751
Si Si5 0.165636 0.439795 0.168568
Si Si6 0.007233 0.148813 0.552145
O O1 0.500000 0.207992 0.250000
O O2 0.612230 0.131887 0.433662
O O3 0.528286 0.261048 0.092195
O O4 0.433334 0.135389 0.824858
O O5 0.013464 0.888312 0.658907
O O6 0.910517 0.994268 0.450481
O O7 0.613192 0.029619 0.642503
O O8 0.500000 0.000000 0.500000
O O9 0.670610 0.012662 0.078000
O O10 0.418306 0.635987 0.374877
O O11 0.404654 0.610433 0.603054
O O12 0.266567 0.587432 0.016454
#
# Coordination Sequence:
#
# PCOD8137478 Si02
#       6
#     8   4   8   8   8   8
#     4   9  17  38  55  78 108 146 182 210 270 330
#     4  10  22  36  56  78 110 142 182 220 282 314
#     4   9  19  36  56  79 111 144 179 219 267 320
#     4  10  20  36  59  78 107 142 184 225 262 326
#     4  10  21  33  59  86 106 140 188 224 261 321
#     4  10  20  38  56  77 111 145 176 222 280 318
#
# _framework density 17.941980000000001
#
# number of rings (size 3 to 8) (size 9 to 14) (size 15 to 20)
#    0.000    2.545    1.818    3.818    5.091    0.727 
#    6.545    0.000    0.000    2.182    0.000    0.000 
#    0.000    0.000    0.000    0.000    0.000    0.000 
#
# Total GULP energy -272678.936361 kJ/mol
# GULP energy per Si atom -12394.497107 kJ/mol
# Density = 1.790114 g / cm^3
# Si number density = 17.941980 Si / 1000 Ang^3
#
#
#
# Elastic Constant Matrix: (Units=GPa)
#
#
# Indices 1 2 3 4 5 6 
#
# 1 71.2889 41.0935 30.0638 0.0000 -9.2855 0.0000
# 2 41.0935 118.0595 36.0045 0.0000 -6.2883 0.0000
# 3 30.0638 36.0045 85.6979 0.0000 9.6729 0.0000
# 4 0.0000 0.0000 0.0000 14.7255 0.0000 -5.6028
# 5 -9.2855 -6.2883 9.6729 0.0000 23.4023 0.0000
# 6 0.0000 0.0000 0.0000 -5.6028 0.0000 19.9026
#
#
#
# Elastic Compliance Matrix: (Units=1/GPa)
#
#
# Indices 1 2 3 4 5 6 
#
# 1 0.020686 -0.004760 -0.006335 0.000000 0.009547 0.000000
# 2 -0.004760 0.011286 -0.003357 0.000000 0.002532 0.000000
# 3 -0.006335 -0.003357 0.016455 0.000000 -0.010217 0.000000
# 4 0.000000 0.000000 0.000000 0.076056 0.000000 0.021411
# 5 0.009547 0.002532 -0.010217 0.000000 0.051422 0.000000
# 6 0.000000 0.000000 0.000000 0.021411 0.000000 0.056272
#
#
# Mechanical properties :
#
#
# Convention : Reuss Voigt Hill
#
# Bulk Modulus (GPa) = 51.22226 54.37443 52.79835
# Shear Modulus (GPa) = 18.68533 22.79836 20.74185
#
# Velocity S-wave (km/s) = 3.23062 3.56851 3.40376
# Velocity P-wave (km/s) = 6.52125 6.88117 6.70363
#
# Compressibility (1/GPa) = 0.01952276
#
# Stress axis : x y z
#
# Youngs Moduli (GPa) = 48.34131 88.60612 60.77172
#
# Poissons Ratio (x) = 0.42176 0.38498
# Poissons Ratio (y) = 0.23010 0.20404
# Poissons Ratio (z) = 0.30623 0.29749
#
# Static dielectric constant tensor:
#      x y z
#    x 3.261210 0.000000 -0.208280 
#    y 0.000000 3.436800 0.000000 
#    z -0.208280 0.000000 3.383090 
# 
# 
# High freq. dielectric constant tensor:
#      x y z
#    x 1.681720 0.000000 -0.006250 
#    y 0.000000 1.693680 0.000000 
#    z -0.006250 0.000000 1.681980 
# 
# From -- ./inp_files/56001.got.cif
#   From: 2010.06.25/outbox.cif.g09.slc.cpg/sg15_29_cif.got.tgz:56001.got - 2010.06.28 07:06:18.
