data_PCOD8137424
_publ_section_title
;
Structure prediction by ZEFSAII (Michael W. Deem and Ramdas Pophale) SiO2 
 PCOD8137424
Probable space group: C 2/C
;
_chemical_formula_sum "Si O2"
_cell_formula_units_Z 64
_cell_length_a 17.318740
_cell_length_b 12.966064
_cell_length_c 15.220312
_cell_angle_alpha 90.000000
_cell_angle_beta 83.466317
_cell_angle_gamma 90.000000
_cell_volume 3395.612504
_symmetry_space_group_name_H-M "C 2/C"
_symmetry_group_IT_number 15
_symmetry_cell_setting 'monoclinic'
loop_
_space_group_symop_operation_xyz
x,y,z
-x,y,1/2-z
-x,-y,-z
x,-y,1/2+z
1/2+x,1/2+y,z
1/2-x,1/2+y,1/2-z
1/2-x,1/2-y,-z
1/2+x,1/2-y,1/2+z
loop_
_atom_site_type_symbol
_atom_site_label
_atom_site_fract_x
_atom_site_fract_y
_atom_site_fract_z
Si Si1 0.433164 0.317123 0.407428
Si Si2 0.270185 0.080599 0.349501
Si Si3 0.406667 0.924857 0.579203
Si Si4 0.079120 0.415061 0.576687
Si Si5 0.245013 0.500118 0.327644
Si Si6 0.336886 0.502269 0.487261
Si Si7 0.690603 0.296570 0.216185
Si Si8 0.609616 0.305298 0.407537
O O1 0.412672 0.205540 0.454813
O O2 0.403066 0.414845 0.468002
O O3 0.392955 0.317278 0.317439
O O4 0.524746 0.331328 0.380419
O O5 0.362674 0.057425 0.350913
O O6 0.226019 0.024895 0.274959
O O7 0.228954 0.051291 0.445442
O O8 0.263752 0.198811 0.324644
O O9 0.489877 0.933876 0.617323
O O10 0.340757 0.951665 0.658181
O O11 0.393258 0.807761 0.545485
O O12 0.398821 0.008419 0.504318
O O13 0.300312 0.540031 0.399147
O O14 0.246156 0.377416 0.327489
O O15 0.369142 0.606942 0.525334
O O16 0.674487 0.298931 0.322529
#
# Coordination Sequence:
#
# PCOD8137424 Si02
#       8
#     8   8   8   8   8   8   8   8
#     4   9  21  36  61  82 108 149 195 237 276 325
#     4  11  21  38  58  85 115 150 191 234 286 328
#     4  10  20  36  58  85 114 146 187 232 281 340
#     4   9  20  37  59  84 111 147 192 237 275 329
#     4  11  22  37  55  87 114 148 190 232 284 338
#     4  11  23  37  59  85 116 151 188 232 287 340
#     4  10  21  35  58  86 110 146 194 237 276 330
#     4  11  20  38  57  83 117 148 186 233 285 340
#
# _framework density 18.847850999999999
#
# number of rings (size 3 to 8) (size 9 to 14) (size 15 to 20)
#    0.000    1.750    3.750    0.750    1.750    2.500 
#    2.250    0.000    0.000    0.000    0.000    0.000 
#    0.000    0.000    0.000    0.000    0.000    0.000 
#
# Total GULP energy -396446.247312 kJ/mol
# GULP energy per Si atom -12388.945228 kJ/mol
# Density = 1.880495 g / cm^3
# Si number density = 18.847851 Si / 1000 Ang^3
#
#
#
# Elastic Constant Matrix: (Units=GPa)
#
#
# Indices 1 2 3 4 5 6 
#
# 1 61.0461 32.5917 17.8882 0.0000 1.1753 0.0000
# 2 32.5917 110.7963 36.3068 0.0000 9.8421 0.0000
# 3 17.8882 36.3068 72.6427 0.0000 15.3392 0.0000
# 4 0.0000 0.0000 0.0000 28.2349 0.0000 -3.5192
# 5 1.1753 9.8421 15.3392 0.0000 22.8425 0.0000
# 6 0.0000 0.0000 0.0000 -3.5192 0.0000 30.3208
#
#
#
# Elastic Compliance Matrix: (Units=1/GPa)
#
#
# Indices 1 2 3 4 5 6 
#
# 1 0.019963 -0.005172 -0.003012 0.000000 0.003224 0.000000
# 2 -0.005172 0.012161 -0.004375 0.000000 -0.002036 0.000000
# 3 -0.003012 -0.004375 0.018951 0.000000 -0.010686 0.000000
# 4 0.000000 0.000000 0.000000 0.035937 0.000000 0.004171
# 5 0.003224 -0.002036 -0.010686 0.000000 0.051665 0.000000
# 6 0.000000 0.000000 0.000000 0.004171 0.000000 0.033465
#
#
# Mechanical properties :
#
#
# Convention : Reuss Voigt Hill
#
# Bulk Modulus (GPa) = 38.52339 46.45094 42.48716
# Shear Modulus (GPa) = 24.28244 26.79288 25.53766
#
# Velocity S-wave (km/s) = 3.59324 3.77441 3.68494
# Velocity P-wave (km/s) = 6.13992 6.61012 6.37935
#
# Compressibility (1/GPa) = 0.02595826
#
# Stress axis : x y z
#
# Youngs Moduli (GPa) = 50.09379 82.22828 52.76897
#
# Poissons Ratio (x) = 0.42525 0.15892
# Poissons Ratio (y) = 0.25907 0.23085
# Poissons Ratio (z) = 0.15087 0.35973
#
# Static dielectric constant tensor:
#      x y z
#    x 3.468410 0.000000 0.071280 
#    y 0.000000 3.700890 0.000000 
#    z 0.071280 0.000000 3.335430 
# 
# 
# High freq. dielectric constant tensor:
#      x y z
#    x 1.728500 0.000000 0.003670 
#    y 0.000000 1.745930 0.000000 
#    z 0.003670 0.000000 1.715570 
# 
# From -- ./inp_files/161353.got.cif
#   From: 2010.06.25/outbox.cif.g09.slc.cpg/sg15_81_cif.got.tgz:161353.got - 2010.06.28 07:06:18.
