data_PCOD8137638
_publ_section_title
;
Structure prediction by ZEFSAII (Michael W. Deem and Ramdas Pophale) SiO2 
 PCOD8137638
Probable space group: C 2/C
;
_chemical_formula_sum "Si O2"
_cell_formula_units_Z 60
_cell_length_a 18.845872
_cell_length_b 7.570063
_cell_length_c 29.331212
_cell_angle_alpha 90.000000
_cell_angle_beta 41.454231
_cell_angle_gamma 90.000000
_cell_volume 2770.243029
_symmetry_space_group_name_H-M "C 2/C"
_symmetry_group_IT_number 15
_symmetry_cell_setting 'monoclinic'
loop_
_space_group_symop_operation_xyz
x,y,z
-x,y,1/2-z
-x,-y,-z
x,-y,1/2+z
1/2+x,1/2+y,z
1/2-x,1/2+y,1/2-z
1/2-x,1/2-y,-z
1/2+x,1/2-y,1/2+z
loop_
_atom_site_type_symbol
_atom_site_label
_atom_site_fract_x
_atom_site_fract_y
_atom_site_fract_z
Si Si1 0.422222 0.704550 0.904457
Si Si2 0.500000 0.233679 0.750000
Si Si3 0.219561 0.361410 0.790899
Si Si4 0.733305 0.665075 0.131777
Si Si5 0.893164 0.009301 0.150676
Si Si6 0.207047 0.367318 0.460267
Si Si7 0.578207 0.054426 0.280126
Si Si8 0.725178 0.430224 0.877008
O O1 0.485022 0.537794 0.896110
O O2 0.313500 0.623253 0.938865
O O3 0.487175 0.797648 0.832189
O O4 0.395941 0.847723 0.957052
O O5 0.396250 0.355562 0.810085
O O6 0.476400 0.116916 0.716012
O O7 0.226336 0.420562 0.840122
O O8 0.180487 0.162511 0.808336
O O9 0.340601 0.357000 0.712358
O O10 0.137055 0.481582 0.800597
O O11 0.798061 0.552921 0.063304
O O12 0.762415 0.869828 0.110929
O O13 0.879085 0.082054 0.105914
O O14 0.208561 0.198062 0.426937
O O15 0.668206 0.128584 0.202007
#
# Coordination Sequence:
#
# PCOD8137638 Si02
#       8
#     8   4   8   8   8   8   8   8
#     4  10  22  39  57  88 123 160 209 240 304 365
#     4  10  20  36  60  94 120 152 212 256 312 360
#     4   9  19  34  57  90 115 146 194 252 314 349
#     4  10  22  36  58  90 118 148 204 254 294 368
#     4   9  19  36  61  84 120 150 196 255 299 369
#     4  11  24  39  59  84 125 169 196 247 300 365
#     4   9  18  38  63  83 119 160 188 261 308 355
#     4   9  20  41  62  84 119 154 197 252 314 349
#
# _framework density 21.658749
#
# number of rings (size 3 to 8) (size 9 to 14) (size 15 to 20)
#    0.000    2.400    0.000    2.400    7.467    0.533 
#    0.000   12.000    2.933    0.000    0.000    0.000 
#    0.000    0.000    0.000    0.000    0.000    0.000 
#
# Total GULP energy -371805.678826 kJ/mol
# GULP energy per Si atom -12393.522628 kJ/mol
# Density = 2.160945 g / cm^3
# Si number density = 21.658749 Si / 1000 Ang^3
#
#
#
# Elastic Constant Matrix: (Units=GPa)
#
#
# Indices 1 2 3 4 5 6 
#
# 1 104.7428 21.5352 19.6394 0.0087 3.5199 -0.0187
# 2 21.5352 51.6354 26.8573 -0.0272 9.4835 0.0202
# 3 19.6394 26.8573 59.4810 -0.0051 8.8243 0.0050
# 4 0.0087 -0.0272 -0.0051 25.2573 0.0081 -3.7009
# 5 3.5199 9.4835 8.8243 0.0081 23.1313 0.0031
# 6 -0.0187 0.0202 0.0050 -3.7009 0.0031 20.7718
#
#
#
# Elastic Compliance Matrix: (Units=1/GPa)
#
#
# Indices 1 2 3 4 5 6 
#
# 1 0.010623 -0.003487 -0.002020 -0.000006 0.000584 0.000012
# 2 -0.003487 0.027376 -0.010200 0.000028 -0.006802 -0.000021
# 3 -0.002020 -0.010200 0.022704 -0.000004 -0.004172 0.000003
# 4 -0.000006 0.000028 -0.000004 0.040654 -0.000024 0.007243
# 5 0.000584 -0.006802 -0.004172 -0.000024 0.047523 -0.000003
# 6 0.000012 -0.000021 0.000003 0.007243 -0.000003 0.049433
#
#
# Mechanical properties :
#
#
# Convention : Reuss Voigt Hill
#
# Bulk Modulus (GPa) = 34.14358 39.10253 36.62306
# Shear Modulus (GPa) = 20.87777 23.68724 22.28251
#
# Velocity S-wave (km/s) = 3.10811 3.31064 3.21097
# Velocity P-wave (km/s) = 5.35528 5.71899 5.54012
#
# Compressibility (1/GPa) = 0.02928808
#
# Stress axis : x y z
#
# Youngs Moduli (GPa) = 94.13314 36.52863 44.04589
#
# Poissons Ratio (x) = 0.12739 0.08895
# Poissons Ratio (y) = 0.32827 0.44929
# Poissons Ratio (z) = 0.19011 0.37261
#
# Static dielectric constant tensor:
#      x y z
#    x 4.450940 -0.000110 0.114550 
#    y -0.000110 3.702710 0.000000 
#    z 0.114550 0.000000 3.886380 
# 
# 
# High freq. dielectric constant tensor:
#      x y z
#    x 1.866980 0.000000 0.007290 
#    y 0.000000 1.827150 0.000000 
#    z 0.007290 0.000000 1.829520 
# 
# From -- ./inp_files/300499.got.cif
#   From: 2010.06.25/outbox.cif.g09.slc.cpg/sg15_151_cif.got.tgz:300499.got - 2010.06.28 07:06:18.
