data_PCOD8137766
_publ_section_title
;
Structure prediction by ZEFSAII (Michael W. Deem and Ramdas Pophale) SiO2 
 PCOD8137766
Probable space group: C 2/C
;
_chemical_formula_sum "Si O2"
_cell_formula_units_Z 60
_cell_length_a 18.258623
_cell_length_b 8.871968
_cell_length_c 26.155208
_cell_angle_alpha 90.000000
_cell_angle_beta 40.121171
_cell_angle_gamma 90.000000
_cell_volume 2730.271871
_symmetry_space_group_name_H-M "C 2/C"
_symmetry_group_IT_number 15
_symmetry_cell_setting 'monoclinic'
loop_
_space_group_symop_operation_xyz
x,y,z
-x,y,1/2-z
-x,-y,-z
x,-y,1/2+z
1/2+x,1/2+y,z
1/2-x,1/2+y,1/2-z
1/2-x,1/2-y,-z
1/2+x,1/2-y,1/2+z
loop_
_atom_site_type_symbol
_atom_site_label
_atom_site_fract_x
_atom_site_fract_y
_atom_site_fract_z
Si Si1 0.653595 0.297196 0.498737
Si Si2 0.137867 0.458950 0.083041
Si Si3 0.924328 0.184036 0.064131
Si Si4 0.817743 0.543769 0.666829
Si Si5 0.339068 0.401663 0.159368
Si Si6 0.000000 0.648529 0.750000
Si Si7 0.790194 0.826077 0.839687
Si Si8 0.980106 0.318517 0.927352
O O1 0.725119 0.446860 0.478672
O O2 0.605031 0.195330 0.570637
O O3 0.553514 0.338320 0.513798
O O4 0.747401 0.192777 0.420274
O O5 0.064871 0.458725 0.174707
O O6 0.108555 0.612751 0.067156
O O7 0.849761 0.282540 0.142852
O O8 0.872585 0.017152 0.096232
O O9 0.915929 0.260269 0.012807
O O10 0.750578 0.520163 0.755470
O O11 0.730210 0.497602 0.667678
O O12 0.937092 0.456020 0.602417
O O13 0.287966 0.259827 0.158769
O O14 0.448817 0.328712 0.130855
O O15 0.083833 0.762474 0.734627
#
# Coordination Sequence:
#
# PCOD8137766 Si02
#       8
#     8   8   8   8   8   4   8   8
#     4  10  20  36  62  91 122 161 218 262 315 385
#     4  10  21  37  61  94 122 167 216 261 314 395
#     4  12  21  38  64  91 127 164 208 277 319 384
#     4  11  21  35  60  89 125 160 216 268 321 376
#     4  11  24  36  60  94 130 161 211 267 332 380
#     4  10  22  38  64  86 126 168 212 264 328 398
#     4  10  21  39  58  91 119 165 214 263 319 385
#     4  11  21  38  62  92 123 168 216 264 325 379
#
# _framework density 21.975833999999999
#
# number of rings (size 3 to 8) (size 9 to 14) (size 15 to 20)
#    0.000    1.333    4.000    4.000    1.867    0.000 
#    0.000    0.667    0.000    1.600    0.000    0.000 
#    0.000    0.000    0.000    0.000    0.000    0.000 
#
# Total GULP energy -371703.990391 kJ/mol
# GULP energy per Si atom -12390.133013 kJ/mol
# Density = 2.192582 g / cm^3
# Si number density = 21.975834 Si / 1000 Ang^3
#
#
#
# Elastic Constant Matrix: (Units=GPa)
#
#
# Indices 1 2 3 4 5 6 
#
# 1 92.6863 34.7785 31.4217 -0.0001 0.0226 0.0000
# 2 34.7785 87.4335 32.5270 -0.0002 -3.6583 0.0004
# 3 31.4217 32.5270 108.4863 0.0000 10.1326 0.0000
# 4 -0.0001 -0.0002 0.0000 29.0804 0.0000 1.7033
# 5 0.0226 -3.6583 10.1326 0.0000 26.8867 0.0001
# 6 0.0000 0.0004 0.0000 1.7033 0.0001 42.2816
#
#
#
# Elastic Compliance Matrix: (Units=1/GPa)
#
#
# Indices 1 2 3 4 5 6 
#
# 1 0.013282 -0.004303 -0.002592 0.000000 0.000380 0.000000
# 2 -0.004303 0.014560 -0.003425 0.000000 0.003276 0.000000
# 3 -0.002592 -0.003425 0.011442 0.000000 -0.004776 0.000000
# 4 0.000000 0.000000 0.000000 0.034469 0.000000 -0.001389
# 5 0.000380 0.003276 -0.004776 0.000000 0.039438 0.000000
# 6 0.000000 0.000000 0.000000 -0.001389 0.000000 0.023707
#
#
# Mechanical properties :
#
#
# Convention : Reuss Voigt Hill
#
# Bulk Modulus (GPa) = 53.63935 54.00670 53.82303
# Shear Modulus (GPa) = 30.53366 32.30835 31.42100
#
# Velocity S-wave (km/s) = 3.73154 3.83845 3.78537
# Velocity P-wave (km/s) = 6.55951 6.65385 6.60685
#
# Compressibility (1/GPa) = 0.01864303
#
# Stress axis : x y z
#
# Youngs Moduli (GPa) = 75.28719 68.68061 87.40012
#
# Poissons Ratio (x) = 0.29553 0.22658
# Poissons Ratio (y) = 0.32396 0.29936
# Poissons Ratio (z) = 0.19518 0.23524
#
# Static dielectric constant tensor:
#      x y z
#    x 4.042980 0.000000 -0.164340 
#    y 0.000000 3.841020 0.000000 
#    z -0.164340 0.000000 4.239910 
# 
# 
# High freq. dielectric constant tensor:
#      x y z
#    x 1.847220 0.000000 0.001810 
#    y 0.000000 1.847010 0.000000 
#    z 0.001810 0.000000 1.872490 
# 
# From -- ./inp_files/317248.got.cif
#   From: 2010.06.25/outbox.cif.g09.slc.cpg/sg15_159_cif.got.tgz:317248.got - 2010.06.28 07:06:18.
