data_PCOD8137288
_publ_section_title
;
Structure prediction by ZEFSAII (Michael W. Deem and Ramdas Pophale) SiO2 
 PCOD8137288
Probable space group: C 2/C
;
_chemical_formula_sum "Si O2"
_cell_formula_units_Z 52
_cell_length_a 8.855686
_cell_length_b 30.502655
_cell_length_c 10.230422
_cell_angle_alpha 90.000000
_cell_angle_beta 102.113409
_cell_angle_gamma 90.000000
_cell_volume 2701.930576
_symmetry_space_group_name_H-M "C 2/C"
_symmetry_group_IT_number 15
_symmetry_cell_setting 'monoclinic'
loop_
_space_group_symop_operation_xyz
x,y,z
-x,y,1/2-z
-x,-y,-z
x,-y,1/2+z
1/2+x,1/2+y,z
1/2-x,1/2+y,1/2-z
1/2-x,1/2-y,-z
1/2+x,1/2-y,1/2+z
loop_
_atom_site_type_symbol
_atom_site_label
_atom_site_fract_x
_atom_site_fract_y
_atom_site_fract_z
Si Si1 0.406255 0.445486 0.606729
Si Si2 0.116707 0.284717 0.501797
Si Si3 0.211182 0.285427 0.102628
Si Si4 0.000000 0.255238 0.750000
Si Si5 0.392979 0.543236 0.610581
Si Si6 0.821560 0.382382 0.363961
Si Si7 0.321544 0.879028 0.064578
O O1 0.500000 0.428025 0.750000
O O2 0.332896 0.493475 0.622730
O O3 0.523788 0.451523 0.510912
O O4 0.272620 0.411745 0.545055
O O5 0.250000 0.250000 0.500000
O O6 0.027416 0.284856 0.626324
O O7 0.201587 0.330588 0.497287
O O8 0.966677 0.278278 0.377574
O O9 0.346038 0.275253 0.230988
O O10 0.224586 0.337181 0.069246
O O11 0.250000 0.250000 0.000000
O O12 0.500000 0.557611 0.750000
O O13 0.251018 0.576321 0.577166
O O14 0.763130 0.379517 0.203334
O O15 0.001344 0.392469 0.406636
#
# Coordination Sequence:
#
# PCOD8137288 Si02
#       7
#     8   8   8   4   8   8   8
#     4  10  22  40  58  91 124 153 196 254 310 360
#     4  10  21  38  57  82 118 155 200 247 296 355
#     4   9  20  36  56  88 116 151 202 248 297 350
#     4  10  20  36  56  80 122 154 186 250 306 360
#     4  10  20  38  66  87 117 156 202 252 300 367
#     4  10  20  36  64  88 113 155 205 249 292 359
#     4  10  21  39  58  87 120 154 202 247 295 365
#
# _framework density 19.245497
#
# number of rings (size 3 to 8) (size 9 to 14) (size 15 to 20)
#    0.000    2.154    1.538    0.923    1.077    4.923 
#   11.077    0.000    0.000    0.000    0.000    0.000 
#    0.000    0.000    0.000    0.000    0.000    0.000 
#
# Total GULP energy -322102.017641 kJ/mol
# GULP energy per Si atom -12388.539140 kJ/mol
# Density = 1.920169 g / cm^3
# Si number density = 19.245497 Si / 1000 Ang^3
#
#
#
# Elastic Constant Matrix: (Units=GPa)
#
#
# Indices 1 2 3 4 5 6 
#
# 1 87.5356 73.6777 35.9843 0.0000 14.6777 0.0000
# 2 73.6777 152.5811 42.9098 0.0000 12.3473 0.0000
# 3 35.9843 42.9098 92.8375 0.0000 6.5345 0.0000
# 4 0.0000 0.0000 0.0000 28.5854 0.0000 -0.0647
# 5 14.6777 12.3473 6.5345 0.0000 33.1994 0.0000
# 6 0.0000 0.0000 0.0000 -0.0647 0.0000 46.7828
#
#
#
# Elastic Compliance Matrix: (Units=1/GPa)
#
#
# Indices 1 2 3 4 5 6 
#
# 1 0.021272 -0.008762 -0.003816 0.000000 -0.005395 0.000000
# 2 -0.008762 0.011296 -0.001827 0.000000 0.000032 0.000000
# 3 -0.003816 -0.001827 0.013110 0.000000 -0.000214 0.000000
# 4 0.000000 0.000000 0.000000 0.034983 0.000000 0.000048
# 5 -0.005395 0.000032 -0.000214 0.000000 0.032536 0.000000
# 6 0.000000 0.000000 0.000000 0.000048 0.000000 0.021375
#
#
# Mechanical properties :
#
#
# Convention : Reuss Voigt Hill
#
# Bulk Modulus (GPa) = 59.28201 70.89976 65.09088
# Shear Modulus (GPa) = 29.58491 33.73903 31.66197
#
# Velocity S-wave (km/s) = 3.92502 4.19153 4.06046
# Velocity P-wave (km/s) = 7.17014 7.76820 7.47515
#
# Compressibility (1/GPa) = 0.01686852
#
# Stress axis : x y z
#
# Youngs Moduli (GPa) = 47.01028 88.52587 76.27772
#
# Poissons Ratio (x) = 0.77567 0.29104
# Poissons Ratio (y) = 0.41191 0.13937
# Poissons Ratio (z) = 0.17937 0.16175
#
# Static dielectric constant tensor:
#      x y z
#    x 3.658070 0.000000 0.240740 
#    y 0.000000 3.634630 0.000000 
#    z 0.240740 0.000000 3.556360 
# 
# 
# High freq. dielectric constant tensor:
#      x y z
#    x 1.748900 0.000000 0.008560 
#    y 0.000000 1.751640 0.000000 
#    z 0.008560 0.000000 1.742860 
# 
# From -- ./inp_files/80790.got.cif
#   From: 2010.06.25/outbox.cif.g09.slc.cpg/sg15_41_cif.got.tgz:80790.got - 2010.06.28 07:06:18.
