data_PCOD8137626
_publ_section_title
;
Structure prediction by ZEFSAII (Michael W. Deem and Ramdas Pophale) SiO2 
 PCOD8137626
Probable space group: C 2/C
;
_chemical_formula_sum "Si O2"
_cell_formula_units_Z 60
_cell_length_a 16.166887
_cell_length_b 14.093927
_cell_length_c 21.473746
_cell_angle_alpha 90.000000
_cell_angle_beta 141.208419
_cell_angle_gamma 90.000000
_cell_volume 3065.348684
_symmetry_space_group_name_H-M "C 2/C"
_symmetry_group_IT_number 15
_symmetry_cell_setting 'monoclinic'
loop_
_space_group_symop_operation_xyz
x,y,z
-x,y,1/2-z
-x,-y,-z
x,-y,1/2+z
1/2+x,1/2+y,z
1/2-x,1/2+y,1/2-z
1/2-x,1/2-y,-z
1/2+x,1/2-y,1/2+z
loop_
_atom_site_type_symbol
_atom_site_label
_atom_site_fract_x
_atom_site_fract_y
_atom_site_fract_z
Si Si1 0.730117 0.839291 0.243250
Si Si2 0.500000 0.934493 0.750000
Si Si3 0.976527 0.269644 0.165422
Si Si4 0.822954 0.647375 0.249886
Si Si5 0.900338 0.999873 0.384971
Si Si6 0.945870 0.050791 0.147635
Si Si7 0.068180 0.502893 0.104007
Si Si8 0.656987 0.952781 0.435244
O O1 0.613940 0.788229 0.211815
O O2 0.804833 0.759825 0.246723
O O3 0.826030 0.897992 0.345902
O O4 0.674803 0.918917 0.164152
O O5 0.564173 0.866599 0.735654
O O6 0.377905 0.999587 0.652271
O O7 0.936538 0.162281 0.130241
O O8 0.856833 0.338162 0.073378
O O9 0.000000 0.292921 0.250000
O O10 0.690773 0.590749 0.154035
O O11 0.863676 0.603937 0.341451
O O12 0.000000 0.000000 0.500000
O O13 0.963546 0.004955 0.352643
O O14 0.000000 0.027312 0.250000
O O15 0.795922 0.014282 0.047034
O O16 0.962768 0.490746 0.095229
O O17 0.000000 0.500000 0.000000
#
# Coordination Sequence:
#
# PCOD8137626 Si02
#       8
#     8   4   8   8   8   8   8   8
#     4  10  22  40  61  88 123 162 204 258 307 372
#     4  10  20  40  66  90 114 166 212 264 302 364
#     4  10  20  36  60  91 119 157 200 255 318 371
#     4  10  21  41  61  88 121 154 215 253 304 374
#     4  11  24  41  64  91 126 169 206 261 314 372
#     4  11  24  38  58  93 130 160 199 260 323 374
#     4   9  21  36  61  86 115 165 200 248 307 359
#     4  10  20  36  61  87 121 159 204 251 312 378
#
# _framework density 19.573629
#
# number of rings (size 3 to 8) (size 9 to 14) (size 15 to 20)
#    0.000    1.867    2.000    2.000    5.600    1.067 
#    1.200    0.000    0.000    4.000    0.000    0.000 
#    0.000    0.000    0.000    0.000    0.000    0.000 
#
# Total GULP energy -371734.982427 kJ/mol
# GULP energy per Si atom -12391.166081 kJ/mol
# Density = 1.952908 g / cm^3
# Si number density = 19.573629 Si / 1000 Ang^3
#
#
#
# Elastic Constant Matrix: (Units=GPa)
#
#
# Indices 1 2 3 4 5 6 
#
# 1 56.5260 28.7103 27.1385 0.0000 -9.5566 0.0000
# 2 28.7103 93.1860 34.4215 0.0000 0.8318 0.0000
# 3 27.1385 34.4215 147.7145 0.0000 -6.0470 0.0000
# 4 0.0000 0.0000 0.0000 15.2909 0.0000 8.3348
# 5 -9.5566 0.8318 -6.0470 0.0000 31.5108 0.0000
# 6 0.0000 0.0000 0.0000 8.3348 0.0000 36.3744
#
#
#
# Elastic Compliance Matrix: (Units=1/GPa)
#
#
# Indices 1 2 3 4 5 6 
#
# 1 0.023234 -0.006284 -0.002529 0.000000 0.006727 0.000000
# 2 -0.006284 0.013464 -0.002092 0.000000 -0.002663 0.000000
# 3 -0.002529 -0.002092 0.007754 0.000000 0.000776 0.000000
# 4 0.000000 0.000000 0.000000 0.074733 0.000000 -0.017124
# 5 0.006727 -0.002663 0.000776 0.000000 0.033995 0.000000
# 6 0.000000 0.000000 0.000000 -0.017124 0.000000 0.031416
#
#
# Mechanical properties :
#
#
# Convention : Reuss Voigt Hill
#
# Bulk Modulus (GPa) = 44.16630 53.10747 48.63689
# Shear Modulus (GPa) = 23.36972 30.44563 26.90767
#
# Velocity S-wave (km/s) = 3.45909 3.94819 3.71170
# Velocity P-wave (km/s) = 6.21023 6.92642 6.57808
#
# Compressibility (1/GPa) = 0.02264170
#
# Stress axis : x y z
#
# Youngs Moduli (GPa) = 43.03983 74.27282 128.97119
#
# Poissons Ratio (x) = 0.46675 0.32615
# Poissons Ratio (y) = 0.27048 0.26979
# Poissons Ratio (z) = 0.10884 0.15537
#
# Static dielectric constant tensor:
#      x y z
#    x 3.320760 0.000000 0.198920 
#    y 0.000000 3.501220 0.000000 
#    z 0.198920 0.000000 3.488600 
# 
# 
# High freq. dielectric constant tensor:
#      x y z
#    x 1.764070 0.000000 0.006040 
#    y 0.000000 1.751700 0.000000 
#    z 0.006040 0.000000 1.766850 
# 
# From -- ./inp_files/244716.got.cif
#   From: 2010.06.25/outbox.cif.g09.slc.cpg/sg15_123_cif.got.tgz:244716.got - 2010.06.28 07:06:18.
