data_PCOD8137239
_publ_section_title
;
Structure prediction by ZEFSAII (Michael W. Deem and Ramdas Pophale) SiO2 
 PCOD8137239
Probable space group: C 2/C
;
_chemical_formula_sum "Si O2"
_cell_formula_units_Z 60
_cell_length_a 23.677890
_cell_length_b 11.735911
_cell_length_c 12.204458
_cell_angle_alpha 90.000000
_cell_angle_beta 119.196852
_cell_angle_gamma 90.000000
_cell_volume 2960.513975
_symmetry_space_group_name_H-M "C 2/C"
_symmetry_group_IT_number 15
_symmetry_cell_setting 'monoclinic'
loop_
_space_group_symop_operation_xyz
x,y,z
-x,y,1/2-z
-x,-y,-z
x,-y,1/2+z
1/2+x,1/2+y,z
1/2-x,1/2+y,1/2-z
1/2-x,1/2-y,-z
1/2+x,1/2-y,1/2+z
loop_
_atom_site_type_symbol
_atom_site_label
_atom_site_fract_x
_atom_site_fract_y
_atom_site_fract_z
Si Si1 0.191685 0.334838 0.923177
Si Si2 0.690694 0.266473 0.787517
Si Si3 0.834516 0.439058 0.373725
Si Si4 0.828961 0.175848 0.989153
Si Si5 0.055560 0.679727 0.228719
Si Si6 0.927513 0.650309 0.490111
Si Si7 0.721791 0.460430 0.659863
Si Si8 0.500000 0.962086 0.250000
O O1 0.129023 0.271659 0.809595
O O2 0.220804 0.430522 0.871371
O O3 0.250000 0.250000 0.000000
O O4 0.160697 0.384984 0.002877
O O5 0.651887 0.154156 0.709924
O O6 0.764627 0.237791 0.885937
O O7 0.685578 0.353182 0.679556
O O8 0.660380 0.318566 0.869322
O O9 0.883165 0.544105 0.411900
O O10 0.759499 0.477164 0.293984
O O11 0.888191 0.240681 0.991826
O O12 0.828994 0.044088 0.949045
O O13 0.033403 0.689168 0.081231
O O14 0.000000 0.743025 0.250000
O O15 0.058310 0.545295 0.266119
O O16 0.978569 0.617615 0.630454
#
# Coordination Sequence:
#
# PCOD8137239 Si02
#       8
#     8   8   8   8   8   8   8   4
#     4  12  22  37  61  96 128 168 216 264 331 384
#     4  10  20  36  53  87 120 170 204 251 334 386
#     4  11  21  32  58  82 129 164 204 260 322 392
#     4  10  23  35  58  85 129 168 210 262 325 399
#     4  10  23  40  59  91 131 170 213 265 331 395
#     4  12  22  42  60  93 127 175 217 271 329 399
#     4  11  21  37  55  88 128 171 204 262 323 398
#     4  10  24  36  62  86 124 172 220 268 324 388
#
# _framework density 20.266749999999998
#
# number of rings (size 3 to 8) (size 9 to 14) (size 15 to 20)
#    0.400    0.800    5.333    1.200    7.467    0.000 
#    0.000    0.000    0.000    0.000    1.733    2.800 
#    0.000    0.000    0.000    0.000    0.000    0.000 
#
# Total GULP energy -371813.010405 kJ/mol
# GULP energy per Si atom -12393.767014 kJ/mol
# Density = 2.022062 g / cm^3
# Si number density = 20.266750 Si / 1000 Ang^3
#
#
#
# Elastic Constant Matrix: (Units=GPa)
#
#
# Indices 1 2 3 4 5 6 
#
# 1 82.1835 28.2795 40.0176 0.0000 -10.5600 0.0000
# 2 28.2795 78.6739 26.3534 0.0000 -1.7089 0.0000
# 3 40.0176 26.3534 110.2784 0.0000 -11.9330 0.0000
# 4 0.0000 0.0000 0.0000 22.7658 0.0000 0.1525
# 5 -10.5600 -1.7089 -11.9330 0.0000 39.1399 0.0000
# 6 0.0000 0.0000 0.0000 0.1525 0.0000 16.3284
#
#
#
# Elastic Compliance Matrix: (Units=1/GPa)
#
#
# Indices 1 2 3 4 5 6 
#
# 1 0.016208 -0.004236 -0.004567 0.000000 0.002796 0.000000
# 2 -0.004236 0.014930 -0.002155 0.000000 -0.001148 0.000000
# 3 -0.004567 -0.002155 0.011475 0.000000 0.002172 0.000000
# 4 0.000000 0.000000 0.000000 0.043928 0.000000 -0.000410
# 5 0.002796 -0.001148 0.002172 0.000000 0.026916 0.000000
# 6 0.000000 0.000000 0.000000 -0.000410 0.000000 0.061247
#
#
# Mechanical properties :
#
#
# Convention : Reuss Voigt Hill
#
# Bulk Modulus (GPa) = 48.31268 51.15964 49.73616
# Shear Modulus (GPa) = 24.56766 27.41252 25.99009
#
# Velocity S-wave (km/s) = 3.48547 3.68174 3.58495
# Velocity P-wave (km/s) = 6.33152 6.58571 6.45986
#
# Compressibility (1/GPa) = 0.02069850
#
# Stress axis : x y z
#
# Youngs Moduli (GPa) = 61.69644 66.97859 87.14397
#
# Poissons Ratio (x) = 0.28370 0.39798
# Poissons Ratio (y) = 0.26132 0.18780
# Poissons Ratio (z) = 0.28176 0.14434
#
# Static dielectric constant tensor:
#      x y z
#    x 3.697090 0.000000 -0.407600 
#    y 0.000000 3.575870 0.000000 
#    z -0.407600 0.000000 4.049010 
# 
# 
# High freq. dielectric constant tensor:
#      x y z
#    x 1.763400 0.000000 -0.021490 
#    y 0.000000 1.760830 0.000000 
#    z -0.021490 0.000000 1.811600 
# 
# From -- ./inp_files/117647.got.cif
#   From: 2010.06.25/outbox.cif.g09.slc.cpg/sg15_59_cif.got.tgz:117647.got - 2010.06.28 07:06:18.
