data_PCOD8137051
_publ_section_title
;
Structure prediction by ZEFSAII (Michael W. Deem and Ramdas Pophale) SiO2 
 PCOD8137051
Probable space group: C 2/C
;
_chemical_formula_sum "Si O2"
_cell_formula_units_Z 44
_cell_length_a 19.538558
_cell_length_b 9.780817
_cell_length_c 19.220237
_cell_angle_alpha 90.000000
_cell_angle_beta 152.045619
_cell_angle_gamma 90.000000
_cell_volume 1721.807983
_symmetry_space_group_name_H-M "C 2/C"
_symmetry_group_IT_number 15
_symmetry_cell_setting 'monoclinic'
loop_
_space_group_symop_operation_xyz
x,y,z
-x,y,1/2-z
-x,-y,-z
x,-y,1/2+z
1/2+x,1/2+y,z
1/2-x,1/2+y,1/2-z
1/2-x,1/2-y,-z
1/2+x,1/2-y,1/2+z
loop_
_atom_site_type_symbol
_atom_site_label
_atom_site_fract_x
_atom_site_fract_y
_atom_site_fract_z
Si Si1 0.406420 0.786987 0.400693
Si Si2 0.251771 0.411621 0.593257
Si Si3 0.282399 0.581104 0.494241
Si Si4 0.500000 0.221884 0.250000
Si Si5 0.322831 0.924813 0.811330
Si Si6 0.553994 0.675075 0.402592
O O1 0.515908 0.857390 0.554736
O O2 0.291908 0.676643 0.331073
O O3 0.502528 0.696985 0.435240
O O4 0.323263 0.915729 0.286782
O O5 0.248314 0.549677 0.545547
O O6 0.216392 0.433467 0.641969
O O7 0.414639 0.350500 0.728560
O O8 0.139739 0.309126 0.454975
O O9 0.414303 0.690808 0.614022
O O10 0.126904 0.634159 0.323951
O O11 0.334159 0.452079 0.496275
#
# Coordination Sequence:
#
# PCOD8137051 Si02
#       6
#     8   8   8   4   8   8
#     4   9  19  37  61  85 120 157 207 253 308 357
#     4  10  20  35  59  88 119 156 202 255 304 357
#     4  11  21  40  58  88 124 158 200 245 301 381
#     4  10  24  38  60  82 126 166 192 244 310 368
#     4   9  19  37  61  88 122 160 204 262 303 365
#     4  10  20  35  61  86 117 156 205 253 297 362
#
# _framework density 25.554532999999999
#
# number of rings (size 3 to 8) (size 9 to 14) (size 15 to 20)
#    0.000    2.182    1.818    0.545    2.545    0.727 
#    0.000    5.455    8.000    0.000    0.000    0.000 
#    0.000    0.000    0.000    0.000    0.000    0.000 
#
# Total GULP energy -272571.900402 kJ/mol
# GULP energy per Si atom -12389.631836 kJ/mol
# Density = 2.549637 g / cm^3
# Si number density = 25.554533 Si / 1000 Ang^3
#
#
#
# Elastic Constant Matrix: (Units=GPa)
#
#
# Indices 1 2 3 4 5 6 
#
# 1 34.9858 22.7000 21.2883 0.0002 17.8027 0.0000
# 2 22.7000 124.7981 41.5239 -0.0002 23.8815 0.0000
# 3 21.2883 41.5239 127.4422 -0.0006 34.2721 0.0000
# 4 0.0002 -0.0002 -0.0006 55.3700 0.0000 19.9944
# 5 17.8027 23.8815 34.2721 0.0000 29.5000 0.0000
# 6 0.0000 0.0000 0.0000 19.9944 0.0000 32.9243
#
#
#
# Elastic Compliance Matrix: (Units=1/GPa)
#
#
# Indices 1 2 3 4 5 6 
#
# 1 0.042394 -0.003362 0.000236 0.000000 -0.023136 0.000000
# 2 -0.003362 0.009947 -0.001541 0.000000 -0.004233 0.000000
# 3 0.000236 -0.001541 0.011653 0.000000 -0.012433 0.000000
# 4 0.000000 0.000000 0.000000 0.023133 0.000000 -0.014048
# 5 -0.023136 -0.004233 -0.012433 0.000000 0.065731 0.000000
# 6 0.000000 0.000000 0.000000 -0.014048 0.000000 0.038904
#
#
# Mechanical properties :
#
#
# Convention : Reuss Voigt Hill
#
# Bulk Modulus (GPa) = 18.29533 50.91672 34.60602
# Shear Modulus (GPa) = 22.79802 37.00647 29.90225
#
# Velocity S-wave (km/s) = 2.99010 3.80957 3.42443
# Velocity P-wave (km/s) = 4.36987 6.27044 5.40436
#
# Compressibility (1/GPa) = 0.05465876
#
# Stress axis : x y z
#
# Youngs Moduli (GPa) = 23.58833 100.52901 85.81623
#
# Poissons Ratio (x) = 0.33801 -0.02022
# Poissons Ratio (y) = 0.07931 0.13224
# Poissons Ratio (z) = -0.00556 0.15491
#
# Static dielectric constant tensor:
#      x y z
#    x 4.067000 0.000000 0.622970 
#    y 0.000000 5.011760 0.000000 
#    z 0.622970 0.000000 4.933260 
# 
# 
# High freq. dielectric constant tensor:
#      x y z
#    x 1.982630 0.000000 0.039950 
#    y 0.000000 2.031000 0.000000 
#    z 0.039950 0.000000 2.024170 
# 
# From -- ./inp_files/303173.got.cif
#   From: 2010.06.25/outbox.cif.g09.slc.cpg/sg15_152_cif.got.tgz:303173.got - 2010.06.28 07:06:18.
