data_PCOD8137477
_publ_section_title
;
Structure prediction by ZEFSAII (Michael W. Deem and Ramdas Pophale) SiO2 
 PCOD8137477
Probable space group: C 2/C
;
_chemical_formula_sum "Si O2"
_cell_formula_units_Z 36
_cell_length_a 18.877280
_cell_length_b 17.719343
_cell_length_c 13.111723
_cell_angle_alpha 90.000000
_cell_angle_beta 20.084432
_cell_angle_gamma 90.000000
_cell_volume 1506.096513
_symmetry_space_group_name_H-M "C 2/C"
_symmetry_group_IT_number 15
_symmetry_cell_setting 'monoclinic'
loop_
_space_group_symop_operation_xyz
x,y,z
-x,y,1/2-z
-x,-y,-z
x,-y,1/2+z
1/2+x,1/2+y,z
1/2-x,1/2+y,1/2-z
1/2-x,1/2-y,-z
1/2+x,1/2-y,1/2+z
loop_
_atom_site_type_symbol
_atom_site_label
_atom_site_fract_x
_atom_site_fract_y
_atom_site_fract_z
Si Si1 0.602552 0.518361 0.207764
Si Si2 0.055338 0.668006 0.350633
Si Si3 0.500000 0.280699 0.250000
Si Si4 0.699610 0.970685 0.372240
Si Si5 0.537878 0.122325 0.811891
O O1 0.500000 0.475029 0.250000
O O2 0.761682 0.465777 0.057050
O O3 0.418698 0.549231 0.526677
O O4 0.729802 0.590439 0.994138
O O5 0.956474 0.730578 0.410125
O O6 0.974757 0.586103 0.428015
O O7 0.995484 0.682628 0.551145
O O8 0.301383 0.667288 0.002311
O O9 0.627627 0.055416 0.443807
O O10 0.500000 0.158141 0.750000
#
# Coordination Sequence:
#
# PCOD8137477 Si02
#       5
#     8   8   4   8   8
#     4  10  20  36  59 108 137 170 215 266 372 421
#     4  11  23  49  66  97 138 181 244 292 323 422
#     4  10  28  46  72  96 130 202 250 268 338 394
#     4  10  22  37  67 102 143 176 215 290 364 412
#     4  10  22  40  67 106 139 172 221 294 370 410
#
# _framework density 23.902849
#
# number of rings (size 3 to 8) (size 9 to 14) (size 15 to 20)
#    0.000    1.778    2.222    0.667    4.667    1.778 
#   20.000    1.111    0.000    0.000    0.000    0.000 
#    0.000    0.000    0.000    0.000    0.000    0.000 
#
# Total GULP energy -223106.285853 kJ/mol
# GULP energy per Si atom -12394.793659 kJ/mol
# Density = 2.384845 g / cm^3
# Si number density = 23.902849 Si / 1000 Ang^3
#
#
#
# Elastic Constant Matrix: (Units=GPa)
#
#
# Indices 1 2 3 4 5 6 
#
# 1 222.0912 45.0918 33.5193 0.0260 6.3382 -0.0185
# 2 45.0918 35.1641 24.2965 0.0248 3.7050 -0.0038
# 3 33.5193 24.2965 99.9239 0.0159 5.6313 -0.0064
# 4 0.0260 0.0248 0.0159 24.2869 -0.0160 0.1010
# 5 6.3382 3.7050 5.6313 -0.0160 47.6826 0.0240
# 6 -0.0185 -0.0038 -0.0064 0.1010 0.0240 27.9478
#
#
#
# Elastic Compliance Matrix: (Units=1/GPa)
#
#
# Indices 1 2 3 4 5 6 
#
# 1 0.006092 -0.007677 -0.000166 0.000001 -0.000194 0.000003
# 2 -0.007677 0.043989 -0.008039 -0.000032 -0.001448 0.000000
# 3 -0.000166 -0.008039 0.012062 0.000000 -0.000778 0.000002
# 4 0.000001 -0.000032 0.000000 0.041175 0.000016 -0.000149
# 5 -0.000194 -0.001448 -0.000778 0.000016 0.021202 -0.000019
# 6 0.000003 0.000000 0.000002 -0.000149 -0.000019 0.035782
#
#
# Mechanical properties :
#
#
# Convention : Reuss Voigt Hill
#
# Bulk Modulus (GPa) = 32.91724 62.55494 47.73609
# Shear Modulus (GPa) = 24.72896 36.93490 30.83193
#
# Velocity S-wave (km/s) = 3.21995 3.93518 3.59539
# Velocity P-wave (km/s) = 5.25597 6.84652 6.10328
#
# Compressibility (1/GPa) = 0.03037922
#
# Stress axis : x y z
#
# Youngs Moduli (GPa) = 164.15401 22.73280 82.90576
#
# Poissons Ratio (x) = 0.17451 0.01376
# Poissons Ratio (y) = 1.26015 0.66650
# Poissons Ratio (z) = 0.02725 0.18276
#
# Static dielectric constant tensor:
#      x y z
#    x 5.035400 -0.000070 0.020820 
#    y -0.000070 3.485490 0.000140 
#    z 0.020820 0.000140 4.460660 
# 
# 
# High freq. dielectric constant tensor:
#      x y z
#    x 1.983700 -0.000010 -0.002570 
#    y -0.000010 1.871240 0.000010 
#    z -0.002570 0.000010 1.968220 
# 
# From -- ./inp_files/168952.got.cif
#   From: 2010.06.25/outbox.cif.g09.slc.cpg/sg15_85_cif.got.tgz:168952.got - 2010.06.28 07:06:18.
