data_PCOD8137806
_publ_section_title
;
Structure prediction by ZEFSAII (Michael W. Deem and Ramdas Pophale) SiO2 
 PCOD8137806
Probable space group: C 2/C
;
_chemical_formula_sum "Si O2"
_cell_formula_units_Z 48
_cell_length_a 27.306937
_cell_length_b 9.765756
_cell_length_c 14.985419
_cell_angle_alpha 90.000000
_cell_angle_beta 142.013280
_cell_angle_gamma 90.000000
_cell_volume 2459.579452
_symmetry_space_group_name_H-M "C 2/C"
_symmetry_group_IT_number 15
_symmetry_cell_setting 'monoclinic'
loop_
_space_group_symop_operation_xyz
x,y,z
-x,y,1/2-z
-x,-y,-z
x,-y,1/2+z
1/2+x,1/2+y,z
1/2-x,1/2+y,1/2-z
1/2-x,1/2-y,-z
1/2+x,1/2-y,1/2+z
loop_
_atom_site_type_symbol
_atom_site_label
_atom_site_fract_x
_atom_site_fract_y
_atom_site_fract_z
Si Si1 0.849341 0.701079 0.230782
Si Si2 0.062674 0.166843 0.417984
Si Si3 0.689744 0.155907 0.519438
Si Si4 0.496834 0.661011 0.504672
Si Si5 0.321461 0.898272 0.878571
Si Si6 0.141737 0.122842 0.075831
O O1 0.784523 0.818949 0.160163
O O2 0.850592 0.595698 0.316627
O O3 0.931521 0.780052 0.332871
O O4 0.831362 0.620154 0.113438
O O5 0.131633 0.279072 0.500153
O O6 0.000000 0.146473 0.250000
O O7 0.008103 0.220784 0.421516
O O8 0.108902 0.026906 0.505834
O O9 0.645519 0.294419 0.488080
O O10 0.660418 0.038100 0.543793
O O11 0.500000 0.500000 0.500000
O O12 0.414984 0.702100 0.435255
O O13 0.227042 0.875564 0.746280
#
# Coordination Sequence:
#
# PCOD8137806 Si02
#       6
#     8   8   8   8   8   8
#     4   9  20  37  59  88 121 160 197 252 300 359
#     4  10  22  40  59  87 125 159 196 256 310 356
#     4  10  20  36  63  87 116 161 209 242 296 367
#     4   9  18  34  58  83 116 149 196 251 301 343
#     4  10  20  42  59  85 127 160 190 249 319 358
#     4  10  20  36  65  87 113 157 214 248 291 366
#
# _framework density 19.515532
#
# number of rings (size 3 to 8) (size 9 to 14) (size 15 to 20)
#    0.000    2.333    0.000    4.000    4.667    0.000 
#    9.000    2.500    0.000    0.000    0.000    0.000 
#    0.000    0.000    0.000    0.000    0.000    0.000 
#
# Total GULP energy -297405.777848 kJ/mol
# GULP energy per Si atom -12391.907410 kJ/mol
# Density = 1.947111 g / cm^3
# Si number density = 19.515532 Si / 1000 Ang^3
#
#
#
# Elastic Constant Matrix: (Units=GPa)
#
#
# Indices 1 2 3 4 5 6 
#
# 1 103.2572 40.5805 47.9491 0.0000 6.4105 0.0000
# 2 40.5805 86.0002 43.3141 0.0000 -5.0658 0.0000
# 3 47.9491 43.3141 114.9090 0.0000 3.8832 0.0000
# 4 0.0000 0.0000 0.0000 25.7282 0.0000 -1.0865
# 5 6.4105 -5.0658 3.8832 0.0000 29.9460 0.0000
# 6 0.0000 0.0000 0.0000 -1.0865 0.0000 30.4853
#
#
#
# Elastic Compliance Matrix: (Units=1/GPa)
#
#
# Indices 1 2 3 4 5 6 
#
# 1 0.013450 -0.004643 -0.003755 0.000000 -0.003178 0.000000
# 2 -0.004643 0.016256 -0.004336 0.000000 0.004306 0.000000
# 3 -0.003755 -0.004336 0.011954 0.000000 -0.001480 0.000000
# 4 0.000000 0.000000 0.000000 0.038926 0.000000 0.001387
# 5 -0.003178 0.004306 -0.001480 0.000000 0.034994 0.000000
# 6 0.000000 0.000000 0.000000 0.001387 0.000000 0.032852
#
#
# Mechanical properties :
#
#
# Convention : Reuss Voigt Hill
#
# Bulk Modulus (GPa) = 61.75540 63.09486 62.42513
# Shear Modulus (GPa) = 27.88670 28.72009 28.30339
#
# Velocity S-wave (km/s) = 3.78424 3.84037 3.81241
# Velocity P-wave (km/s) = 7.12790 7.21564 7.17190
#
# Compressibility (1/GPa) = 0.01619292
#
# Stress axis : x y z
#
# Youngs Moduli (GPa) = 74.34886 61.51602 83.65525
#
# Poissons Ratio (x) = 0.28559 0.31413
# Poissons Ratio (y) = 0.34517 0.36271
# Poissons Ratio (z) = 0.27919 0.26672
#
# Static dielectric constant tensor:
#      x y z
#    x 4.162650 0.000000 0.107360 
#    y 0.000000 3.318480 0.000000 
#    z 0.107360 0.000000 3.557030 
# 
# 
# High freq. dielectric constant tensor:
#      x y z
#    x 1.770610 0.000000 0.003790 
#    y 0.000000 1.735100 0.000000 
#    z 0.003790 0.000000 1.758910 
# 
# From -- ./inp_files/177017.got.cif
#   From: 2010.06.25/outbox.cif.g09.slc.cpg/sg15_89_cif.got.tgz:177017.got - 2010.06.28 07:06:18.
