data_PCOD8137059
_publ_section_title
;
Structure prediction by ZEFSAII (Michael W. Deem and Ramdas Pophale) SiO2 
 PCOD8137059
Probable space group: C 2/C
;
_chemical_formula_sum "Si O2"
_cell_formula_units_Z 64
_cell_length_a 20.606114
_cell_length_b 20.735725
_cell_length_c 8.214278
_cell_angle_alpha 90.000000
_cell_angle_beta 65.945826
_cell_angle_gamma 90.000000
_cell_volume 3205.027973
_symmetry_space_group_name_H-M "C 2/C"
_symmetry_group_IT_number 15
_symmetry_cell_setting 'monoclinic'
loop_
_space_group_symop_operation_xyz
x,y,z
-x,y,1/2-z
-x,-y,-z
x,-y,1/2+z
1/2+x,1/2+y,z
1/2-x,1/2+y,1/2-z
1/2-x,1/2-y,-z
1/2+x,1/2-y,1/2+z
loop_
_atom_site_type_symbol
_atom_site_label
_atom_site_fract_x
_atom_site_fract_y
_atom_site_fract_z
Si Si1 0.130176 0.530067 0.995190
Si Si2 0.210186 0.063292 0.692767
Si Si3 0.304197 0.334083 0.029852
Si Si4 0.429053 0.586410 0.257649
Si Si5 0.843823 0.309630 0.485411
Si Si6 0.947851 0.387581 0.168441
Si Si7 0.913830 0.404336 0.628538
Si Si8 0.380414 0.530761 0.998839
O O1 0.213775 0.535600 0.936519
O O2 0.110589 0.563997 0.843500
O O3 0.104050 0.456591 0.998494
O O4 0.094389 0.565272 0.185620
O O5 0.213664 0.131440 0.781526
O O6 0.163828 0.075930 0.578713
O O7 0.175733 0.007240 0.833949
O O8 0.232499 0.330595 0.001225
O O9 0.358439 0.374780 0.867814
O O10 0.341519 0.265935 0.025968
O O11 0.500000 0.623030 0.250000
O O12 0.430620 0.575236 0.061267
O O13 0.430030 0.518147 0.350104
O O14 0.906320 0.325942 0.288324
O O15 0.859833 0.345904 0.640427
O O16 0.000000 0.419421 0.250000
O O17 0.005683 0.374976 0.964623
#
# Coordination Sequence:
#
# PCOD8137059 Si02
#       8
#     8   8   8   8   8   8   8   8
#     4  12  22  36  59  92 125 158 195 242 298 350
#     4  10  20  35  59  90 122 156 195 245 289 350
#     4  10  22  40  62  82 114 151 209 240 291 349
#     4  10  20  35  60  87 116 150 187 237 298 357
#     4  10  22  42  59  82 113 160 198 250 286 343
#     4  10  21  39  59  84 120 158 195 240 289 347
#     4  11  24  35  60  87 124 158 199 238 296 352
#     4   9  20  34  56  89 124 148 185 240 302 352
#
# _framework density 19.968624999999999
#
# number of rings (size 3 to 8) (size 9 to 14) (size 15 to 20)
#    0.000    1.750    1.250    3.375    7.000    2.500 
#    0.000    1.875    0.000    3.000    0.000    0.000 
#    0.000    0.000    0.000    0.000    0.000    0.000 
#
# Total GULP energy -396542.519168 kJ/mol
# GULP energy per Si atom -12391.953724 kJ/mol
# Density = 1.992318 g / cm^3
# Si number density = 19.968625 Si / 1000 Ang^3
#
#
#
# Elastic Constant Matrix: (Units=GPa)
#
#
# Indices 1 2 3 4 5 6 
#
# 1 97.5386 26.7178 20.6128 0.0000 3.1550 0.0000
# 2 26.7178 80.8858 8.9279 0.0000 1.6617 0.0000
# 3 20.6128 8.9279 63.2058 0.0000 -2.1836 0.0000
# 4 0.0000 0.0000 0.0000 18.8169 0.0000 0.1588
# 5 3.1550 1.6617 -2.1836 0.0000 37.5085 0.0000
# 6 0.0000 0.0000 0.0000 0.1588 0.0000 15.0737
#
#
#
# Elastic Compliance Matrix: (Units=1/GPa)
#
#
# Indices 1 2 3 4 5 6 
#
# 1 0.011989 -0.003558 -0.003443 0.000000 -0.001051 0.000000
# 2 -0.003558 0.013631 -0.000777 0.000000 -0.000350 0.000000
# 3 -0.003443 -0.000777 0.017100 0.000000 0.001320 0.000000
# 4 0.000000 0.000000 0.000000 0.053148 0.000000 -0.000560
# 5 -0.001051 -0.000350 0.001320 0.000000 0.026841 0.000000
# 6 0.000000 0.000000 0.000000 -0.000560 0.000000 0.066347
#
#
# Mechanical properties :
#
#
# Convention : Reuss Voigt Hill
#
# Bulk Modulus (GPa) = 36.81615 39.34967 38.08291
# Shear Modulus (GPa) = 23.40076 26.63793 25.01935
#
# Velocity S-wave (km/s) = 3.42698 3.65634 3.54352
# Velocity P-wave (km/s) = 5.84260 6.12974 5.98789
#
# Compressibility (1/GPa) = 0.02716200
#
# Stress axis : x y z
#
# Youngs Moduli (GPa) = 83.41129 73.35971 58.48063
#
# Poissons Ratio (x) = 0.26104 0.20138
# Poissons Ratio (y) = 0.29681 0.04544
# Poissons Ratio (z) = 0.28723 0.05701
#
# Static dielectric constant tensor:
#      x y z
#    x 3.874830 0.000000 -0.006260 
#    y 0.000000 3.440280 0.000000 
#    z -0.006260 0.000000 3.849210 
# 
# 
# High freq. dielectric constant tensor:
#      x y z
#    x 1.801480 0.000000 -0.003070 
#    y 0.000000 1.739840 0.000000 
#    z -0.003070 0.000000 1.781630 
# 
# From -- ./inp_files/57846.got.cif
#   From: 2010.06.25/outbox.cif.g09.slc.cpg/sg15_29_cif.got.tgz:57846.got - 2010.06.28 07:06:18.
