data_PCOD8137178
_publ_section_title
;
Structure prediction by ZEFSAII (Michael W. Deem and Ramdas Pophale) SiO2 
 PCOD8137178
Probable space group: C 2/C
;
_chemical_formula_sum "Si O2"
_cell_formula_units_Z 64
_cell_length_a 15.334659
_cell_length_b 18.617271
_cell_length_c 23.457204
_cell_angle_alpha 90.000000
_cell_angle_beta 28.361688
_cell_angle_gamma 90.000000
_cell_volume 3181.213576
_symmetry_space_group_name_H-M "C 2/C"
_symmetry_group_IT_number 15
_symmetry_cell_setting 'monoclinic'
loop_
_space_group_symop_operation_xyz
x,y,z
-x,y,1/2-z
-x,-y,-z
x,-y,1/2+z
1/2+x,1/2+y,z
1/2-x,1/2+y,1/2-z
1/2-x,1/2-y,-z
1/2+x,1/2-y,1/2+z
loop_
_atom_site_type_symbol
_atom_site_label
_atom_site_fract_x
_atom_site_fract_y
_atom_site_fract_z
Si Si1 0.144967 0.696407 0.521339
Si Si2 0.255016 0.502393 0.281939
Si Si3 0.793813 0.930017 0.378198
Si Si4 0.371943 0.755478 0.769207
Si Si5 0.471608 0.138842 0.116080
Si Si6 0.231324 0.849253 0.269533
Si Si7 0.549930 0.744006 0.958279
Si Si8 0.094791 0.933698 0.635686
O O1 0.250000 0.750000 0.500000
O O2 0.155238 0.732846 0.454042
O O3 0.258121 0.624395 0.465064
O O4 0.936518 0.680903 0.657643
O O5 0.206543 0.464100 0.370447
O O6 0.100297 0.557181 0.348467
O O7 0.274947 0.435727 0.227540
O O8 0.436601 0.552631 0.179700
O O9 0.680563 0.864572 0.471153
O O10 0.000000 0.901305 0.250000
O O11 0.793070 0.992587 0.425188
O O12 0.500000 0.740902 0.750000
O O13 0.449435 0.827031 0.691907
O O14 0.367518 0.685464 0.729923
O O15 0.165788 0.768410 0.909173
O O16 0.379333 0.194837 0.126299
O O17 0.125219 0.830028 0.388710
O O18 0.000000 0.914256 0.750000
#
# Coordination Sequence:
#
# PCOD8137178 Si02
#       8
#     8   8   8   8   8   8   8   8
#     4  11  23  36  64  89 125 162 212 258 306 381
#     4  10  20  35  63  91 123 154 204 259 314 368
#     4   9  18  32  55  92 118 147 195 256 312 356
#     4  10  24  41  61  90 124 164 212 249 313 380
#     4  11  21  37  66  84 122 161 200 260 310 363
#     4  10  23  41  60  91 127 167 203 265 312 371
#     4  10  23  41  60  89 124 161 210 256 317 372
#     4   9  20  33  57  91 121 150 198 259 314 354
#
# _framework density 20.118107999999999
#
# number of rings (size 3 to 8) (size 9 to 14) (size 15 to 20)
#    0.000    2.250    0.000    4.125    7.000    8.500 
#    0.000    0.625    5.500    0.000    0.000    0.000 
#    0.000    0.000    0.000    0.000    0.000    0.000 
#
# Total GULP energy -396500.172193 kJ/mol
# GULP energy per Si atom -12390.630381 kJ/mol
# Density = 2.007232 g / cm^3
# Si number density = 20.118108 Si / 1000 Ang^3
#
#
#
# Elastic Constant Matrix: (Units=GPa)
#
#
# Indices 1 2 3 4 5 6 
#
# 1 90.8732 40.4560 40.0068 -0.0466 -11.2931 -0.0269
# 2 40.4560 104.9960 58.5408 -0.0474 -4.0315 -0.0249
# 3 40.0068 58.5408 89.8374 0.0022 -1.7419 0.0134
# 4 -0.0466 -0.0474 0.0022 31.3697 0.0301 -4.9217
# 5 -11.2931 -4.0315 -1.7419 0.0301 24.1118 0.0106
# 6 -0.0269 -0.0249 0.0134 -4.9217 0.0106 20.1786
#
#
#
# Elastic Compliance Matrix: (Units=1/GPa)
#
#
# Indices 1 2 3 4 5 6 
#
# 1 0.015180 -0.002995 -0.004687 0.000015 0.006271 0.000020
# 2 -0.002995 0.015628 -0.008839 0.000023 0.000572 0.000027
# 3 -0.004687 -0.008839 0.018934 -0.000025 -0.002305 -0.000035
# 4 0.000015 0.000023 -0.000025 0.033146 -0.000036 0.008085
# 5 0.006271 0.000572 -0.002305 -0.000036 0.044339 -0.000021
# 6 0.000020 0.000027 -0.000035 0.008085 -0.000021 0.051529
#
#
# Mechanical properties :
#
#
# Convention : Reuss Voigt Hill
#
# Bulk Modulus (GPa) = 59.87979 62.63487 61.25733
# Shear Modulus (GPa) = 23.00259 24.91223 23.95741
#
# Velocity S-wave (km/s) = 3.38505 3.52276 3.45460
# Velocity P-wave (km/s) = 6.71616 6.90997 6.81376
#
# Compressibility (1/GPa) = 0.01670012
#
# Stress axis : x y z
#
# Youngs Moduli (GPa) = 65.87412 63.98574 52.81635
#
# Poissons Ratio (x) = 0.19165 0.24754
# Poissons Ratio (y) = 0.19731 0.46685
# Poissons Ratio (z) = 0.30874 0.56557
#
# Static dielectric constant tensor:
#      x y z
#    x 3.525220 -0.000380 -0.167600 
#    y -0.000380 4.040600 -0.000020 
#    z -0.167600 -0.000020 3.597990 
# 
# 
# High freq. dielectric constant tensor:
#      x y z
#    x 1.766570 0.000000 -0.019540 
#    y 0.000000 1.792430 0.000000 
#    z -0.019540 0.000000 1.779690 
# 
# From -- ./inp_files/274810.got.cif
#   From: 2010.06.25/outbox.cif.g09.slc.cpg/sg15_138_cif.got.tgz:274810.got - 2010.06.28 07:06:18.
