data_PCOD8137365
_publ_section_title
;
Structure prediction by ZEFSAII (Michael W. Deem and Ramdas Pophale) SiO2 
 PCOD8137365
Probable space group: C 2/C
;
_chemical_formula_sum "Si O2"
_cell_formula_units_Z 60
_cell_length_a 19.700864
_cell_length_b 22.090103
_cell_length_c 15.673535
_cell_angle_alpha 90.000000
_cell_angle_beta 26.447932
_cell_angle_gamma 90.000000
_cell_volume 3037.980100
_symmetry_space_group_name_H-M "C 2/C"
_symmetry_group_IT_number 15
_symmetry_cell_setting 'monoclinic'
loop_
_space_group_symop_operation_xyz
x,y,z
-x,y,1/2-z
-x,-y,-z
x,-y,1/2+z
1/2+x,1/2+y,z
1/2-x,1/2+y,1/2-z
1/2-x,1/2-y,-z
1/2+x,1/2-y,1/2+z
loop_
_atom_site_type_symbol
_atom_site_label
_atom_site_fract_x
_atom_site_fract_y
_atom_site_fract_z
Si Si1 0.213960 0.997992 0.282323
Si Si2 0.969603 0.196935 0.461106
Si Si3 0.963897 0.429781 0.420837
Si Si4 0.359536 0.816483 0.249630
Si Si5 0.474930 0.403574 0.089336
Si Si6 0.229880 0.026621 0.957288
Si Si7 0.769318 0.863091 0.941471
Si Si8 0.500000 0.427631 0.250000
O O1 0.175119 0.945185 0.257526
O O2 0.196687 0.968809 0.394359
O O3 0.106833 0.057016 0.395939
O O4 0.382445 0.023108 0.075440
O O5 0.018293 0.266494 0.417617
O O6 0.092071 0.170372 0.258243
O O7 0.798843 0.194431 0.619489
O O8 0.971659 0.161835 0.548830
O O9 0.846685 0.393258 0.494453
O O10 0.063902 0.380863 0.362347
O O11 0.087977 0.469906 0.228213
O O12 0.326434 0.817373 0.389407
O O13 0.500727 0.389527 0.161244
O O14 0.153285 0.084825 0.087763
O O15 0.154018 0.967178 0.082052
#
# Coordination Sequence:
#
# PCOD8137365 Si02
#       8
#     8   8   8   8   8   8   8   4
#     4  10  20  36  57  87 121 159 199 235 292 349
#     4  12  24  41  59  85 117 157 199 239 294 355
#     4  11  21  38  57  86 127 162 195 238 286 345
#     4  11  25  37  59  87 114 160 195 239 291 345
#     4  10  21  37  61  84 116 158 194 247 295 347
#     4  10  21  31  55  86 121 162 190 239 286 345
#     4  11  22  36  56  84 128 155 196 236 286 349
#     4  10  22  36  56  88 118 150 202 242 300 356
#
# _framework density 19.749966000000001
#
# number of rings (size 3 to 8) (size 9 to 14) (size 15 to 20)
#    0.000    1.333    1.333    6.000    7.467    1.067 
#    0.000    0.000    0.000    0.800    0.000    0.000 
#    0.000    0.000    0.000    0.000    0.000    0.000 
#
# Total GULP energy -371778.985112 kJ/mol
# GULP energy per Si atom -12392.632837 kJ/mol
# Density = 1.970501 g / cm^3
# Si number density = 19.749966 Si / 1000 Ang^3
#
#
#
# Elastic Constant Matrix: (Units=GPa)
#
#
# Indices 1 2 3 4 5 6 
#
# 1 82.4755 30.1303 21.4761 -0.0228 -0.7394 -0.0021
# 2 30.1303 68.8119 40.3746 -0.0625 -1.6870 -0.0122
# 3 21.4761 40.3746 87.2955 -0.0658 -10.5745 0.0015
# 4 -0.0228 -0.0625 -0.0658 35.2643 -0.0012 -4.1519
# 5 -0.7394 -1.6870 -10.5745 -0.0012 35.2428 -0.0067
# 6 -0.0021 -0.0122 0.0015 -4.1519 -0.0067 23.9656
#
#
#
# Elastic Compliance Matrix: (Units=1/GPa)
#
#
# Indices 1 2 3 4 5 6 
#
# 1 0.014483 -0.005819 -0.000902 -0.000003 -0.000245 -0.000002
# 2 -0.005819 0.022403 -0.009148 0.000021 -0.001794 0.000015
# 3 -0.000902 -0.009148 0.016451 0.000014 0.004479 -0.000002
# 4 -0.000003 0.000021 0.000014 0.028948 0.000007 0.005015
# 5 -0.000245 -0.001794 0.004479 0.000007 0.029628 0.000008
# 6 -0.000002 0.000015 -0.000002 0.005015 0.000008 0.042595
#
#
# Mechanical properties :
#
#
# Convention : Reuss Voigt Hill
#
# Bulk Modulus (GPa) = 46.29330 46.94943 46.62137
# Shear Modulus (GPa) = 25.84732 28.66800 27.25766
#
# Velocity S-wave (km/s) = 3.62156 3.81405 3.71905
# Velocity P-wave (km/s) = 6.40142 6.57415 6.48836
#
# Compressibility (1/GPa) = 0.02160140
#
# Stress axis : x y z
#
# Youngs Moduli (GPa) = 69.04610 44.63614 60.78828
#
# Poissons Ratio (x) = 0.25972 0.05481
# Poissons Ratio (y) = 0.40175 0.55606
# Poissons Ratio (z) = 0.06225 0.40831
#
# Static dielectric constant tensor:
#      x y z
#    x 3.556690 -0.000060 -0.203490 
#    y -0.000060 3.551520 0.000120 
#    z -0.203490 0.000120 3.825650 
# 
# 
# High freq. dielectric constant tensor:
#      x y z
#    x 1.764040 -0.000010 -0.018090 
#    y -0.000010 1.745890 0.000010 
#    z -0.018090 0.000010 1.772500 
# 
# From -- ./inp_files/164099.got.cif
#   From: 2010.06.25/outbox.cif.g09.slc.cpg/sg15_83_cif.got.tgz:164099.got - 2010.06.28 07:06:18.
