data_PCOD8137532
_publ_section_title
;
Structure prediction by ZEFSAII (Michael W. Deem and Ramdas Pophale) SiO2 
 PCOD8137532
Probable space group: C 2/C
;
_chemical_formula_sum "Si O2"
_cell_formula_units_Z 64
_cell_length_a 18.727906
_cell_length_b 15.074984
_cell_length_c 11.969810
_cell_angle_alpha 90.000000
_cell_angle_beta 72.277219
_cell_angle_gamma 90.000000
_cell_volume 3218.969022
_symmetry_space_group_name_H-M "C 2/C"
_symmetry_group_IT_number 15
_symmetry_cell_setting 'monoclinic'
loop_
_space_group_symop_operation_xyz
x,y,z
-x,y,1/2-z
-x,-y,-z
x,-y,1/2+z
1/2+x,1/2+y,z
1/2-x,1/2+y,1/2-z
1/2-x,1/2-y,-z
1/2+x,1/2-y,1/2+z
loop_
_atom_site_type_symbol
_atom_site_label
_atom_site_fract_x
_atom_site_fract_y
_atom_site_fract_z
Si Si1 0.263721 0.944052 0.794663
Si Si2 0.034624 0.738135 0.848842
Si Si3 0.723807 0.639605 0.778555
Si Si4 0.320116 0.307850 0.807974
Si Si5 0.615465 0.722943 0.983842
Si Si6 0.768324 0.650343 0.510934
Si Si7 0.592723 0.909047 0.894209
Si Si8 0.427901 0.903561 0.994976
O O1 0.220891 0.898776 0.709654
O O2 0.352779 0.926605 0.736370
O O3 0.250984 0.047767 0.816767
O O4 0.233794 0.903337 0.924239
O O5 0.101008 0.807193 0.794545
O O6 0.063648 0.648596 0.892474
O O7 0.000000 0.703179 0.750000
O O8 0.972486 0.792687 0.949637
O O9 0.775417 0.720974 0.791065
O O10 0.640686 0.663223 0.865256
O O11 0.726893 0.622555 0.644464
O O12 0.332180 0.303970 0.935766
O O13 0.625496 0.827168 0.950772
O O14 0.750000 0.750000 0.500000
O O15 0.858203 0.639143 0.464244
O O16 0.591739 0.993835 0.976067
O O17 0.507246 0.892492 0.891141
#
# Coordination Sequence:
#
# PCOD8137532 Si02
#       8
#     8   8   8   8   8   8   8   8
#     4  12  25  37  62  89 121 164 205 253 306 371
#     4   9  18  37  60  87 117 160 196 247 306 360
#     4  12  24  39  59  91 122 157 208 251 301 369
#     4  11  21  40  62  90 119 157 199 251 306 361
#     4  10  22  36  65  87 121 151 203 252 304 360
#     4  12  23  41  60  85 129 168 205 247 316 374
#     4  10  20  39  55  94 123 158 200 250 308 370
#     4  10  20  36  59  88 130 158 199 246 307 381
#
# _framework density 19.882142999999999
#
# number of rings (size 3 to 8) (size 9 to 14) (size 15 to 20)
#    0.000    1.250    5.000    0.375    3.500    0.500 
#    4.500    0.625    0.000    0.750    0.000    0.000 
#    0.000    0.000    0.000    0.000    0.000    0.000 
#
# Total GULP energy -396643.120453 kJ/mol
# GULP energy per Si atom -12395.097514 kJ/mol
# Density = 1.983689 g / cm^3
# Si number density = 19.882143 Si / 1000 Ang^3
#
#
#
# Elastic Constant Matrix: (Units=GPa)
#
#
# Indices 1 2 3 4 5 6 
#
# 1 68.5623 33.6057 32.3674 0.0000 -12.4578 0.0000
# 2 33.6057 82.6914 36.0890 0.0000 -6.8073 0.0000
# 3 32.3674 36.0890 107.7028 0.0000 -19.0455 0.0000
# 4 0.0000 0.0000 0.0000 27.5328 0.0000 -2.9467
# 5 -12.4578 -6.8073 -19.0455 0.0000 36.6001 0.0000
# 6 0.0000 0.0000 0.0000 -2.9467 0.0000 31.7604
#
#
#
# Elastic Compliance Matrix: (Units=1/GPa)
#
#
# Indices 1 2 3 4 5 6 
#
# 1 0.019925 -0.006400 -0.003144 0.000000 0.003956 0.000000
# 2 -0.006400 0.016221 -0.003705 0.000000 -0.001089 0.000000
# 3 -0.003144 -0.003705 0.012291 0.000000 0.004637 0.000000
# 4 0.000000 0.000000 0.000000 0.036685 0.000000 0.003404
# 5 0.003956 -0.001089 0.004637 0.000000 0.030879 0.000000
# 6 0.000000 0.000000 0.000000 0.003404 0.000000 0.031802
#
#
# Mechanical properties :
#
#
# Convention : Reuss Voigt Hill
#
# Bulk Modulus (GPa) = 45.57839 51.45342 48.51591
# Shear Modulus (GPa) = 27.53113 29.63830 28.58471
#
# Velocity S-wave (km/s) = 3.72521 3.86515 3.79583
# Velocity P-wave (km/s) = 6.44027 6.77160 6.60801
#
# Compressibility (1/GPa) = 0.02194022
#
# Stress axis : x y z
#
# Youngs Moduli (GPa) = 50.18792 61.64778 81.36068
#
# Poissons Ratio (x) = 0.39453 0.25580
# Poissons Ratio (y) = 0.32119 0.30142
# Poissons Ratio (z) = 0.15779 0.22839
#
# Static dielectric constant tensor:
#      x y z
#    x 3.881930 0.000000 -0.452300 
#    y 0.000000 3.211390 0.000000 
#    z -0.452300 0.000000 3.851970 
# 
# 
# High freq. dielectric constant tensor:
#      x y z
#    x 1.767710 0.000000 -0.018250 
#    y 0.000000 1.763720 0.000000 
#    z -0.018250 0.000000 1.780690 
# 
# From -- ./inp_files/112721.got.cif
#   From: 2010.06.25/outbox.cif.g09.slc.cpg/sg15_57_cif.got.tgz:112721.got - 2010.06.28 07:06:18.
