data_PCOD8137667
_publ_section_title
;
Structure prediction by ZEFSAII (Michael W. Deem and Ramdas Pophale) SiO2 
 PCOD8137667
Probable space group: C 2/C
;
_chemical_formula_sum "Si O2"
_cell_formula_units_Z 56
_cell_length_a 33.158909
_cell_length_b 10.683749
_cell_length_c 8.738676
_cell_angle_alpha 90.000000
_cell_angle_beta 72.001432
_cell_angle_gamma 90.000000
_cell_volume 2944.281966
_symmetry_space_group_name_H-M "C 2/C"
_symmetry_group_IT_number 15
_symmetry_cell_setting 'monoclinic'
loop_
_space_group_symop_operation_xyz
x,y,z
-x,y,1/2-z
-x,-y,-z
x,-y,1/2+z
1/2+x,1/2+y,z
1/2-x,1/2+y,1/2-z
1/2-x,1/2-y,-z
1/2+x,1/2-y,1/2+z
loop_
_atom_site_type_symbol
_atom_site_label
_atom_site_fract_x
_atom_site_fract_y
_atom_site_fract_z
Si Si1 0.414650 0.411880 0.462609
Si Si2 0.029947 0.951045 0.833491
Si Si3 0.363449 0.173598 0.524124
Si Si4 0.701726 0.641808 0.278468
Si Si5 0.332089 0.575251 0.507150
Si Si6 0.338147 0.988409 0.304088
Si Si7 0.297568 0.835510 0.609779
O O1 0.430880 0.391312 0.619894
O O2 0.451750 0.439860 0.298191
O O3 0.398140 0.275401 0.440692
O O4 0.378834 0.520967 0.494299
O O5 0.000000 0.868032 0.750000
O O6 0.000000 0.000000 0.000000
O O7 0.318391 0.241034 0.607557
O O8 0.363554 0.082436 0.380318
O O9 0.372677 0.089648 0.664312
O O10 0.702966 0.524870 0.394323
O O11 0.747350 0.687038 0.168721
O O12 0.672668 0.598605 0.168707
O O13 0.323365 0.706165 0.605600
O O14 0.307618 0.066547 0.229957
O O15 0.309331 0.891204 0.431138
#
# Coordination Sequence:
#
# PCOD8137667 Si02
#       7
#     8   8   8   8   8   8   8
#     4  10  20  36  61  87 125 139 181 236 276 356
#     4   9  19  36  60  95 120 142 166 209 294 357
#     4  10  22  38  54  80 112 151 198 241 287 335
#     4  11  23  36  52  78 108 153 201 252 301 335
#     4  11  23  35  56  82 111 153 197 237 305 324
#     4  10  23  38  52  75 108 150 206 237 290 325
#     4  11  23  37  54  71 114 149 207 254 288 335
#
# _framework density 19.019917
#
# number of rings (size 3 to 8) (size 9 to 14) (size 15 to 20)
#    0.000    1.714    1.429    3.000   10.000    0.571 
#    0.000    0.000    0.000    0.000    0.000   13.000 
#    0.000    0.000    0.000    0.000    0.000    0.000 
#
# Total GULP energy -346913.411699 kJ/mol
# GULP energy per Si atom -12389.764704 kJ/mol
# Density = 1.897663 g / cm^3
# Si number density = 19.019917 Si / 1000 Ang^3
#
#
#
# Elastic Constant Matrix: (Units=GPa)
#
#
# Indices 1 2 3 4 5 6 
#
# 1 88.5378 32.0966 34.7062 0.0000 0.1635 0.0000
# 2 32.0966 113.3045 37.6091 0.0000 -1.6173 0.0000
# 3 34.7062 37.6091 92.7570 0.0000 3.3039 0.0000
# 4 0.0000 0.0000 0.0000 17.2801 0.0000 -1.0782
# 5 0.1635 -1.6173 3.3039 0.0000 25.0974 0.0000
# 6 0.0000 0.0000 0.0000 -1.0782 0.0000 6.8143
#
#
#
# Elastic Compliance Matrix: (Units=1/GPa)
#
#
# Indices 1 2 3 4 5 6 
#
# 1 0.013845 -0.002536 -0.004163 0.000000 0.000294 0.000000
# 2 -0.002536 0.010699 -0.003430 0.000000 0.001158 0.000000
# 3 -0.004163 -0.003430 0.013801 0.000000 -0.002011 0.000000
# 4 0.000000 0.000000 0.000000 0.058447 0.000000 0.009248
# 5 0.000294 0.001158 -0.002011 0.000000 0.040182 0.000000
# 6 0.000000 0.000000 0.000000 0.009248 0.000000 0.148213
#
#
# Mechanical properties :
#
#
# Convention : Reuss Voigt Hill
#
# Bulk Modulus (GPa) = 55.28793 55.93591 55.61192
# Shear Modulus (GPa) = 16.05268 22.51753 19.28510
#
# Velocity S-wave (km/s) = 2.90831 3.44451 3.18770
# Velocity P-wave (km/s) = 6.35682 6.72997 6.54606
#
# Compressibility (1/GPa) = 0.01808713
#
# Stress axis : x y z
#
# Youngs Moduli (GPa) = 72.22746 93.46314 72.45928
#
# Poissons Ratio (x) = 0.23704 0.30161
# Poissons Ratio (y) = 0.18318 0.24857
# Poissons Ratio (z) = 0.30065 0.32062
#
# Static dielectric constant tensor:
#      x y z
#    x 3.683460 0.000000 0.265590 
#    y 0.000000 3.519040 0.000000 
#    z 0.265590 0.000000 3.775330 
# 
# 
# High freq. dielectric constant tensor:
#      x y z
#    x 1.717150 0.000000 0.011140 
#    y 0.000000 1.728940 0.000000 
#    z 0.011140 0.000000 1.762910 
# 
# From -- ./inp_files/69047.got.cif
#   From: 2010.06.25/outbox.cif.g09.slc.cpg/sg15_35_cif.got.tgz:69047.got - 2010.06.28 07:06:18.
