data_PCOD8137447
_publ_section_title
;
Structure prediction by ZEFSAII (Michael W. Deem and Ramdas Pophale) SiO2 
 PCOD8137447
Probable space group: C 2/C
;
_chemical_formula_sum "Si O2"
_cell_formula_units_Z 40
_cell_length_a 16.188868
_cell_length_b 8.487267
_cell_length_c 27.246835
_cell_angle_alpha 90.000000
_cell_angle_beta 146.158493
_cell_angle_gamma 90.000000
_cell_volume 2084.854003
_symmetry_space_group_name_H-M "C 2/C"
_symmetry_group_IT_number 15
_symmetry_cell_setting 'monoclinic'
loop_
_space_group_symop_operation_xyz
x,y,z
-x,y,1/2-z
-x,-y,-z
x,-y,1/2+z
1/2+x,1/2+y,z
1/2-x,1/2+y,1/2-z
1/2-x,1/2-y,-z
1/2+x,1/2-y,1/2+z
loop_
_atom_site_type_symbol
_atom_site_label
_atom_site_fract_x
_atom_site_fract_y
_atom_site_fract_z
Si Si1 0.861583 0.411632 0.408015
Si Si2 0.351186 0.700078 0.614747
Si Si3 0.027657 0.767278 0.910393
Si Si4 0.722229 0.998727 0.465582
Si Si5 0.925685 0.940664 0.761970
O O1 0.775077 0.324059 0.407771
O O2 0.905232 0.275322 0.390527
O O3 0.752186 0.542711 0.329890
O O4 0.000000 0.500000 0.500000
O O5 0.305465 0.616960 0.542178
O O6 0.508157 0.619387 0.705033
O O7 0.363763 0.890311 0.615986
O O8 0.959181 0.839989 0.826963
O O9 0.100959 0.600762 0.934351
O O10 0.152226 0.882849 0.995496
O O11 0.000000 0.857603 0.750000
#
# Coordination Sequence:
#
# PCOD8137447 Si02
#       5
#     8   8   8   8   8
#     4  11  21  37  60  85 115 153 189 237 289 335
#     4   9  18  37  59  81 113 152 189 228 284 344
#     4  10  20  36  58  88 115 144 194 238 286 338
#     4   9  18  34  60  84 110 150 188 231 282 340
#     4   9  21  39  57  79 115 156 190 234 289 344
#
# _framework density 19.185995999999999
#
# number of rings (size 3 to 8) (size 9 to 14) (size 15 to 20)
#    0.000    2.400    2.000    0.000    2.800    2.400 
#    3.600    5.000    0.000    0.000    0.000    0.000 
#    0.000    0.000    0.000    0.000    0.000    0.000 
#
# Total GULP energy -247803.168766 kJ/mol
# GULP energy per Si atom -12390.158438 kJ/mol
# Density = 1.914233 g / cm^3
# Si number density = 19.185996 Si / 1000 Ang^3
#
#
#
# Elastic Constant Matrix: (Units=GPa)
#
#
# Indices 1 2 3 4 5 6 
#
# 1 71.8686 19.6972 11.2461 0.0000 12.6159 0.0000
# 2 19.6972 90.1585 25.9837 0.0000 1.7881 0.0001
# 3 11.2461 25.9837 94.9746 0.0000 8.9805 0.0000
# 4 0.0000 0.0000 0.0000 22.2929 0.0000 -8.8036
# 5 12.6159 1.7881 8.9805 0.0000 27.5025 0.0000
# 6 0.0000 0.0001 0.0000 -8.8036 0.0000 28.5718
#
#
#
# Elastic Compliance Matrix: (Units=1/GPa)
#
#
# Indices 1 2 3 4 5 6 
#
# 1 0.016107 -0.003280 -0.000342 0.000000 -0.007064 0.000000
# 2 -0.003280 0.012711 -0.003254 0.000000 0.001741 0.000000
# 3 -0.000342 -0.003254 0.011789 0.000000 -0.003481 0.000000
# 4 0.000000 0.000000 0.000000 0.051072 0.000000 0.015736
# 5 -0.007064 0.001741 -0.003481 0.000000 0.040624 0.000000
# 6 0.000000 0.000000 0.000000 0.015736 0.000000 0.039848
#
#
# Mechanical properties :
#
#
# Convention : Reuss Voigt Hill
#
# Bulk Modulus (GPa) = 37.23673 41.20619 39.22146
# Shear Modulus (GPa) = 25.66009 29.01175 27.33592
#
# Velocity S-wave (km/s) = 3.66107 3.89283 3.77873
# Velocity P-wave (km/s) = 6.10914 6.45983 6.28693
#
# Compressibility (1/GPa) = 0.02685520
#
# Stress axis : x y z
#
# Youngs Moduli (GPa) = 62.08574 78.66913 84.82492
#
# Poissons Ratio (x) = 0.25806 0.02900
# Poissons Ratio (y) = 0.20366 0.27601
# Poissons Ratio (z) = 0.02123 0.25598
#
# Static dielectric constant tensor:
#      x y z
#    x 3.617390 0.000000 -0.102710 
#    y 0.000000 3.711920 0.000000 
#    z -0.102710 0.000000 3.756020 
# 
# 
# High freq. dielectric constant tensor:
#      x y z
#    x 1.742050 0.000000 -0.001660 
#    y 0.000000 1.736130 0.000000 
#    z -0.001660 0.000000 1.747080 
# 
# From -- ./inp_files/202203.got.cif
#   From: 2010.06.25/outbox.cif.g09.slc.cpg/sg15_102_cif.got.tgz:202203.got - 2010.06.28 07:06:18.
