data_PCOD8137724
_publ_section_title
;
Structure prediction by ZEFSAII (Michael W. Deem and Ramdas Pophale) SiO2 
 PCOD8137724
Probable space group: C 2/C
;
_chemical_formula_sum "Si O2"
_cell_formula_units_Z 32
_cell_length_a 18.705036
_cell_length_b 14.574042
_cell_length_c 10.093110
_cell_angle_alpha 90.000000
_cell_angle_beta 36.134609
_cell_angle_gamma 90.000000
_cell_volume 1622.494163
_symmetry_space_group_name_H-M "C 2/C"
_symmetry_group_IT_number 15
_symmetry_cell_setting 'monoclinic'
loop_
_space_group_symop_operation_xyz
x,y,z
-x,y,1/2-z
-x,-y,-z
x,-y,1/2+z
1/2+x,1/2+y,z
1/2-x,1/2+y,1/2-z
1/2-x,1/2-y,-z
1/2+x,1/2-y,1/2+z
loop_
_atom_site_type_symbol
_atom_site_label
_atom_site_fract_x
_atom_site_fract_y
_atom_site_fract_z
Si Si1 0.917356 0.910634 0.622088
Si Si2 0.689944 0.918874 0.809486
Si Si3 0.497476 0.228491 0.906888
Si Si4 0.681036 0.926616 0.113550
O O1 0.835965 0.908590 0.608730
O O2 0.998898 0.819592 0.508194
O O3 0.826221 0.909144 0.885996
O O4 0.000000 0.000000 0.500000
O O5 0.653043 0.990569 0.753303
O O6 0.628024 0.821882 0.866274
O O7 0.633247 0.951626 0.036395
O O8 0.500000 0.257489 0.750000
O O9 0.612903 0.163887 0.768350
#
# Coordination Sequence:
#
# PCOD8137724 Si02
#       4
#     8   8   8   8
#     4  10  23  34  58  87 113 151 186 236 282 332
#     4   9  21  36  62  85 113 149 191 234 282 331
#     4  10  20  36  62  85 109 151 199 231 272 342
#     4   9  20  38  60  86 112 150 191 231 283 332
#
# _framework density 19.722719999999999
#
# number of rings (size 3 to 8) (size 9 to 14) (size 15 to 20)
#    1.500    1.000    0.000    1.500    3.500    0.000 
#    0.000    1.250    5.500    0.000    0.000    0.000 
#    0.000    0.000    0.000    0.000    0.000    0.000 
#
# Total GULP energy -198234.738477 kJ/mol
# GULP energy per Si atom -12389.671155 kJ/mol
# Density = 1.967783 g / cm^3
# Si number density = 19.722720 Si / 1000 Ang^3
#
#
#
# Elastic Constant Matrix: (Units=GPa)
#
#
# Indices 1 2 3 4 5 6 
#
# 1 71.9956 63.8431 31.9765 0.0000 -10.4039 0.0000
# 2 63.8431 150.4186 44.4448 0.0000 -9.0768 0.0000
# 3 31.9765 44.4448 50.2373 0.0000 -26.0056 0.0000
# 4 0.0000 0.0000 0.0000 28.8668 0.0000 -9.5781
# 5 -10.4039 -9.0768 -26.0056 0.0000 39.2863 0.0000
# 6 0.0000 0.0000 0.0000 -9.5781 0.0000 38.2909
#
#
#
# Elastic Compliance Matrix: (Units=1/GPa)
#
#
# Indices 1 2 3 4 5 6 
#
# 1 0.024909 -0.007752 -0.009902 0.000000 -0.001749 0.000000
# 2 -0.007752 0.012067 -0.008155 0.000000 -0.004663 0.000000
# 3 -0.009902 -0.008155 0.047297 0.000000 0.026802 0.000000
# 4 0.000000 0.000000 0.000000 0.037777 0.000000 0.009450
# 5 -0.001749 -0.004663 0.026802 0.000000 0.041655 0.000000
# 6 0.000000 0.000000 0.000000 0.009450 0.000000 0.028480
#
#
# Mechanical properties :
#
#
# Convention : Reuss Voigt Hill
#
# Bulk Modulus (GPa) = 30.62374 61.46447 46.04411
# Shear Modulus (GPa) = 19.63187 30.11460 24.87324
#
# Velocity S-wave (km/s) = 3.15841 3.91179 3.55512
# Velocity P-wave (km/s) = 5.37230 7.18574 6.34415
#
# Compressibility (1/GPa) = 0.03265441
#
# Stress axis : x y z
#
# Youngs Moduli (GPa) = 40.14568 82.87380 21.14301
#
# Poissons Ratio (x) = 0.64245 0.20936
# Poissons Ratio (y) = 0.31121 0.17242
# Poissons Ratio (z) = 0.39753 0.67582
#
# Static dielectric constant tensor:
#      x y z
#    x 3.489370 0.000000 -0.225580 
#    y 0.000000 3.320650 0.000000 
#    z -0.225580 0.000000 3.340250 
# 
# 
# High freq. dielectric constant tensor:
#      x y z
#    x 1.762940 0.000000 -0.024410 
#    y 0.000000 1.760270 0.000000 
#    z -0.024410 0.000000 1.741660 
# 
# From -- ./inp_files/85318.got.cif
#   From: 2010.06.25/outbox.cif.g09.slc.cpg/sg15_43_cif.got.tgz:85318.got - 2010.06.28 07:06:18.
