data_PCOD8137872
_publ_section_title
;
Structure prediction by ZEFSAII (Michael W. Deem and Ramdas Pophale) SiO2 
 PCOD8137872
Probable space group: C 2/C
;
_chemical_formula_sum "Si O2"
_cell_formula_units_Z 44
_cell_length_a 7.459603
_cell_length_b 11.746314
_cell_length_c 26.628727
_cell_angle_alpha 90.000000
_cell_angle_beta 123.161052
_cell_angle_gamma 90.000000
_cell_volume 1953.277377
_symmetry_space_group_name_H-M "C 2/C"
_symmetry_group_IT_number 15
_symmetry_cell_setting 'monoclinic'
loop_
_space_group_symop_operation_xyz
x,y,z
-x,y,1/2-z
-x,-y,-z
x,-y,1/2+z
1/2+x,1/2+y,z
1/2-x,1/2+y,1/2-z
1/2-x,1/2-y,-z
1/2+x,1/2-y,1/2+z
loop_
_atom_site_type_symbol
_atom_site_label
_atom_site_fract_x
_atom_site_fract_y
_atom_site_fract_z
Si Si1 0.460224 0.132933 0.798816
Si Si2 0.502419 0.831269 0.006117
Si Si3 0.360394 0.890378 0.653196
Si Si4 0.500000 0.287366 0.250000
Si Si5 0.316792 0.406471 0.980916
Si Si6 0.938102 0.223152 0.097755
O O1 0.500000 0.185152 0.750000
O O2 0.212185 0.135247 0.778412
O O3 0.607848 0.207602 0.858677
O O4 0.542518 0.004994 0.810600
O O5 0.661784 0.927779 0.006221
O O6 0.258112 0.852027 0.952385
O O7 0.558151 0.709629 0.989769
O O8 0.517357 0.818612 0.068709
O O9 0.498462 0.787837 0.698543
O O10 0.349557 0.893493 0.590960
O O11 0.118149 0.871862 0.635722
O O12 0.500000 0.500000 0.000000
#
# Coordination Sequence:
#
# PCOD8137872 Si02
#       6
#     8   8   8   4   8   8
#     4  11  23  43  68  92 128 173 220 267 321 384
#     4   9  19  39  62  93 130 165 205 265 325 386
#     4  10  21  43  62  93 130 162 217 267 311 390
#     4  10  24  46  62  92 128 168 220 274 314 378
#     4  10  20  36  64  95 128 168 210 258 329 391
#     4   9  20  40  66  93 131 167 213 269 324 383
#
# _framework density 22.526243000000001
#
# number of rings (size 3 to 8) (size 9 to 14) (size 15 to 20)
#    0.000    2.182    0.909    1.091    2.545    0.000 
#   11.455   12.727    0.000    0.000    0.000    0.000 
#    0.000    0.000    0.000    0.000    0.000    0.000 
#
# Total GULP energy -272643.642685 kJ/mol
# GULP energy per Si atom -12392.892849 kJ/mol
# Density = 2.247497 g / cm^3
# Si number density = 22.526243 Si / 1000 Ang^3
#
#
#
# Elastic Constant Matrix: (Units=GPa)
#
#
# Indices 1 2 3 4 5 6 
#
# 1 118.6345 46.7819 52.7169 0.0000 -13.8073 0.0000
# 2 46.7819 75.0408 43.4487 0.0000 4.9992 0.0000
# 3 52.7169 43.4487 127.7210 0.0000 -5.8220 0.0000
# 4 0.0000 0.0000 0.0000 19.2678 0.0000 0.2882
# 5 -13.8073 4.9992 -5.8220 0.0000 42.6706 0.0000
# 6 0.0000 0.0000 0.0000 0.2882 0.0000 36.1866
#
#
#
# Elastic Compliance Matrix: (Units=1/GPa)
#
#
# Indices 1 2 3 4 5 6 
#
# 1 0.012847 -0.006678 -0.002823 0.000000 0.004554 0.000000
# 2 -0.006678 0.020388 -0.004414 0.000000 -0.005152 0.000000
# 3 -0.002823 -0.004414 0.010544 0.000000 0.001042 0.000000
# 4 0.000000 0.000000 0.000000 0.051906 0.000000 -0.000413
# 5 0.004554 -0.005152 0.001042 0.000000 0.025655 0.000000
# 6 0.000000 0.000000 0.000000 -0.000413 0.000000 0.027638
#
#
# Mechanical properties :
#
#
# Convention : Reuss Voigt Hill
#
# Bulk Modulus (GPa) = 62.70191 67.47680 65.08935
# Shear Modulus (GPa) = 27.45357 31.52159 29.48758
#
# Velocity S-wave (km/s) = 3.49483 3.74482 3.62198
# Velocity P-wave (km/s) = 6.64685 6.97983 6.81537
#
# Compressibility (1/GPa) = 0.01594848
#
# Stress axis : x y z
#
# Youngs Moduli (GPa) = 77.83779 49.04778 94.83965
#
# Poissons Ratio (x) = 0.32753 0.26777
# Poissons Ratio (y) = 0.51979 0.41865
# Poissons Ratio (z) = 0.21977 0.21651
#
# Static dielectric constant tensor:
#      x y z
#    x 4.266490 0.000000 -0.048250 
#    y 0.000000 3.817360 0.000000 
#    z -0.048250 0.000000 4.320890 
# 
# 
# High freq. dielectric constant tensor:
#      x y z
#    x 1.884940 0.000000 0.001470 
#    y 0.000000 1.868740 0.000000 
#    z 0.001470 0.000000 1.899090 
# 
# From -- ./inp_files/307315.got.cif
#   From: 2010.06.25/outbox.cif.g09.slc.cpg/sg15_154_cif.got.tgz:307315.got - 2010.06.28 07:06:18.
