data_PCOD8137705
_publ_section_title
;
Structure prediction by ZEFSAII (Michael W. Deem and Ramdas Pophale) SiO2 
 PCOD8137705
Probable space group: C 2/C
;
_chemical_formula_sum "Si O2"
_cell_formula_units_Z 48
_cell_length_a 15.983009
_cell_length_b 16.237161
_cell_length_c 15.526731
_cell_angle_alpha 90.000000
_cell_angle_beta 33.519165
_cell_angle_gamma 90.000000
_cell_volume 2225.141141
_symmetry_space_group_name_H-M "C 2/C"
_symmetry_group_IT_number 15
_symmetry_cell_setting 'monoclinic'
loop_
_space_group_symop_operation_xyz
x,y,z
-x,y,1/2-z
-x,-y,-z
x,-y,1/2+z
1/2+x,1/2+y,z
1/2-x,1/2+y,1/2-z
1/2-x,1/2-y,-z
1/2+x,1/2-y,1/2+z
loop_
_atom_site_type_symbol
_atom_site_label
_atom_site_fract_x
_atom_site_fract_y
_atom_site_fract_z
Si Si1 0.614734 0.713951 0.218879
Si Si2 0.420601 0.862026 0.417749
Si Si3 0.351073 0.330043 0.432159
Si Si4 0.813193 0.794479 0.652069
Si Si5 0.119000 0.458147 0.582103
Si Si6 0.993815 0.360612 0.971113
O O1 0.500000 0.667633 0.250000
O O2 0.569673 0.812305 0.255019
O O3 0.785367 0.705049 0.037435
O O4 0.605406 0.679788 0.326055
O O5 0.454586 0.897296 0.482755
O O6 0.371757 0.943522 0.407330
O O7 0.500000 0.315660 0.250000
O O8 0.250000 0.250000 0.500000
O O9 0.379862 0.341581 0.510721
O O10 0.279351 0.415239 0.460083
O O11 0.632836 0.808331 0.810635
O O12 0.847805 0.698262 0.607058
O O13 0.000000 0.417860 0.750000
O O14 0.055528 0.438541 0.542150
#
# Coordination Sequence:
#
# PCOD8137705 Si02
#       6
#     8   8   8   8   8   8
#     4  10  21  41  67  88 119 158 214 272 314 378
#     4  10  23  40  65  92 121 163 216 266 326 369
#     4  12  23  38  62  92 134 173 211 253 312 379
#     4  10  20  36  61  94 121 166 210 254 310 378
#     4  12  23  38  61  90 132 171 207 259 317 383
#     4  10  20  37  61  91 128 163 211 257 309 385
#
# _framework density 21.571664999999999
#
# number of rings (size 3 to 8) (size 9 to 14) (size 15 to 20)
#    0.000    1.333    3.333    3.000    0.000    0.667 
#    0.000    0.000    3.667    3.000    0.000    0.000 
#    0.000    0.000    0.000    0.000    0.000    0.000 
#
# Total GULP energy -297359.658323 kJ/mol
# GULP energy per Si atom -12389.985763 kJ/mol
# Density = 2.152257 g / cm^3
# Si number density = 21.571665 Si / 1000 Ang^3
#
#
#
# Elastic Constant Matrix: (Units=GPa)
#
#
# Indices 1 2 3 4 5 6 
#
# 1 126.0039 45.9890 22.5665 0.0004 7.2291 -0.0006
# 2 45.9890 111.2121 55.0981 -0.0042 -8.5516 0.0021
# 3 22.5665 55.0981 114.7893 -0.0045 -2.9503 0.0025
# 4 0.0004 -0.0042 -0.0045 16.4490 0.0040 -1.8314
# 5 7.2291 -8.5516 -2.9503 0.0040 28.6032 -0.0016
# 6 -0.0006 0.0021 0.0025 -1.8314 -0.0016 30.7461
#
#
#
# Elastic Compliance Matrix: (Units=1/GPa)
#
#
# Indices 1 2 3 4 5 6 
#
# 1 0.009724 -0.004349 0.000079 0.000000 -0.003750 0.000000
# 2 -0.004349 0.013996 -0.005742 0.000001 0.004691 0.000000
# 3 0.000079 -0.005742 0.011438 0.000002 -0.000557 0.000000
# 4 0.000000 0.000001 0.000002 0.061200 -0.000008 0.003645
# 5 -0.003750 0.004691 -0.000557 -0.000008 0.037254 0.000001
# 6 0.000000 0.000000 0.000000 0.003645 0.000001 0.032742
#
#
# Mechanical properties :
#
#
# Convention : Reuss Voigt Hill
#
# Bulk Modulus (GPa) = 66.07475 66.59029 66.33252
# Shear Modulus (GPa) = 26.12018 30.38308 28.25163
#
# Velocity S-wave (km/s) = 3.48351 3.75703 3.62285
# Velocity P-wave (km/s) = 6.84665 7.05385 6.95102
#
# Compressibility (1/GPa) = 0.01513438
#
# Stress axis : x y z
#
# Youngs Moduli (GPa) = 102.83325 71.44917 87.42771
#
# Poissons Ratio (x) = 0.31073 -0.00694
# Poissons Ratio (y) = 0.44722 0.50205
# Poissons Ratio (z) = -0.00816 0.41029
#
# Static dielectric constant tensor:
#      x y z
#    x 4.491210 0.000000 0.330380 
#    y 0.000000 3.386230 0.000000 
#    z 0.330380 0.000000 3.956910 
# 
# 
# High freq. dielectric constant tensor:
#      x y z
#    x 1.873010 0.000000 0.024060 
#    y 0.000000 1.809620 0.000000 
#    z 0.024060 0.000000 1.847810 
# 
# From -- ./inp_files/56769.got.cif
#   From: 2010.06.25/outbox.cif.g09.slc.cpg/sg15_29_cif.got.tgz:56769.got - 2010.06.28 07:06:18.
