data_PCOD8137631
_publ_section_title
;
Structure prediction by ZEFSAII (Michael W. Deem and Ramdas Pophale) SiO2 
 PCOD8137631
Probable space group: C 2/C
;
_chemical_formula_sum "Si O2"
_cell_formula_units_Z 56
_cell_length_a 16.285886
_cell_length_b 8.644876
_cell_length_c 27.165309
_cell_angle_alpha 90.000000
_cell_angle_beta 45.490446
_cell_angle_gamma 90.000000
_cell_volume 2727.443012
_symmetry_space_group_name_H-M "C 2/C"
_symmetry_group_IT_number 15
_symmetry_cell_setting 'monoclinic'
loop_
_space_group_symop_operation_xyz
x,y,z
-x,y,1/2-z
-x,-y,-z
x,-y,1/2+z
1/2+x,1/2+y,z
1/2-x,1/2+y,1/2-z
1/2-x,1/2-y,-z
1/2+x,1/2-y,1/2+z
loop_
_atom_site_type_symbol
_atom_site_label
_atom_site_fract_x
_atom_site_fract_y
_atom_site_fract_z
Si Si1 0.438166 0.331754 0.381153
Si Si2 0.740669 0.808036 0.606167
Si Si3 0.672007 0.306930 0.758600
Si Si4 0.238381 0.163953 0.872919
Si Si5 0.936621 0.863821 0.828238
Si Si6 0.515223 0.342748 0.023358
Si Si7 0.325088 0.663723 0.768687
O O1 0.336802 0.207235 0.411280
O O2 0.392558 0.488710 0.375924
O O3 0.460267 0.364607 0.429022
O O4 0.556947 0.278958 0.305667
O O5 0.873172 0.749115 0.543400
O O6 0.675742 0.700068 0.673064
O O7 0.748561 0.986026 0.618359
O O8 0.728568 0.183350 0.697923
O O9 0.534783 0.277526 0.819075
O O10 0.697568 0.482418 0.730597
O O11 0.722456 0.270267 0.790707
O O12 0.325974 0.257384 0.870005
O O13 0.109427 0.236824 0.932832
O O14 0.000000 0.909747 0.750000
O O15 0.500000 0.500000 0.000000
#
# Coordination Sequence:
#
# PCOD8137631 Si02
#       7
#     8   8   8   8   8   8   8
#     4  11  21  41  63  89 120 162 207 251 310 361
#     4  11  23  37  63  91 123 161 207 252 304 362
#     4  10  20  36  60  92 124 157 198 254 309 361
#     4  10  20  41  59  90 126 163 201 250 303 367
#     4   9  20  36  62  88 124 155 199 260 313 355
#     4  10  23  41  63  83 126 171 202 247 305 370
#     4  11  22  36  65  94 123 158 205 255 311 360
#
# _framework density 20.532050000000002
#
# number of rings (size 3 to 8) (size 9 to 14) (size 15 to 20)
#    0.000    1.714    1.429    4.286    6.000    4.571 
#    0.000    5.714    0.000    0.000    0.000    0.000 
#    0.000    0.000    0.000    0.000    0.000    0.000 
#
# Total GULP energy -346966.505769 kJ/mol
# GULP energy per Si atom -12391.660920 kJ/mol
# Density = 2.048532 g / cm^3
# Si number density = 20.532050 Si / 1000 Ang^3
#
#
#
# Elastic Constant Matrix: (Units=GPa)
#
#
# Indices 1 2 3 4 5 6 
#
# 1 144.7368 48.7815 54.1451 0.0000 -19.1230 0.0006
# 2 48.7815 67.1175 33.9049 0.0001 -8.1330 0.0011
# 3 54.1451 33.9049 100.0455 0.0000 -14.8873 0.0000
# 4 0.0000 0.0001 0.0000 18.8208 -0.0001 -2.0753
# 5 -19.1230 -8.1330 -14.8873 -0.0001 37.3763 0.0001
# 6 0.0006 0.0011 0.0000 -2.0753 0.0001 40.6359
#
#
#
# Elastic Compliance Matrix: (Units=1/GPa)
#
#
# Indices 1 2 3 4 5 6 
#
# 1 0.010387 -0.005528 -0.003334 0.000000 0.002784 0.000000
# 2 -0.005528 0.021007 -0.004112 0.000000 0.000105 0.000000
# 3 -0.003334 -0.004112 0.013613 0.000000 0.002822 0.000000
# 4 0.000000 0.000000 0.000000 0.053433 0.000000 0.002729
# 5 0.002784 0.000105 0.002822 0.000000 0.029326 0.000000
# 6 0.000000 0.000000 0.000000 0.002729 0.000000 0.024748
#
#
# Mechanical properties :
#
#
# Convention : Reuss Voigt Hill
#
# Bulk Modulus (GPa) = 52.46641 65.06250 58.76445
# Shear Modulus (GPa) = 27.05401 31.03782 29.04591
#
# Velocity S-wave (km/s) = 3.63388 3.89225 3.76528
# Velocity P-wave (km/s) = 6.57386 7.20809 6.89827
#
# Compressibility (1/GPa) = 0.01905981
#
# Stress axis : x y z
#
# Youngs Moduli (GPa) = 96.27194 47.60355 73.45842
#
# Poissons Ratio (x) = 0.26315 0.24491
# Poissons Ratio (y) = 0.53219 0.30204
# Poissons Ratio (z) = 0.32097 0.19573
#
# Static dielectric constant tensor:
#      x y z
#    x 4.261670 0.000000 -0.260140 
#    y 0.000000 3.421650 0.000000 
#    z -0.260140 0.000000 3.872220 
# 
# 
# High freq. dielectric constant tensor:
#      x y z
#    x 1.833110 0.000000 -0.013220 
#    y 0.000000 1.775110 0.000000 
#    z -0.013220 0.000000 1.792390 
# 
# From -- ./inp_files/315503.got.cif
#   From: 2010.06.25/outbox.cif.g09.slc.cpg/sg15_158_cif.got.tgz:315503.got - 2010.06.28 07:06:18.
