data_PCOD8137573
_publ_section_title
;
Structure prediction by ZEFSAII (Michael W. Deem and Ramdas Pophale) SiO2 
 PCOD8137573
Probable space group: C 2/C
;
_chemical_formula_sum "Si O2"
_cell_formula_units_Z 48
_cell_length_a 21.893349
_cell_length_b 5.204524
_cell_length_c 23.572941
_cell_angle_alpha 90.000000
_cell_angle_beta 121.252120
_cell_angle_gamma 90.000000
_cell_volume 2296.246889
_symmetry_space_group_name_H-M "C 2/C"
_symmetry_group_IT_number 15
_symmetry_cell_setting 'monoclinic'
loop_
_space_group_symop_operation_xyz
x,y,z
-x,y,1/2-z
-x,-y,-z
x,-y,1/2+z
1/2+x,1/2+y,z
1/2-x,1/2+y,1/2-z
1/2-x,1/2-y,-z
1/2+x,1/2-y,1/2+z
loop_
_atom_site_type_symbol
_atom_site_label
_atom_site_fract_x
_atom_site_fract_y
_atom_site_fract_z
Si Si1 0.601345 0.420096 0.594709
Si Si2 0.110536 0.527105 0.791792
Si Si3 0.749239 0.977150 0.286422
Si Si4 0.477444 0.190448 0.037634
Si Si5 0.485881 0.832461 0.356645
Si Si6 0.934504 0.023784 0.677293
O O1 0.682032 0.512807 0.639656
O O2 0.590324 0.339057 0.523043
O O3 0.545365 0.637089 0.583707
O O4 0.581871 0.206617 0.633682
O O5 0.180721 0.458119 0.790725
O O6 0.042213 0.542415 0.715785
O O7 0.120027 0.799621 0.828033
O O8 0.101744 0.304496 0.835757
O O9 0.743747 0.691437 0.258787
O O10 0.459722 0.035497 0.087038
O O11 0.500000 0.000000 0.000000
O O12 0.532619 0.569938 0.367790
O O13 0.000000 0.030774 0.750000
#
# Coordination Sequence:
#
# PCOD8137573 Si02
#       6
#     8   8   8   8   8   8
#     4  10  21  37  61  92 119 158 203 256 309 362
#     4  11  22  37  54  90 123 157 197 239 310 367
#     4  12  24  38  61  88 127 164 193 245 314 378
#     4   9  20  37  59  91 116 155 209 257 306 349
#     4  10  20  36  60  84 121 157 204 257 304 360
#     4  10  22  35  56  84 120 158 198 248 296 356
#
# _framework density 20.903676999999998
#
# number of rings (size 3 to 8) (size 9 to 14) (size 15 to 20)
#    0.000    1.667    1.667    3.500   11.667    0.000 
#    0.000    0.000    0.000    2.000    0.000    0.000 
#    0.000    0.000    0.000    0.000    0.000    0.000 
#
# Total GULP energy -297327.373100 kJ/mol
# GULP energy per Si atom -12388.640546 kJ/mol
# Density = 2.085610 g / cm^3
# Si number density = 20.903677 Si / 1000 Ang^3
#
#
#
# Elastic Constant Matrix: (Units=GPa)
#
#
# Indices 1 2 3 4 5 6 
#
# 1 69.1487 2.7774 17.0923 -0.0011 -2.4305 -0.0010
# 2 2.7774 88.2046 16.0393 -0.0039 3.5427 0.0025
# 3 17.0923 16.0393 67.3357 -0.0024 11.6401 -0.0006
# 4 -0.0011 -0.0039 -0.0024 18.2880 0.0001 2.1316
# 5 -2.4305 3.5427 11.6401 0.0001 26.9599 -0.0007
# 6 -0.0010 0.0025 -0.0006 2.1316 -0.0007 15.4042
#
#
#
# Elastic Compliance Matrix: (Units=1/GPa)
#
#
# Indices 1 2 3 4 5 6 
#
# 1 0.015715 0.000210 -0.004624 0.000000 0.003386 0.000001
# 2 0.000210 0.011857 -0.002822 0.000002 -0.000321 -0.000002
# 3 -0.004624 -0.002822 0.018052 0.000002 -0.007840 0.000000
# 4 0.000000 0.000002 0.000002 0.055577 -0.000001 -0.007690
# 5 0.003386 -0.000321 -0.007840 -0.000001 0.040825 0.000002
# 6 0.000001 -0.000002 0.000000 -0.007690 0.000002 0.065982
#
#
# Mechanical properties :
#
#
# Convention : Reuss Voigt Hill
#
# Bulk Modulus (GPa) = 32.10137 32.94521 32.52329
# Shear Modulus (GPa) = 21.47173 24.71577 23.09375
#
# Velocity S-wave (km/s) = 3.20843 3.44228 3.32741
# Velocity P-wave (km/s) = 5.39588 5.62083 5.50951
#
# Compressibility (1/GPa) = 0.03115132
#
# Stress axis : x y z
#
# Youngs Moduli (GPa) = 63.63253 84.34029 55.39439
#
# Poissons Ratio (x) = -0.01772 0.25617
# Poissons Ratio (y) = -0.01337 0.15633
# Poissons Ratio (z) = 0.29426 0.23802
#
# Static dielectric constant tensor:
#      x y z
#    x 3.636260 -0.000030 -0.328350 
#    y -0.000030 4.371040 0.000020 
#    z -0.328350 0.000020 4.334430 
# 
# 
# High freq. dielectric constant tensor:
#      x y z
#    x 1.789510 0.000000 -0.023730 
#    y 0.000000 1.842320 0.000000 
#    z -0.023730 0.000000 1.794180 
# 
# From -- ./inp_files/278590.got.cif
#   From: 2010.06.25/outbox.cif.g09.slc.cpg/sg15_140_cif.got.tgz:278590.got - 2010.06.28 07:06:18.
