data_PCOD8137963
_publ_section_title
;
Structure prediction by ZEFSAII (Michael W. Deem and Ramdas Pophale) SiO2 
 PCOD8137963
Probable space group: C 2/C
;
_chemical_formula_sum "Si O2"
_cell_formula_units_Z 56
_cell_length_a 28.127827
_cell_length_b 15.759759
_cell_length_c 8.867366
_cell_angle_alpha 90.000000
_cell_angle_beta 126.462276
_cell_angle_gamma 90.000000
_cell_volume 3161.335238
_symmetry_space_group_name_H-M "C 2/C"
_symmetry_group_IT_number 15
_symmetry_cell_setting 'monoclinic'
loop_
_space_group_symop_operation_xyz
x,y,z
-x,y,1/2-z
-x,-y,-z
x,-y,1/2+z
1/2+x,1/2+y,z
1/2-x,1/2+y,1/2-z
1/2-x,1/2-y,-z
1/2+x,1/2-y,1/2+z
loop_
_atom_site_type_symbol
_atom_site_label
_atom_site_fract_x
_atom_site_fract_y
_atom_site_fract_z
Si Si1 0.803044 0.802916 0.032347
Si Si2 0.622247 0.849859 0.807259
Si Si3 0.171677 0.772052 0.751462
Si Si4 0.512242 0.089539 0.948505
Si Si5 0.751180 0.387072 0.073943
Si Si6 0.744214 0.943336 0.083182
Si Si7 0.553685 0.205342 0.449598
O O1 0.796637 0.806774 0.839734
O O2 0.750000 0.750000 0.000000
O O3 0.863031 0.750965 0.187674
O O4 0.798052 0.897168 0.093434
O O5 0.580797 0.883781 0.595855
O O6 0.587919 0.860164 0.902476
O O7 0.681465 0.904201 0.919685
O O8 0.191872 0.674652 0.818228
O O9 0.100443 0.775339 0.598728
O O10 0.192467 0.831362 0.928095
O O11 0.500000 0.085857 0.750000
O O12 0.470344 0.157928 0.949150
O O13 0.500000 0.000000 0.000000
O O14 0.742597 0.433529 0.216008
O O15 0.758406 0.457561 0.958728
O O16 0.500000 0.246950 0.250000
#
# Coordination Sequence:
#
# PCOD8137963 Si02
#       7
#     8   8   8   8   8   8   8
#     4   9  16  35  55  73 103 137 175 216 269 322
#     4   9  19  35  54  74 104 141 182 217 268 316
#     4  10  20  37  53  81 109 143 181 226 268 330
#     4  11  23  35  48  74 103 139 184 225 265 314
#     4  11  22  33  52  79 113 141 186 218 275 323
#     4  11  21  35  53  81 109 149 180 222 273 326
#     4   9  18  37  57  73 103 141 177 222 265 318
#
# _framework density 17.714034999999999
#
# number of rings (size 3 to 8) (size 9 to 14) (size 15 to 20)
#    0.000    2.000    4.286    2.143    2.000    2.286 
#    2.571    0.000    0.000    0.000    0.000   17.000 
#    0.000    0.000    0.000    0.000    0.000    0.000 
#
# Total GULP energy -347048.352148 kJ/mol
# GULP energy per Si atom -12394.584005 kJ/mol
# Density = 1.767372 g / cm^3
# Si number density = 17.714035 Si / 1000 Ang^3
#
#
#
# Elastic Constant Matrix: (Units=GPa)
#
#
# Indices 1 2 3 4 5 6 
#
# 1 79.1323 31.5366 52.6765 0.0000 1.6850 0.0000
# 2 31.5366 78.0568 48.4155 0.0000 0.9206 0.0000
# 3 52.6765 48.4155 144.0614 0.0000 3.2760 0.0000
# 4 0.0000 0.0000 0.0000 33.1119 0.0000 -6.8120
# 5 1.6850 0.9206 3.2760 0.0000 32.7360 0.0000
# 6 0.0000 0.0000 0.0000 -6.8120 0.0000 17.0116
#
#
#
# Elastic Compliance Matrix: (Units=1/GPa)
#
#
# Indices 1 2 3 4 5 6 
#
# 1 0.017616 -0.003945 -0.005109 0.000000 -0.000285 0.000000
# 2 -0.003945 0.017069 -0.004297 0.000000 0.000153 0.000000
# 3 -0.005109 -0.004297 0.010269 0.000000 -0.000644 0.000000
# 4 0.000000 0.000000 0.000000 0.032912 0.000000 0.013179
# 5 -0.000285 0.000153 -0.000644 0.000000 0.030622 0.000000
# 6 0.000000 0.000000 0.000000 0.013179 0.000000 0.064061
#
#
# Mechanical properties :
#
#
# Convention : Reuss Voigt Hill
#
# Bulk Modulus (GPa) = 54.79287 62.94529 58.86908
# Shear Modulus (GPa) = 24.35046 27.81336 26.08191
#
# Velocity S-wave (km/s) = 3.71164 3.96679 3.84133
# Velocity P-wave (km/s) = 7.02619 7.52275 7.27871
#
# Compressibility (1/GPa) = 0.01825055
#
# Stress axis : x y z
#
# Youngs Moduli (GPa) = 56.76536 58.58674 97.38476
#
# Poissons Ratio (x) = 0.23112 0.49756
# Poissons Ratio (y) = 0.22394 0.41850
# Poissons Ratio (z) = 0.29002 0.25177
#
# Static dielectric constant tensor:
#      x y z
#    x 3.586160 0.000000 0.018520 
#    y 0.000000 3.254230 0.000000 
#    z 0.018520 0.000000 3.500600 
# 
# 
# High freq. dielectric constant tensor:
#      x y z
#    x 1.674540 0.000000 -0.006570 
#    y 0.000000 1.660780 0.000000 
#    z -0.006570 0.000000 1.693010 
# 
# From -- ./inp_files/66294.got.cif
#   From: 2010.06.25/outbox.cif.g09.slc.cpg/sg15_34_cif.got.tgz:66294.got - 2010.06.28 07:06:18.
