data_PCOD8137186
_publ_section_title
;
Structure prediction by ZEFSAII (Michael W. Deem and Ramdas Pophale) SiO2 
 PCOD8137186
Probable space group: C 2/C
;
_chemical_formula_sum "Si O2"
_cell_formula_units_Z 64
_cell_length_a 22.087124
_cell_length_b 10.487622
_cell_length_c 23.104502
_cell_angle_alpha 90.000000
_cell_angle_beta 34.688896
_cell_angle_gamma 90.000000
_cell_volume 3045.908078
_symmetry_space_group_name_H-M "C 2/C"
_symmetry_group_IT_number 15
_symmetry_cell_setting 'monoclinic'
loop_
_space_group_symop_operation_xyz
x,y,z
-x,y,1/2-z
-x,-y,-z
x,-y,1/2+z
1/2+x,1/2+y,z
1/2-x,1/2+y,1/2-z
1/2-x,1/2-y,-z
1/2+x,1/2-y,1/2+z
loop_
_atom_site_type_symbol
_atom_site_label
_atom_site_fract_x
_atom_site_fract_y
_atom_site_fract_z
Si Si1 0.215561 0.566617 0.650263
Si Si2 0.677888 0.448144 0.722685
Si Si3 0.040808 0.909094 0.415758
Si Si4 0.125435 0.723090 0.433992
Si Si5 0.761259 0.921224 0.437252
Si Si6 0.156479 0.351194 0.076474
Si Si7 0.538642 0.800795 0.340623
Si Si8 0.837814 0.849202 0.501635
O O1 0.315016 0.662019 0.579104
O O2 0.145661 0.601713 0.649692
O O3 0.257030 0.423185 0.608525
O O4 0.126835 0.584315 0.770288
O O5 0.644826 0.529352 0.804658
O O6 0.799092 0.398835 0.635016
O O7 0.665978 0.533683 0.673826
O O8 0.599241 0.330252 0.782866
O O9 0.954684 0.878290 0.433967
O O10 0.081809 0.774246 0.407470
O O11 0.000000 0.000000 0.500000
O O12 0.020835 0.685200 0.551958
O O13 0.831916 0.897694 0.439611
O O14 0.693286 0.798301 0.471733
O O15 0.678451 0.033529 0.514809
O O16 0.044391 0.294745 0.146428
O O17 0.250000 0.250000 0.000000
#
# Coordination Sequence:
#
# PCOD8137186 Si02
#       8
#     8   8   8   8   8   8   8   8
#     4  10  20  35  63  94 131 175 213 281 338 393
#     4  11  24  43  69 102 131 176 234 284 337 407
#     4  12  24  44  70  95 134 184 227 272 344 419
#     4  11  22  44  64  98 132 170 230 283 333 402
#     4  10  23  44  68  97 139 175 225 285 344 397
#     4  11  19  36  64  97 135 169 220 287 339 389
#     4  11  20  37  64  99 133 171 221 285 343 399
#     4  10  23  46  67  96 141 183 223 283 339 416
#
# _framework density 21.011796
#
# number of rings (size 3 to 8) (size 9 to 14) (size 15 to 20)
#    0.000    1.250    5.000    1.125    1.750    1.500 
#    4.500    1.875    0.000    0.000    0.000    0.000 
#    0.000    0.000    0.000    0.000    0.000    0.000 
#
# Total GULP energy -396666.570297 kJ/mol
# GULP energy per Si atom -12395.830322 kJ/mol
# Density = 2.096397 g / cm^3
# Si number density = 21.011796 Si / 1000 Ang^3
#
#
#
# Elastic Constant Matrix: (Units=GPa)
#
#
# Indices 1 2 3 4 5 6 
#
# 1 86.2877 30.2606 42.2446 0.0000 4.4262 0.0000
# 2 30.2606 109.9514 67.6431 0.0000 2.9974 -0.0001
# 3 42.2446 67.6431 159.5248 0.0001 10.1634 -0.0001
# 4 0.0000 0.0000 0.0001 28.7516 0.0000 3.1340
# 5 4.4262 2.9974 10.1634 0.0000 28.7516 0.0000
# 6 0.0000 -0.0001 -0.0001 3.1340 0.0000 33.0669
#
#
#
# Elastic Compliance Matrix: (Units=1/GPa)
#
#
# Indices 1 2 3 4 5 6 
#
# 1 0.013681 -0.002094 -0.002675 0.000000 -0.000942 0.000000
# 2 -0.002094 0.012635 -0.004849 0.000000 0.000719 0.000000
# 3 -0.002675 -0.004849 0.009181 0.000000 -0.002328 0.000000
# 4 0.000000 0.000000 0.000000 0.035144 0.000000 -0.003331
# 5 -0.000942 0.000719 -0.002328 0.000000 0.035674 0.000000
# 6 0.000000 0.000000 0.000000 -0.003331 0.000000 0.030557
#
#
# Mechanical properties :
#
#
# Convention : Reuss Voigt Hill
#
# Bulk Modulus (GPa) = 61.49374 70.67340 66.08357
# Shear Modulus (GPa) = 30.95426 32.48839 31.72133
#
# Velocity S-wave (km/s) = 3.84237 3.93644 3.88969
# Velocity P-wave (km/s) = 7.00107 7.37352 7.18971
#
# Compressibility (1/GPa) = 0.01626182
#
# Stress axis : x y z
#
# Youngs Moduli (GPa) = 73.09141 79.14774 108.91611
#
# Poissons Ratio (x) = 0.16573 0.29137
# Poissons Ratio (y) = 0.15305 0.52811
# Poissons Ratio (z) = 0.19553 0.38377
#
# Static dielectric constant tensor:
#      x y z
#    x 3.897320 0.000000 0.106080 
#    y 0.000000 4.008440 0.000000 
#    z 0.106080 0.000000 4.054180 
# 
# 
# High freq. dielectric constant tensor:
#      x y z
#    x 1.823000 0.000000 0.002050 
#    y 0.000000 1.814180 0.000000 
#    z 0.002050 0.000000 1.825780 
# 
# From -- ./inp_files/281932.got.cif
#   From: 2010.06.25/outbox.cif.g09.slc.cpg/sg15_141_cif.got.tgz:281932.got - 2010.06.28 07:06:18.
