data_PCOD8137522
_publ_section_title
;
Structure prediction by ZEFSAII (Michael W. Deem and Ramdas Pophale) SiO2 
 PCOD8137522
Probable space group: C 2/C
;
_chemical_formula_sum "Si O2"
_cell_formula_units_Z 56
_cell_length_a 18.961697
_cell_length_b 9.534023
_cell_length_c 17.677918
_cell_angle_alpha 90.000000
_cell_angle_beta 59.875527
_cell_angle_gamma 90.000000
_cell_volume 2764.197395
_symmetry_space_group_name_H-M "C 2/C"
_symmetry_group_IT_number 15
_symmetry_cell_setting 'monoclinic'
loop_
_space_group_symop_operation_xyz
x,y,z
-x,y,1/2-z
-x,-y,-z
x,-y,1/2+z
1/2+x,1/2+y,z
1/2-x,1/2+y,1/2-z
1/2-x,1/2-y,-z
1/2+x,1/2-y,1/2+z
loop_
_atom_site_type_symbol
_atom_site_label
_atom_site_fract_x
_atom_site_fract_y
_atom_site_fract_z
Si Si1 0.847039 0.230563 0.860926
Si Si2 0.068304 0.712835 0.034188
Si Si3 0.741095 0.281160 0.695937
Si Si4 0.408365 0.683393 0.673452
Si Si5 0.772265 0.475883 0.394951
Si Si6 0.625957 0.587830 0.382295
Si Si7 0.792755 0.486774 0.051737
O O1 0.886679 0.206009 0.921396
O O2 0.908765 0.171023 0.764437
O O3 0.834368 0.395317 0.849327
O O4 0.759371 0.154848 0.908147
O O5 0.973135 0.700443 0.109103
O O6 0.070225 0.799861 0.955193
O O7 0.111895 0.561682 0.998608
O O8 0.816219 0.221245 0.702317
O O9 0.674902 0.335228 0.789850
O O10 0.775401 0.407694 0.627961
O O11 0.698720 0.161420 0.667093
O O12 0.430655 0.531866 0.625438
O O13 0.683084 0.515989 0.413984
O O14 0.769487 0.438594 0.485431
#
# Coordination Sequence:
#
# PCOD8137522 Si02
#       7
#     8   8   8   8   8   8   8
#     4  11  19  39  61  84 110 157 200 234 276 349
#     4  11  22  36  59  87 119 151 190 244 291 341
#     4  11  23  36  61  88 116 153 192 240 289 345
#     4  11  23  36  57  90 117 150 192 243 296 337
#     4  10  20  36  59  88 112 148 199 238 276 340
#     4  11  20  37  58  85 119 151 195 241 285 347
#     4  11  20  39  62  84 116 153 198 236 282 344
#
# _framework density 20.259046000000001
#
# number of rings (size 3 to 8) (size 9 to 14) (size 15 to 20)
#    0.000    1.143    5.714    2.143    2.000    0.571 
#    0.000    0.000    0.000    0.000    0.000    0.000 
#    0.000    0.000    0.000    0.000    0.000    0.000 
#
# Total GULP energy -347175.295154 kJ/mol
# GULP energy per Si atom -12399.117684 kJ/mol
# Density = 2.021294 g / cm^3
# Si number density = 20.259046 Si / 1000 Ang^3
#
#
#
# Elastic Constant Matrix: (Units=GPa)
#
#
# Indices 1 2 3 4 5 6 
#
# 1 32.9603 20.2300 25.6258 0.0000 -4.4723 0.0000
# 2 20.2300 78.9120 31.8274 0.0001 8.8896 0.0000
# 3 25.6258 31.8274 123.8042 0.0000 10.1497 0.0000
# 4 0.0000 0.0001 0.0000 20.0655 0.0000 0.0149
# 5 -4.4723 8.8896 10.1497 0.0000 28.8893 0.0000
# 6 0.0000 0.0000 0.0000 0.0149 0.0000 17.8293
#
#
#
# Elastic Compliance Matrix: (Units=1/GPa)
#
#
# Indices 1 2 3 4 5 6 
#
# 1 0.043819 -0.009553 -0.007631 0.000000 0.012404 0.000000
# 2 -0.009553 0.016508 -0.001780 0.000000 -0.005933 0.000000
# 3 -0.007631 -0.001780 0.010468 0.000000 -0.004311 0.000000
# 4 0.000000 0.000000 0.000000 0.049837 0.000000 -0.000042
# 5 0.012404 -0.005933 -0.004311 0.000000 0.039875 0.000000
# 6 0.000000 0.000000 0.000000 -0.000042 0.000000 0.056087
#
#
# Mechanical properties :
#
#
# Convention : Reuss Voigt Hill
#
# Bulk Modulus (GPa) = 30.42624 43.44921 36.93772
# Shear Modulus (GPa) = 18.83400 23.88971 21.36186
#
# Velocity S-wave (km/s) = 3.05234 3.43769 3.25073
# Velocity P-wave (km/s) = 5.24152 6.10331 5.68876
#
# Compressibility (1/GPa) = 0.03286637
#
# Stress axis : x y z
#
# Youngs Moduli (GPa) = 22.82126 60.57792 95.53091
#
# Poissons Ratio (x) = 0.57870 0.72899
# Poissons Ratio (y) = 0.21801 0.17005
# Poissons Ratio (z) = 0.17415 0.10783
#
# Static dielectric constant tensor:
#      x y z
#    x 3.488050 0.000000 0.282950 
#    y 0.000000 3.672700 0.000000 
#    z 0.282950 0.000000 3.906630 
# 
# 
# High freq. dielectric constant tensor:
#      x y z
#    x 1.763270 0.000000 0.018630 
#    y 0.000000 1.777790 0.000000 
#    z 0.018630 0.000000 1.812310 
# 
# From -- ./inp_files/213782.got.cif
#   From: 2010.06.25/outbox.cif.g09.slc.cpg/sg15_107_cif.got.tgz:213782.got - 2010.06.28 07:06:18.
