data_PCOD8137917
_publ_section_title
;
Structure prediction by ZEFSAII (Michael W. Deem and Ramdas Pophale) SiO2 
 PCOD8137917
Probable space group: C 2/C
;
_chemical_formula_sum "Si O2"
_cell_formula_units_Z 64
_cell_length_a 9.999194
_cell_length_b 18.221005
_cell_length_c 29.416764
_cell_angle_alpha 90.000000
_cell_angle_beta 144.140039
_cell_angle_gamma 90.000000
_cell_volume 3139.685463
_symmetry_space_group_name_H-M "C 2/C"
_symmetry_group_IT_number 15
_symmetry_cell_setting 'monoclinic'
loop_
_space_group_symop_operation_xyz
x,y,z
-x,y,1/2-z
-x,-y,-z
x,-y,1/2+z
1/2+x,1/2+y,z
1/2-x,1/2+y,1/2-z
1/2-x,1/2-y,-z
1/2+x,1/2-y,1/2+z
loop_
_atom_site_type_symbol
_atom_site_label
_atom_site_fract_x
_atom_site_fract_y
_atom_site_fract_z
Si Si1 0.467571 0.645006 0.689046
Si Si2 0.766634 0.019014 0.569256
Si Si3 0.036157 0.535923 0.323091
Si Si4 0.759161 0.658642 0.549714
Si Si5 0.710895 0.504176 0.024294
Si Si6 0.646246 0.594373 0.163713
Si Si7 0.044538 0.369128 0.212253
Si Si8 0.397815 0.736880 0.402117
O O1 0.500000 0.617749 0.750000
O O2 0.338352 0.582409 0.624306
O O3 0.716885 0.663296 0.738814
O O4 0.339536 0.723790 0.650969
O O5 0.500000 0.000000 0.500000
O O6 0.817336 0.047043 0.531226
O O7 0.917259 0.945365 0.618999
O O8 0.839106 0.593631 0.256109
O O9 0.937890 0.456699 0.282796
O O10 0.086244 0.542073 0.390630
O O11 0.265054 0.551340 0.356884
O O12 0.769699 0.579528 0.528680
O O13 0.506324 0.694859 0.475944
O O14 0.833630 0.656728 0.622704
O O15 0.935581 0.699483 0.566745
O O16 0.500000 0.500000 0.000000
O O17 0.614531 0.679587 0.143009
O O18 0.000000 0.338016 0.250000
#
# Coordination Sequence:
#
# PCOD8137917 Si02
#       8
#     8   8   8   8   8   8   8   8
#     4  12  26  43  66 103 135 180 230 285 341 421
#     4  12  25  39  64 103 134 169 220 289 342 391
#     4  10  20  36  66  96 126 163 234 280 321 392
#     4  10  22  38  69  92 130 178 225 270 340 401
#     4  11  21  41  67 100 126 173 226 280 338 402
#     4  11  21  39  66  99 125 176 225 278 324 410
#     4  11  21  40  68  98 135 171 226 291 347 394
#     4  11  23  42  65  95 135 181 231 268 335 437
#
# _framework density 20.384207
#
# number of rings (size 3 to 8) (size 9 to 14) (size 15 to 20)
#    0.000    1.000    6.250    0.750    7.000    0.000 
#    0.000    0.625    2.750    0.750    0.000    0.000 
#    0.000    0.000    0.000    0.000    0.000    0.000 
#
# Total GULP energy -396640.934450 kJ/mol
# GULP energy per Si atom -12395.029202 kJ/mol
# Density = 2.033781 g / cm^3
# Si number density = 20.384207 Si / 1000 Ang^3
#
#
#
# Elastic Constant Matrix: (Units=GPa)
#
#
# Indices 1 2 3 4 5 6 
#
# 1 101.1238 24.2273 59.6284 0.0001 -6.8896 0.0001
# 2 24.2273 96.3713 59.4009 0.0001 1.2662 0.0000
# 3 59.6284 59.4009 138.7666 0.0001 -17.5216 -0.0003
# 4 0.0001 0.0001 0.0001 38.3307 -0.0001 4.2137
# 5 -6.8896 1.2662 -17.5216 -0.0001 46.3243 0.0000
# 6 0.0001 0.0000 -0.0003 4.2137 0.0000 29.6042
#
#
#
# Elastic Compliance Matrix: (Units=1/GPa)
#
#
# Indices 1 2 3 4 5 6 
#
# 1 0.013252 0.000273 -0.005842 0.000000 -0.000246 0.000000
# 2 0.000273 0.014456 -0.006669 0.000000 -0.002877 0.000000
# 3 -0.005842 -0.006669 0.013111 0.000000 0.004272 0.000000
# 4 0.000000 0.000000 0.000000 0.026503 0.000000 -0.003772
# 5 -0.000246 -0.002877 0.004272 0.000000 0.023245 0.000000
# 6 0.000000 0.000000 0.000000 -0.003772 0.000000 0.034316
#
#
# Mechanical properties :
#
#
# Convention : Reuss Voigt Hill
#
# Bulk Modulus (GPa) = 61.18979 69.19722 65.19351
# Shear Modulus (GPa) = 32.29847 35.71885 34.00866
#
# Velocity S-wave (km/s) = 3.98488 4.19057 4.08902
# Velocity P-wave (km/s) = 7.15931 7.57856 7.37192
#
# Compressibility (1/GPa) = 0.01634259
#
# Stress axis : x y z
#
# Youngs Moduli (GPa) = 75.46272 69.17491 76.27324
#
# Poissons Ratio (x) = -0.01887 0.44560
# Poissons Ratio (y) = -0.02059 0.50864
# Poissons Ratio (z) = 0.44086 0.46130
#
# Static dielectric constant tensor:
#      x y z
#    x 3.584390 0.000000 -0.039560 
#    y 0.000000 3.874540 0.000000 
#    z -0.039560 0.000000 4.364770 
# 
# 
# High freq. dielectric constant tensor:
#      x y z
#    x 1.767960 0.000000 -0.000330 
#    y 0.000000 1.777150 0.000000 
#    z -0.000330 0.000000 1.831990 
# 
# From -- ./inp_files/308812.got.cif
#   From: 2010.06.25/outbox.cif.g09.slc.cpg/sg15_155_cif.got.tgz:308812.got - 2010.06.28 07:06:18.
