data_PCOD8137592
_publ_section_title
;
Structure prediction by ZEFSAII (Michael W. Deem and Ramdas Pophale) SiO2 
 PCOD8137592
Probable space group: C 2/C
;
_chemical_formula_sum "Si O2"
_cell_formula_units_Z 64
_cell_length_a 28.388715
_cell_length_b 14.702739
_cell_length_c 13.168866
_cell_angle_alpha 90.000000
_cell_angle_beta 141.893708
_cell_angle_gamma 90.000000
_cell_volume 3392.060534
_symmetry_space_group_name_H-M "C 2/C"
_symmetry_group_IT_number 15
_symmetry_cell_setting 'monoclinic'
loop_
_space_group_symop_operation_xyz
x,y,z
-x,y,1/2-z
-x,-y,-z
x,-y,1/2+z
1/2+x,1/2+y,z
1/2-x,1/2+y,1/2-z
1/2-x,1/2-y,-z
1/2+x,1/2-y,1/2+z
loop_
_atom_site_type_symbol
_atom_site_label
_atom_site_fract_x
_atom_site_fract_y
_atom_site_fract_z
Si Si1 0.933605 0.834736 0.213657
Si Si2 0.849508 0.026534 0.452008
Si Si3 0.327046 0.996347 0.861613
Si Si4 0.086656 0.351768 0.363818
Si Si5 0.085825 0.630214 0.357817
Si Si6 0.418350 0.648849 0.163353
Si Si7 0.956566 0.909782 0.951126
Si Si8 0.084144 0.491228 0.185938
O O1 0.898534 0.736234 0.132541
O O2 0.000000 0.862554 0.250000
O O3 0.976171 0.841151 0.394956
O O4 0.866920 0.908683 0.079516
O O5 0.761357 0.023695 0.275094
O O6 0.891915 0.067114 0.424818
O O7 0.869789 0.924172 0.518593
O O8 0.349287 0.009959 0.783212
O O9 0.368392 0.908081 0.975979
O O10 0.353067 0.089934 0.959798
O O11 0.118839 0.248919 0.412740
O O12 0.093581 0.399215 0.266181
O O13 0.000000 0.350478 0.250000
O O14 0.099504 0.581406 0.275492
O O15 0.000000 0.610835 0.250000
O O16 0.500000 0.645363 0.250000
O O17 0.419868 0.630484 0.286847
O O18 0.000000 0.000000 0.000000
O O19 0.000000 0.500000 0.000000
#
# Coordination Sequence:
#
# PCOD8137592 Si02
#       8
#     8   8   8   8   8   8   8   8
#     4   9  20  37  61  88 111 150 200 240 281 347
#     4  11  23  40  58  87 124 155 192 238 298 351
#     4  11  23  39  58  85 126 157 186 249 295 340
#     4  10  22  38  60  92 119 150 205 247 287 352
#     4  10  20  36  60  87 112 149 206 243 280 345
#     4  11  22  38  63  93 116 153 202 246 291 350
#     4  11  20  39  65  83 114 153 194 240 287 339
#     4  11  19  36  60  83 113 157 198 235 294 344
#
# _framework density 18.867587
#
# number of rings (size 3 to 8) (size 9 to 14) (size 15 to 20)
#    0.000    1.500    5.000    1.125    1.750    4.000 
#    0.000    1.875    0.000    0.000    0.000    0.000 
#    0.000    0.000    0.000    0.000    0.000    0.000 
#
# Total GULP energy -396673.213161 kJ/mol
# GULP energy per Si atom -12396.037911 kJ/mol
# Density = 1.882464 g / cm^3
# Si number density = 18.867587 Si / 1000 Ang^3
#
#
#
# Elastic Constant Matrix: (Units=GPa)
#
#
# Indices 1 2 3 4 5 6 
#
# 1 93.2907 37.6038 44.0675 0.0000 -10.0705 0.0000
# 2 37.6038 151.2814 49.9840 0.0000 1.5901 0.0000
# 3 44.0675 49.9840 85.9206 0.0000 -1.2201 0.0000
# 4 0.0000 0.0000 0.0000 23.0860 0.0000 10.5746
# 5 -10.0705 1.5901 -1.2201 0.0000 35.5785 0.0000
# 6 0.0000 0.0000 0.0000 10.5746 0.0000 60.7364
#
#
#
# Elastic Compliance Matrix: (Units=1/GPa)
#
#
# Indices 1 2 3 4 5 6 
#
# 1 0.014951 -0.001541 -0.006714 0.000000 0.004071 0.000000
# 2 -0.001541 0.008352 -0.004082 0.000000 -0.000949 0.000000
# 3 -0.006714 -0.004082 0.017441 0.000000 -0.001120 0.000000
# 4 0.000000 0.000000 0.000000 0.047070 0.000000 -0.008195
# 5 0.004071 -0.000949 -0.001120 0.000000 0.029263 0.000000
# 6 0.000000 0.000000 0.000000 -0.008195 0.000000 0.017891
#
#
# Mechanical properties :
#
#
# Convention : Reuss Voigt Hill
#
# Bulk Modulus (GPa) = 62.22621 65.97813 64.10217
# Shear Modulus (GPa) = 30.30322 37.13601 33.71961
#
# Velocity S-wave (km/s) = 4.01196 4.44130 4.23208
# Velocity P-wave (km/s) = 7.38331 7.83232 7.61112
#
# Compressibility (1/GPa) = 0.01607040
#
# Stress axis : x y z
#
# Youngs Moduli (GPa) = 66.88430 119.73408 57.33640
#
# Poissons Ratio (x) = 0.18449 0.38496
# Poissons Ratio (y) = 0.10306 0.23404
# Poissons Ratio (z) = 0.44907 0.48874
#
# Static dielectric constant tensor:
#      x y z
#    x 3.251130 0.000000 -0.159400 
#    y 0.000000 6.309680 0.000000 
#    z -0.159400 0.000000 3.465600 
# 
# 
# High freq. dielectric constant tensor:
#      x y z
#    x 1.717970 0.000000 -0.017580 
#    y 0.000000 1.744820 0.000000 
#    z -0.017580 0.000000 1.732200 
# 
# From -- ./inp_files/126890.got.cif
#   From: 2010.06.25/outbox.cif.g09.slc.cpg/sg15_64_cif.got.tgz:126890.got - 2010.06.28 07:06:18.
