data_PCOD8137663
_publ_section_title
;
Structure prediction by ZEFSAII (Michael W. Deem and Ramdas Pophale) SiO2 
 PCOD8137663
Probable space group: C 2/C
;
_chemical_formula_sum "Si O2"
_cell_formula_units_Z 36
_cell_length_a 9.941656
_cell_length_b 8.758276
_cell_length_c 21.747563
_cell_angle_alpha 90.000000
_cell_angle_beta 63.509206
_cell_angle_gamma 90.000000
_cell_volume 1694.782316
_symmetry_space_group_name_H-M "C 2/C"
_symmetry_group_IT_number 15
_symmetry_cell_setting 'monoclinic'
loop_
_space_group_symop_operation_xyz
x,y,z
-x,y,1/2-z
-x,-y,-z
x,-y,1/2+z
1/2+x,1/2+y,z
1/2-x,1/2+y,1/2-z
1/2-x,1/2-y,-z
1/2+x,1/2-y,1/2+z
loop_
_atom_site_type_symbol
_atom_site_label
_atom_site_fract_x
_atom_site_fract_y
_atom_site_fract_z
Si Si1 0.996604 0.995688 0.897549
Si Si2 0.500000 0.038308 0.250000
Si Si3 0.676906 0.730620 0.635273
Si Si4 0.039854 0.341095 0.357718
Si Si5 0.764604 0.005538 0.549547
O O1 0.034402 0.842352 0.852314
O O2 0.964522 0.125619 0.853567
O O3 0.848021 0.966067 0.968631
O O4 0.131782 0.054588 0.913326
O O5 0.369308 0.145561 0.303509
O O6 0.567985 0.926656 0.287825
O O7 0.814108 0.623868 0.630071
O O8 0.728609 0.825488 0.564535
O O9 0.888283 0.397776 0.421340
#
# Coordination Sequence:
#
# PCOD8137663 Si02
#       5
#     8   4   8   8   8
#     4  10  20  36  61  87 115 150 184 226 287 343
#     4  10  24  40  52  78 118 146 190 244 276 324
#     4  10  22  37  58  83 110 151 190 231 283 333
#     4  10  22  38  58  83 111 149 191 233 280 331
#     4   9  20  38  57  88 122 142 179 235 284 341
#
# _framework density 21.241668000000001
#
# number of rings (size 3 to 8) (size 9 to 14) (size 15 to 20)
#    0.000    2.222    0.000    1.333    0.000   12.444 
#    0.000    0.000    0.000    0.000    0.000    0.000 
#    0.000    0.000    0.000    0.000    0.000    0.000 
#
# Total GULP energy -223162.935302 kJ/mol
# GULP energy per Si atom -12397.940850 kJ/mol
# Density = 2.119332 g / cm^3
# Si number density = 21.241668 Si / 1000 Ang^3
#
#
#
# Elastic Constant Matrix: (Units=GPa)
#
#
# Indices 1 2 3 4 5 6 
#
# 1 104.5050 51.5171 17.7731 0.0000 -1.3208 0.0000
# 2 51.5171 85.7786 33.3254 0.0000 16.6056 0.0000
# 3 17.7731 33.3254 74.1001 0.0000 0.0513 0.0000
# 4 0.0000 0.0000 0.0000 35.4727 0.0000 -2.1578
# 5 -1.3208 16.6056 0.0513 0.0000 21.8301 0.0000
# 6 0.0000 0.0000 0.0000 -2.1578 0.0000 39.2397
#
#
#
# Elastic Compliance Matrix: (Units=1/GPa)
#
#
# Indices 1 2 3 4 5 6 
#
# 1 0.015134 -0.011582 0.001572 0.000000 0.009722 0.000000
# 2 -0.011582 0.026047 -0.008922 0.000000 -0.020493 0.000000
# 3 0.001572 -0.008922 0.017126 0.000000 0.006842 0.000000
# 4 0.000000 0.000000 0.000000 0.028285 0.000000 0.001555
# 5 0.009722 -0.020493 0.006842 0.000000 0.061969 0.000000
# 6 0.000000 0.000000 0.000000 0.001555 0.000000 0.025570
#
#
# Mechanical properties :
#
#
# Convention : Reuss Voigt Hill
#
# Bulk Modulus (GPa) = 48.91589 52.17943 50.54766
# Shear Modulus (GPa) = 22.85081 30.09306 26.47193
#
# Velocity S-wave (km/s) = 3.28343 3.76799 3.53402
# Velocity P-wave (km/s) = 6.11987 6.59911 6.36400
#
# Compressibility (1/GPa) = 0.02044325
#
# Stress axis : x y z
#
# Youngs Moduli (GPa) = 66.07674 38.39144 58.39051
#
# Poissons Ratio (x) = 0.44465 -0.09180
# Poissons Ratio (y) = 0.76530 0.52098
# Poissons Ratio (z) = -0.10389 0.34254
#
# Static dielectric constant tensor:
#      x y z
#    x 3.898230 0.000000 -0.131250 
#    y 0.000000 3.768040 0.000000 
#    z -0.131250 0.000000 3.724190 
# 
# 
# High freq. dielectric constant tensor:
#      x y z
#    x 1.838290 0.000000 -0.011150 
#    y 0.000000 1.828210 0.000000 
#    z -0.011150 0.000000 1.821330 
# 
# From -- ./inp_files/195299.got.cif
#   From: 2010.06.25/outbox.cif.g09.slc.cpg/sg15_98_cif.got.tgz:195299.got - 2010.06.28 07:06:18.
