data_PCOD8137483
_publ_section_title
;
Structure prediction by ZEFSAII (Michael W. Deem and Ramdas Pophale) SiO2 
 PCOD8137483
Probable space group: C 2/C
;
_chemical_formula_sum "Si O2"
_cell_formula_units_Z 64
_cell_length_a 9.365908
_cell_length_b 22.860882
_cell_length_c 14.405696
_cell_angle_alpha 90.000000
_cell_angle_beta 86.435018
_cell_angle_gamma 90.000000
_cell_volume 3078.476947
_symmetry_space_group_name_H-M "C 2/C"
_symmetry_group_IT_number 15
_symmetry_cell_setting 'monoclinic'
loop_
_space_group_symop_operation_xyz
x,y,z
-x,y,1/2-z
-x,-y,-z
x,-y,1/2+z
1/2+x,1/2+y,z
1/2-x,1/2+y,1/2-z
1/2-x,1/2-y,-z
1/2+x,1/2-y,1/2+z
loop_
_atom_site_type_symbol
_atom_site_label
_atom_site_fract_x
_atom_site_fract_y
_atom_site_fract_z
Si Si1 0.856162 0.994785 0.216893
Si Si2 0.558597 0.167559 0.144715
Si Si3 0.319902 0.266699 0.592222
Si Si4 0.130185 0.540745 0.880781
Si Si5 0.137944 0.660774 0.792661
Si Si6 0.409761 0.733944 0.525940
Si Si7 0.627886 0.040983 0.094100
Si Si8 0.102549 0.867299 0.328677
O O1 0.757614 0.979980 0.309429
O O2 0.914602 0.937394 0.157400
O O3 0.000000 0.026588 0.250000
O O4 0.770861 0.037388 0.150833
O O5 0.500000 0.172863 0.250000
O O6 0.730742 0.179084 0.137597
O O7 0.469204 0.212170 0.084246
O O8 0.542649 0.101897 0.107630
O O9 0.250000 0.250000 0.500000
O O10 0.283271 0.212820 0.659438
O O11 0.490144 0.276313 0.569396
O O12 0.100590 0.609284 0.866184
O O13 0.981543 0.508226 0.864756
O O14 0.173913 0.530237 0.985911
O O15 0.233611 0.638602 0.705173
O O16 0.000000 0.687423 0.750000
O O17 0.250000 0.750000 0.500000
O O18 0.422050 0.672103 0.579478
O O19 0.000000 0.844872 0.250000
#
# Coordination Sequence:
#
# PCOD8137483 Si02
#       8
#     8   8   8   8   8   8   8   8
#     4  10  22  39  61  89 119 157 206 260 309 360
#     4  11  23  40  60  83 122 168 198 235 307 382
#     4  10  21  36  56  83 119 159 199 242 301 371
#     4  10  21  38  63  91 117 157 206 255 309 363
#     4  11  20  35  60  87 114 148 203 257 295 348
#     4  11  22  37  59  90 122 152 200 256 304 361
#     4  11  23  41  64  89 123 163 206 252 307 378
#     4  10  20  36  59  82 114 153 194 246 302 352
#
# _framework density 20.789501000000001
#
# number of rings (size 3 to 8) (size 9 to 14) (size 15 to 20)
#    0.000    1.500    0.000    7.500    0.000    4.500 
#    0.000    3.125    0.000    0.000    0.000    0.000 
#    0.000    0.000    0.000    0.000    0.000    0.000 
#
# Total GULP energy -396645.061190 kJ/mol
# GULP energy per Si atom -12395.158162 kJ/mol
# Density = 2.074218 g / cm^3
# Si number density = 20.789501 Si / 1000 Ang^3
#
#
#
# Elastic Constant Matrix: (Units=GPa)
#
#
# Indices 1 2 3 4 5 6 
#
# 1 121.3816 16.0480 38.3375 0.0000 4.0194 0.0000
# 2 16.0480 74.5511 24.3538 0.0000 -0.3123 0.0000
# 3 38.3375 24.3538 81.8709 0.0000 -4.1939 0.0000
# 4 0.0000 0.0000 0.0000 24.1197 0.0000 -0.6005
# 5 4.0194 -0.3123 -4.1939 0.0000 35.9969 0.0000
# 6 0.0000 0.0000 0.0000 -0.6005 0.0000 31.8439
#
#
#
# Elastic Compliance Matrix: (Units=1/GPa)
#
#
# Indices 1 2 3 4 5 6 
#
# 1 0.009791 -0.000653 -0.004474 0.000000 -0.001620 0.000000
# 2 -0.000653 0.014906 -0.004143 0.000000 -0.000280 0.000000
# 3 -0.004474 -0.004143 0.015659 0.000000 0.002288 0.000000
# 4 0.000000 0.000000 0.000000 0.041479 0.000000 0.000782
# 5 -0.001620 -0.000280 0.002288 0.000000 0.028225 0.000000
# 6 0.000000 0.000000 0.000000 0.000782 0.000000 0.031418
#
#
# Mechanical properties :
#
#
# Convention : Reuss Voigt Hill
#
# Bulk Modulus (GPa) = 45.83462 48.36469 47.09965
# Shear Modulus (GPa) = 29.88812 31.66307 30.77559
#
# Velocity S-wave (km/s) = 3.79575 3.90684 3.85170
# Velocity P-wave (km/s) = 6.42691 6.60800 6.51809
#
# Compressibility (1/GPa) = 0.02181757
#
# Stress axis : x y z
#
# Youngs Moduli (GPa) = 102.12958 67.08563 63.86192
#
# Poissons Ratio (x) = 0.04381 0.28570
# Poissons Ratio (y) = 0.06670 0.26456
# Poissons Ratio (z) = 0.45690 0.27791
#
# Static dielectric constant tensor:
#      x y z
#    x 4.654650 0.000000 -0.441190 
#    y 0.000000 3.757860 0.000000 
#    z -0.441190 0.000000 3.856340 
# 
# 
# High freq. dielectric constant tensor:
#      x y z
#    x 1.823140 0.000000 -0.007060 
#    y 0.000000 1.804540 0.000000 
#    z -0.007060 0.000000 1.808380 
# 
# From -- ./inp_files/137862.got.cif
#   From: 2010.06.25/outbox.cif.g09.slc.cpg/sg15_69_cif.got.tgz:137862.got - 2010.06.28 07:06:18.
