data_PCOD8137214
_publ_section_title
;
Structure prediction by ZEFSAII (Michael W. Deem and Ramdas Pophale) SiO2 
 PCOD8137214
Probable space group: C 2/C
;
_chemical_formula_sum "Si O2"
_cell_formula_units_Z 64
_cell_length_a 9.304552
_cell_length_b 17.403978
_cell_length_c 25.167780
_cell_angle_alpha 90.000000
_cell_angle_beta 132.297918
_cell_angle_gamma 90.000000
_cell_volume 3014.521755
_symmetry_space_group_name_H-M "C 2/C"
_symmetry_group_IT_number 15
_symmetry_cell_setting 'monoclinic'
loop_
_space_group_symop_operation_xyz
x,y,z
-x,y,1/2-z
-x,-y,-z
x,-y,1/2+z
1/2+x,1/2+y,z
1/2-x,1/2+y,1/2-z
1/2-x,1/2-y,-z
1/2+x,1/2-y,1/2+z
loop_
_atom_site_type_symbol
_atom_site_label
_atom_site_fract_x
_atom_site_fract_y
_atom_site_fract_z
Si Si1 0.809669 0.002246 0.733204
Si Si2 0.345365 0.504125 0.864648
Si Si3 0.488197 0.241618 0.898992
Si Si4 0.663942 0.846285 0.533640
Si Si5 0.945148 0.380010 0.884008
Si Si6 0.575582 0.902421 0.360874
Si Si7 0.650374 0.151061 0.333019
Si Si8 0.266894 0.992843 0.005388
O O1 0.639784 0.064220 0.687253
O O2 0.000000 0.033046 0.750000
O O3 0.869044 0.987341 0.808457
O O4 0.735751 0.923647 0.688105
O O5 0.186368 0.573406 0.833890
O O6 0.271447 0.426388 0.874816
O O7 0.551660 0.525930 0.941643
O O8 0.630320 0.314150 0.935420
O O9 0.545898 0.188754 0.862454
O O10 0.271782 0.275780 0.842861
O O11 0.498131 0.192186 0.955772
O O12 0.632554 0.825352 0.587979
O O13 0.667377 0.939004 0.527900
O O14 0.047661 0.329237 0.863724
O O15 0.093400 0.435587 0.951587
O O16 0.723444 0.937033 0.441249
O O17 0.500000 0.129042 0.250000
#
# Coordination Sequence:
#
# PCOD8137214 Si02
#       8
#     8   8   8   8   8   8   8   8
#     4  11  23  38  64  94 128 163 212 277 327 379
#     4  12  20  40  68  94 123 166 223 266 321 381
#     4  10  24  41  63  86 132 168 211 254 334 387
#     4  10  21  41  61  92 129 169 204 270 324 394
#     4  11  23  38  64  96 128 160 221 270 330 378
#     4  10  22  41  62  92 126 167 209 265 319 394
#     4  12  23  42  64  94 127 173 216 270 312 391
#     4  10  20  35  67  96 122 155 214 272 321 366
#
# _framework density 21.230564000000001
#
# number of rings (size 3 to 8) (size 9 to 14) (size 15 to 20)
#    0.000    1.250    5.000    1.875    0.000    3.000 
#    0.000    3.750    0.000    0.000    0.000    0.000 
#    0.000    0.000    0.000    0.000    0.000    0.000 
#
# Total GULP energy -396747.424467 kJ/mol
# GULP energy per Si atom -12398.357015 kJ/mol
# Density = 2.118224 g / cm^3
# Si number density = 21.230564 Si / 1000 Ang^3
#
#
#
# Elastic Constant Matrix: (Units=GPa)
#
#
# Indices 1 2 3 4 5 6 
#
# 1 122.3485 27.6250 46.7542 0.0000 -6.5512 0.0000
# 2 27.6250 66.7936 16.3234 0.0000 4.8844 0.0000
# 3 46.7542 16.3234 90.0927 0.0000 12.2479 0.0000
# 4 0.0000 0.0000 0.0000 16.5698 0.0000 -2.4684
# 5 -6.5512 4.8844 12.2479 0.0000 41.2769 0.0000
# 6 0.0000 0.0000 0.0000 -2.4684 0.0000 31.6958
#
#
#
# Elastic Compliance Matrix: (Units=1/GPa)
#
#
# Indices 1 2 3 4 5 6 
#
# 1 0.011418 -0.003591 -0.005813 0.000000 0.003962 0.000000
# 2 -0.003591 0.016839 -0.000874 0.000000 -0.002303 0.000000
# 3 -0.005813 -0.000874 0.014991 0.000000 -0.005267 0.000000
# 4 0.000000 0.000000 0.000000 0.061059 0.000000 0.004755
# 5 0.003962 -0.002303 -0.005267 0.000000 0.026691 0.000000
# 6 0.000000 0.000000 0.000000 0.004755 0.000000 0.031920
#
#
# Mechanical properties :
#
#
# Convention : Reuss Voigt Hill
#
# Bulk Modulus (GPa) = 44.07176 51.18223 47.62699
# Shear Modulus (GPa) = 26.17263 30.47730 28.32497
#
# Velocity S-wave (km/s) = 3.51491 3.79296 3.65658
# Velocity P-wave (km/s) = 6.10545 6.58348 6.34896
#
# Compressibility (1/GPa) = 0.02269027
#
# Stress axis : x y z
#
# Youngs Moduli (GPa) = 87.58153 59.38642 66.70655
#
# Poissons Ratio (x) = 0.21328 0.38779
# Poissons Ratio (y) = 0.31454 0.05831
# Poissons Ratio (z) = 0.50914 0.05191
#
# Static dielectric constant tensor:
#      x y z
#    x 3.904590 0.000000 -0.061740 
#    y 0.000000 3.545820 0.000000 
#    z -0.061740 0.000000 3.879590 
# 
# 
# High freq. dielectric constant tensor:
#      x y z
#    x 1.835770 0.000000 -0.000940 
#    y 0.000000 1.798000 0.000000 
#    z -0.000940 0.000000 1.838930 
# 
# From -- ./inp_files/266141.got.cif
#   From: 2010.06.25/outbox.cif.g09.slc.cpg/sg15_134_cif.got.tgz:266141.got - 2010.06.28 07:06:18.
