data_PCOD8137382
_publ_section_title
;
Structure prediction by ZEFSAII (Michael W. Deem and Ramdas Pophale) SiO2 
 PCOD8137382
Probable space group: C 2/C
;
_chemical_formula_sum "Si O2"
_cell_formula_units_Z 64
_cell_length_a 12.567957
_cell_length_b 24.361828
_cell_length_c 11.099306
_cell_angle_alpha 90.000000
_cell_angle_beta 108.397203
_cell_angle_gamma 90.000000
_cell_volume 3224.682071
_symmetry_space_group_name_H-M "C 2/C"
_symmetry_group_IT_number 15
_symmetry_cell_setting 'monoclinic'
loop_
_space_group_symop_operation_xyz
x,y,z
-x,y,1/2-z
-x,-y,-z
x,-y,1/2+z
1/2+x,1/2+y,z
1/2-x,1/2+y,1/2-z
1/2-x,1/2-y,-z
1/2+x,1/2-y,1/2+z
loop_
_atom_site_type_symbol
_atom_site_label
_atom_site_fract_x
_atom_site_fract_y
_atom_site_fract_z
Si Si1 0.626611 0.027450 0.270453
Si Si2 0.265135 0.131047 0.307525
Si Si3 0.320850 0.480912 0.026848
Si Si4 0.414014 0.620627 0.450521
Si Si5 0.224342 0.424434 0.206838
Si Si6 0.745530 0.176319 0.566636
Si Si7 0.660361 0.395972 0.008384
Si Si8 0.129659 0.724575 0.303080
O O1 0.500000 0.044248 0.250000
O O2 0.673675 0.073612 0.197741
O O3 0.698323 0.024788 0.419325
O O4 0.626782 0.967186 0.207815
O O5 0.146696 0.133175 0.196716
O O6 0.239966 0.135272 0.441045
O O7 0.341558 0.182338 0.293966
O O8 0.314569 0.459242 0.161690
O O9 0.364635 0.542693 0.047952
O O10 0.407397 0.443902 0.982041
O O11 0.355696 0.655823 0.534808
O O12 0.543766 0.636826 0.481656
O O13 0.181736 0.373098 0.112607
O O14 0.281073 0.397758 0.342631
O O15 0.789630 0.222024 0.676894
O O16 0.651891 0.198095 0.441923
O O17 0.000000 0.741431 0.250000
#
# Coordination Sequence:
#
# PCOD8137382 Si02
#       8
#     8   8   8   8   8   8   8   8
#     4  10  20  36  58  78 112 159 190 233 287 337
#     4  10  20  37  54  88 119 145 201 236 277 357
#     4   9  19  35  49  82 115 147 196 231 270 350
#     4   9  19  34  58  80 113 154 186 241 287 334
#     4  10  21  37  53  84 121 147 191 245 284 346
#     4   9  21  40  62  91 112 139 209 247 277 355
#     4  11  20  33  54  83 120 158 183 231 303 343
#     4  10  21  40  68  85 109 155 197 249 290 329
#
# _framework density 19.846917999999999
#
# number of rings (size 3 to 8) (size 9 to 14) (size 15 to 20)
#    0.000    2.250    1.250    1.875    1.750    2.000 
#    6.750    0.625    0.000    1.500    0.000    0.000 
#    0.000    0.000    0.000    0.000    0.000    0.000 
#
# Total GULP energy -396727.945805 kJ/mol
# GULP energy per Si atom -12397.748306 kJ/mol
# Density = 1.980175 g / cm^3
# Si number density = 19.846918 Si / 1000 Ang^3
#
#
#
# Elastic Constant Matrix: (Units=GPa)
#
#
# Indices 1 2 3 4 5 6 
#
# 1 85.3898 7.9669 28.8076 0.0000 3.5303 0.0000
# 2 7.9669 84.0141 18.8066 0.0000 -1.1567 0.0000
# 3 28.8076 18.8066 83.0600 0.0000 -15.7851 0.0000
# 4 0.0000 0.0000 0.0000 28.5482 0.0000 -3.8403
# 5 3.5303 -1.1567 -15.7851 0.0000 21.1446 0.0000
# 6 0.0000 0.0000 0.0000 -3.8403 0.0000 20.8154
#
#
#
# Elastic Compliance Matrix: (Units=1/GPa)
#
#
# Indices 1 2 3 4 5 6 
#
# 1 0.014099 -0.000043 -0.006209 0.000000 -0.006991 0.000000
# 2 -0.000043 0.012589 -0.003150 0.000000 -0.001656 0.000000
# 3 -0.006209 -0.003150 0.017562 0.000000 0.013975 0.000000
# 4 0.000000 0.000000 0.000000 0.035920 0.000000 0.006627
# 5 -0.006991 -0.001656 0.013975 0.000000 0.058803 0.000000
# 6 0.000000 0.000000 0.000000 0.006627 0.000000 0.049264
#
#
# Mechanical properties :
#
#
# Convention : Reuss Voigt Hill
#
# Bulk Modulus (GPa) = 39.29959 40.40290 39.85124
# Shear Modulus (GPa) = 23.19940 27.22715 25.21328
#
# Velocity S-wave (km/s) = 3.42265 3.70788 3.56812
# Velocity P-wave (km/s) = 5.95514 6.22355 6.09083
#
# Compressibility (1/GPa) = 0.02544556
#
# Stress axis : x y z
#
# Youngs Moduli (GPa) = 70.92853 79.43301 56.94135
#
# Poissons Ratio (x) = 0.00345 0.35353
# Poissons Ratio (y) = 0.00308 0.17937
# Poissons Ratio (z) = 0.44037 0.25022
#
# Static dielectric constant tensor:
#      x y z
#    x 3.257050 0.000000 -0.112350 
#    y 0.000000 3.703780 0.000000 
#    z -0.112350 0.000000 3.579870 
# 
# 
# High freq. dielectric constant tensor:
#      x y z
#    x 1.746770 0.000000 -0.005050 
#    y 0.000000 1.770200 0.000000 
#    z -0.005050 0.000000 1.769850 
# 
# From -- ./inp_files/91831.got.cif
#   From: 2010.06.25/outbox.cif.g09.slc.cpg/sg15_46_cif.got.tgz:91831.got - 2010.06.28 07:06:18.
