data_PCOD8137072
_publ_section_title
;
Structure prediction by ZEFSAII (Michael W. Deem and Ramdas Pophale) SiO2 
 PCOD8137072
Probable space group: C 2/C
;
_chemical_formula_sum "Si O2"
_cell_formula_units_Z 56
_cell_length_a 21.712377
_cell_length_b 13.901890
_cell_length_c 19.571244
_cell_angle_alpha 90.000000
_cell_angle_beta 152.464199
_cell_angle_gamma 90.000000
_cell_volume 2731.027944
_symmetry_space_group_name_H-M "C 2/C"
_symmetry_group_IT_number 15
_symmetry_cell_setting 'monoclinic'
loop_
_space_group_symop_operation_xyz
x,y,z
-x,y,1/2-z
-x,-y,-z
x,-y,1/2+z
1/2+x,1/2+y,z
1/2-x,1/2+y,1/2-z
1/2-x,1/2-y,-z
1/2+x,1/2-y,1/2+z
loop_
_atom_site_type_symbol
_atom_site_label
_atom_site_fract_x
_atom_site_fract_y
_atom_site_fract_z
Si Si1 0.628604 0.873703 0.335043
Si Si2 0.853277 0.326228 0.574897
Si Si3 0.246052 0.051730 0.078715
Si Si4 0.930951 0.148723 0.911438
Si Si5 0.196064 0.762609 0.613433
Si Si6 0.005514 0.031996 0.109615
Si Si7 0.626319 0.662872 0.327298
O O1 0.500000 0.905598 0.250000
O O2 0.615646 0.770818 0.284941
O O3 0.741817 0.858719 0.502466
O O4 0.662640 0.958143 0.313538
O O5 0.750000 0.250000 0.500000
O O6 0.791391 0.425010 0.544698
O O7 0.852599 0.315090 0.491892
O O8 0.000000 0.307089 0.750000
O O9 0.267013 0.143073 0.149230
O O10 0.093846 0.017204 0.933321
O O11 0.803635 0.215180 0.769926
O O12 0.927545 0.110251 0.985810
O O13 0.920502 0.052038 0.857346
O O14 0.067849 0.205744 0.030771
O O15 0.123333 0.088463 0.262335
O O16 0.500000 0.645254 0.250000
#
# Coordination Sequence:
#
# PCOD8137072 Si02
#       7
#     8   8   8   8   8   8   8
#     4  10  21  35  55  91 122 150 193 258 324 366
#     4  10  20  35  59  96 130 161 196 253 325 376
#     4  10  20  36  61  89 127 154 199 261 320 367
#     4  10  23  41  63  87 122 164 212 249 302 372
#     4  10  21  39  61  92 125 162 204 253 310 382
#     4  10  22  41  64  85 115 169 217 249 294 384
#     4  10  20  38  60  85 113 158 208 255 314 365
#
# _framework density 20.505099999999999
#
# number of rings (size 3 to 8) (size 9 to 14) (size 15 to 20)
#    0.000    2.000    1.429    2.143    2.000    1.143 
#    5.143    0.000    0.000    6.000    0.000    0.000 
#    0.000    0.000    0.000    0.000    0.000    0.000 
#
# Total GULP energy -346865.505403 kJ/mol
# GULP energy per Si atom -12388.053764 kJ/mol
# Density = 2.045843 g / cm^3
# Si number density = 20.505100 Si / 1000 Ang^3
#
#
#
# Elastic Constant Matrix: (Units=GPa)
#
#
# Indices 1 2 3 4 5 6 
#
# 1 52.7931 25.8989 24.6494 0.0001 9.5516 0.0001
# 2 25.8989 92.1717 28.1954 0.0004 -10.0031 0.0003
# 3 24.6494 28.1954 74.2309 0.0006 6.5183 0.0004
# 4 0.0001 0.0004 0.0006 38.0062 0.0003 -0.0381
# 5 9.5516 -10.0031 6.5183 0.0003 20.8400 0.0002
# 6 0.0001 0.0003 0.0004 -0.0381 0.0002 31.5876
#
#
#
# Elastic Compliance Matrix: (Units=1/GPa)
#
#
# Indices 1 2 3 4 5 6 
#
# 1 0.027863 -0.007963 -0.004906 0.000000 -0.015058 0.000000
# 2 -0.007963 0.015830 -0.004479 0.000000 0.012649 0.000000
# 3 -0.004906 -0.004479 0.017267 0.000000 -0.005302 0.000000
# 4 0.000000 0.000000 0.000000 0.026312 0.000000 0.000032
# 5 -0.015058 0.012649 -0.005302 0.000000 0.062616 0.000000
# 6 0.000000 0.000000 0.000000 0.000032 0.000000 0.031658
#
#
# Mechanical properties :
#
#
# Convention : Reuss Voigt Hill
#
# Bulk Modulus (GPa) = 38.07325 41.85366 39.96345
# Shear Modulus (GPa) = 22.22267 27.45022 24.83645
#
# Velocity S-wave (km/s) = 3.29563 3.66280 3.48405
# Velocity P-wave (km/s) = 5.75235 6.19223 5.97634
#
# Compressibility (1/GPa) = 0.02626516
#
# Stress axis : x y z
#
# Youngs Moduli (GPa) = 35.89000 63.17269 57.91264
#
# Poissons Ratio (x) = 0.50302 0.28409
# Poissons Ratio (y) = 0.28578 0.25940
# Poissons Ratio (z) = 0.17606 0.28296
#
# Static dielectric constant tensor:
#      x y z
#    x 4.041930 0.000000 0.031720 
#    y 0.000000 3.832820 0.000000 
#    z 0.031720 0.000000 3.452400 
# 
# 
# High freq. dielectric constant tensor:
#      x y z
#    x 1.785630 0.000000 0.020090 
#    y 0.000000 1.823240 0.000000 
#    z 0.020090 0.000000 1.780430 
# 
# From -- ./inp_files/215783.got.cif
#   From: 2010.06.25/outbox.cif.g09.slc.cpg/sg15_108_cif.got.tgz:215783.got - 2010.06.28 07:06:18.
