data_PCOD8137752
_publ_section_title
;
Structure prediction by ZEFSAII (Michael W. Deem and Ramdas Pophale) SiO2 
 PCOD8137752
Probable space group: C 2/C
;
_chemical_formula_sum "Si O2"
_cell_formula_units_Z 52
_cell_length_a 15.368873
_cell_length_b 14.347579
_cell_length_c 16.894617
_cell_angle_alpha 90.000000
_cell_angle_beta 44.232841
_cell_angle_gamma 90.000000
_cell_volume 2598.725880
_symmetry_space_group_name_H-M "C 2/C"
_symmetry_group_IT_number 15
_symmetry_cell_setting 'monoclinic'
loop_
_space_group_symop_operation_xyz
x,y,z
-x,y,1/2-z
-x,-y,-z
x,-y,1/2+z
1/2+x,1/2+y,z
1/2-x,1/2+y,1/2-z
1/2-x,1/2-y,-z
1/2+x,1/2-y,1/2+z
loop_
_atom_site_type_symbol
_atom_site_label
_atom_site_fract_x
_atom_site_fract_y
_atom_site_fract_z
Si Si1 0.317548 0.518090 0.648826
Si Si2 0.970717 0.262725 0.677575
Si Si3 0.209716 0.689405 0.786877
Si Si4 0.000000 0.959389 0.750000
Si Si5 0.563428 0.581080 0.558538
Si Si6 0.785819 0.129828 0.305169
Si Si7 0.485378 0.108982 0.026395
O O1 0.221597 0.604294 0.716186
O O2 0.451531 0.567662 0.569591
O O3 0.314233 0.458660 0.568389
O O4 0.282376 0.452706 0.744217
O O5 0.074576 0.189956 0.575242
O O6 0.975926 0.360573 0.625779
O O7 0.000000 0.284409 0.750000
O O8 0.835984 0.212082 0.754169
O O9 0.163129 0.777077 0.767815
O O10 0.101195 0.666336 0.918691
O O11 0.880300 0.894813 0.813361
O O12 0.962014 0.023242 0.846864
O O13 0.644550 0.141809 0.430073
O O14 0.500000 0.000000 0.000000
#
# Coordination Sequence:
#
# PCOD8137752 Si02
#       7
#     8   8   8   4   8   8   8
#     4   9  17  33  56  84 114 158 201 242 304 363
#     4  10  21  37  62  97 122 152 207 262 310 363
#     4  10  21  38  61  86 122 165 209 245 306 382
#     4  10  20  36  62  90 120 154 208 262 304 340
#     4   9  17  32  59  89 118 147 196 263 300 348
#     4  10  21  38  60  86 119 160 208 253 301 369
#     4  11  22  39  63  87 125 169 198 246 315 378
#
# _framework density 20.009805
#
# number of rings (size 3 to 8) (size 9 to 14) (size 15 to 20)
#    0.000    2.154    2.308    0.923    0.000    4.308 
#    0.000    6.154    1.692    0.000    0.000    0.000 
#    0.000    0.000    0.000    0.000    0.000    0.000 
#
# Total GULP energy -322180.184622 kJ/mol
# GULP energy per Si atom -12391.545562 kJ/mol
# Density = 1.996426 g / cm^3
# Si number density = 20.009805 Si / 1000 Ang^3
#
#
#
# Elastic Constant Matrix: (Units=GPa)
#
#
# Indices 1 2 3 4 5 6 
#
# 1 88.6788 41.7789 39.9886 0.0000 4.5185 0.0000
# 2 41.7789 123.4117 28.2728 0.0000 2.2596 0.0000
# 3 39.9886 28.2728 95.4454 0.0000 -4.1251 0.0000
# 4 0.0000 0.0000 0.0000 23.8834 0.0000 2.3508
# 5 4.5185 2.2596 -4.1251 0.0000 21.2323 0.0000
# 6 0.0000 0.0000 0.0000 2.3508 0.0000 20.7818
#
#
#
# Elastic Compliance Matrix: (Units=1/GPa)
#
#
# Indices 1 2 3 4 5 6 
#
# 1 0.015930 -0.004022 -0.005658 0.000000 -0.004061 0.000000
# 2 -0.004022 0.009752 -0.001222 0.000000 -0.000419 0.000000
# 3 -0.005658 -0.001222 0.013380 0.000000 0.003934 0.000000
# 4 0.000000 0.000000 0.000000 0.042342 0.000000 -0.004790
# 5 -0.004061 -0.000419 0.003934 0.000000 0.048771 0.000000
# 6 0.000000 0.000000 0.000000 -0.004790 0.000000 0.048661
#
#
# Mechanical properties :
#
#
# Convention : Reuss Voigt Hill
#
# Bulk Modulus (GPa) = 57.94557 58.62406 58.28482
# Shear Modulus (GPa) = 24.22568 26.34587 25.28578
#
# Velocity S-wave (km/s) = 3.48327 3.63250 3.55867
# Velocity P-wave (km/s) = 6.72302 6.85235 6.78799
#
# Compressibility (1/GPa) = 0.01725757
#
# Stress axis : x y z
#
# Youngs Moduli (GPa) = 62.77428 102.54118 74.73991
#
# Poissons Ratio (x) = 0.41244 0.42290
# Poissons Ratio (y) = 0.25249 0.09131
# Poissons Ratio (z) = 0.35519 0.12528
#
# Static dielectric constant tensor:
#      x y z
#    x 3.483300 0.000000 -0.078400 
#    y 0.000000 3.929000 0.000000 
#    z -0.078400 0.000000 3.831750 
# 
# 
# High freq. dielectric constant tensor:
#      x y z
#    x 1.738550 0.000000 -0.001850 
#    y 0.000000 1.794270 0.000000 
#    z -0.001850 0.000000 1.785310 
# 
# From -- ./inp_files/96966.got.cif
#   From: 2010.06.25/outbox.cif.g09.slc.cpg/sg15_49_cif.got.tgz:96966.got - 2010.06.28 07:06:18.
