data_PCOD8137637
_publ_section_title
;
Structure prediction by ZEFSAII (Michael W. Deem and Ramdas Pophale) SiO2 
 PCOD8137637
Probable space group: C 2/C
;
_chemical_formula_sum "Si O2"
_cell_formula_units_Z 56
_cell_length_a 14.588790
_cell_length_b 14.549642
_cell_length_c 16.686306
_cell_angle_alpha 90.000000
_cell_angle_beta 49.840242
_cell_angle_gamma 90.000000
_cell_volume 2706.866054
_symmetry_space_group_name_H-M "C 2/C"
_symmetry_group_IT_number 15
_symmetry_cell_setting 'monoclinic'
loop_
_space_group_symop_operation_xyz
x,y,z
-x,y,1/2-z
-x,-y,-z
x,-y,1/2+z
1/2+x,1/2+y,z
1/2-x,1/2+y,1/2-z
1/2-x,1/2-y,-z
1/2+x,1/2-y,1/2+z
loop_
_atom_site_type_symbol
_atom_site_label
_atom_site_fract_x
_atom_site_fract_y
_atom_site_fract_z
Si Si1 0.000000 0.873344 0.750000
Si Si2 0.977399 0.391205 0.012245
Si Si3 0.739451 0.654328 0.550651
Si Si4 0.430049 0.387038 0.062389
Si Si5 0.887806 0.996707 0.945441
Si Si6 0.139818 0.717574 0.312365
Si Si7 0.500000 0.721104 0.750000
Si Si8 0.909673 0.227162 0.146157
O O1 0.934246 0.806758 0.723004
O O2 0.908700 0.937695 0.852208
O O3 0.856525 0.365455 0.034630
O O4 0.955569 0.334161 0.108335
O O5 0.000000 0.500000 0.000000
O O6 0.098919 0.355224 0.902002
O O7 0.750000 0.750000 0.500000
O O8 0.720545 0.568449 0.502336
O O9 0.615258 0.656047 0.671003
O O10 0.487774 0.456624 0.094690
O O11 0.347450 0.318948 0.158100
O O12 0.344738 0.434619 0.044513
O O13 0.531378 0.332553 0.956693
O O14 0.271584 0.703075 0.203417
O O15 0.034973 0.713281 0.304323
#
# Coordination Sequence:
#
# PCOD8137637 Si02
#       8
#     4   8   8   8   8   8   4   8
#     4  10  23  40  65  94 116 172 226 269 312 393
#     4  11  25  44  63  96 134 172 216 278 341 400
#     4  12  22  40  64  91 131 167 208 269 324 393
#     4   9  20  39  59  92 129 156 206 271 317 377
#     4  10  20  36  60  94 118 156 214 262 311 376
#     4  11  22  40  66  92 125 176 212 263 339 389
#     4  12  21  36  67  94 114 170 220 247 318 389
#     4  10  22  44  64  88 134 171 213 272 334 395
#
# _framework density 20.688130000000001
#
# number of rings (size 3 to 8) (size 9 to 14) (size 15 to 20)
#    0.000    1.429    4.286    1.286    2.000    0.000 
#    7.714    2.857    0.000    0.000    0.000    0.000 
#    0.000    0.000    0.000    0.000    0.000    0.000 
#
# Total GULP energy -346873.770927 kJ/mol
# GULP energy per Si atom -12388.348962 kJ/mol
# Density = 2.064104 g / cm^3
# Si number density = 20.688130 Si / 1000 Ang^3
#
#
#
# Elastic Constant Matrix: (Units=GPa)
#
#
# Indices 1 2 3 4 5 6 
#
# 1 84.5071 50.6098 32.3440 0.0000 9.3696 0.0000
# 2 50.6098 143.3668 40.4657 0.0000 13.7619 0.0000
# 3 32.3440 40.4657 78.9024 0.0000 -1.6841 0.0000
# 4 0.0000 0.0000 0.0000 23.8999 0.0000 1.0551
# 5 9.3696 13.7619 -1.6841 0.0000 38.0490 0.0000
# 6 0.0000 0.0000 0.0000 1.0551 0.0000 39.4855
#
#
#
# Elastic Compliance Matrix: (Units=1/GPa)
#
#
# Indices 1 2 3 4 5 6 
#
# 1 0.016443 -0.004238 -0.004625 0.000000 -0.002721 0.000000
# 2 -0.004238 0.009640 -0.003262 0.000000 -0.002588 0.000000
# 3 -0.004625 -0.003262 0.016308 0.000000 0.003041 0.000000
# 4 0.000000 0.000000 0.000000 0.041891 0.000000 -0.001119
# 5 -0.002721 -0.002588 0.003041 0.000000 0.028022 0.000000
# 6 0.000000 0.000000 0.000000 -0.001119 0.000000 0.025356
#
#
# Mechanical properties :
#
#
# Convention : Reuss Voigt Hill
#
# Bulk Modulus (GPa) = 55.12390 61.51283 58.31836
# Shear Modulus (GPa) = 29.76950 32.51067 31.14008
#
# Velocity S-wave (km/s) = 3.79748 3.96847 3.88392
# Velocity P-wave (km/s) = 6.77723 7.12715 6.95439
#
# Compressibility (1/GPa) = 0.01814095
#
# Stress axis : x y z
#
# Youngs Moduli (GPa) = 60.81514 103.73155 61.32076
#
# Poissons Ratio (x) = 0.43961 0.28361
# Poissons Ratio (y) = 0.25773 0.20003
# Poissons Ratio (z) = 0.28128 0.33838
#
# Static dielectric constant tensor:
#      x y z
#    x 3.753230 0.000000 0.257660 
#    y 0.000000 3.757030 0.000000 
#    z 0.257660 0.000000 3.738160 
# 
# 
# High freq. dielectric constant tensor:
#      x y z
#    x 1.799410 0.000000 0.013250 
#    y 0.000000 1.812850 0.000000 
#    z 0.013250 0.000000 1.805770 
# 
# From -- ./inp_files/205379.got.cif
#   From: 2010.06.25/outbox.cif.g09.slc.cpg/sg15_103_cif.got.tgz:205379.got - 2010.06.28 07:06:18.
