data_PCOD8137337
_publ_section_title
;
Structure prediction by ZEFSAII (Michael W. Deem and Ramdas Pophale) SiO2 
 PCOD8137337
Probable space group: C 2/C
;
_chemical_formula_sum "Si O2"
_cell_formula_units_Z 60
_cell_length_a 11.706269
_cell_length_b 8.747418
_cell_length_c 29.591266
_cell_angle_alpha 90.000000
_cell_angle_beta 109.880357
_cell_angle_gamma 90.000000
_cell_volume 2849.553052
_symmetry_space_group_name_H-M "C 2/C"
_symmetry_group_IT_number 15
_symmetry_cell_setting 'monoclinic'
loop_
_space_group_symop_operation_xyz
x,y,z
-x,y,1/2-z
-x,-y,-z
x,-y,1/2+z
1/2+x,1/2+y,z
1/2-x,1/2+y,1/2-z
1/2-x,1/2-y,-z
1/2+x,1/2-y,1/2+z
loop_
_atom_site_type_symbol
_atom_site_label
_atom_site_fract_x
_atom_site_fract_y
_atom_site_fract_z
Si Si1 0.000000 0.551007 0.250000
Si Si2 0.324012 0.266855 0.272941
Si Si3 0.216563 0.547662 0.150155
Si Si4 0.971031 0.749047 0.987030
Si Si5 0.014520 0.001025 0.332746
Si Si6 0.319167 0.959140 0.956528
Si Si7 0.946889 0.016265 0.559844
Si Si8 0.579480 0.163451 0.690522
O O1 0.880329 0.653735 0.242682
O O2 0.018848 0.444481 0.296959
O O3 0.304226 0.186322 0.318323
O O4 0.415726 0.408593 0.291042
O O5 0.195523 0.327703 0.239081
O O6 0.353664 0.481265 0.172538
O O7 0.188918 0.603312 0.095844
O O8 0.122325 0.411883 0.149379
O O9 0.093468 0.648124 0.002382
O O10 0.958857 0.826038 0.034421
O O11 0.859312 0.636573 0.962319
O O12 0.968733 0.882041 0.949066
O O13 0.015948 0.942503 0.384273
O O14 0.982962 0.178655 0.328525
O O15 0.188906 0.951244 0.962312
#
# Coordination Sequence:
#
# PCOD8137337 Si02
#       8
#     4   8   8   8   8   8   8   8
#     4  10  22  36  52  76 104 136 178 220 262 314
#     4  11  22  37  56  79 108 144 183 225 271 320
#     4  10  22  37  55  81 112 143 184 228 272 322
#     4  10  20  36  58  82 112 144 180 222 272 328
#     4  11  22  37  58  82 110 144 183 227 273 321
#     4  10  20  36  57  81 110 147 181 221 273 327
#     4  10  21  36  56  84 112 141 181 226 271 324
#     4  11  22  37  56  79 108 144 183 225 271 320
#
# _framework density 21.055931999999999
#
# number of rings (size 3 to 8) (size 9 to 14) (size 15 to 20)
#    0.000    1.600    0.000    5.600    0.000    1.600 
#    0.000    0.000    0.000   22.400    0.000    0.000 
#    0.000    0.000    0.000    0.000    0.000    0.000 
#
# Total GULP energy -372082.828705 kJ/mol
# GULP energy per Si atom -12402.760957 kJ/mol
# Density = 2.100801 g / cm^3
# Si number density = 21.055932 Si / 1000 Ang^3
#
#
#
# Elastic Constant Matrix: (Units=GPa)
#
#
# Indices 1 2 3 4 5 6 
#
# 1 69.3763 15.4591 17.6420 0.0000 -17.2671 0.0000
# 2 15.4591 58.4859 1.8251 0.0000 -11.2295 0.0000
# 3 17.6420 1.8251 22.6063 0.0000 5.1719 0.0000
# 4 0.0000 0.0000 0.0000 26.4434 0.0000 2.6861
# 5 -17.2671 -11.2295 5.1719 0.0000 26.2023 0.0000
# 6 0.0000 0.0000 0.0000 2.6861 0.0000 24.7556
#
#
#
# Elastic Compliance Matrix: (Units=1/GPa)
#
#
# Indices 1 2 3 4 5 6 
#
# 1 0.026919 -0.002095 -0.025859 0.000000 0.021946 0.000000
# 2 -0.002095 0.019061 -0.001526 0.000000 0.007090 0.000000
# 3 -0.025859 -0.001526 0.071831 0.000000 -0.031873 0.000000
# 4 0.000000 0.000000 0.000000 0.038238 0.000000 -0.004149
# 5 0.021946 0.007090 -0.031873 0.000000 0.061956 0.000000
# 6 0.000000 0.000000 0.000000 -0.004149 0.000000 0.040845
#
#
# Mechanical properties :
#
#
# Convention : Reuss Voigt Hill
#
# Bulk Modulus (GPa) = 16.99215 24.48011 20.73613
# Shear Modulus (GPa) = 14.81803 23.18309 19.00056
#
# Velocity S-wave (km/s) = 2.65570 3.32177 3.00723
# Velocity P-wave (km/s) = 4.18225 5.13456 4.68267
#
# Compressibility (1/GPa) = 0.05885071
#
# Stress axis : x y z
#
# Youngs Moduli (GPa) = 37.14870 52.46406 13.92154
#
# Poissons Ratio (x) = 0.10989 0.36000
# Poissons Ratio (y) = 0.07781 0.02125
# Poissons Ratio (z) = 0.96063 0.08007
#
# Static dielectric constant tensor:
#      x y z
#    x 3.915660 0.000000 -0.161260 
#    y 0.000000 3.807660 0.000000 
#    z -0.161260 0.000000 3.586540 
# 
# 
# High freq. dielectric constant tensor:
#      x y z
#    x 1.833540 0.000000 -0.015550 
#    y 0.000000 1.833150 0.000000 
#    z -0.015550 0.000000 1.811650 
# 
# From -- ./inp_files/125594.got.cif
#   From: 2010.06.25/outbox.cif.g09.slc.cpg/sg15_63_cif.got.tgz:125594.got - 2010.06.28 07:06:18.
