data_PCOD8137893
_publ_section_title
;
Structure prediction by ZEFSAII (Michael W. Deem and Ramdas Pophale) SiO2 
 PCOD8137893
Probable space group: C 2/C
;
_chemical_formula_sum "Si O2"
_cell_formula_units_Z 60
_cell_length_a 30.118055
_cell_length_b 16.996576
_cell_length_c 18.752972
_cell_angle_alpha 90.000000
_cell_angle_beta 17.572041
_cell_angle_gamma 90.000000
_cell_volume 2898.200124
_symmetry_space_group_name_H-M "C 2/C"
_symmetry_group_IT_number 15
_symmetry_cell_setting 'monoclinic'
loop_
_space_group_symop_operation_xyz
x,y,z
-x,y,1/2-z
-x,-y,-z
x,-y,1/2+z
1/2+x,1/2+y,z
1/2-x,1/2+y,1/2-z
1/2-x,1/2-y,-z
1/2+x,1/2-y,1/2+z
loop_
_atom_site_type_symbol
_atom_site_label
_atom_site_fract_x
_atom_site_fract_y
_atom_site_fract_z
Si Si1 0.500000 0.165173 0.250000
Si Si2 0.175246 0.900656 0.998659
Si Si3 0.821520 0.953391 0.813694
Si Si4 0.252292 0.751824 0.797919
Si Si5 0.362352 0.934394 0.839130
Si Si6 0.857338 0.641799 0.016393
Si Si7 0.340989 0.004337 0.642363
Si Si8 0.122143 0.090925 0.876988
O O1 0.414163 0.218003 0.439877
O O2 0.612000 0.112309 0.125277
O O3 0.000000 0.900202 0.250000
O O4 0.259418 0.826599 0.837749
O O5 0.223915 0.897781 0.007114
O O6 0.250227 0.978662 0.850786
O O7 0.954240 0.922609 0.660073
O O8 0.864308 0.039078 0.715063
O O9 0.780415 0.885560 0.820640
O O10 0.680782 0.975124 0.076758
O O11 0.300538 0.779965 0.644779
O O12 0.361035 0.684479 0.660793
O O13 0.513119 0.944118 0.562656
O O14 0.000000 0.662285 0.750000
O O15 0.890072 0.569833 0.019462
O O16 0.238092 0.064573 0.757990
#
# Coordination Sequence:
#
# PCOD8137893 Si02
#       8
#     4   8   8   8   8   8   8   8
#     4  12  22  42  64 100 124 168 216 258 326 388
#     4  11  25  40  59  98 139 169 203 264 336 380
#     4  10  20  36  65  93 114 165 219 261 307 368
#     4  11  23  41  60  92 138 166 209 260 329 392
#     4  12  21  39  70  93 124 166 221 272 309 378
#     4  10  20  39  65  88 124 170 215 264 312 378
#     4  10  20  39  65  89 125 165 217 264 309 378
#     4  10  20  38  60  91 124 158 213 262 308 378
#
# _framework density 20.702504000000001
#
# number of rings (size 3 to 8) (size 9 to 14) (size 15 to 20)
#    0.000    1.333    4.667    2.000    0.000    2.667 
#    0.000    2.667    0.000    0.000    0.000    0.000 
#    0.000    0.000    0.000    0.000    0.000    0.000 
#
# Total GULP energy -371652.343674 kJ/mol
# GULP energy per Si atom -12388.411456 kJ/mol
# Density = 2.065538 g / cm^3
# Si number density = 20.702504 Si / 1000 Ang^3
#
#
#
# Elastic Constant Matrix: (Units=GPa)
#
#
# Indices 1 2 3 4 5 6 
#
# 1 110.3662 37.0674 52.9483 0.0045 -18.5662 -0.0005
# 2 37.0674 94.7326 48.8633 0.0076 -3.8013 -0.0045
# 3 52.9483 48.8633 116.9898 -0.0002 -8.4477 -0.0011
# 4 0.0045 0.0076 -0.0002 40.3609 -0.0053 6.5548
# 5 -18.5662 -3.8013 -8.4477 -0.0053 37.2046 0.0018
# 6 -0.0005 -0.0045 -0.0011 6.5548 0.0018 14.2029
#
#
#
# Elastic Compliance Matrix: (Units=1/GPa)
#
#
# Indices 1 2 3 4 5 6 
#
# 1 0.012903 -0.002577 -0.004390 0.000000 0.005179 -0.000001
# 2 -0.002577 0.013970 -0.004736 -0.000003 -0.000934 0.000006
# 3 -0.004390 -0.004736 0.012525 0.000002 0.000169 -0.000002
# 4 0.000000 -0.000003 0.000002 0.026784 0.000004 -0.012361
# 5 0.005179 -0.000934 0.000169 0.000004 0.029406 -0.000006
# 6 -0.000001 0.000006 -0.000002 -0.012361 -0.000006 0.076113
#
#
# Mechanical properties :
#
#
# Convention : Reuss Voigt Hill
#
# Bulk Modulus (GPa) = 62.52769 66.64962 64.58866
# Shear Modulus (GPa) = 24.94555 30.56765 27.75660
#
# Velocity S-wave (km/s) = 3.47501 3.84672 3.66558
# Velocity P-wave (km/s) = 6.80951 7.21066 7.01295
#
# Compressibility (1/GPa) = 0.01599291
#
# Stress axis : x y z
#
# Youngs Moduli (GPa) = 77.49881 71.58383 79.84191
#
# Poissons Ratio (x) = 0.18446 0.35048
# Poissons Ratio (y) = 0.19971 0.37812
# Poissons Ratio (z) = 0.34019 0.33901
#
# Static dielectric constant tensor:
#      x y z
#    x 3.489060 0.000000 -0.035990 
#    y 0.000000 3.760120 0.000010 
#    z -0.035990 0.000010 4.000290 
# 
# 
# High freq. dielectric constant tensor:
#      x y z
#    x 1.782960 0.000000 -0.010640 
#    y 0.000000 1.797950 0.000000 
#    z -0.010640 0.000000 1.825160 
# 
# From -- ./inp_files/225780.got.cif
#   From: 2010.06.25/outbox.cif.g09.slc.cpg/sg15_113_cif.got.tgz:225780.got - 2010.06.28 07:06:18.
