data_PCOD8137423
_publ_section_title
;
Structure prediction by ZEFSAII (Michael W. Deem and Ramdas Pophale) SiO2 
 PCOD8137423
Probable space group: C 2/C
;
_chemical_formula_sum "Si O2"
_cell_formula_units_Z 64
_cell_length_a 22.058305
_cell_length_b 14.746307
_cell_length_c 15.803315
_cell_angle_alpha 90.000000
_cell_angle_beta 140.124367
_cell_angle_gamma 90.000000
_cell_volume 3295.681034
_symmetry_space_group_name_H-M "C 2/C"
_symmetry_group_IT_number 15
_symmetry_cell_setting 'monoclinic'
loop_
_space_group_symop_operation_xyz
x,y,z
-x,y,1/2-z
-x,-y,-z
x,-y,1/2+z
1/2+x,1/2+y,z
1/2-x,1/2+y,1/2-z
1/2-x,1/2-y,-z
1/2+x,1/2-y,1/2+z
loop_
_atom_site_type_symbol
_atom_site_label
_atom_site_fract_x
_atom_site_fract_y
_atom_site_fract_z
Si Si1 0.515486 0.018668 0.614582
Si Si2 0.445704 0.459843 0.104487
Si Si3 0.699764 0.901904 0.392744
Si Si4 0.082230 0.676028 0.902970
Si Si5 0.105308 0.845586 0.203688
Si Si6 0.866386 0.854469 0.456763
Si Si7 0.067502 0.333253 0.748374
Si Si8 0.729551 0.592130 0.990607
O O1 0.613458 0.068095 0.740289
O O2 0.431534 0.081901 0.560201
O O3 0.500000 0.000000 0.500000
O O4 0.513565 0.922573 0.659493
O O5 0.500000 0.472563 0.250000
O O6 0.511211 0.406837 0.108444
O O7 0.428516 0.559455 0.049109
O O8 0.348645 0.402332 0.017049
O O9 0.674401 0.834236 0.442350
O O10 0.768747 0.851893 0.402481
O O11 0.746449 0.986469 0.490776
O O12 0.000000 0.695285 0.750000
O O13 0.082862 0.759753 0.967844
O O14 0.152801 0.857802 0.163514
O O15 0.072271 0.741919 0.180599
O O16 0.185036 0.872972 0.356141
O O17 0.176255 0.350113 0.891644
O O18 0.000000 0.293450 0.750000
#
# Coordination Sequence:
#
# PCOD8137423 Si02
#       8
#     8   8   8   8   8   8   8   8
#     4  10  20  36  58  85 112 139 181 234 277 320
#     4   9  19  38  59  79 108 146 181 219 272 334
#     4   9  20  36  56  79 107 147 183 219 274 335
#     4  10  20  37  56  78 108 147 185 219 269 336
#     4  11  22  35  54  84 112 142 183 231 271 315
#     4  11  21  35  56  82 111 140 181 231 275 316
#     4  11  21  36  58  81 110 151 185 218 273 337
#     4   9  19  37  57  78 108 146 183 219 270 335
#
# _framework density 19.419354999999999
#
# number of rings (size 3 to 8) (size 9 to 14) (size 15 to 20)
#    0.000    2.000    0.000    5.250    0.000    2.000 
#    0.000    3.750    0.000    0.000    0.000    0.000 
#    0.000    0.000    0.000    0.000    0.000    0.000 
#
# Total GULP energy -396714.787118 kJ/mol
# GULP energy per Si atom -12397.337097 kJ/mol
# Density = 1.937516 g / cm^3
# Si number density = 19.419355 Si / 1000 Ang^3
#
#
#
# Elastic Constant Matrix: (Units=GPa)
#
#
# Indices 1 2 3 4 5 6 
#
# 1 136.4081 59.9752 45.1162 0.0000 -2.2455 0.0000
# 2 59.9752 110.6708 41.1790 0.0000 -3.3718 0.0000
# 3 45.1162 41.1790 58.0162 0.0000 -6.4334 0.0000
# 4 0.0000 0.0000 0.0000 15.0086 0.0000 -0.6902
# 5 -2.2455 -3.3718 -6.4334 0.0000 31.1438 0.0000
# 6 0.0000 0.0000 0.0000 -0.6902 0.0000 29.8238
#
#
#
# Elastic Compliance Matrix: (Units=1/GPa)
#
#
# Indices 1 2 3 4 5 6 
#
# 1 0.010923 -0.003737 -0.005936 0.000000 -0.000843 0.000000
# 2 -0.003737 0.013564 -0.006743 0.000000 -0.000194 0.000000
# 3 -0.005936 -0.006743 0.027132 0.000000 0.004447 0.000000
# 4 0.000000 0.000000 0.000000 0.066700 0.000000 0.001544
# 5 -0.000843 -0.000194 0.004447 0.000000 0.032946 0.000000
# 6 0.000000 0.000000 0.000000 0.001544 0.000000 0.033566
#
#
# Mechanical properties :
#
#
# Convention : Reuss Voigt Hill
#
# Bulk Modulus (GPa) = 53.22590 66.40399 59.81495
# Shear Modulus (GPa) = 22.32903 25.78355 24.05629
#
# Velocity S-wave (km/s) = 3.39460 3.64775 3.52345
# Velocity P-wave (km/s) = 6.54466 7.21182 6.88633
#
# Compressibility (1/GPa) = 0.01878784
#
# Stress axis : x y z
#
# Youngs Moduli (GPa) = 91.54871 73.72512 36.85730
#
# Poissons Ratio (x) = 0.27548 0.21877
# Poissons Ratio (y) = 0.34208 0.24853
# Poissons Ratio (z) = 0.54340 0.49714
#
# Static dielectric constant tensor:
#      x y z
#    x 3.890130 0.000000 0.154140 
#    y 0.000000 3.636710 0.000000 
#    z 0.154140 0.000000 3.450230 
# 
# 
# High freq. dielectric constant tensor:
#      x y z
#    x 1.763310 0.000000 0.007410 
#    y 0.000000 1.765860 0.000000 
#    z 0.007410 0.000000 1.741080 
# 
# From -- ./inp_files/162590.got.cif
#   From: 2010.06.25/outbox.cif.g09.slc.cpg/sg15_82_cif.got.tgz:162590.got - 2010.06.28 07:06:18.
