data_PCOD8137684
_publ_section_title
;
Structure prediction by ZEFSAII (Michael W. Deem and Ramdas Pophale) SiO2 
 PCOD8137684
Probable space group: C 2/C
;
_chemical_formula_sum "Si O2"
_cell_formula_units_Z 48
_cell_length_a 15.034882
_cell_length_b 9.858289
_cell_length_c 16.266686
_cell_angle_alpha 90.000000
_cell_angle_beta 105.506572
_cell_angle_gamma 90.000000
_cell_volume 2323.257519
_symmetry_space_group_name_H-M "C 2/C"
_symmetry_group_IT_number 15
_symmetry_cell_setting 'monoclinic'
loop_
_space_group_symop_operation_xyz
x,y,z
-x,y,1/2-z
-x,-y,-z
x,-y,1/2+z
1/2+x,1/2+y,z
1/2-x,1/2+y,1/2-z
1/2-x,1/2-y,-z
1/2+x,1/2-y,1/2+z
loop_
_atom_site_type_symbol
_atom_site_label
_atom_site_fract_x
_atom_site_fract_y
_atom_site_fract_z
Si Si1 0.207313 0.667572 0.914508
Si Si2 0.658049 0.061730 0.659415
Si Si3 0.667974 0.562884 0.690521
Si Si4 0.401474 0.296639 0.755206
Si Si5 0.460955 0.809066 0.828404
Si Si6 0.911675 0.447495 0.526008
O O1 0.287668 0.583197 0.888458
O O2 0.163931 0.775301 0.840190
O O3 0.129764 0.563137 0.925592
O O4 0.250000 0.750000 0.000000
O O5 0.759029 0.094798 0.719145
O O6 0.586221 0.159482 0.688996
O O7 0.661776 0.095104 0.562494
O O8 0.623717 0.908411 0.667467
O O9 0.639474 0.407414 0.692788
O O10 0.578368 0.657375 0.678921
O O11 0.500000 0.348487 0.750000
O O12 0.500000 0.848394 0.750000
O O13 0.550026 0.821989 0.910661
O O14 0.000000 0.500000 0.500000
#
# Coordination Sequence:
#
# PCOD8137684 Si02
#       6
#     8   8   8   8   8   8
#     4  11  22  40  65  90 121 163 206 251 303 363
#     4  10  20  39  62  86 115 155 205 250 296 363
#     4  11  23  38  58  89 123 155 195 250 307 360
#     4  11  22  39  61  89 123 159 196 248 309 361
#     4  11  21  38  60  84 115 158 203 246 296 365
#     4  10  20  36  61  90 114 152 205 251 293 360
#
# _framework density 20.660646
#
# number of rings (size 3 to 8) (size 9 to 14) (size 15 to 20)
#    0.000    1.333    0.000   10.000    0.000    0.000 
#    0.000    8.333    0.000    0.000    0.000    0.000 
#    0.000    0.000    0.000    0.000    0.000    0.000 
#
# Total GULP energy -297592.659274 kJ/mol
# GULP energy per Si atom -12399.694136 kJ/mol
# Density = 2.061362 g / cm^3
# Si number density = 20.660646 Si / 1000 Ang^3
#
#
#
# Elastic Constant Matrix: (Units=GPa)
#
#
# Indices 1 2 3 4 5 6 
#
# 1 66.8922 26.5058 7.4933 0.0000 -13.1391 0.0000
# 2 26.5058 89.7419 32.1497 0.0000 -0.0737 0.0000
# 3 7.4933 32.1497 101.4480 0.0000 -7.8768 0.0000
# 4 0.0000 0.0000 0.0000 37.0928 0.0000 -2.7192
# 5 -13.1391 -0.0737 -7.8768 0.0000 26.0542 0.0000
# 6 0.0000 0.0000 0.0000 -2.7192 0.0000 39.9446
#
#
#
# Elastic Compliance Matrix: (Units=1/GPa)
#
#
# Indices 1 2 3 4 5 6 
#
# 1 0.019211 -0.006134 0.001306 0.000000 0.010066 0.000000
# 2 -0.006134 0.014565 -0.004505 0.000000 -0.004414 0.000000
# 3 0.001306 -0.004505 0.011509 0.000000 0.004125 0.000000
# 4 0.000000 0.000000 0.000000 0.027095 0.000000 0.001844
# 5 0.010066 -0.004414 0.004125 0.000000 0.044692 0.000000
# 6 0.000000 0.000000 0.000000 0.001844 0.000000 0.025160
#
#
# Mechanical properties :
#
#
# Convention : Reuss Voigt Hill
#
# Bulk Modulus (GPa) = 37.56703 43.37550 40.47126
# Shear Modulus (GPa) = 29.45154 33.41388 31.43271
#
# Velocity S-wave (km/s) = 3.77966 4.02589 3.90472
# Velocity P-wave (km/s) = 6.10493 6.53072 6.32141
#
# Compressibility (1/GPa) = 0.02661909
#
# Stress axis : x y z
#
# Youngs Moduli (GPa) = 52.05451 68.65717 86.88915
#
# Poissons Ratio (x) = 0.42112 -0.11351
# Poissons Ratio (y) = 0.31929 0.39148
# Poissons Ratio (z) = -0.06800 0.30933
#
# Static dielectric constant tensor:
#      x y z
#    x 3.732450 0.000000 0.098680 
#    y 0.000000 3.550670 0.000000 
#    z 0.098680 0.000000 4.513200 
# 
# 
# High freq. dielectric constant tensor:
#      x y z
#    x 1.807000 0.000000 -0.003280 
#    y 0.000000 1.792710 0.000000 
#    z -0.003280 0.000000 1.821000 
# 
# From -- ./inp_files/152102.got.cif
#   From: 2010.06.25/outbox.cif.g09.slc.cpg/sg15_77_cif.got.tgz:152102.got - 2010.06.28 07:06:18.
