data_PCOD8137905
_publ_section_title
;
Structure prediction by ZEFSAII (Michael W. Deem and Ramdas Pophale) SiO2 
 PCOD8137905
Probable space group: C 2/C
;
_chemical_formula_sum "Si O2"
_cell_formula_units_Z 56
_cell_length_a 8.601439
_cell_length_b 12.402248
_cell_length_c 27.290137
_cell_angle_alpha 90.000000
_cell_angle_beta 69.170750
_cell_angle_gamma 90.000000
_cell_volume 2720.968967
_symmetry_space_group_name_H-M "C 2/C"
_symmetry_group_IT_number 15
_symmetry_cell_setting 'monoclinic'
loop_
_space_group_symop_operation_xyz
x,y,z
-x,y,1/2-z
-x,-y,-z
x,-y,1/2+z
1/2+x,1/2+y,z
1/2-x,1/2+y,1/2-z
1/2-x,1/2-y,-z
1/2+x,1/2-y,1/2+z
loop_
_atom_site_type_symbol
_atom_site_label
_atom_site_fract_x
_atom_site_fract_y
_atom_site_fract_z
Si Si1 0.615642 0.185095 0.986025
Si Si2 0.527220 0.686840 0.087489
Si Si3 0.864001 0.947156 0.303825
Si Si4 0.123997 0.746527 0.413165
Si Si5 0.288255 0.305542 0.802209
Si Si6 0.400931 0.560386 0.912625
Si Si7 0.880583 0.726795 0.695017
O O1 0.531777 0.263432 0.956252
O O2 0.708866 0.083812 0.950612
O O3 0.750000 0.250000 0.000000
O O4 0.474673 0.157317 0.042693
O O5 0.690035 0.752918 0.086509
O O6 0.561425 0.561051 0.076128
O O7 0.384563 0.701708 0.144925
O O8 0.853556 0.074561 0.301270
O O9 0.000000 0.903831 0.250000
O O10 0.919246 0.918485 0.352673
O O11 0.687156 0.892093 0.310615
O O12 0.128744 0.709368 0.355435
O O13 0.032641 0.862457 0.425828
O O14 0.253231 0.281472 0.748893
O O15 0.433827 0.222602 0.803160
#
# Coordination Sequence:
#
# PCOD8137905 Si02
#       7
#     8   8   8   8   8   8   8
#     4  10  23  41  62  93 128 162 215 260 302 368
#     4  11  21  42  64  89 126 165 207 256 315 363
#     4  12  20  37  68  88 119 167 198 249 319 363
#     4  10  22  39  63  90 125 167 206 257 301 372
#     4  10  20  41  59  92 125 158 205 249 310 367
#     4  11  22  40  64  91 123 166 206 254 314 359
#     4  10  20  36  66  88 121 160 199 255 303 375
#
# _framework density 20.580905000000001
#
# number of rings (size 3 to 8) (size 9 to 14) (size 15 to 20)
#    0.000    1.429    5.714    1.286    0.000    2.857 
#    0.000    8.571    9.429    0.000    0.000    0.000 
#    0.000    0.000    0.000    0.000    0.000    0.000 
#
# Total GULP energy -346951.807961 kJ/mol
# GULP energy per Si atom -12391.135999 kJ/mol
# Density = 2.053406 g / cm^3
# Si number density = 20.580905 Si / 1000 Ang^3
#
#
#
# Elastic Constant Matrix: (Units=GPa)
#
#
# Indices 1 2 3 4 5 6 
#
# 1 78.6551 46.0029 31.1591 0.0000 -2.7154 0.0000
# 2 46.0029 83.9414 23.7961 0.0000 -14.2511 0.0000
# 3 31.1591 23.7961 178.0415 0.0000 -15.6081 0.0000
# 4 0.0000 0.0000 0.0000 16.4617 0.0000 2.6584
# 5 -2.7154 -14.2511 -15.6081 0.0000 19.9946 0.0000
# 6 0.0000 0.0000 0.0000 2.6584 0.0000 23.6866
#
#
#
# Elastic Compliance Matrix: (Units=1/GPa)
#
#
# Indices 1 2 3 4 5 6 
#
# 1 0.020346 -0.011693 -0.002669 0.000000 -0.007655 0.000000
# 2 -0.011693 0.020454 0.000485 0.000000 0.013369 0.000000
# 3 -0.002669 0.000485 0.006460 0.000000 0.005025 0.000000
# 4 0.000000 0.000000 0.000000 0.061868 0.000000 -0.006944
# 5 -0.007655 0.013369 0.005025 0.000000 0.062425 0.000000
# 6 0.000000 0.000000 0.000000 -0.006944 0.000000 0.042997
#
#
# Mechanical properties :
#
#
# Convention : Reuss Voigt Hill
#
# Bulk Modulus (GPa) = 51.27143 60.28382 55.77762
# Shear Modulus (GPa) = 20.09600 28.00724 24.05162
#
# Velocity S-wave (km/s) = 3.12819 3.69295 3.42224
# Velocity P-wave (km/s) = 6.16552 6.89482 6.54035
#
# Compressibility (1/GPa) = 0.01950404
#
# Stress axis : x y z
#
# Youngs Moduli (GPa) = 49.15038 48.89121 154.80999
#
# Poissons Ratio (x) = 0.57169 0.41317
# Poissons Ratio (y) = 0.57472 -0.07503
# Poissons Ratio (z) = 0.13118 -0.02370
#
# Static dielectric constant tensor:
#      x y z
#    x 3.517340 0.000000 0.367530 
#    y 0.000000 3.476050 0.000000 
#    z 0.367530 0.000000 1.899590 
# 
# 
# High freq. dielectric constant tensor:
#      x y z
#    x 1.782150 0.000000 0.002370 
#    y 0.000000 1.778590 0.000000 
#    z 0.002370 0.000000 1.843790 
# 
# From -- ./inp_files/307410.got.cif
#   From: 2010.06.25/outbox.cif.g09.slc.cpg/sg15_154_cif.got.tgz:307410.got - 2010.06.28 07:06:18.
