data_PCOD8137718
_publ_section_title
;
Structure prediction by ZEFSAII (Michael W. Deem and Ramdas Pophale) SiO2 
 PCOD8137718
Probable space group: C 2/C
;
_chemical_formula_sum "Si O2"
_cell_formula_units_Z 32
_cell_length_a 4.918564
_cell_length_b 19.877622
_cell_length_c 18.001152
_cell_angle_alpha 90.000000
_cell_angle_beta 66.614998
_cell_angle_gamma 90.000000
_cell_volume 1615.395292
_symmetry_space_group_name_H-M "C 2/C"
_symmetry_group_IT_number 15
_symmetry_cell_setting 'monoclinic'
loop_
_space_group_symop_operation_xyz
x,y,z
-x,y,1/2-z
-x,-y,-z
x,-y,1/2+z
1/2+x,1/2+y,z
1/2-x,1/2+y,1/2-z
1/2-x,1/2-y,-z
1/2+x,1/2-y,1/2+z
loop_
_atom_site_type_symbol
_atom_site_label
_atom_site_fract_x
_atom_site_fract_y
_atom_site_fract_z
Si Si1 0.857823 0.809805 0.574220
Si Si2 0.000000 0.956664 0.250000
Si Si3 0.655898 0.583285 0.303050
Si Si4 0.675101 0.276763 0.397700
Si Si5 0.000000 0.368654 0.250000
O O1 0.901681 0.879396 0.613241
O O2 0.514766 0.787071 0.610871
O O3 0.029112 0.749145 0.595396
O O4 0.978581 0.819793 0.477549
O O5 0.699957 0.912706 0.284771
O O6 0.983552 0.007146 0.179615
O O7 0.500000 0.622444 0.250000
O O8 0.000000 0.578025 0.250000
O O9 0.764688 0.324457 0.320586
#
# Coordination Sequence:
#
# PCOD8137718 Si02
#       5
#     8   4   8   8   4
#     4  10  21  40  56  91 115 143 198 236 296 333
#     4  10  22  39  54  85 116 152 206 236 258 352
#     4  10  20  36  62  80 112 153 194 248 270 329
#     4  10  23  36  60  86 122 147 181 248 287 360
#     4  12  22  39  58  83 120 158 188 224 310 334
#
# _framework density 19.809394999999999
#
# number of rings (size 3 to 8) (size 9 to 14) (size 15 to 20)
#    0.750    1.000    1.250    3.000    5.250    0.000 
#    0.000    2.500    0.000    0.000    0.000    0.000 
#    0.000    0.000    0.000    0.000    0.000    0.000 
#
# Total GULP energy -198290.565871 kJ/mol
# GULP energy per Si atom -12393.160367 kJ/mol
# Density = 1.976431 g / cm^3
# Si number density = 19.809395 Si / 1000 Ang^3
#
#
#
# Elastic Constant Matrix: (Units=GPa)
#
#
# Indices 1 2 3 4 5 6 
#
# 1 114.4291 27.5067 38.4268 0.0000 -1.9701 0.0000
# 2 27.5067 85.3948 63.1942 0.0000 -2.9942 0.0000
# 3 38.4268 63.1942 106.7457 0.0000 -2.1594 0.0000
# 4 0.0000 0.0000 0.0000 7.9793 0.0000 6.8196
# 5 -1.9701 -2.9942 -2.1594 0.0000 23.0198 0.0000
# 6 0.0000 0.0000 0.0000 6.8196 0.0000 33.3159
#
#
#
# Elastic Compliance Matrix: (Units=1/GPa)
#
#
# Indices 1 2 3 4 5 6 
#
# 1 0.009992 -0.000975 -0.003011 0.000000 0.000446 0.000000
# 2 -0.000975 0.020991 -0.012045 0.000000 0.001517 0.000000
# 3 -0.003011 -0.012045 0.017579 0.000000 -0.000175 0.000000
# 4 0.000000 0.000000 0.000000 0.151897 0.000000 -0.031093
# 5 0.000446 0.001517 -0.000175 0.000000 0.043660 0.000000
# 6 0.000000 0.000000 0.000000 -0.031093 0.000000 0.036380
#
#
# Mechanical properties :
#
#
# Convention : Reuss Voigt Hill
#
# Bulk Modulus (GPa) = 60.60385 62.75833 61.68109
# Shear Modulus (GPa) = 15.72015 24.69246 20.20631
#
# Velocity S-wave (km/s) = 2.82009 3.53441 3.19727
# Velocity P-wave (km/s) = 6.42369 6.95744 6.69589
#
# Compressibility (1/GPa) = 0.01650060
#
# Stress axis : x y z
#
# Youngs Moduli (GPa) = 100.07866 47.63853 56.88490
#
# Poissons Ratio (x) = 0.04644 0.17127
# Poissons Ratio (y) = 0.09756 0.68520
# Poissons Ratio (z) = 0.30133 0.57383
#
# Static dielectric constant tensor:
#      x y z
#    x 3.920250 0.000000 0.089870 
#    y 0.000000 3.440370 0.000000 
#    z 0.089870 0.000000 3.379390 
# 
# 
# High freq. dielectric constant tensor:
#      x y z
#    x 1.804560 0.000000 -0.000140 
#    y 0.000000 1.753660 0.000000 
#    z -0.000140 0.000000 1.736940 
# 
# From -- ./inp_files/128497.got.cif
#   From: 2010.06.25/outbox.cif.g09.slc.cpg/sg15_65_cif.got.tgz:128497.got - 2010.06.28 07:06:18.
