data_PCOD8137265
_publ_section_title
;
Structure prediction by ZEFSAII (Michael W. Deem and Ramdas Pophale) SiO2 
 PCOD8137265
Probable space group: C 2/C
;
_chemical_formula_sum "Si O2"
_cell_formula_units_Z 52
_cell_length_a 28.230440
_cell_length_b 12.687055
_cell_length_c 7.940397
_cell_angle_alpha 90.000000
_cell_angle_beta 61.313232
_cell_angle_gamma 90.000000
_cell_volume 2494.867873
_symmetry_space_group_name_H-M "C 2/C"
_symmetry_group_IT_number 15
_symmetry_cell_setting 'monoclinic'
loop_
_space_group_symop_operation_xyz
x,y,z
-x,y,1/2-z
-x,-y,-z
x,-y,1/2+z
1/2+x,1/2+y,z
1/2-x,1/2+y,1/2-z
1/2-x,1/2-y,-z
1/2+x,1/2-y,1/2+z
loop_
_atom_site_type_symbol
_atom_site_label
_atom_site_fract_x
_atom_site_fract_y
_atom_site_fract_z
Si Si1 0.571398 0.070202 0.218532
Si Si2 0.390253 0.383798 0.051935
Si Si3 0.227263 0.857451 0.856390
Si Si4 0.334124 0.802593 0.825457
Si Si5 0.968246 0.366710 0.074774
Si Si6 0.673430 0.454581 0.642227
Si Si7 0.000000 0.185136 0.250000
O O1 0.632573 0.096288 0.166458
O O2 0.531129 0.110044 0.433613
O O3 0.560042 0.944306 0.238704
O O4 0.561949 0.125267 0.053593
O O5 0.377119 0.280497 0.181534
O O6 0.375771 0.491781 0.172326
O O7 0.353294 0.378618 0.948830
O O8 0.454358 0.388724 0.910173
O O9 0.291793 0.841687 0.756726
O O10 0.210698 0.880596 0.693744
O O11 0.198309 0.749793 0.964385
O O12 0.211428 0.954884 0.002264
O O13 0.967664 0.252756 0.163624
#
# Coordination Sequence:
#
# PCOD8137265 Si02
#       7
#     8   8   8   8   8   8   4
#     4  10  20  36  55  80 118 157 183 228 282 341
#     4  10  22  38  62  82 118 147 195 235 292 338
#     4   9  20  37  61  83 116 144 197 234 287 332
#     4  10  20  37  58  89 114 153 188 239 276 347
#     4  10  21  35  54  80 118 153 188 226 281 341
#     4   9  20  42  59  82 112 155 182 248 289 332
#     4  12  22  38  58  90 110 156 194 240 274 356
#
# _framework density 20.842787000000001
#
# number of rings (size 3 to 8) (size 9 to 14) (size 15 to 20)
#    0.000    2.154    1.538    1.846    2.154    2.462 
#    0.000    0.000    0.000    0.000    0.000    0.000 
#    0.000    0.000    0.000    0.000    0.000    0.000 
#
# Total GULP energy -322344.347772 kJ/mol
# GULP energy per Si atom -12397.859530 kJ/mol
# Density = 2.079535 g / cm^3
# Si number density = 20.842787 Si / 1000 Ang^3
#
#
#
# Elastic Constant Matrix: (Units=GPa)
#
#
# Indices 1 2 3 4 5 6 
#
# 1 91.9153 15.6924 21.6149 0.0000 -7.5416 0.0000
# 2 15.6924 36.9560 -3.3215 0.0000 -0.1846 0.0000
# 3 21.6149 -3.3215 45.7311 0.0000 5.6279 0.0000
# 4 0.0000 0.0000 0.0000 9.9579 0.0000 0.8949
# 5 -7.5416 -0.1846 5.6279 0.0000 41.3802 0.0000
# 6 0.0000 0.0000 0.0000 0.8949 0.0000 34.5554
#
#
#
# Elastic Compliance Matrix: (Units=1/GPa)
#
#
# Indices 1 2 3 4 5 6 
#
# 1 0.014090 -0.006647 -0.007582 0.000000 0.003569 0.000000
# 2 -0.006647 0.030373 0.005573 0.000000 -0.001834 0.000000
# 3 -0.007582 0.005573 0.026465 0.000000 -0.004956 0.000000
# 4 0.000000 0.000000 0.000000 0.100657 0.000000 -0.002607
# 5 0.003569 -0.001834 -0.004956 0.000000 0.025483 0.000000
# 6 0.000000 0.000000 0.000000 -0.002607 0.000000 0.029007
#
#
# Mechanical properties :
#
#
# Convention : Reuss Voigt Hill
#
# Bulk Modulus (GPa) = 18.65033 26.95268 22.80150
# Shear Modulus (GPa) = 19.13822 26.55316 22.84569
#
# Velocity S-wave (km/s) = 3.03350 3.57315 3.31433
# Velocity P-wave (km/s) = 4.60836 5.47564 5.06062
#
# Compressibility (1/GPa) = 0.05361837
#
# Stress axis : x y z
#
# Youngs Moduli (GPa) = 70.97167 32.92370 37.78546
#
# Poissons Ratio (x) = 0.21883 0.28648
# Poissons Ratio (y) = 0.47172 -0.21059
# Poissons Ratio (z) = 0.53809 -0.18349
#
# Static dielectric constant tensor:
#      x y z
#    x 3.650090 0.000000 0.009420 
#    y 0.000000 3.549220 0.000000 
#    z 0.009420 0.000000 3.755750 
# 
# 
# High freq. dielectric constant tensor:
#      x y z
#    x 1.815060 0.000000 0.004410 
#    y 0.000000 1.796350 0.000000 
#    z 0.004410 0.000000 1.811510 
# 
# From -- ./inp_files/69006.got.cif
#   From: 2010.06.25/outbox.cif.g09.slc.cpg/sg15_35_cif.got.tgz:69006.got - 2010.06.28 07:06:18.
