data_PCOD8137883
_publ_section_title
;
Structure prediction by ZEFSAII (Michael W. Deem and Ramdas Pophale) SiO2 
 PCOD8137883
Probable space group: C 2/C
;
_chemical_formula_sum "Si O2"
_cell_formula_units_Z 48
_cell_length_a 13.748653
_cell_length_b 21.944352
_cell_length_c 11.399365
_cell_angle_alpha 90.000000
_cell_angle_beta 38.565951
_cell_angle_gamma 90.000000
_cell_volume 2144.079366
_symmetry_space_group_name_H-M "C 2/C"
_symmetry_group_IT_number 15
_symmetry_cell_setting 'monoclinic'
loop_
_space_group_symop_operation_xyz
x,y,z
-x,y,1/2-z
-x,-y,-z
x,-y,1/2+z
1/2+x,1/2+y,z
1/2-x,1/2+y,1/2-z
1/2-x,1/2-y,-z
1/2+x,1/2-y,1/2+z
loop_
_atom_site_type_symbol
_atom_site_label
_atom_site_fract_x
_atom_site_fract_y
_atom_site_fract_z
Si Si1 0.732913 0.608696 0.144811
Si Si2 0.677147 0.262650 0.730659
Si Si3 0.000000 0.665467 0.750000
Si Si4 0.000000 0.382135 0.750000
Si Si5 0.000000 0.017108 0.250000
Si Si6 0.458142 0.225296 0.115647
Si Si7 0.803034 0.080237 0.054864
Si Si8 0.500000 0.680279 0.750000
O O1 0.624057 0.669786 0.239831
O O2 0.642672 0.556593 0.161294
O O3 0.752738 0.584943 0.258918
O O4 0.905711 0.620835 0.926898
O O5 0.635381 0.209124 0.678623
O O6 0.863103 0.273251 0.580612
O O7 0.626185 0.246402 0.910856
O O8 0.976960 0.341167 0.654874
O O9 0.846820 0.425468 0.892034
O O10 0.923660 0.975303 0.423767
O O11 0.394718 0.274916 0.268441
O O12 0.888136 0.142434 0.939226
#
# Coordination Sequence:
#
# PCOD8137883 Si02
#       8
#     8   8   4   4   4   8   8   4
#     4  12  25  47  67  99 134 179 226 274 330 392
#     4  12  22  40  63 103 140 177 208 260 329 410
#     4  12  27  41  67 101 139 181 214 264 332 410
#     4  11  20  40  66 102 138 170 213 272 328 406
#     4  11  29  47  72  94 125 175 235 294 330 380
#     4  11  21  35  65 104 141 172 210 255 337 406
#     4  11  23  45  69  96 131 174 230 279 335 377
#     4  10  20  36  65 101 136 176 210 268 324 408
#
# _framework density 22.387232000000001
#
# number of rings (size 3 to 8) (size 9 to 14) (size 15 to 20)
#    0.000    0.667    5.000    2.500    2.333    3.333 
#    0.000    6.667    0.000    0.000    0.000    0.000 
#    0.000    0.000    0.000    0.000    0.000    0.000 
#
# Total GULP energy -297371.954349 kJ/mol
# GULP energy per Si atom -12390.498098 kJ/mol
# Density = 2.233628 g / cm^3
# Si number density = 22.387232 Si / 1000 Ang^3
#
#
#
# Elastic Constant Matrix: (Units=GPa)
#
#
# Indices 1 2 3 4 5 6 
#
# 1 119.9729 39.5393 29.8822 0.0002 0.1205 -0.0001
# 2 39.5393 101.0881 39.0441 0.0000 0.3814 0.0000
# 3 29.8822 39.0441 103.9305 0.0004 7.6281 -0.0001
# 4 0.0002 0.0000 0.0004 24.9986 -0.0003 -3.2925
# 5 0.1205 0.3814 7.6281 -0.0003 35.3036 0.0001
# 6 -0.0001 0.0000 -0.0001 -3.2925 0.0001 20.3963
#
#
#
# Elastic Compliance Matrix: (Units=1/GPa)
#
#
# Indices 1 2 3 4 5 6 
#
# 1 0.009798 -0.003200 -0.001641 0.000000 0.000356 0.000000
# 2 -0.003200 0.012640 -0.003881 0.000000 0.000713 0.000000
# 3 -0.001641 -0.003881 0.011734 0.000000 -0.002488 0.000000
# 4 0.000000 0.000000 0.000000 0.040871 0.000000 0.006598
# 5 0.000356 0.000713 -0.002488 0.000000 0.028854 0.000000
# 6 0.000000 0.000000 0.000000 0.006598 0.000000 0.050094
#
#
# Mechanical properties :
#
#
# Convention : Reuss Voigt Hill
#
# Bulk Modulus (GPa) = 59.77740 60.21360 59.99550
# Shear Modulus (GPa) = 28.24665 30.57475 29.41070
#
# Velocity S-wave (km/s) = 3.55594 3.69958 3.62847
# Velocity P-wave (km/s) = 6.60448 6.72339 6.66420
#
# Compressibility (1/GPa) = 0.01672873
#
# Stress axis : x y z
#
# Youngs Moduli (GPa) = 102.05935 79.11248 85.22059
#
# Poissons Ratio (x) = 0.25315 0.13986
# Poissons Ratio (y) = 0.32658 0.33073
# Poissons Ratio (z) = 0.16750 0.30703
#
# Static dielectric constant tensor:
#      x y z
#    x 3.987010 0.000000 -0.026040 
#    y 0.000000 3.983120 0.000000 
#    z -0.026040 0.000000 4.085240 
# 
# 
# High freq. dielectric constant tensor:
#      x y z
#    x 1.881250 0.000000 0.005160 
#    y 0.000000 1.868670 0.000000 
#    z 0.005160 0.000000 1.893320 
# 
# From -- ./inp_files/50450.got.cif
#   From: 2010.06.25/outbox.cif.g09.slc.cpg/sg15_26_cif.got.tgz:50450.got - 2010.06.28 07:06:18.
