data_PCOD8137548
_publ_section_title
;
Structure prediction by ZEFSAII (Michael W. Deem and Ramdas Pophale) SiO2 
 PCOD8137548
Probable space group: C 2/C
;
_chemical_formula_sum "Si O2"
_cell_formula_units_Z 56
_cell_length_a 21.542115
_cell_length_b 8.741978
_cell_length_c 29.780345
_cell_angle_alpha 90.000000
_cell_angle_beta 150.627624
_cell_angle_gamma 90.000000
_cell_volume 2750.757567
_symmetry_space_group_name_H-M "C 2/C"
_symmetry_group_IT_number 15
_symmetry_cell_setting 'monoclinic'
loop_
_space_group_symop_operation_xyz
x,y,z
-x,y,1/2-z
-x,-y,-z
x,-y,1/2+z
1/2+x,1/2+y,z
1/2-x,1/2+y,1/2-z
1/2-x,1/2-y,-z
1/2+x,1/2-y,1/2+z
loop_
_atom_site_type_symbol
_atom_site_label
_atom_site_fract_x
_atom_site_fract_y
_atom_site_fract_z
Si Si1 0.338518 0.426541 0.974924
Si Si2 0.711009 0.923925 0.478393
Si Si3 0.926445 0.512273 0.304976
Si Si4 0.200217 0.176126 0.618680
Si Si5 0.012551 0.341749 0.567697
Si Si6 0.115348 0.756224 0.290323
Si Si7 0.229447 0.521935 0.091800
O O1 0.298681 0.490608 0.997888
O O2 0.374820 0.556296 0.960519
O O3 0.221594 0.339482 0.881423
O O4 0.452959 0.308234 0.054188
O O5 0.750000 0.750000 0.500000
O O6 0.559986 0.937030 0.374566
O O7 0.741913 0.999231 0.545965
O O8 0.812355 0.400442 0.218336
O O9 0.916489 0.548312 0.351733
O O10 0.916425 0.679572 0.276859
O O11 0.107989 0.274886 0.591549
O O12 0.255183 0.301545 0.619089
O O13 0.905338 0.449552 0.477210
O O14 0.000000 0.751313 0.250000
O O15 0.161331 0.930111 0.312921
#
# Coordination Sequence:
#
# PCOD8137548 Si02
#       7
#     8   8   8   8   8   8   8
#     4  10  21  39  67  88 119 161 198 249 303 365
#     4  11  21  40  62  94 122 152 205 251 308 358
#     4  10  24  40  61  89 124 163 192 259 308 347
#     4  11  22  43  61  90 124 160 203 247 304 353
#     4  10  23  42  63  88 120 164 211 243 292 367
#     4  10  20  36  59  90 124 152 194 247 308 363
#     4  10  23  37  63  92 118 163 200 252 300 358
#
# _framework density 20.358028999999998
#
# number of rings (size 3 to 8) (size 9 to 14) (size 15 to 20)
#    0.000    1.714    2.857    0.857    2.000    4.000 
#    2.571    2.857    0.000    0.000    0.000    0.000 
#    0.000    0.000    0.000    0.000    0.000    0.000 
#
# Total GULP energy -347051.871658 kJ/mol
# GULP energy per Si atom -12394.709702 kJ/mol
# Density = 2.031169 g / cm^3
# Si number density = 20.358029 Si / 1000 Ang^3
#
#
#
# Elastic Constant Matrix: (Units=GPa)
#
#
# Indices 1 2 3 4 5 6 
#
# 1 76.6121 15.3281 31.7838 -0.0002 -1.2660 0.0000
# 2 15.3281 113.7067 41.4647 0.0002 -3.8172 0.0001
# 3 31.7838 41.4647 82.8220 0.0011 1.7639 0.0002
# 4 -0.0002 0.0002 0.0011 45.9559 0.0000 -1.0732
# 5 -1.2660 -3.8172 1.7639 0.0000 17.4722 -0.0001
# 6 0.0000 0.0001 0.0002 -1.0732 -0.0001 37.7123
#
#
#
# Elastic Compliance Matrix: (Units=1/GPa)
#
#
# Indices 1 2 3 4 5 6 
#
# 1 0.015580 0.000188 -0.006111 0.000000 0.001787 0.000000
# 2 0.000188 0.010910 -0.005597 0.000000 0.002962 0.000000
# 3 -0.006111 -0.005597 0.017294 0.000000 -0.003412 0.000000
# 4 0.000000 0.000000 0.000000 0.021774 0.000000 0.000620
# 5 0.001787 0.002962 -0.003412 0.000000 0.058355 0.000000
# 6 0.000000 0.000000 0.000000 0.000620 0.000000 0.026534
#
#
# Mechanical properties :
#
#
# Convention : Reuss Voigt Hill
#
# Bulk Modulus (GPa) = 48.20801 50.03267 49.12034
# Shear Modulus (GPa) = 27.71577 32.53235 30.12406
#
# Velocity S-wave (km/s) = 3.69374 4.00185 3.85088
# Velocity P-wave (km/s) = 6.47481 6.78106 6.62970
#
# Compressibility (1/GPa) = 0.02074344
#
# Stress axis : x y z
#
# Youngs Moduli (GPa) = 64.18483 91.66115 57.82252
#
# Poissons Ratio (x) = -0.01726 0.35337
# Poissons Ratio (y) = -0.01209 0.32365
# Poissons Ratio (z) = 0.39225 0.51305
#
# Static dielectric constant tensor:
#      x y z
#    x 3.731630 0.000000 0.072810 
#    y 0.000000 4.378850 0.000000 
#    z 0.072810 0.000000 3.924120 
# 
# 
# High freq. dielectric constant tensor:
#      x y z
#    x 1.793770 0.000000 -0.002760 
#    y 0.000000 1.812180 0.000000 
#    z -0.002760 0.000000 1.785290 
# 
# From -- ./inp_files/317555.got.cif
#   From: 2010.06.25/outbox.cif.g09.slc.cpg/sg15_159_cif.got.tgz:317555.got - 2010.06.28 07:06:18.
