data_PCOD8137783
_publ_section_title
;
Structure prediction by ZEFSAII (Michael W. Deem and Ramdas Pophale) SiO2 
 PCOD8137783
Probable space group: C 2/C
;
_chemical_formula_sum "Si O2"
_cell_formula_units_Z 52
_cell_length_a 9.640736
_cell_length_b 25.846024
_cell_length_c 10.354631
_cell_angle_alpha 90.000000
_cell_angle_beta 100.654685
_cell_angle_gamma 90.000000
_cell_volume 2535.629157
_symmetry_space_group_name_H-M "C 2/C"
_symmetry_group_IT_number 15
_symmetry_cell_setting 'monoclinic'
loop_
_space_group_symop_operation_xyz
x,y,z
-x,y,1/2-z
-x,-y,-z
x,-y,1/2+z
1/2+x,1/2+y,z
1/2-x,1/2+y,1/2-z
1/2-x,1/2-y,-z
1/2+x,1/2-y,1/2+z
loop_
_atom_site_type_symbol
_atom_site_label
_atom_site_fract_x
_atom_site_fract_y
_atom_site_fract_z
Si Si1 0.836518 0.687760 0.927145
Si Si2 0.093786 0.000839 0.386923
Si Si3 0.645282 0.796357 0.526983
Si Si4 0.655175 0.604124 0.772207
Si Si5 0.000000 0.844379 0.750000
Si Si6 0.316876 0.397998 0.519105
Si Si7 0.226113 0.709060 0.311101
O O1 0.003001 0.705910 0.574204
O O2 0.787199 0.639670 0.832827
O O3 0.732935 0.733478 0.868372
O O4 0.817434 0.672845 0.075637
O O5 0.163411 0.945349 0.368627
O O6 0.000000 0.017599 0.250000
O O7 0.214931 0.045719 0.421813
O O8 0.000000 0.000000 0.500000
O O9 0.750000 0.750000 0.500000
O O10 0.698737 0.854416 0.511781
O O11 0.612855 0.790458 0.674591
O O12 0.500000 0.631437 0.750000
O O13 0.665658 0.587507 0.626522
O O14 0.958543 0.877533 0.615857
O O15 0.870872 0.808459 0.769535
#
# Coordination Sequence:
#
# PCOD8137783 Si02
#       7
#     8   8   8   8   4   8   8
#     4  11  23  40  61  90 128 172 210 271 319 390
#     4  11  21  38  62  92 127 160 218 278 329 387
#     4  11  24  41  62  91 132 171 218 260 327 394
#     4  11  23  38  62  92 125 157 218 270 334 383
#     4  10  20  36  62  94 128 166 214 264 328 388
#     4  11  21  36  62  93 122 167 210 268 319 389
#     4  10  22  37  60  88 127 166 216 254 324 385
#
# _framework density 20.507732000000001
#
# number of rings (size 3 to 8) (size 9 to 14) (size 15 to 20)
#    0.000    1.231    3.846    4.154    0.000    5.538 
#    0.000    0.769    0.000    0.000    0.000    0.000 
#    0.000    0.000    0.000    0.000    0.000    0.000 
#
# Total GULP energy -322104.415662 kJ/mol
# GULP energy per Si atom -12388.631372 kJ/mol
# Density = 2.046106 g / cm^3
# Si number density = 20.507732 Si / 1000 Ang^3
#
#
#
# Elastic Constant Matrix: (Units=GPa)
#
#
# Indices 1 2 3 4 5 6 
#
# 1 69.1754 35.2132 19.2505 0.0000 15.0414 0.0000
# 2 35.2132 111.9917 41.6373 0.0000 7.8784 0.0000
# 3 19.2505 41.6373 134.4958 0.0000 4.2329 0.0000
# 4 0.0000 0.0000 0.0000 35.3832 0.0000 5.8491
# 5 15.0414 7.8784 4.2329 0.0000 29.2277 0.0000
# 6 0.0000 0.0000 0.0000 5.8491 0.0000 33.2225
#
#
#
# Elastic Compliance Matrix: (Units=1/GPa)
#
#
# Indices 1 2 3 4 5 6 
#
# 1 0.019107 -0.005088 -0.000897 0.000000 -0.008332 0.000000
# 2 -0.005088 0.011599 -0.002860 0.000000 -0.000094 0.000000
# 3 -0.000897 -0.002860 0.008449 0.000000 0.000009 0.000000
# 4 0.000000 0.000000 0.000000 0.029109 0.000000 -0.005125
# 5 -0.008332 -0.000094 0.000009 0.000000 0.038526 0.000000
# 6 0.000000 0.000000 0.000000 -0.005125 0.000000 0.031002
#
#
# Mechanical properties :
#
#
# Convention : Reuss Voigt Hill
#
# Bulk Modulus (GPa) = 46.58827 56.42944 51.50886
# Shear Modulus (GPa) = 30.74322 34.20414 32.47368
#
# Velocity S-wave (km/s) = 3.87603 4.08838 3.98362
# Velocity P-wave (km/s) = 6.54203 7.06133 6.80664
#
# Compressibility (1/GPa) = 0.02146463
#
# Stress axis : x y z
#
# Youngs Moduli (GPa) = 52.33557 86.21556 118.36262
#
# Poissons Ratio (x) = 0.43867 0.10623
# Poissons Ratio (y) = 0.26629 0.33846
# Poissons Ratio (z) = 0.04697 0.24654
#
# Static dielectric constant tensor:
#      x y z
#    x 3.454900 0.000000 0.184580 
#    y 0.000000 3.826960 0.000000 
#    z 0.184580 0.000000 4.159310 
# 
# 
# High freq. dielectric constant tensor:
#      x y z
#    x 1.762960 0.000000 0.009490 
#    y 0.000000 1.799710 0.000000 
#    z 0.009490 0.000000 1.832740 
# 
# From -- ./inp_files/42951.got.cif
#   From: 2010.06.25/outbox.cif.g09.slc.cpg/sg15_22_cif.got.tgz:42951.got - 2010.06.28 07:06:18.
