data_PCOD8137605
_publ_section_title
;
Structure prediction by ZEFSAII (Michael W. Deem and Ramdas Pophale) SiO2 
 PCOD8137605
Probable space group: C 2/C
;
_chemical_formula_sum "Si O2"
_cell_formula_units_Z 48
_cell_length_a 23.755473
_cell_length_b 8.716928
_cell_length_c 19.341429
_cell_angle_alpha 90.000000
_cell_angle_beta 36.329471
_cell_angle_gamma 90.000000
_cell_volume 2372.744707
_symmetry_space_group_name_H-M "C 2/C"
_symmetry_group_IT_number 15
_symmetry_cell_setting 'monoclinic'
loop_
_space_group_symop_operation_xyz
x,y,z
-x,y,1/2-z
-x,-y,-z
x,-y,1/2+z
1/2+x,1/2+y,z
1/2-x,1/2+y,1/2-z
1/2-x,1/2-y,-z
1/2+x,1/2-y,1/2+z
loop_
_atom_site_type_symbol
_atom_site_label
_atom_site_fract_x
_atom_site_fract_y
_atom_site_fract_z
Si Si1 0.028493 0.157136 0.008212
Si Si2 0.183882 0.654090 0.288841
Si Si3 0.478380 0.498004 0.346412
Si Si4 0.869546 0.661386 0.595684
Si Si5 0.648268 0.222340 0.033567
Si Si6 0.134554 0.255433 0.695350
O O1 0.026898 0.133935 0.092446
O O2 0.957899 0.294937 0.056454
O O3 0.132938 0.210737 0.882386
O O4 0.000000 0.000000 0.000000
O O5 0.178266 0.494632 0.333388
O O6 0.293920 0.699825 0.173000
O O7 0.136306 0.632678 0.259864
O O8 0.500000 0.572186 0.250000
O O9 0.378695 0.404305 0.442848
O O10 0.562116 0.380616 0.284461
O O11 0.902157 0.641388 0.482721
O O12 0.608216 0.161604 0.147951
O O13 0.759862 0.186310 0.918949
#
# Coordination Sequence:
#
# PCOD8137605 Si02
#       6
#     8   8   8   8   8   8
#     4  12  21  38  61  86 116 152 193 249 296 345
#     4  11  23  37  59  88 120 156 198 243 293 349
#     4  10  20  36  60  88 117 156 195 239 295 354
#     4  11  23  37  59  88 120 156 198 243 293 349
#     4   9  18  33  56  83 114 152 199 236 282 354
#     4   9  18  33  56  83 114 152 199 236 282 354
#
# _framework density 20.229737
#
# number of rings (size 3 to 8) (size 9 to 14) (size 15 to 20)
#    0.000    1.667    3.333    1.500    4.667    0.000 
#    0.000    1.667    0.000    2.000    0.000    0.000 
#    0.000    0.000    0.000    0.000    0.000    0.000 
#
# Total GULP energy -297432.663994 kJ/mol
# GULP energy per Si atom -12393.027666 kJ/mol
# Density = 2.018369 g / cm^3
# Si number density = 20.229737 Si / 1000 Ang^3
#
#
#
# Elastic Constant Matrix: (Units=GPa)
#
#
# Indices 1 2 3 4 5 6 
#
# 1 99.1127 10.8534 38.4311 0.0139 34.9234 -0.0109
# 2 10.8534 46.1848 10.4453 0.0341 19.9061 -0.0320
# 3 38.4311 10.4453 79.2884 0.0145 25.3855 -0.0158
# 4 0.0139 0.0341 0.0145 30.8526 -0.0089 -0.4632
# 5 34.9234 19.9061 25.3855 -0.0089 63.9125 0.0078
# 6 -0.0109 -0.0320 -0.0158 -0.4632 0.0078 25.7976
#
#
#
# Elastic Compliance Matrix: (Units=1/GPa)
#
#
# Indices 1 2 3 4 5 6 
#
# 1 0.014027 0.000325 -0.004990 -0.000006 -0.005784 0.000005
# 2 0.000325 0.025075 -0.001035 -0.000029 -0.007576 0.000032
# 3 -0.004990 -0.001035 0.016259 -0.000005 -0.003409 0.000007
# 4 -0.000006 -0.000029 -0.000005 0.032421 0.000019 0.000582
# 5 -0.005784 -0.007576 -0.003409 0.000019 0.022521 -0.000020
# 6 0.000005 0.000032 0.000007 0.000582 -0.000020 0.038774
#
#
# Mechanical properties :
#
#
# Convention : Reuss Voigt Hill
#
# Bulk Modulus (GPa) = 22.74747 38.22729 30.48738
# Shear Modulus (GPa) = 28.55032 35.10294 31.82663
#
# Velocity S-wave (km/s) = 3.76081 4.17011 3.97074
# Velocity P-wave (km/s) = 5.48883 6.49030 6.01046
#
# Compressibility (1/GPa) = 0.04396093
#
# Stress axis : x y z
#
# Youngs Moduli (GPa) = 71.29236 39.87966 61.50629
#
# Poissons Ratio (x) = -0.01297 0.30690
# Poissons Ratio (y) = -0.02318 0.06367
# Poissons Ratio (z) = 0.35573 0.04129
#
# Static dielectric constant tensor:
#      x y z
#    x 4.087250 0.000000 0.263080 
#    y 0.000000 3.100300 0.000000 
#    z 0.263080 0.000000 4.032440 
# 
# 
# High freq. dielectric constant tensor:
#      x y z
#    x 1.806410 0.000000 0.009110 
#    y 0.000000 1.723960 0.000000 
#    z 0.009110 0.000000 1.814350 
# 
# From -- ./inp_files/256881.got.cif
#   From: 2010.06.25/outbox.cif.g09.slc.cpg/sg15_129_cif.got.tgz:256881.got - 2010.06.28 07:06:18.
