data_PCOD8137690
_publ_section_title
;
Structure prediction by ZEFSAII (Michael W. Deem and Ramdas Pophale) SiO2 
 PCOD8137690
Probable space group: C 2/C
;
_chemical_formula_sum "Si O2"
_cell_formula_units_Z 52
_cell_length_a 7.718020
_cell_length_b 16.798632
_cell_length_c 20.819820
_cell_angle_alpha 90.000000
_cell_angle_beta 69.501729
_cell_angle_gamma 90.000000
_cell_volume 2528.420553
_symmetry_space_group_name_H-M "C 2/C"
_symmetry_group_IT_number 15
_symmetry_cell_setting 'monoclinic'
loop_
_space_group_symop_operation_xyz
x,y,z
-x,y,1/2-z
-x,-y,-z
x,-y,1/2+z
1/2+x,1/2+y,z
1/2-x,1/2+y,1/2-z
1/2-x,1/2-y,-z
1/2+x,1/2-y,1/2+z
loop_
_atom_site_type_symbol
_atom_site_label
_atom_site_fract_x
_atom_site_fract_y
_atom_site_fract_z
Si Si1 0.315692 0.955936 0.539803
Si Si2 0.888801 0.281228 0.200356
Si Si3 0.063040 0.561980 0.340575
Si Si4 0.861276 0.601667 0.900442
Si Si5 0.000000 0.134653 0.750000
Si Si6 0.019302 0.042737 0.874793
Si Si7 0.728285 0.606849 0.309518
O O1 0.338699 0.910096 0.605633
O O2 0.291961 0.895465 0.483427
O O3 0.500000 0.000000 0.500000
O O4 0.163799 0.027182 0.559088
O O5 0.679865 0.311125 0.236044
O O6 0.880619 0.187918 0.187721
O O7 0.000000 0.300771 0.250000
O O8 0.007763 0.322233 0.128266
O O9 0.214327 0.563361 0.264438
O O10 0.981960 0.473804 0.361336
O O11 0.900468 0.620910 0.336485
O O12 0.669020 0.602365 0.886003
O O13 0.042428 0.078443 0.684595
O O14 0.089249 0.952583 0.861391
#
# Coordination Sequence:
#
# PCOD8137690 Si02
#       7
#     8   8   8   8   4   8   8
#     4  10  20  36  61  91 121 159 209 258 303 367
#     4  12  25  41  60  94 134 158 202 264 316 365
#     4   9  19  38  65  91 122 159 210 256 301 374
#     4  10  21  40  61  92 128 161 204 260 307 367
#     4  12  22  38  64  94 120 166 206 258 322 352
#     4  11  21  37  64  90 118 165 214 253 309 372
#     4  10  22  38  62  92 123 160 204 256 314 360
#
# _framework density 20.566199999999998
#
# number of rings (size 3 to 8) (size 9 to 14) (size 15 to 20)
#    0.000    1.538    1.538    5.077    5.385    0.000 
#    0.000    1.538    0.000    0.000    0.000    0.000 
#    0.000    0.000    0.000    0.000    0.000    0.000 
#
# Total GULP energy -322249.586425 kJ/mol
# GULP energy per Si atom -12394.214862 kJ/mol
# Density = 2.051939 g / cm^3
# Si number density = 20.566200 Si / 1000 Ang^3
#
#
#
# Elastic Constant Matrix: (Units=GPa)
#
#
# Indices 1 2 3 4 5 6 
#
# 1 118.0231 25.2106 38.2353 0.0000 -1.9840 0.0000
# 2 25.2106 55.4357 22.2068 0.0000 -1.8846 0.0000
# 3 38.2353 22.2068 97.8747 0.0000 10.6130 0.0000
# 4 0.0000 0.0000 0.0000 10.3946 0.0000 0.4789
# 5 -1.9840 -1.8846 10.6130 0.0000 42.9143 0.0000
# 6 0.0000 0.0000 0.0000 0.4789 0.0000 29.6158
#
#
#
# Elastic Compliance Matrix: (Units=1/GPa)
#
#
# Indices 1 2 3 4 5 6 
#
# 1 0.010296 -0.003278 -0.003406 0.000000 0.001174 0.000000
# 2 -0.003278 0.021061 -0.003681 0.000000 0.001684 0.000000
# 3 -0.003406 -0.003681 0.012760 0.000000 -0.003475 0.000000
# 4 0.000000 0.000000 0.000000 0.096275 0.000000 -0.001557
# 5 0.001174 0.001684 -0.003475 0.000000 0.024290 0.000000
# 6 0.000000 0.000000 0.000000 -0.001557 0.000000 0.033791
#
#
# Mechanical properties :
#
#
# Convention : Reuss Voigt Hill
#
# Bulk Modulus (GPa) = 42.75697 49.18209 45.96953
# Shear Modulus (GPa) = 22.02660 28.96365 25.49513
#
# Velocity S-wave (km/s) = 3.27618 3.75682 3.52470
# Velocity P-wave (km/s) = 5.92842 6.54097 6.24221
#
# Compressibility (1/GPa) = 0.02338800
#
# Stress axis : x y z
#
# Youngs Moduli (GPa) = 97.12242 47.48030 78.37297
#
# Poissons Ratio (x) = 0.15565 0.26693
# Poissons Ratio (y) = 0.31839 0.28845
# Poissons Ratio (z) = 0.33078 0.17475
#
# Static dielectric constant tensor:
#      x y z
#    x 4.303170 0.000000 0.783510 
#    y 0.000000 3.308270 0.000000 
#    z 0.783510 0.000000 6.891760 
# 
# 
# High freq. dielectric constant tensor:
#      x y z
#    x 1.831290 0.000000 -0.000080 
#    y 0.000000 1.762640 0.000000 
#    z -0.000080 0.000000 1.805770 
# 
# From -- ./inp_files/232074.got.cif
#   From: 2010.06.25/outbox.cif.g09.slc.cpg/sg15_117_cif.got.tgz:232074.got - 2010.06.28 07:06:18.
