data_PCOD8137170
_publ_section_title
;
Structure prediction by ZEFSAII (Michael W. Deem and Ramdas Pophale) SiO2 
 PCOD8137170
Probable space group: C 2/C
;
_chemical_formula_sum "Si O2"
_cell_formula_units_Z 48
_cell_length_a 24.943598
_cell_length_b 11.598722
_cell_length_c 8.318735
_cell_angle_alpha 90.000000
_cell_angle_beta 67.194374
_cell_angle_gamma 90.000000
_cell_volume 2218.579803
_symmetry_space_group_name_H-M "C 2/C"
_symmetry_group_IT_number 15
_symmetry_cell_setting 'monoclinic'
loop_
_space_group_symop_operation_xyz
x,y,z
-x,y,1/2-z
-x,-y,-z
x,-y,1/2+z
1/2+x,1/2+y,z
1/2-x,1/2+y,1/2-z
1/2-x,1/2-y,-z
1/2+x,1/2-y,1/2+z
loop_
_atom_site_type_symbol
_atom_site_label
_atom_site_fract_x
_atom_site_fract_y
_atom_site_fract_z
Si Si1 0.717421 0.314307 0.178635
Si Si2 0.592828 0.332247 0.849792
Si Si3 0.385689 0.449002 0.340496
Si Si4 0.162009 0.621743 0.875694
Si Si5 0.473492 0.728226 0.612227
Si Si6 0.867239 0.627924 0.215412
O O1 0.677520 0.416284 0.155288
O O2 0.768046 0.369691 0.230457
O O3 0.678358 0.217238 0.314762
O O4 0.750000 0.250000 0.000000
O O5 0.605950 0.412301 0.679598
O O6 0.632289 0.218396 0.799008
O O7 0.609657 0.412279 0.980974
O O8 0.525143 0.295841 0.926656
O O9 0.436324 0.387912 0.178982
O O10 0.141518 0.499061 0.837127
O O11 0.141080 0.639402 0.082607
O O12 0.500000 0.770316 0.750000
O O13 0.432399 0.831225 0.594986
#
# Coordination Sequence:
#
# PCOD8137170 Si02
#       6
#     8   8   8   8   8   8
#     4   9  18  38  60  81 117 163 191 236 299 349
#     4  11  21  38  59  89 116 157 197 243 299 349
#     4  10  20  35  63  83 118 152 197 244 297 344
#     4  11  22  38  61  86 119 159 199 237 297 353
#     4   9  17  39  61  80 115 161 190 240 299 345
#     4  10  21  40  62  83 120 160 195 244 293 349
#
# _framework density 21.635462
#
# number of rings (size 3 to 8) (size 9 to 14) (size 15 to 20)
#    0.000    2.000    6.667    0.500    2.333    0.667 
#    6.000    0.833    0.000    0.000    0.000    0.000 
#    0.000    0.000    0.000    0.000    0.000    0.000 
#
# Total GULP energy -297542.225977 kJ/mol
# GULP energy per Si atom -12397.592749 kJ/mol
# Density = 2.158622 g / cm^3
# Si number density = 21.635462 Si / 1000 Ang^3
#
#
#
# Elastic Constant Matrix: (Units=GPa)
#
#
# Indices 1 2 3 4 5 6 
#
# 1 147.0347 65.0782 16.1244 0.0000 -35.1940 0.0000
# 2 65.0782 142.4682 18.3449 0.0000 -8.6362 0.0000
# 3 16.1244 18.3449 16.9235 0.0000 -10.4746 0.0000
# 4 0.0000 0.0000 0.0000 31.6091 0.0000 3.0237
# 5 -35.1940 -8.6362 -10.4746 0.0000 22.2689 0.0000
# 6 0.0000 0.0000 0.0000 3.0237 0.0000 39.1438
#
#
#
# Elastic Compliance Matrix: (Units=1/GPa)
#
#
# Indices 1 2 3 4 5 6 
#
# 1 0.014429 -0.006137 0.007824 0.000000 0.024104 0.000000
# 2 -0.006137 0.010800 -0.013077 0.000000 -0.011663 0.000000
# 3 0.007824 -0.013077 0.099207 0.000000 0.053957 0.000000
# 4 0.000000 0.000000 0.000000 0.031872 0.000000 -0.002462
# 5 0.024104 -0.011663 0.053957 0.000000 0.103856 0.000000
# 6 0.000000 0.000000 0.000000 -0.002462 0.000000 0.025737
#
#
# Mechanical properties :
#
#
# Convention : Reuss Voigt Hill
#
# Bulk Modulus (GPa) = 9.83732 56.16905 33.00318
# Shear Modulus (GPa) = 14.59567 32.39629 23.49598
#
# Velocity S-wave (km/s) = 2.60016 3.87378 3.29902
# Velocity P-wave (km/s) = 3.68390 6.78426 5.45882
#
# Compressibility (1/GPa) = 0.10165375
#
# Stress axis : x y z
#
# Youngs Moduli (GPa) = 69.30529 92.59648 10.07990
#
# Poissons Ratio (x) = 0.56829 -0.07886
# Poissons Ratio (y) = 0.42535 0.13182
# Poissons Ratio (z) = -0.54223 1.21093
#
# Static dielectric constant tensor:
#      x y z
#    x 5.062470 0.000000 -0.471170 
#    y 0.000000 6.404150 0.000000 
#    z -0.471170 0.000000 3.544710 
# 
# 
# High freq. dielectric constant tensor:
#      x y z
#    x 1.867160 0.000000 -0.018370 
#    y 0.000000 1.850170 0.000000 
#    z -0.018370 0.000000 1.805910 
# 
# From -- ./inp_files/60686.got.cif
#   From: 2010.06.25/outbox.cif.g09.slc.cpg/sg15_31_cif.got.tgz:60686.got - 2010.06.28 07:06:18.
