data_PCOD8137946
_publ_section_title
;
Structure prediction by ZEFSAII (Michael W. Deem and Ramdas Pophale) SiO2 
 PCOD8137946
Probable space group: C 2/C
;
_chemical_formula_sum "Si O2"
_cell_formula_units_Z 40
_cell_length_a 7.556631
_cell_length_b 17.816268
_cell_length_c 18.439651
_cell_angle_alpha 90.000000
_cell_angle_beta 131.552942
_cell_angle_gamma 90.000000
_cell_volume 1857.797726
_symmetry_space_group_name_H-M "C 2/C"
_symmetry_group_IT_number 15
_symmetry_cell_setting 'monoclinic'
loop_
_space_group_symop_operation_xyz
x,y,z
-x,y,1/2-z
-x,-y,-z
x,-y,1/2+z
1/2+x,1/2+y,z
1/2-x,1/2+y,1/2-z
1/2-x,1/2-y,-z
1/2+x,1/2-y,1/2+z
loop_
_atom_site_type_symbol
_atom_site_label
_atom_site_fract_x
_atom_site_fract_y
_atom_site_fract_z
Si Si1 0.500000 0.496378 0.750000
Si Si2 0.453177 0.892391 0.886732
Si Si3 0.500000 0.836829 0.750000
Si Si4 0.136073 0.887909 0.395813
Si Si5 0.394443 0.227630 0.872296
Si Si6 0.356957 0.271764 0.417935
O O1 0.733749 0.448032 0.825019
O O2 0.519792 0.545855 0.681722
O O3 0.562301 0.888066 0.835784
O O4 0.364763 0.811544 0.888833
O O5 0.663356 0.921640 0.996067
O O6 0.716907 0.784147 0.784275
O O7 0.264165 0.847373 0.363031
O O8 0.964342 0.830269 0.390292
O O9 0.589879 0.205173 0.865774
O O10 0.492900 0.273918 0.967594
#
# Coordination Sequence:
#
# PCOD8137946 Si02
#       6
#     4   8   4   8   8   8
#     4  12  27  44  64  99 142 190 220 272 357 408
#     4  11  23  43  67  96 138 183 221 285 336 405
#     4  12  19  38  66 103 130 172 230 278 333 398
#     4  11  22  46  67  97 139 176 228 283 336 399
#     4  10  20  36  69 102 128 166 226 286 335 389
#     4  10  20  41  71  98 128 173 232 283 335 393
#
# _framework density 21.530868999999999
#
# number of rings (size 3 to 8) (size 9 to 14) (size 15 to 20)
#    0.000    1.200    4.000    3.600    0.000    0.000 
#    3.600    1.000    0.000    0.000    0.000    0.000 
#    0.000    0.000    0.000    0.000    0.000    0.000 
#
# Total GULP energy -247998.108433 kJ/mol
# GULP energy per Si atom -12399.905422 kJ/mol
# Density = 2.148186 g / cm^3
# Si number density = 21.530869 Si / 1000 Ang^3
#
#
#
# Elastic Constant Matrix: (Units=GPa)
#
#
# Indices 1 2 3 4 5 6 
#
# 1 130.7585 51.3755 44.3385 0.0000 5.0419 0.0000
# 2 51.3755 96.8274 67.9670 0.0000 11.3415 0.0000
# 3 44.3385 67.9670 126.8247 0.0000 -2.7106 0.0000
# 4 0.0000 0.0000 0.0000 32.0926 0.0000 12.8195
# 5 5.0419 11.3415 -2.7106 0.0000 29.1390 -0.0001
# 6 0.0000 0.0000 0.0000 12.8195 -0.0001 19.7828
#
#
#
# Elastic Compliance Matrix: (Units=1/GPa)
#
#
# Indices 1 2 3 4 5 6 
#
# 1 0.009743 -0.004443 -0.001026 0.000000 -0.000052 0.000000
# 2 -0.004443 0.020283 -0.009488 0.000000 -0.008008 0.000000
# 3 -0.001026 -0.009488 0.013438 0.000000 0.005120 0.000000
# 4 0.000000 0.000000 0.000000 0.042043 0.000000 -0.027244
# 5 -0.000052 -0.008008 0.005120 0.000000 0.037921 0.000000
# 6 0.000000 0.000000 0.000000 -0.027244 0.000000 0.068203
#
#
# Mechanical properties :
#
#
# Convention : Reuss Voigt Hill
#
# Bulk Modulus (GPa) = 73.80249 75.75252 74.77750
# Shear Modulus (GPa) = 22.11786 28.91820 25.51803
#
# Velocity S-wave (km/s) = 3.20857 3.66881 3.44638
# Velocity P-wave (km/s) = 6.93387 7.29428 7.11636
#
# Compressibility (1/GPa) = 0.01354968
#
# Stress axis : x y z
#
# Youngs Moduli (GPa) = 102.63279 49.30227 74.41766
#
# Poissons Ratio (x) = 0.21907 0.07637
# Poissons Ratio (y) = 0.45603 0.70605
# Poissons Ratio (z) = 0.10532 0.46776
#
# Static dielectric constant tensor:
#      x y z
#    x 3.869690 0.000000 0.018080 
#    y 0.000000 3.623330 0.000000 
#    z 0.018080 0.000000 4.315950 
# 
# 
# High freq. dielectric constant tensor:
#      x y z
#    x 1.840960 0.000000 -0.000770 
#    y 0.000000 1.815450 0.000000 
#    z -0.000770 0.000000 1.875930 
# 
# From -- ./inp_files/190707.got.cif
#   From: 2010.06.25/outbox.cif.g09.slc.cpg/sg15_96_cif.got.tgz:190707.got - 2010.06.28 07:06:18.
