data_PCOD8137686
_publ_section_title
;
Structure prediction by ZEFSAII (Michael W. Deem and Ramdas Pophale) SiO2 
 PCOD8137686
Probable space group: C 2/C
;
_chemical_formula_sum "Si O2"
_cell_formula_units_Z 60
_cell_length_a 29.783904
_cell_length_b 11.979903
_cell_length_c 8.422597
_cell_angle_alpha 90.000000
_cell_angle_beta 109.833679
_cell_angle_gamma 90.000000
_cell_volume 2826.985273
_symmetry_space_group_name_H-M "C 2/C"
_symmetry_group_IT_number 15
_symmetry_cell_setting 'monoclinic'
loop_
_space_group_symop_operation_xyz
x,y,z
-x,y,1/2-z
-x,-y,-z
x,-y,1/2+z
1/2+x,1/2+y,z
1/2-x,1/2+y,1/2-z
1/2-x,1/2-y,-z
1/2+x,1/2-y,1/2+z
loop_
_atom_site_type_symbol
_atom_site_label
_atom_site_fract_x
_atom_site_fract_y
_atom_site_fract_z
Si Si1 0.500000 0.702439 0.250000
Si Si2 0.791060 0.388863 0.446967
Si Si3 0.095836 0.899070 0.449586
Si Si4 0.439477 0.608738 0.916781
Si Si5 0.190949 0.842310 0.400161
Si Si6 0.349779 0.001705 0.780089
Si Si7 0.636763 0.231303 0.071610
Si Si8 0.906485 0.713489 0.792838
O O1 0.513008 0.622501 0.418042
O O2 0.543070 0.779414 0.239841
O O3 0.796097 0.255284 0.460186
O O4 0.737140 0.422603 0.434687
O O5 0.833349 0.446337 0.597255
O O6 0.803186 0.429628 0.284694
O O7 0.053313 0.904090 0.265147
O O8 0.146163 0.910367 0.415927
O O9 0.093342 0.785050 0.546261
O O10 0.091286 0.003546 0.559991
O O11 0.410315 0.723085 0.898320
O O12 0.181683 0.788010 0.214045
O O13 0.395239 0.084542 0.819589
O O14 0.363948 0.902387 0.916399
O O15 0.634020 0.259463 0.879516
#
# Coordination Sequence:
#
# PCOD8137686 Si02
#       8
#     4   8   8   8   8   8   8   8
#     4  10  24  44  62  94 128 156 216 260 302 386
#     4  10  20  36  61  90 125 161 205 253 298 370
#     4  11  22  39  66  90 126 167 203 253 315 373
#     4  10  22  39  62  92 124 164 202 259 310 363
#     4   9  20  38  58  91 126 161 206 250 297 364
#     4  11  20  38  64  89 121 168 202 253 317 365
#     4   9  20  38  61  86 125 162 204 252 305 372
#     4  11  22  40  65  91 122 165 207 257 321 371
#
# _framework density 21.224024
#
# number of rings (size 3 to 8) (size 9 to 14) (size 15 to 20)
#    0.000    1.867    2.667    1.600    0.000    4.800 
#    0.000    4.667    0.000    0.000    0.000    0.000 
#    0.000    0.000    0.000    0.000    0.000    0.000 
#
# Total GULP energy -371764.962804 kJ/mol
# GULP energy per Si atom -12392.165427 kJ/mol
# Density = 2.117572 g / cm^3
# Si number density = 21.224024 Si / 1000 Ang^3
#
#
#
# Elastic Constant Matrix: (Units=GPa)
#
#
# Indices 1 2 3 4 5 6 
#
# 1 85.6998 36.0571 19.5907 0.0000 2.0479 0.0000
# 2 36.0571 87.8406 30.4641 0.0000 1.6639 0.0000
# 3 19.5907 30.4641 116.6312 0.0000 0.1631 0.0000
# 4 0.0000 0.0000 0.0000 29.2377 0.0000 -1.2234
# 5 2.0479 1.6639 0.1631 0.0000 27.1862 0.0000
# 6 0.0000 0.0000 0.0000 -1.2234 0.0000 24.7454
#
#
#
# Elastic Compliance Matrix: (Units=1/GPa)
#
#
# Indices 1 2 3 4 5 6 
#
# 1 0.014214 -0.005490 -0.000952 0.000000 -0.000729 0.000000
# 2 -0.005490 0.014654 -0.002905 0.000000 -0.000466 0.000000
# 3 -0.000952 -0.002905 0.009492 0.000000 0.000193 0.000000
# 4 0.000000 0.000000 0.000000 0.034273 0.000000 0.001694
# 5 -0.000729 -0.000466 0.000193 0.000000 0.036866 0.000000
# 6 0.000000 0.000000 0.000000 0.001694 0.000000 0.040495
#
#
# Mechanical properties :
#
#
# Convention : Reuss Voigt Hill
#
# Bulk Modulus (GPa) = 50.85106 51.37725 51.11415
# Shear Modulus (GPa) = 28.53150 29.83787 29.18469
#
# Velocity S-wave (km/s) = 3.67045 3.75354 3.71223
# Velocity P-wave (km/s) = 6.47875 6.56088 6.51994
#
# Compressibility (1/GPa) = 0.01966528
#
# Stress axis : x y z
#
# Youngs Moduli (GPa) = 70.35425 68.23977 105.34664
#
# Poissons Ratio (x) = 0.37466 0.10033
# Poissons Ratio (y) = 0.38627 0.30601
# Poissons Ratio (z) = 0.06701 0.19822
#
# Static dielectric constant tensor:
#      x y z
#    x 3.652950 0.000000 0.054330 
#    y 0.000000 3.747640 0.000000 
#    z 0.054330 0.000000 4.244600 
# 
# 
# High freq. dielectric constant tensor:
#      x y z
#    x 1.809490 0.000000 -0.002280 
#    y 0.000000 1.820360 0.000000 
#    z -0.002280 0.000000 1.847700 
# 
# From -- ./inp_files/69132.got.cif
#   From: 2010.06.25/outbox.cif.g09.slc.cpg/sg15_35_cif.got.tgz:69132.got - 2010.06.28 07:06:18.
