data_PCOD8137713
_publ_section_title
;
Structure prediction by ZEFSAII (Michael W. Deem and Ramdas Pophale) SiO2 
 PCOD8137713
Probable space group: C 2/C
;
_chemical_formula_sum "Si O2"
_cell_formula_units_Z 52
_cell_length_a 14.113326
_cell_length_b 29.409084
_cell_length_c 8.924982
_cell_angle_alpha 90.000000
_cell_angle_beta 134.834042
_cell_angle_gamma 90.000000
_cell_volume 2626.984591
_symmetry_space_group_name_H-M "C 2/C"
_symmetry_group_IT_number 15
_symmetry_cell_setting 'monoclinic'
loop_
_space_group_symop_operation_xyz
x,y,z
-x,y,1/2-z
-x,-y,-z
x,-y,1/2+z
1/2+x,1/2+y,z
1/2-x,1/2+y,1/2-z
1/2-x,1/2-y,-z
1/2+x,1/2-y,1/2+z
loop_
_atom_site_type_symbol
_atom_site_label
_atom_site_fract_x
_atom_site_fract_y
_atom_site_fract_z
Si Si1 0.336980 0.961882 0.814945
Si Si2 0.907073 0.973288 0.505291
Si Si3 0.274832 0.728743 0.362283
Si Si4 0.588618 0.378718 0.130021
Si Si5 0.500000 0.996908 0.250000
Si Si6 0.798824 0.873979 0.934170
Si Si7 0.961747 0.780315 0.536547
O O1 0.298455 0.909774 0.750898
O O2 0.226670 0.997321 0.631838
O O3 0.458705 0.970244 0.838754
O O4 0.381227 0.967019 0.039530
O O5 0.867827 0.921931 0.418751
O O6 0.000000 0.000000 0.500000
O O7 0.000000 0.969780 0.750000
O O8 0.250000 0.750000 0.500000
O O9 0.246618 0.675292 0.330645
O O10 0.424899 0.734506 0.459768
O O11 0.168866 0.750203 0.132821
O O12 0.699645 0.375272 0.383829
O O13 0.444247 0.387006 0.038124
O O14 0.583490 0.332702 0.028316
O O15 0.000000 0.771110 0.750000
#
# Coordination Sequence:
#
# PCOD8137713 Si02
#       7
#     8   8   8   8   4   8   8
#     4  11  22  41  60  86 125 167 213 253 310 376
#     4  12  22  35  62  96 122 151 201 261 322 372
#     4  11  22  43  67  94 125 175 218 265 323 393
#     4  10  20  36  61  97 123 158 197 259 331 376
#     4  10  24  42  58  78 126 180 208 246 302 374
#     4  10  20  37  64  89 124 157 209 264 310 373
#     4  11  23  42  65  95 133 165 215 271 331 380
#
# _framework density 19.794557999999999
#
# number of rings (size 3 to 8) (size 9 to 14) (size 15 to 20)
#    0.000    1.231    3.077    4.154    0.000    0.000 
#    4.154    1.538    0.000    0.000    0.000    0.000 
#    0.000    0.000    0.000    0.000    0.000    0.000 
#
# Total GULP energy -322219.829174 kJ/mol
# GULP energy per Si atom -12393.070353 kJ/mol
# Density = 1.974950 g / cm^3
# Si number density = 19.794558 Si / 1000 Ang^3
#
#
#
# Elastic Constant Matrix: (Units=GPa)
#
#
# Indices 1 2 3 4 5 6 
#
# 1 56.5984 26.7001 -1.1841 0.0000 -6.5792 0.0000
# 2 26.7001 126.0769 36.4436 0.0000 9.1095 0.0000
# 3 -1.1841 36.4436 96.8214 0.0000 -7.5176 0.0000
# 4 0.0000 0.0000 0.0000 45.9680 0.0000 -11.4592
# 5 -6.5792 9.1095 -7.5176 0.0000 31.8818 0.0000
# 6 0.0000 0.0000 0.0000 -11.4592 0.0000 41.5169
#
#
#
# Elastic Compliance Matrix: (Units=1/GPa)
#
#
# Indices 1 2 3 4 5 6 
#
# 1 0.021283 -0.005862 0.002992 0.000000 0.006773 0.000000
# 2 -0.005862 0.010890 -0.004590 0.000000 -0.005404 0.000000
# 3 0.002992 -0.004590 0.012471 0.000000 0.004870 0.000000
# 4 0.000000 0.000000 0.000000 0.023362 0.000000 0.006448
# 5 0.006773 -0.005404 0.004870 0.000000 0.035456 0.000000
# 6 0.000000 0.000000 0.000000 0.006448 0.000000 0.025866
#
#
# Mechanical properties :
#
#
# Convention : Reuss Voigt Hill
#
# Bulk Modulus (GPa) = 33.64119 44.82398 39.23258
# Shear Modulus (GPa) = 32.43467 38.37583 35.40525
#
# Velocity S-wave (km/s) = 4.05231 4.40785 4.23381
# Velocity P-wave (km/s) = 6.23915 6.97132 6.61537
#
# Compressibility (1/GPa) = 0.02972547
#
# Stress axis : x y z
#
# Youngs Moduli (GPa) = 46.98482 91.82430 80.18720
#
# Poissons Ratio (x) = 0.53825 -0.23996
# Poissons Ratio (y) = 0.27541 0.36809
# Poissons Ratio (z) = -0.14060 0.42151
#
# Static dielectric constant tensor:
#      x y z
#    x 3.457270 0.000000 -0.052420 
#    y 0.000000 3.622550 0.000000 
#    z -0.052420 0.000000 3.813660 
# 
# 
# High freq. dielectric constant tensor:
#      x y z
#    x 1.763070 0.000000 -0.009380 
#    y 0.000000 1.776520 0.000000 
#    z -0.009380 0.000000 1.782490 
# 
# From -- ./inp_files/43663.got.cif
#   From: 2010.06.25/outbox.cif.g09.slc.cpg/sg15_22_cif.got.tgz:43663.got - 2010.06.28 07:06:18.
