data_PCOD8137302
_publ_section_title
;
Structure prediction by ZEFSAII (Michael W. Deem and Ramdas Pophale) SiO2 
 PCOD8137302
Probable space group: C 2/C
;
_chemical_formula_sum "Si O2"
_cell_formula_units_Z 48
_cell_length_a 11.857310
_cell_length_b 24.929428
_cell_length_c 15.409551
_cell_angle_alpha 90.000000
_cell_angle_beta 149.297572
_cell_angle_gamma 90.000000
_cell_volume 2325.689452
_symmetry_space_group_name_H-M "C 2/C"
_symmetry_group_IT_number 15
_symmetry_cell_setting 'monoclinic'
loop_
_space_group_symop_operation_xyz
x,y,z
-x,y,1/2-z
-x,-y,-z
x,-y,1/2+z
1/2+x,1/2+y,z
1/2-x,1/2+y,1/2-z
1/2-x,1/2-y,-z
1/2+x,1/2-y,1/2+z
loop_
_atom_site_type_symbol
_atom_site_label
_atom_site_fract_x
_atom_site_fract_y
_atom_site_fract_z
Si Si1 0.890398 0.819260 0.770240
Si Si2 0.776849 0.600833 0.754753
Si Si3 0.144438 0.068338 0.925986
Si Si4 0.778888 0.706003 0.656328
Si Si5 0.549276 0.092583 0.099600
Si Si6 0.254703 0.997776 0.652643
O O1 0.738544 0.765798 0.666418
O O2 0.737834 0.863350 0.714950
O O3 0.000000 0.836137 0.750000
O O4 0.085731 0.811606 0.966493
O O5 0.521919 0.597922 0.618752
O O6 0.816804 0.662474 0.756636
O O7 0.830127 0.559966 0.710836
O O8 0.953631 0.581225 0.941749
O O9 0.000000 0.043569 0.750000
O O10 0.332679 0.109421 0.014731
O O11 0.287408 0.023226 0.074879
O O12 0.000000 0.711967 0.750000
O O13 0.646452 0.038838 0.205457
O O14 0.000000 0.000000 0.500000
#
# Coordination Sequence:
#
# PCOD8137302 Si02
#       6
#     8   8   8   8   8   8
#     4  11  22  39  61  86 115 151 195 244 293 343
#     4  10  21  39  59  88 120 154 193 237 289 346
#     4   9  20  37  59  84 119 156 192 237 288 342
#     4  11  22  39  61  86 116 152 193 243 292 344
#     4  11  21  38  61  86 117 156 195 239 288 342
#     4  10  20  36  56  84 117 153 191 232 283 341
#
# _framework density 20.639043000000001
#
# number of rings (size 3 to 8) (size 9 to 14) (size 15 to 20)
#    0.000    1.667    0.000    7.000    0.000    1.333 
#    0.000   18.333    0.000    4.000    0.000    0.000 
#    0.000    0.000    0.000    0.000    0.000    0.000 
#
# Total GULP energy -297318.187335 kJ/mol
# GULP energy per Si atom -12388.257806 kJ/mol
# Density = 2.059207 g / cm^3
# Si number density = 20.639043 Si / 1000 Ang^3
#
#
#
# Elastic Constant Matrix: (Units=GPa)
#
#
# Indices 1 2 3 4 5 6 
#
# 1 77.1942 43.0205 27.6421 0.0002 -4.4676 0.0000
# 2 43.0205 82.2331 11.7780 -0.0003 9.0977 -0.0002
# 3 27.6421 11.7780 103.5530 0.0005 -0.4048 0.0001
# 4 0.0002 -0.0003 0.0005 37.7270 0.0007 1.1547
# 5 -4.4676 9.0977 -0.4048 0.0007 29.8054 0.0003
# 6 0.0000 -0.0002 0.0001 1.1547 0.0003 29.1174
#
#
#
# Elastic Compliance Matrix: (Units=1/GPa)
#
#
# Indices 1 2 3 4 5 6 
#
# 1 0.021086 -0.011129 -0.004337 0.000000 0.006499 0.000000
# 2 -0.011129 0.018680 0.000817 0.000000 -0.007359 0.000000
# 3 -0.004337 0.000817 0.010719 0.000000 -0.000754 0.000000
# 4 0.000000 0.000000 0.000000 0.026538 -0.000001 -0.001052
# 5 0.006499 -0.007359 -0.000754 -0.000001 0.036761 0.000000
# 6 0.000000 0.000000 0.000000 -0.001052 0.000000 0.034385
#
#
# Mechanical properties :
#
#
# Convention : Reuss Voigt Hill
#
# Bulk Modulus (GPa) = 47.19992 47.54017 47.37004
# Shear Modulus (GPa) = 27.09604 31.36595 29.23099
#
# Velocity S-wave (km/s) = 3.62726 3.90261 3.76745
# Velocity P-wave (km/s) = 6.36094 6.58720 6.47506
#
# Compressibility (1/GPa) = 0.02118648
#
# Stress axis : x y z
#
# Youngs Moduli (GPa) = 47.42556 53.53412 93.29412
#
# Poissons Ratio (x) = 0.59577 0.40465
# Poissons Ratio (y) = 0.52779 -0.07625
# Poissons Ratio (z) = 0.20570 -0.04375
#
# Static dielectric constant tensor:
#      x y z
#    x 3.884580 0.000000 -0.159600 
#    y 0.000000 4.242220 0.000000 
#    z -0.159600 0.000000 4.538550 
# 
# 
# High freq. dielectric constant tensor:
#      x y z
#    x 1.805690 0.000000 0.002510 
#    y 0.000000 1.781800 0.000000 
#    z 0.002510 0.000000 1.842070 
# 
# From -- ./inp_files/32545.got.cif
#   From: 2010.06.25/outbox.cif.g09.slc.cpg/sg15_17_cif.got.tgz:32545.got - 2010.06.28 07:06:18.
