data_PCOD8137399
_publ_section_title
;
Structure prediction by ZEFSAII (Michael W. Deem and Ramdas Pophale) SiO2 
 PCOD8137399
Probable space group: C 2/C
;
_chemical_formula_sum "Si O2"
_cell_formula_units_Z 36
_cell_length_a 15.779742
_cell_length_b 24.595874
_cell_length_c 14.983683
_cell_angle_alpha 90.000000
_cell_angle_beta 161.413337
_cell_angle_gamma 90.000000
_cell_volume 1853.597819
_symmetry_space_group_name_H-M "C 2/C"
_symmetry_group_IT_number 15
_symmetry_cell_setting 'monoclinic'
loop_
_space_group_symop_operation_xyz
x,y,z
-x,y,1/2-z
-x,-y,-z
x,-y,1/2+z
1/2+x,1/2+y,z
1/2-x,1/2+y,1/2-z
1/2-x,1/2-y,-z
1/2+x,1/2-y,1/2+z
loop_
_atom_site_type_symbol
_atom_site_label
_atom_site_fract_x
_atom_site_fract_y
_atom_site_fract_z
Si Si1 0.116889 0.452961 0.677179
Si Si2 0.495491 0.712397 0.939114
Si Si3 0.000000 0.212408 0.750000
Si Si4 0.741026 0.040327 0.931907
Si Si5 0.641200 0.601509 0.629790
O O1 0.163225 0.479390 0.820634
O O2 0.000000 0.500000 0.500000
O O3 0.894980 0.405159 0.450786
O O4 0.398648 0.434616 0.921157
O O5 0.490548 0.681348 0.836077
O O6 0.443205 0.664810 0.958090
O O7 0.281294 0.760181 0.737995
O O8 0.750000 0.250000 0.500000
O O9 0.500000 0.063752 0.750000
O O10 0.784348 0.083016 0.895317
O O11 0.000000 0.035356 0.250000
#
# Coordination Sequence:
#
# PCOD8137399 Si02
#       5
#     8   8   4   8   8
#     4  10  20  37  56  80 112 148 186 232 280 331
#     4  10  20  36  58  82 110 145 187 232 278 334
#     4   8  16  32  52  72 102 134 170 224 274 314
#     4  11  21  36  57  82 116 150 187 230 281 338
#     4  11  21  37  60  83 113 153 190 230 282 338
#
# _framework density 19.421689000000001
#
# number of rings (size 3 to 8) (size 9 to 14) (size 15 to 20)
#    0.000    1.778    0.000    8.000    0.000    0.000 
#    6.000    0.000    0.000    4.000    0.000    0.000 
#    0.000    0.000    0.000    0.000    0.000    0.000 
#
# Total GULP energy -223030.897581 kJ/mol
# GULP energy per Si atom -12390.605421 kJ/mol
# Density = 1.937748 g / cm^3
# Si number density = 19.421689 Si / 1000 Ang^3
#
#
#
# Elastic Constant Matrix: (Units=GPa)
#
#
# Indices 1 2 3 4 5 6 
#
# 1 107.0545 45.1637 49.0833 -0.0036 10.1034 -0.0055
# 2 45.1637 69.6586 10.0891 -0.0002 0.9574 0.0009
# 3 49.0833 10.0891 121.6989 0.0084 8.8150 -0.0037
# 4 -0.0036 -0.0002 0.0084 24.9098 -0.0015 2.1321
# 5 10.1034 0.9574 8.8150 -0.0015 37.9035 -0.0062
# 6 -0.0055 0.0009 -0.0037 2.1321 -0.0062 43.4105
#
#
#
# Elastic Compliance Matrix: (Units=1/GPa)
#
#
# Indices 1 2 3 4 5 6 
#
# 1 0.016229 -0.009682 -0.005541 0.000004 -0.002793 0.000001
# 2 -0.009682 0.020306 0.002107 -0.000002 0.001578 -0.000001
# 3 -0.005541 0.002107 0.010348 -0.000004 -0.000983 0.000000
# 4 0.000004 -0.000002 -0.000004 0.040314 0.000001 -0.001980
# 5 -0.002793 0.001578 -0.000983 0.000001 0.027316 0.000003
# 6 0.000001 -0.000001 0.000000 -0.001980 0.000003 0.023133
#
#
# Mechanical properties :
#
#
# Convention : Reuss Voigt Hill
#
# Bulk Modulus (GPa) = 48.41874 56.34270 52.38072
# Shear Modulus (GPa) = 29.28056 34.18314 31.73185
#
# Velocity S-wave (km/s) = 3.88702 4.19985 4.04646
# Velocity P-wave (km/s) = 6.71786 7.25200 6.99003
#
# Compressibility (1/GPa) = 0.02065316
#
# Stress axis : x y z
#
# Youngs Moduli (GPa) = 61.61672 49.24659 96.63548
#
# Poissons Ratio (x) = 0.47678 0.53542
# Poissons Ratio (y) = 0.59655 -0.20362
# Poissons Ratio (z) = 0.34140 -0.10376
#
# Static dielectric constant tensor:
#      x y z
#    x 3.656660 -0.000040 0.010720 
#    y -0.000040 3.435730 -0.000060 
#    z 0.010720 -0.000060 4.162330 
# 
# 
# High freq. dielectric constant tensor:
#      x y z
#    x 1.746590 0.000000 0.015120 
#    y 0.000000 1.725540 0.000000 
#    z 0.015120 0.000000 1.786620 
# 
# From -- ./inp_files/7213.got.cif
#   From: 2010.06.25/outbox.cif.g09.slc.cpg/sg15_4_cif.got.tgz:7213.got - 2010.06.28 07:06:18.
