data_PCOD8137422
_publ_section_title
;
Structure prediction by ZEFSAII (Michael W. Deem and Ramdas Pophale) SiO2 
 PCOD8137422
Probable space group: C 2/C
;
_chemical_formula_sum "Si O2"
_cell_formula_units_Z 48
_cell_length_a 10.765245
_cell_length_b 20.078131
_cell_length_c 11.176910
_cell_angle_alpha 90.000000
_cell_angle_beta 93.171433
_cell_angle_gamma 90.000000
_cell_volume 2412.144448
_symmetry_space_group_name_H-M "C 2/C"
_symmetry_group_IT_number 15
_symmetry_cell_setting 'monoclinic'
loop_
_space_group_symop_operation_xyz
x,y,z
-x,y,1/2-z
-x,-y,-z
x,-y,1/2+z
1/2+x,1/2+y,z
1/2-x,1/2+y,1/2-z
1/2-x,1/2-y,-z
1/2+x,1/2-y,1/2+z
loop_
_atom_site_type_symbol
_atom_site_label
_atom_site_fract_x
_atom_site_fract_y
_atom_site_fract_z
Si Si1 0.944536 0.754795 0.975589
Si Si2 0.224555 0.285612 0.812097
Si Si3 0.371737 0.926549 0.678944
Si Si4 0.541732 0.891688 0.075753
Si Si5 0.193196 0.432605 0.308640
Si Si6 0.892026 0.825176 0.341157
O O1 0.868112 0.787675 0.861921
O O2 0.000475 0.685213 0.933595
O O3 0.857326 0.739759 0.083008
O O4 0.051396 0.805277 0.026269
O O5 0.185538 0.359407 0.767652
O O6 0.200973 0.234660 0.702191
O O7 0.500000 0.944098 0.750000
O O8 0.393360 0.918053 0.539564
O O9 0.278100 0.988260 0.700908
O O10 0.645730 0.899953 0.183339
O O11 0.415267 0.930886 0.096735
O O12 0.316595 0.393636 0.355387
O O13 0.000000 0.837271 0.250000
#
# Coordination Sequence:
#
# PCOD8137422 Si02
#       6
#     8   8   8   8   8   8
#     4   9  17  32  57  79 107 148 183 233 277 329
#     4   9  17  32  55  81 108 141 190 235 268 328
#     4  11  21  35  58  86 111 151 193 238 285 335
#     4  10  20  37  58  83 117 146 188 238 292 332
#     4  11  22  35  58  86 116 151 184 241 291 331
#     4  10  20  36  58  85 110 150 198 228 282 345
#
# _framework density 19.899305999999999
#
# number of rings (size 3 to 8) (size 9 to 14) (size 15 to 20)
#    0.000    2.000    3.333    3.000    2.333    0.667 
#    0.000    0.833    0.000    0.000    0.000    0.000 
#    0.000    0.000    0.000    0.000    0.000    0.000 
#
# Total GULP energy -297574.051765 kJ/mol
# GULP energy per Si atom -12398.918824 kJ/mol
# Density = 1.985401 g / cm^3
# Si number density = 19.899306 Si / 1000 Ang^3
#
#
#
# Elastic Constant Matrix: (Units=GPa)
#
#
# Indices 1 2 3 4 5 6 
#
# 1 62.6025 49.0495 28.0152 0.0000 31.6700 0.0000
# 2 49.0495 150.0945 23.7809 0.0000 22.1723 0.0000
# 3 28.0152 23.7809 49.9841 0.0000 17.8267 0.0000
# 4 0.0000 0.0000 0.0000 21.3283 0.0000 5.8683
# 5 31.6700 22.1723 17.8267 0.0000 29.8153 0.0000
# 6 0.0000 0.0000 0.0000 5.8683 0.0000 34.5008
#
#
#
# Elastic Compliance Matrix: (Units=1/GPa)
#
#
# Indices 1 2 3 4 5 6 
#
# 1 0.043865 -0.007737 -0.008057 0.000000 -0.036023 0.000000
# 2 -0.007737 0.009010 -0.000625 0.000000 0.001891 0.000000
# 3 -0.008057 -0.000625 0.027456 0.000000 -0.007393 0.000000
# 4 0.000000 0.000000 0.000000 0.049188 0.000000 -0.008367
# 5 -0.036023 0.001891 -0.007393 0.000000 0.074817 0.000000
# 6 0.000000 0.000000 0.000000 -0.008367 0.000000 0.030408
#
#
# Mechanical properties :
#
#
# Convention : Reuss Voigt Hill
#
# Bulk Modulus (GPa) = 21.05538 51.59693 36.32615
# Shear Modulus (GPa) = 17.64205 27.91791 22.77998
#
# Velocity S-wave (km/s) = 2.98076 3.74967 3.38710
# Velocity P-wave (km/s) = 4.73819 6.68820 5.79580
#
# Compressibility (1/GPa) = 0.04749381
#
# Stress axis : x y z
#
# Youngs Moduli (GPa) = 22.79742 110.98262 36.42142
#
# Poissons Ratio (x) = 0.85863 0.29345
# Poissons Ratio (y) = 0.17638 0.02277
# Poissons Ratio (z) = 0.18368 0.06937
#
# Static dielectric constant tensor:
#      x y z
#    x 3.390800 0.000000 0.300640 
#    y 0.000000 3.754610 0.000000 
#    z 0.300640 0.000000 3.630310 
# 
# 
# High freq. dielectric constant tensor:
#      x y z
#    x 1.739900 0.000000 0.019790 
#    y 0.000000 1.780360 0.000000 
#    z 0.019790 0.000000 1.768850 
# 
# From -- ./inp_files/87257.got.cif
#   From: 2010.06.25/outbox.cif.g09.slc.cpg/sg15_44_cif.got.tgz:87257.got - 2010.06.28 07:06:18.
