data_PCOD8137551
_publ_section_title
;
Structure prediction by ZEFSAII (Michael W. Deem and Ramdas Pophale) SiO2 
 PCOD8137551
Probable space group: C 2/C
;
_chemical_formula_sum "Si O2"
_cell_formula_units_Z 60
_cell_length_a 19.003063
_cell_length_b 30.421490
_cell_length_c 5.138518
_cell_angle_alpha 90.000000
_cell_angle_beta 69.229691
_cell_angle_gamma 90.000000
_cell_volume 2777.525324
_symmetry_space_group_name_H-M "C 2/C"
_symmetry_group_IT_number 15
_symmetry_cell_setting 'monoclinic'
loop_
_space_group_symop_operation_xyz
x,y,z
-x,y,1/2-z
-x,-y,-z
x,-y,1/2+z
1/2+x,1/2+y,z
1/2-x,1/2+y,1/2-z
1/2-x,1/2-y,-z
1/2+x,1/2-y,1/2+z
loop_
_atom_site_type_symbol
_atom_site_label
_atom_site_fract_x
_atom_site_fract_y
_atom_site_fract_z
Si Si1 0.087344 0.116260 0.183091
Si Si2 0.876247 0.375668 0.298955
Si Si3 0.363701 0.666305 0.879832
Si Si4 0.690318 0.164398 0.090225
Si Si5 0.652215 0.027469 0.610267
Si Si6 0.000000 0.316668 0.250000
Si Si7 0.827982 0.972599 0.896656
Si Si8 0.919648 0.737657 0.228284
O O1 0.097678 0.151044 0.403064
O O2 0.125064 0.071050 0.221157
O O3 0.000000 0.108508 0.250000
O O4 0.125625 0.131870 0.865908
O O5 0.847591 0.359821 0.617662
O O6 0.893253 0.427459 0.293169
O O7 0.953878 0.350054 0.119678
O O8 0.814570 0.367220 0.154769
O O9 0.402810 0.711194 0.737960
O O10 0.276234 0.674391 0.047014
O O11 0.650116 0.210441 0.059834
O O12 0.740416 0.039405 0.497213
O O13 0.629605 0.006096 0.366543
O O14 0.933115 0.284211 0.430333
O O15 0.849810 0.007886 0.647797
O O16 0.000000 0.727543 0.250000
#
# Coordination Sequence:
#
# PCOD8137551 Si02
#       8
#     8   8   8   8   8   4   8   8
#     4  12  26  44  62  96 129 170 213 256 330 380
#     4  11  22  41  66  91 132 163 214 263 310 383
#     4  12  26  41  66  92 132 167 212 269 318 375
#     4  11  23  41  65  95 122 170 217 265 313 371
#     4  10  20  36  59  92 122 162 205 256 319 371
#     4  10  24  42  64  94 122 176 212 254 322 380
#     4  10  21  38  64  89 123 163 210 259 308 374
#     4  11  23  42  64  92 129 166 217 260 321 382
#
# _framework density 21.601963999999999
#
# number of rings (size 3 to 8) (size 9 to 14) (size 15 to 20)
#    0.000    1.067    1.333    5.600    2.800    2.667 
#    0.000    4.000    0.000    0.000    0.000    0.000 
#    0.000    0.000    0.000    0.000    0.000    0.000 
#
# Total GULP energy -371968.570259 kJ/mol
# GULP energy per Si atom -12398.952342 kJ/mol
# Density = 2.155280 g / cm^3
# Si number density = 21.601964 Si / 1000 Ang^3
#
#
#
# Elastic Constant Matrix: (Units=GPa)
#
#
# Indices 1 2 3 4 5 6 
#
# 1 47.4796 21.6588 19.9332 0.0000 4.5664 0.0000
# 2 21.6588 120.3458 29.2400 0.0000 -9.1326 0.0000
# 3 19.9332 29.2400 80.0099 0.0000 12.2931 0.0000
# 4 0.0000 0.0000 0.0000 27.3078 0.0000 1.0930
# 5 4.5664 -9.1326 12.2931 0.0000 33.4571 0.0000
# 6 0.0000 0.0000 0.0000 1.0930 0.0000 30.9642
#
#
#
# Elastic Compliance Matrix: (Units=1/GPa)
#
#
# Indices 1 2 3 4 5 6 
#
# 1 0.024834 -0.003595 -0.004453 0.000000 -0.002735 0.000000
# 2 -0.003595 0.010156 -0.003516 0.000000 0.004555 0.000000
# 3 -0.004453 -0.003516 0.015841 0.000000 -0.006172 0.000000
# 4 0.000000 0.000000 0.000000 0.036671 0.000000 -0.001294
# 5 -0.002735 0.004555 -0.006172 0.000000 0.033773 0.000000
# 6 0.000000 0.000000 0.000000 -0.001294 0.000000 0.032341
#
#
# Mechanical properties :
#
#
# Convention : Reuss Voigt Hill
#
# Bulk Modulus (GPa) = 36.09629 43.27771 39.68700
# Shear Modulus (GPa) = 26.88466 30.14604 28.51535
#
# Velocity S-wave (km/s) = 3.53164 3.73972 3.63717
# Velocity P-wave (km/s) = 5.77720 6.22294 6.00421
#
# Compressibility (1/GPa) = 0.02770367
#
# Stress axis : x y z
#
# Youngs Moduli (GPa) = 40.26721 98.46144 63.12693
#
# Poissons Ratio (x) = 0.35397 0.28111
# Poissons Ratio (y) = 0.14476 0.22194
# Poissons Ratio (z) = 0.17931 0.34617
#
# Static dielectric constant tensor:
#      x y z
#    x 3.964270 0.000000 -0.004640 
#    y 0.000000 3.847470 0.000000 
#    z -0.004640 0.000000 3.942920 
# 
# 
# High freq. dielectric constant tensor:
#      x y z
#    x 1.849430 0.000000 0.006120 
#    y 0.000000 1.857590 0.000000 
#    z 0.006120 0.000000 1.846200 
# 
# From -- ./inp_files/14391.got.cif
#   From: 2010.06.25/outbox.cif.g09.slc.cpg/sg15_8_cif.got.tgz:14391.got - 2010.06.28 07:06:18.
