data_PCOD8137092
_publ_section_title
;
Structure prediction by ZEFSAII (Michael W. Deem and Ramdas Pophale) SiO2 
 PCOD8137092
Probable space group: C 2/C
;
_chemical_formula_sum "Si O2"
_cell_formula_units_Z 40
_cell_length_a 18.071593
_cell_length_b 13.988694
_cell_length_c 8.523010
_cell_angle_alpha 90.000000
_cell_angle_beta 117.502686
_cell_angle_gamma 90.000000
_cell_volume 1911.106678
_symmetry_space_group_name_H-M "C 2/C"
_symmetry_group_IT_number 15
_symmetry_cell_setting 'monoclinic'
loop_
_space_group_symop_operation_xyz
x,y,z
-x,y,1/2-z
-x,-y,-z
x,-y,1/2+z
1/2+x,1/2+y,z
1/2-x,1/2+y,1/2-z
1/2-x,1/2-y,-z
1/2+x,1/2-y,1/2+z
loop_
_atom_site_type_symbol
_atom_site_label
_atom_site_fract_x
_atom_site_fract_y
_atom_site_fract_z
Si Si1 0.894396 0.420527 0.870488
Si Si2 0.727140 0.413695 0.851389
Si Si3 0.000000 0.355590 0.250000
Si Si4 0.783178 0.588853 0.746724
Si Si5 0.389996 0.258965 0.870832
Si Si6 0.000000 0.701237 0.250000
O O1 0.810211 0.368674 0.852100
O O2 0.868973 0.528427 0.792130
O O3 0.928207 0.364744 0.753423
O O4 0.962444 0.423531 0.076943
O O5 0.726901 0.528668 0.815954
O O6 0.645017 0.364336 0.699485
O O7 0.728504 0.395844 0.037905
O O8 0.930164 0.285242 0.253455
O O9 0.812322 0.690247 0.844984
O O10 0.457469 0.267754 0.076506
#
# Coordination Sequence:
#
# PCOD8137092 Si02
#       6
#     8   8   4   8   8   4
#     4   9  21  35  53  88 117 152 181 231 287 336
#     4  10  22  39  57  86 114 152 197 225 284 336
#     4  10  20  35  60  89 122 146 182 233 292 345
#     4  10  20  37  58  89 111 151 189 235 276 335
#     4  11  21  38  61  86 115 151 187 237 285 342
#     4  10  22  35  54  89 120 148 182 239 296 337
#
# _framework density 20.930281000000001
#
# number of rings (size 3 to 8) (size 9 to 14) (size 15 to 20)
#    1.200    0.800    2.000    1.800    0.000    5.600 
#    0.000    0.000    0.000    3.600    0.000    0.000 
#    0.000    0.000    0.000    0.000    0.000    0.000 
#
# Total GULP energy -247915.258628 kJ/mol
# GULP energy per Si atom -12395.762931 kJ/mol
# Density = 2.088264 g / cm^3
# Si number density = 20.930281 Si / 1000 Ang^3
#
#
#
# Elastic Constant Matrix: (Units=GPa)
#
#
# Indices 1 2 3 4 5 6 
#
# 1 21.4426 7.8450 9.6136 0.0000 2.1326 0.0000
# 2 7.8450 57.7239 19.2924 0.0000 14.7308 0.0000
# 3 9.6136 19.2924 109.8360 0.0000 7.2320 0.0000
# 4 0.0000 0.0000 0.0000 33.9763 0.0000 10.6421
# 5 2.1326 14.7308 7.2320 0.0000 23.5364 0.0000
# 6 0.0000 0.0000 0.0000 10.6421 0.0000 15.5068
#
#
#
# Elastic Compliance Matrix: (Units=1/GPa)
#
#
# Indices 1 2 3 4 5 6 
#
# 1 0.050242 -0.005709 -0.003399 0.000000 0.000065 0.000000
# 2 -0.005709 0.022164 -0.002566 0.000000 -0.012566 0.000000
# 3 -0.003399 -0.002566 0.009928 0.000000 -0.001136 0.000000
# 4 0.000000 0.000000 0.000000 0.037491 0.000000 -0.025730
# 5 0.000065 -0.012566 -0.001136 0.000000 0.050696 0.000000
# 6 0.000000 0.000000 0.000000 -0.025730 0.000000 0.082146
#
#
# Mechanical properties :
#
#
# Convention : Reuss Voigt Hill
#
# Bulk Modulus (GPa) = 16.95308 29.16717 23.06012
# Shear Modulus (GPa) = 16.91036 24.75398 20.83217
#
# Velocity S-wave (km/s) = 2.84551 3.44275 3.15828
# Velocity P-wave (km/s) = 4.34894 5.45610 4.93368
#
# Compressibility (1/GPa) = 0.05898633
#
# Stress axis : x y z
#
# Youngs Moduli (GPa) = 19.90354 45.11802 100.72994
#
# Poissons Ratio (x) = 0.25757 0.34239
# Poissons Ratio (y) = 0.11362 0.25847
# Poissons Ratio (z) = 0.06765 0.11577
#
# Static dielectric constant tensor:
#      x y z
#    x 3.574670 0.000000 -0.024640 
#    y 0.000000 3.316820 0.000000 
#    z -0.024640 0.000000 3.681170 
# 
# 
# High freq. dielectric constant tensor:
#      x y z
#    x 1.793560 0.000000 -0.002570 
#    y 0.000000 1.778410 0.000000 
#    z -0.002570 0.000000 1.829940 
# 
# From -- ./inp_files/55059.got.cif
#   From: 2010.06.25/outbox.cif.g09.slc.cpg/sg15_28_cif.got.tgz:55059.got - 2010.06.28 07:06:18.
