data_PCOD8137463
_publ_section_title
;
Structure prediction by ZEFSAII (Michael W. Deem and Ramdas Pophale) SiO2 
 PCOD8137463
Probable space group: C 2/C
;
_chemical_formula_sum "Si O2"
_cell_formula_units_Z 60
_cell_length_a 11.163559
_cell_length_b 22.664079
_cell_length_c 16.936435
_cell_angle_alpha 90.000000
_cell_angle_beta 42.412387
_cell_angle_gamma 90.000000
_cell_volume 2890.149091
_symmetry_space_group_name_H-M "C 2/C"
_symmetry_group_IT_number 15
_symmetry_cell_setting 'monoclinic'
loop_
_space_group_symop_operation_xyz
x,y,z
-x,y,1/2-z
-x,-y,-z
x,-y,1/2+z
1/2+x,1/2+y,z
1/2-x,1/2+y,1/2-z
1/2-x,1/2-y,-z
1/2+x,1/2-y,1/2+z
loop_
_atom_site_type_symbol
_atom_site_label
_atom_site_fract_x
_atom_site_fract_y
_atom_site_fract_z
Si Si1 0.446691 0.855440 0.104156
Si Si2 0.921362 0.200887 0.701851
Si Si3 0.522899 0.617889 0.957890
Si Si4 0.793855 0.181921 0.496010
Si Si5 0.856912 0.687173 0.144458
Si Si6 0.826592 0.410872 0.785219
Si Si7 0.648717 0.044509 0.743329
Si Si8 0.000000 0.185240 0.250000
O O1 0.290295 0.808414 0.192827
O O2 0.381433 0.921575 0.157970
O O3 0.600802 0.847100 0.094111
O O4 0.521340 0.844831 0.980186
O O5 0.014529 0.148014 0.608506
O O6 0.965687 0.263350 0.638790
O O7 0.000000 0.201293 0.750000
O O8 0.664187 0.565213 0.884384
O O9 0.600420 0.671161 0.974650
O O10 0.340340 0.590139 0.075194
O O11 0.750000 0.250000 0.500000
O O12 0.914172 0.151298 0.367304
O O13 0.793611 0.635191 0.232084
O O14 0.676910 0.718947 0.196981
O O15 0.844387 0.475618 0.738852
O O16 0.000000 0.392974 0.750000
O O17 0.500000 0.056758 0.750000
#
# Coordination Sequence:
#
# PCOD8137463 Si02
#       8
#     8   8   8   8   8   8   8   4
#     4  10  23  39  65  93 127 169 210 268 326 383
#     4  11  26  41  62  91 135 171 210 264 327 402
#     4  11  22  42  68  92 128 171 219 269 326 395
#     4  11  20  35  63  96 127 158 204 264 329 389
#     4  11  23  40  63  95 129 167 211 268 326 393
#     4  11  25  41  66  93 128 176 223 265 318 392
#     4  10  21  43  66  94 126 168 221 272 324 383
#     4  10  20  36  58  90 128 154 204 256 324 372
#
# _framework density 20.760173999999999
#
# number of rings (size 3 to 8) (size 9 to 14) (size 15 to 20)
#    0.000    1.333    2.667    3.200    3.733    2.133 
#    0.000    0.000    5.867    0.000    0.000    0.000 
#    0.000    0.000    0.000    0.000    0.000    0.000 
#
# Total GULP energy -371690.560922 kJ/mol
# GULP energy per Si atom -12389.685364 kJ/mol
# Density = 2.071292 g / cm^3
# Si number density = 20.760174 Si / 1000 Ang^3
#
#
#
# Elastic Constant Matrix: (Units=GPa)
#
#
# Indices 1 2 3 4 5 6 
#
# 1 102.0550 35.7015 39.9150 -0.0001 6.3578 0.0001
# 2 35.7015 89.7180 28.5058 -0.0002 3.3568 0.0001
# 3 39.9150 28.5058 123.6829 0.0005 -7.5355 -0.0001
# 4 -0.0001 -0.0002 0.0005 25.0760 -0.0002 1.3650
# 5 6.3578 3.3568 -7.5355 -0.0002 34.4259 0.0000
# 6 0.0001 0.0001 -0.0001 1.3650 0.0000 20.4880
#
#
#
# Elastic Compliance Matrix: (Units=1/GPa)
#
#
# Indices 1 2 3 4 5 6 
#
# 1 0.012626 -0.003860 -0.003349 0.000000 -0.002689 0.000000
# 2 -0.003860 0.013318 -0.001885 0.000000 -0.000998 0.000000
# 3 -0.003349 -0.001885 0.009780 0.000000 0.002943 0.000000
# 4 0.000000 0.000000 0.000000 0.040024 0.000000 -0.002667
# 5 -0.002689 -0.000998 0.002943 0.000000 0.030286 0.000000
# 6 0.000000 0.000000 0.000000 -0.002667 0.000000 0.048987
#
#
# Mechanical properties :
#
#
# Convention : Reuss Voigt Hill
#
# Bulk Modulus (GPa) = 57.02166 58.18894 57.60530
# Shear Modulus (GPa) = 27.92472 30.08691 29.00581
#
# Velocity S-wave (km/s) = 3.67155 3.81105 3.74195
# Velocity P-wave (km/s) = 6.74538 6.88879 6.81746
#
# Compressibility (1/GPa) = 0.01753719
#
# Stress axis : x y z
#
# Youngs Moduli (GPa) = 79.20063 75.08577 102.25314
#
# Poissons Ratio (x) = 0.28981 0.34244
# Poissons Ratio (y) = 0.30569 0.19272
# Poissons Ratio (z) = 0.26524 0.14151
#
# Static dielectric constant tensor:
#      x y z
#    x 3.780710 0.000000 -0.025740 
#    y 0.000000 3.511690 0.000000 
#    z -0.025740 0.000000 4.102250 
# 
# 
# High freq. dielectric constant tensor:
#      x y z
#    x 1.813290 0.000000 -0.003570 
#    y 0.000000 1.786780 0.000000 
#    z -0.003570 0.000000 1.831430 
# 
# From -- ./inp_files/148091.got.cif
#   From: 2010.06.25/outbox.cif.g09.slc.cpg/sg15_75_cif.got.tgz:148091.got - 2010.06.28 07:06:18.
