data_PCOD8137055
_publ_section_title
;
Structure prediction by ZEFSAII (Michael W. Deem and Ramdas Pophale) SiO2 
 PCOD8137055
Probable space group: C 2/C
;
_chemical_formula_sum "Si O2"
_cell_formula_units_Z 60
_cell_length_a 16.536086
_cell_length_b 12.588748
_cell_length_c 21.249345
_cell_angle_alpha 90.000000
_cell_angle_beta 38.684751
_cell_angle_gamma 90.000000
_cell_volume 2764.808754
_symmetry_space_group_name_H-M "C 2/C"
_symmetry_group_IT_number 15
_symmetry_cell_setting 'monoclinic'
loop_
_space_group_symop_operation_xyz
x,y,z
-x,y,1/2-z
-x,-y,-z
x,-y,1/2+z
1/2+x,1/2+y,z
1/2-x,1/2+y,1/2-z
1/2-x,1/2-y,-z
1/2+x,1/2-y,1/2+z
loop_
_atom_site_type_symbol
_atom_site_label
_atom_site_fract_x
_atom_site_fract_y
_atom_site_fract_z
Si Si1 0.456830 0.609488 0.907335
Si Si2 0.159245 0.312338 0.971552
Si Si3 0.352565 0.615552 0.445901
Si Si4 0.891080 0.187658 0.237782
Si Si5 0.768014 0.183946 0.119245
Si Si6 0.500000 0.273572 0.250000
Si Si7 0.621494 0.145927 0.854226
Si Si8 0.689280 0.513210 0.307445
O O1 0.367016 0.507130 0.952109
O O2 0.493443 0.654334 0.816612
O O3 0.584983 0.583771 0.871631
O O4 0.372042 0.692108 0.999430
O O5 0.208771 0.367154 0.005872
O O6 0.271805 0.335152 0.854424
O O7 0.135118 0.186633 0.997794
O O8 0.025265 0.366498 0.030629
O O9 0.461099 0.661648 0.329071
O O10 0.882991 0.305177 0.213647
O O11 0.882020 0.104848 0.186592
O O12 0.624973 0.198167 0.178026
O O13 0.793765 0.281468 0.150893
O O14 0.775753 0.066350 0.146626
O O15 0.684059 0.029819 0.806447
#
# Coordination Sequence:
#
# PCOD8137055 Si02
#       8
#     8   8   8   8   8   4   8   8
#     4  11  24  43  72  93 131 184 227 269 337 422
#     4  10  20  35  59  88 129 158 210 280 329 388
#     4   9  21  37  57  94 117 169 219 259 332 401
#     4   9  20  35  59  87 123 162 210 271 321 392
#     4  11  25  43  67  99 132 178 230 276 340 400
#     4  12  26  46  68 100 144 174 222 292 336 392
#     4  10  22  38  58  93 125 165 218 271 335 381
#     4  10  22  41  65  95 128 174 224 275 327 406
#
# _framework density 21.701321
#
# number of rings (size 3 to 8) (size 9 to 14) (size 15 to 20)
#    0.000    1.867    1.333    2.000    7.467    1.600 
#    0.000    0.000    0.000    0.000    0.000    0.000 
#    0.000    0.000    0.000    0.000    0.000    0.000 
#
# Total GULP energy -371804.429759 kJ/mol
# GULP energy per Si atom -12393.480992 kJ/mol
# Density = 2.165193 g / cm^3
# Si number density = 21.701321 Si / 1000 Ang^3
#
#
#
# Elastic Constant Matrix: (Units=GPa)
#
#
# Indices 1 2 3 4 5 6 
#
# 1 92.2831 22.3788 30.1200 0.0000 -27.0912 0.0000
# 2 22.3788 60.2077 18.3339 0.0000 -1.2627 0.0000
# 3 30.1200 18.3339 99.9904 -0.0001 -11.5482 0.0000
# 4 0.0000 0.0000 -0.0001 31.7304 0.0000 -9.0036
# 5 -27.0912 -1.2627 -11.5482 0.0000 38.4811 0.0000
# 6 0.0000 0.0000 0.0000 -9.0036 0.0000 22.4659
#
#
#
# Elastic Compliance Matrix: (Units=1/GPa)
#
#
# Indices 1 2 3 4 5 6 
#
# 1 0.015905 -0.004870 -0.002718 0.000000 0.010222 0.000000
# 2 -0.004870 0.019089 -0.002441 0.000000 -0.003535 0.000000
# 3 -0.002718 -0.002441 0.011433 0.000000 0.001438 0.000000
# 4 0.000000 0.000000 0.000000 0.035559 0.000000 0.014251
# 5 0.010222 -0.003535 0.001438 0.000000 0.033499 0.000000
# 6 0.000000 0.000000 0.000000 0.014251 0.000000 0.050223
#
#
# Mechanical properties :
#
#
# Convention : Reuss Voigt Hill
#
# Bulk Modulus (GPa) = 37.92284 43.79407 40.85845
# Shear Modulus (GPa) = 25.69962 30.64537 28.17249
#
# Velocity S-wave (km/s) = 3.44502 3.76193 3.60695
# Velocity P-wave (km/s) = 5.77382 6.25249 6.01792
#
# Compressibility (1/GPa) = 0.02636933
#
# Stress axis : x y z
#
# Youngs Moduli (GPa) = 62.87340 52.38744 87.46417
#
# Poissons Ratio (x) = 0.25512 0.23769
# Poissons Ratio (y) = 0.30619 0.21353
# Poissons Ratio (z) = 0.17086 0.12789
#
# Static dielectric constant tensor:
#      x y z
#    x 4.025850 0.000000 -0.204270 
#    y 0.000000 3.691770 0.000000 
#    z -0.204270 0.000000 3.846410 
# 
# 
# High freq. dielectric constant tensor:
#      x y z
#    x 1.853120 0.000000 -0.017510 
#    y 0.000000 1.831000 0.000000 
#    z -0.017510 0.000000 1.855340 
# 
# From -- ./inp_files/248740.got.cif
#   From: 2010.06.25/outbox.cif.g09.slc.cpg/sg15_125_cif.got.tgz:248740.got - 2010.06.28 07:06:18.
