data_PCOD8137848
_publ_section_title
;
Structure prediction by ZEFSAII (Michael W. Deem and Ramdas Pophale) SiO2 
 PCOD8137848
Probable space group: C 2/C
;
_chemical_formula_sum "Si O2"
_cell_formula_units_Z 56
_cell_length_a 8.358023
_cell_length_b 11.928831
_cell_length_c 26.480318
_cell_angle_alpha 90.000000
_cell_angle_beta 79.815973
_cell_angle_gamma 90.000000
_cell_volume 2598.530590
_symmetry_space_group_name_H-M "C 2/C"
_symmetry_group_IT_number 15
_symmetry_cell_setting 'monoclinic'
loop_
_space_group_symop_operation_xyz
x,y,z
-x,y,1/2-z
-x,-y,-z
x,-y,1/2+z
1/2+x,1/2+y,z
1/2-x,1/2+y,1/2-z
1/2-x,1/2-y,-z
1/2+x,1/2-y,1/2+z
loop_
_atom_site_type_symbol
_atom_site_label
_atom_site_fract_x
_atom_site_fract_y
_atom_site_fract_z
Si Si1 0.500000 0.395573 0.750000
Si Si2 0.797736 0.005225 0.417699
Si Si3 0.815967 0.485017 0.688058
Si Si4 0.000000 0.328825 0.750000
Si Si5 0.174277 0.262448 0.311502
Si Si6 0.615015 0.464678 0.948549
Si Si7 0.668469 0.133387 0.518406
Si Si8 0.170651 0.275242 0.426831
O O1 0.649750 0.474648 0.728393
O O2 0.460993 0.316246 0.705107
O O3 0.716546 0.039949 0.369218
O O4 0.681608 0.057774 0.467351
O O5 0.987920 0.044535 0.408550
O O6 0.809439 0.869580 0.425005
O O7 0.881843 0.609777 0.692285
O O8 0.950832 0.402574 0.703765
O O9 0.149500 0.252705 0.724053
O O10 0.173191 0.230810 0.369831
O O11 0.750045 0.563317 0.939103
O O12 0.695745 0.341895 0.955824
O O13 0.500000 0.500000 0.000000
O O14 0.750000 0.250000 0.500000
O O15 0.489350 0.158558 0.547059
#
# Coordination Sequence:
#
# PCOD8137848 Si02
#       8
#     4   8   8   4   8   8   8   8
#     4  10  20  36  64  84 118 158 190 252 310 358
#     4  10  22  40  61  89 121 163 208 252 304 363
#     4  10  21  40  61  88 122 152 201 249 305 367
#     4  10  22  42  64  88 124 156 192 256 312 370
#     4  10  22  39  61  92 118 155 204 248 305 367
#     4  10  21  40  58  84 124 162 203 247 296 350
#     4  11  22  41  61  85 127 166 205 250 302 360
#     4  11  22  40  61  90 124 160 211 252 299 366
#
# _framework density 21.550640999999999
#
# number of rings (size 3 to 8) (size 9 to 14) (size 15 to 20)
#    0.000    1.714    2.857    2.143    0.000    4.571 
#    7.714    1.429    0.000    0.000    0.000    0.000 
#    0.000    0.000    0.000    0.000    0.000    0.000 
#
# Total GULP energy -346987.914032 kJ/mol
# GULP energy per Si atom -12392.425501 kJ/mol
# Density = 2.150159 g / cm^3
# Si number density = 21.550641 Si / 1000 Ang^3
#
#
#
# Elastic Constant Matrix: (Units=GPa)
#
#
# Indices 1 2 3 4 5 6 
#
# 1 51.3695 12.0517 2.1837 0.0000 7.9721 0.0000
# 2 12.0517 117.8194 23.2359 0.0000 7.6723 0.0000
# 3 2.1837 23.2359 83.6867 0.0000 15.5688 0.0000
# 4 0.0000 0.0000 0.0000 18.7577 0.0000 -6.2452
# 5 7.9721 7.6723 15.5688 0.0000 31.2123 0.0000
# 6 0.0000 0.0000 0.0000 -6.2452 0.0000 11.8461
#
#
#
# Elastic Compliance Matrix: (Units=1/GPa)
#
#
# Indices 1 2 3 4 5 6 
#
# 1 0.020709 -0.001969 0.000992 0.000000 -0.005300 0.000000
# 2 -0.001969 0.009198 -0.002398 0.000000 -0.000562 0.000000
# 3 0.000992 -0.002398 0.013808 0.000000 -0.006552 0.000000
# 4 0.000000 0.000000 0.000000 0.064661 0.000000 0.034089
# 5 -0.005300 -0.000562 -0.006552 0.000000 0.036799 0.000000
# 6 0.000000 0.000000 0.000000 0.034089 0.000000 0.102387
#
#
# Mechanical properties :
#
#
# Convention : Reuss Voigt Hill
#
# Bulk Modulus (GPa) = 27.05144 36.42423 31.73783
# Shear Modulus (GPa) = 18.75233 26.72350 22.73791
#
# Velocity S-wave (km/s) = 2.95303 3.52523 3.25174
# Velocity P-wave (km/s) = 4.92006 5.78861 5.37192
#
# Compressibility (1/GPa) = 0.03696661
#
# Stress axis : x y z
#
# Youngs Moduli (GPa) = 48.28786 108.71346 72.42130
#
# Poissons Ratio (x) = 0.21404 -0.07187
# Poissons Ratio (y) = 0.09507 0.17367
# Poissons Ratio (z) = -0.04792 0.26070
#
# Static dielectric constant tensor:
#      x y z
#    x 5.017840 0.000000 0.268390 
#    y 0.000000 4.224050 0.000000 
#    z 0.268390 0.000000 3.974790 
# 
# 
# High freq. dielectric constant tensor:
#      x y z
#    x 1.834900 0.000000 0.002500 
#    y 0.000000 1.863640 0.000000 
#    z 0.002500 0.000000 1.841100 
# 
# From -- ./inp_files/287996.got.cif
#   From: 2010.06.25/outbox.cif.g09.slc.cpg/sg15_144_cif.got.tgz:287996.got - 2010.06.28 07:06:18.
