data_PCOD8137943
_publ_section_title
;
Structure prediction by ZEFSAII (Michael W. Deem and Ramdas Pophale) SiO2 
 PCOD8137943
Probable space group: C 2/C
;
_chemical_formula_sum "Si O2"
_cell_formula_units_Z 52
_cell_length_a 13.137756
_cell_length_b 24.923762
_cell_length_c 11.404461
_cell_angle_alpha 90.000000
_cell_angle_beta 135.183103
_cell_angle_gamma 90.000000
_cell_volume 2632.098952
_symmetry_space_group_name_H-M "C 2/C"
_symmetry_group_IT_number 15
_symmetry_cell_setting 'monoclinic'
loop_
_space_group_symop_operation_xyz
x,y,z
-x,y,1/2-z
-x,-y,-z
x,-y,1/2+z
1/2+x,1/2+y,z
1/2-x,1/2+y,1/2-z
1/2-x,1/2-y,-z
1/2+x,1/2-y,1/2+z
loop_
_atom_site_type_symbol
_atom_site_label
_atom_site_fract_x
_atom_site_fract_y
_atom_site_fract_z
Si Si1 0.732210 0.537714 0.962806
Si Si2 0.000916 0.351384 0.004818
Si Si3 0.201948 0.142381 0.628298
Si Si4 0.398690 0.253902 0.557956
Si Si5 0.642698 0.077469 0.932298
Si Si6 0.500000 0.889776 0.750000
Si Si7 0.464214 0.447689 0.400121
O O1 0.687262 0.545746 0.791844
O O2 0.602279 0.562122 0.932402
O O3 0.752321 0.473576 0.986547
O O4 0.871084 0.570786 0.111674
O O5 0.173116 0.356128 0.169786
O O6 0.946095 0.297158 0.020654
O O7 0.907618 0.401433 0.980839
O O8 0.971592 0.352034 0.840455
O O9 0.116317 0.198022 0.547335
O O10 0.279733 0.126839 0.569860
O O11 0.068684 0.102381 0.543771
O O12 0.500000 0.266699 0.750000
O O13 0.250000 0.250000 0.500000
O O14 0.500000 0.058589 0.750000
O O15 0.500000 0.500000 0.500000
#
# Coordination Sequence:
#
# PCOD8137943 Si02
#       7
#     8   8   8   8   8   4   8
#     4  11  24  40  62  98 134 184 224 268 331 404
#     4  11  24  43  67 101 134 177 227 274 336 402
#     4  11  22  43  68 100 136 171 216 292 344 397
#     4  12  23  43  74 102 127 165 223 294 346 386
#     4  10  20  36  68  98 130 170 224 277 335 390
#     4  12  26  44  68  92 142 190 228 264 322 414
#     4  11  24  41  62  95 143 173 219 277 338 399
#
# _framework density 19.756097
#
# number of rings (size 3 to 8) (size 9 to 14) (size 15 to 20)
#    0.000    0.923    6.923    0.462    2.154    3.077 
#    0.000    2.308    0.000    0.000    0.000    0.000 
#    0.000    0.000    0.000    0.000    0.000    0.000 
#
# Total GULP energy -322205.984887 kJ/mol
# GULP energy per Si atom -12392.537880 kJ/mol
# Density = 1.971113 g / cm^3
# Si number density = 19.756097 Si / 1000 Ang^3
#
#
#
# Elastic Constant Matrix: (Units=GPa)
#
#
# Indices 1 2 3 4 5 6 
#
# 1 94.6088 50.3691 52.0422 0.0000 -3.3700 0.0000
# 2 50.3691 116.4416 43.2544 0.0000 5.1737 0.0000
# 3 52.0422 43.2544 121.8946 0.0000 -0.6540 0.0000
# 4 0.0000 0.0000 0.0000 28.5870 0.0000 6.3268
# 5 -3.3700 5.1737 -0.6540 0.0000 37.7031 0.0000
# 6 0.0000 0.0000 0.0000 6.3268 0.0000 32.3235
#
#
#
# Elastic Compliance Matrix: (Units=1/GPa)
#
#
# Indices 1 2 3 4 5 6 
#
# 1 0.016206 -0.005225 -0.005054 0.000000 0.002078 0.000000
# 2 -0.005225 0.011653 -0.001916 0.000000 -0.002099 0.000000
# 3 -0.005054 -0.001916 0.011041 0.000000 0.000003 0.000000
# 4 0.000000 0.000000 0.000000 0.036565 0.000000 -0.007157
# 5 0.002078 -0.002099 0.000003 0.000000 0.026997 0.000000
# 6 0.000000 0.000000 0.000000 -0.007157 0.000000 0.032338
#
#
# Mechanical properties :
#
#
# Convention : Reuss Voigt Hill
#
# Bulk Modulus (GPa) = 68.91178 69.36405 69.13792
# Shear Modulus (GPa) = 30.48316 32.20802 31.34559
#
# Velocity S-wave (km/s) = 3.93233 4.04206 3.98757
# Velocity P-wave (km/s) = 7.45484 7.54789 7.50151
#
# Compressibility (1/GPa) = 0.01451131
#
# Stress axis : x y z
#
# Youngs Moduli (GPa) = 61.70739 85.81441 90.57027
#
# Poissons Ratio (x) = 0.44839 0.45770
# Poissons Ratio (y) = 0.32243 0.17349
# Poissons Ratio (z) = 0.31184 0.16438
#
# Static dielectric constant tensor:
#      x y z
#    x 5.085330 0.000000 -0.414860 
#    y 0.000000 3.032680 0.000000 
#    z -0.414860 0.000000 2.152830 
# 
# 
# High freq. dielectric constant tensor:
#      x y z
#    x 1.772540 0.000000 0.007880 
#    y 0.000000 1.767630 0.000000 
#    z 0.007880 0.000000 1.774670 
# 
# From -- ./inp_files/91305.got.cif
#   From: 2010.06.25/outbox.cif.g09.slc.cpg/sg15_46_cif.got.tgz:91305.got - 2010.06.28 07:06:18.
