data_PCOD8137938
_publ_section_title
;
Structure prediction by ZEFSAII (Michael W. Deem and Ramdas Pophale) SiO2 
 PCOD8137938
Probable space group: C 2/C
;
_chemical_formula_sum "Si O2"
_cell_formula_units_Z 60
_cell_length_a 11.780483
_cell_length_b 16.732858
_cell_length_c 15.281198
_cell_angle_alpha 90.000000
_cell_angle_beta 100.650090
_cell_angle_gamma 90.000000
_cell_volume 2960.358811
_symmetry_space_group_name_H-M "C 2/C"
_symmetry_group_IT_number 15
_symmetry_cell_setting 'monoclinic'
loop_
_space_group_symop_operation_xyz
x,y,z
-x,y,1/2-z
-x,-y,-z
x,-y,1/2+z
1/2+x,1/2+y,z
1/2-x,1/2+y,1/2-z
1/2-x,1/2-y,-z
1/2+x,1/2-y,1/2+z
loop_
_atom_site_type_symbol
_atom_site_label
_atom_site_fract_x
_atom_site_fract_y
_atom_site_fract_z
Si Si1 0.838572 0.371991 0.082957
Si Si2 0.500000 0.099170 0.750000
Si Si3 0.900043 0.825180 0.372730
Si Si4 0.653072 0.964607 0.720742
Si Si5 0.328642 0.062039 0.085212
Si Si6 0.121956 0.952863 0.280288
Si Si7 0.914313 0.932638 0.027222
Si Si8 0.950535 0.346525 0.922798
O O1 0.713067 0.336809 0.084043
O O2 0.837852 0.467592 0.066311
O O3 0.917079 0.347810 0.177796
O O4 0.895011 0.328107 0.008791
O O5 0.576091 0.043582 0.696428
O O6 0.885722 0.869040 0.276203
O O7 0.936861 0.733477 0.362918
O O8 0.005273 0.856743 0.446921
O O9 0.627462 0.921326 0.809355
O O10 0.632580 0.910059 0.635099
O O11 0.785117 0.990489 0.749922
O O12 0.419202 0.118229 0.045174
O O13 0.194852 0.087061 0.051010
O O14 0.146140 0.948709 0.387186
O O15 0.000000 0.997186 0.250000
O O16 0.000000 0.000000 0.000000
#
# Coordination Sequence:
#
# PCOD8137938 Si02
#       8
#     8   4   8   8   8   8   8   8
#     4  11  21  41  63  92 129 170 221 262 323 398
#     4  10  20  36  68  90 124 158 224 270 308 378
#     4  11  24  43  61  91 134 171 207 268 343 388
#     4  11  20  39  62  94 121 164 212 274 318 387
#     4  11  21  38  64  93 127 160 225 267 314 392
#     4  10  21  39  65  88 119 171 214 251 320 402
#     4  11  22  39  65  91 120 168 217 266 313 404
#     4  12  25  37  65  98 128 169 212 277 339 382
#
# _framework density 20.267813
#
# number of rings (size 3 to 8) (size 9 to 14) (size 15 to 20)
#    0.000    1.067    6.667    2.400    1.867    3.733 
#    0.000    1.333    1.467    0.000    0.000    0.000 
#    0.000    0.000    0.000    0.000    0.000    0.000 
#
# Total GULP energy -371748.538148 kJ/mol
# GULP energy per Si atom -12391.617938 kJ/mol
# Density = 2.022168 g / cm^3
# Si number density = 20.267813 Si / 1000 Ang^3
#
#
#
# Elastic Constant Matrix: (Units=GPa)
#
#
# Indices 1 2 3 4 5 6 
#
# 1 131.6997 29.8957 18.9617 0.0000 4.3215 0.0000
# 2 29.8957 70.4186 16.2451 0.0000 3.0332 0.0000
# 3 18.9617 16.2451 77.9971 0.0000 5.6514 0.0000
# 4 0.0000 0.0000 0.0000 19.3491 0.0000 3.3382
# 5 4.3215 3.0332 5.6514 0.0000 39.5951 0.0000
# 6 0.0000 0.0000 0.0000 3.3382 0.0000 25.4492
#
#
#
# Elastic Compliance Matrix: (Units=1/GPa)
#
#
# Indices 1 2 3 4 5 6 
#
# 1 0.008553 -0.003297 -0.001357 0.000000 -0.000487 0.000000
# 2 -0.003297 0.016208 -0.002537 0.000000 -0.000520 0.000000
# 3 -0.001357 -0.002537 0.013797 0.000000 -0.001627 0.000000
# 4 0.000000 0.000000 0.000000 0.052879 0.000000 -0.006936
# 5 -0.000487 -0.000520 -0.001627 0.000000 0.025581 0.000000
# 6 0.000000 0.000000 0.000000 -0.006936 0.000000 0.040204
#
#
# Mechanical properties :
#
#
# Convention : Reuss Voigt Hill
#
# Bulk Modulus (GPa) = 41.36270 45.59115 43.47693
# Shear Modulus (GPa) = 27.83010 31.21290 29.52150
#
# Velocity S-wave (km/s) = 3.70958 3.92857 3.82064
# Velocity P-wave (km/s) = 6.22899 6.56669 6.40007
#
# Compressibility (1/GPa) = 0.02417637
#
# Stress axis : x y z
#
# Youngs Moduli (GPa) = 116.92029 61.69779 72.47871
#
# Poissons Ratio (x) = 0.20341 0.09837
# Poissons Ratio (y) = 0.38548 0.18385
# Poissons Ratio (z) = 0.15869 0.15650
#
# Static dielectric constant tensor:
#      x y z
#    x 4.043450 0.000000 -0.029410 
#    y 0.000000 3.289110 0.000000 
#    z -0.029410 0.000000 3.773240 
# 
# 
# High freq. dielectric constant tensor:
#      x y z
#    x 1.817280 0.000000 -0.000360 
#    y 0.000000 1.745640 0.000000 
#    z -0.000360 0.000000 1.796520 
# 
# From -- ./inp_files/145668.got.cif
#   From: 2010.06.25/outbox.cif.g09.slc.cpg/sg15_73_cif.got.tgz:145668.got - 2010.06.28 07:06:18.
