data_PCOD8137583
_publ_section_title
;
Structure prediction by ZEFSAII (Michael W. Deem and Ramdas Pophale) SiO2 
 PCOD8137583
Probable space group: C 2/C
;
_chemical_formula_sum "Si O2"
_cell_formula_units_Z 48
_cell_length_a 12.385583
_cell_length_b 12.336359
_cell_length_c 16.771276
_cell_angle_alpha 90.000000
_cell_angle_beta 69.821396
_cell_angle_gamma 90.000000
_cell_volume 2405.250111
_symmetry_space_group_name_H-M "C 2/C"
_symmetry_group_IT_number 15
_symmetry_cell_setting 'monoclinic'
loop_
_space_group_symop_operation_xyz
x,y,z
-x,y,1/2-z
-x,-y,-z
x,-y,1/2+z
1/2+x,1/2+y,z
1/2-x,1/2+y,1/2-z
1/2-x,1/2-y,-z
1/2+x,1/2-y,1/2+z
loop_
_atom_site_type_symbol
_atom_site_label
_atom_site_fract_x
_atom_site_fract_y
_atom_site_fract_z
Si Si1 0.260732 0.047371 0.281183
Si Si2 0.112889 0.141940 0.185562
Si Si3 0.467642 0.829742 0.672189
Si Si4 0.702780 0.678503 0.872727
Si Si5 0.890228 0.962650 0.976347
Si Si6 0.781911 0.356727 0.942260
O O1 0.163531 0.064488 0.240631
O O2 0.384297 0.066674 0.207224
O O3 0.243130 0.134604 0.358607
O O4 0.253769 0.924569 0.312914
O O5 0.198554 0.235080 0.137449
O O6 0.073750 0.066719 0.121948
O O7 0.000000 0.198775 0.250000
O O8 0.500000 0.781395 0.750000
O O9 0.404482 0.730902 0.645311
O O10 0.578861 0.869074 0.592844
O O11 0.659114 0.644904 0.970392
O O12 0.786146 0.048464 0.995376
O O13 0.000000 0.000000 0.000000
O O14 0.750000 0.250000 0.000000
#
# Coordination Sequence:
#
# PCOD8137583 Si02
#       6
#     8   8   8   8   8   8
#     4   9  21  39  58  85 117 152 191 238 292 345
#     4  11  23  38  58  85 115 152 194 235 288 346
#     4   9  19  36  59  86 113 148 193 238 285 346
#     4  10  21  38  58  83 116 148 187 239 290 342
#     4  11  23  39  59  83 116 154 192 239 289 346
#     4  10  20  36  60  86 113 150 193 237 285 339
#
# _framework density 19.956344999999999
#
# number of rings (size 3 to 8) (size 9 to 14) (size 15 to 20)
#    0.000    2.000    0.000    3.500    0.000    9.333 
#    0.000    3.333    0.000    0.000    0.000    0.000 
#    0.000    0.000    0.000    0.000    0.000    0.000 
#
# Total GULP energy -297429.375175 kJ/mol
# GULP energy per Si atom -12392.890632 kJ/mol
# Density = 1.991092 g / cm^3
# Si number density = 19.956345 Si / 1000 Ang^3
#
#
#
# Elastic Constant Matrix: (Units=GPa)
#
#
# Indices 1 2 3 4 5 6 
#
# 1 125.2632 49.6152 61.8805 0.0000 -5.8937 0.0000
# 2 49.6152 88.5728 46.4790 0.0000 1.7551 0.0000
# 3 61.8805 46.4790 108.2208 0.0000 -6.4204 0.0000
# 4 0.0000 0.0000 0.0000 35.9727 0.0000 2.7070
# 5 -5.8937 1.7551 -6.4204 0.0000 43.7546 0.0000
# 6 0.0000 0.0000 0.0000 2.7070 0.0000 20.2533
#
#
#
# Elastic Compliance Matrix: (Units=1/GPa)
#
#
# Indices 1 2 3 4 5 6 
#
# 1 0.012222 -0.004174 -0.005133 0.000000 0.001060 0.000000
# 2 -0.004174 0.016101 -0.004640 0.000000 -0.001889 0.000000
# 3 -0.005133 -0.004640 0.014263 0.000000 0.001588 0.000000
# 4 0.000000 0.000000 0.000000 0.028081 0.000000 -0.003753
# 5 0.001060 -0.001889 0.001588 0.000000 0.023306 0.000000
# 6 0.000000 0.000000 0.000000 -0.003753 0.000000 0.049876
#
#
# Mechanical properties :
#
#
# Convention : Reuss Voigt Hill
#
# Bulk Modulus (GPa) = 68.07008 70.88958 69.47983
# Shear Modulus (GPa) = 28.30602 30.93491 29.62046
#
# Velocity S-wave (km/s) = 3.77025 3.94144 3.85679
# Velocity P-wave (km/s) = 7.28948 7.50418 7.39761
#
# Compressibility (1/GPa) = 0.01469074
#
# Stress axis : x y z
#
# Youngs Moduli (GPa) = 81.81957 62.10919 70.11322
#
# Poissons Ratio (x) = 0.25923 0.35990
# Poissons Ratio (y) = 0.34149 0.32536
# Poissons Ratio (z) = 0.41999 0.28822
#
# Static dielectric constant tensor:
#      x y z
#    x 3.833310 0.000000 -0.152070 
#    y 0.000000 3.418250 0.000000 
#    z -0.152070 0.000000 3.826550 
# 
# 
# High freq. dielectric constant tensor:
#      x y z
#    x 1.790320 0.000000 -0.009800 
#    y 0.000000 1.760500 0.000000 
#    z -0.009800 0.000000 1.790440 
# 
# From -- ./inp_files/196502.got.cif
#   From: 2010.06.25/outbox.cif.g09.slc.cpg/sg15_99_cif.got.tgz:196502.got - 2010.06.28 07:06:18.
