data_PCOD8137364
_publ_section_title
;
Structure prediction by ZEFSAII (Michael W. Deem and Ramdas Pophale) SiO2 
 PCOD8137364
Probable space group: C 2/C
;
_chemical_formula_sum "Si O2"
_cell_formula_units_Z 56
_cell_length_a 17.529960
_cell_length_b 9.297763
_cell_length_c 17.320730
_cell_angle_alpha 90.000000
_cell_angle_beta 88.075246
_cell_angle_gamma 90.000000
_cell_volume 2821.502829
_symmetry_space_group_name_H-M "C 2/C"
_symmetry_group_IT_number 15
_symmetry_cell_setting 'monoclinic'
loop_
_space_group_symop_operation_xyz
x,y,z
-x,y,1/2-z
-x,-y,-z
x,-y,1/2+z
1/2+x,1/2+y,z
1/2-x,1/2+y,1/2-z
1/2-x,1/2-y,-z
1/2+x,1/2-y,1/2+z
loop_
_atom_site_type_symbol
_atom_site_label
_atom_site_fract_x
_atom_site_fract_y
_atom_site_fract_z
Si Si1 0.918718 0.379308 0.946860
Si Si2 0.916106 0.723293 0.737998
Si Si3 0.733413 0.118743 0.385140
Si Si4 0.070791 0.495303 0.893937
Si Si5 0.726664 0.375603 0.793956
Si Si6 0.814653 0.608488 0.875048
Si Si7 0.208591 0.815286 0.076136
O O1 0.853836 0.500337 0.933460
O O2 0.881395 0.224388 0.928755
O O3 0.994447 0.397815 0.892257
O O4 0.939874 0.390020 0.036259
O O5 0.919113 0.582488 0.684635
O O6 0.865021 0.851329 0.703485
O O7 0.881135 0.671951 0.819685
O O8 0.000000 0.786828 0.750000
O O9 0.643747 0.105969 0.406717
O O10 0.740967 0.134970 0.292960
O O11 0.770767 0.262642 0.421211
O O12 0.780352 0.985815 0.419810
O O13 0.748910 0.529019 0.827813
O O14 0.760326 0.247059 0.844582
O O15 0.250000 0.750000 0.000000
#
# Coordination Sequence:
#
# PCOD8137364 Si02
#       7
#     8   8   8   8   8   8   8
#     4  10  22  36  59  86 115 155 198 245 288 365
#     4  11  19  35  59  83 111 158 192 241 302 358
#     4  11  20  36  60  84 119 154 192 254 291 353
#     4  11  20  37  58  84 118 151 199 238 297 348
#     4  10  20  36  57  87 115 152 201 238 293 362
#     4  10  21  35  57  87 113 147 200 241 292 351
#     4  11  20  39  62  88 118 160 202 240 299 361
#
# _framework density 19.847579
#
# number of rings (size 3 to 8) (size 9 to 14) (size 15 to 20)
#    0.000    1.429    5.714    0.857    0.000    0.571 
#    0.000    2.857    0.000    1.714    0.000    0.000 
#    0.000    0.000    0.000    0.000    0.000    0.000 
#
# Total GULP energy -347133.550557 kJ/mol
# GULP energy per Si atom -12397.626806 kJ/mol
# Density = 1.980240 g / cm^3
# Si number density = 19.847579 Si / 1000 Ang^3
#
#
#
# Elastic Constant Matrix: (Units=GPa)
#
#
# Indices 1 2 3 4 5 6 
#
# 1 145.1866 30.3707 -5.5651 0.0000 -12.3758 0.0000
# 2 30.3707 66.6233 -20.7117 0.0000 -7.3234 0.0000
# 3 -5.5651 -20.7117 41.1042 0.0000 -7.8544 0.0000
# 4 0.0000 0.0000 0.0000 20.0128 0.0000 2.0926
# 5 -12.3758 -7.3234 -7.8544 0.0000 26.3417 0.0000
# 6 0.0000 0.0000 0.0000 2.0926 0.0000 35.9100
#
#
#
# Elastic Compliance Matrix: (Units=1/GPa)
#
#
# Indices 1 2 3 4 5 6 
#
# 1 0.007804 -0.003280 -0.000074 0.000000 0.002732 0.000000
# 2 -0.003280 0.020962 0.011598 0.000000 0.007745 0.000000
# 3 -0.000074 0.011598 0.032631 0.000000 0.012919 0.000000
# 4 0.000000 0.000000 0.000000 0.050274 0.000000 -0.002930
# 5 0.002732 0.007745 0.012919 0.000000 0.045252 0.000000
# 6 0.000000 0.000000 0.000000 -0.002930 0.000000 0.028018
#
#
# Mechanical properties :
#
#
# Convention : Reuss Voigt Hill
#
# Bulk Modulus (GPa) = 12.83942 29.01134 20.92538
# Shear Modulus (GPa) = 25.71813 33.04090 29.37951
#
# Velocity S-wave (km/s) = 3.60360 4.08454 3.85158
# Velocity P-wave (km/s) = 4.87828 6.07399 5.50868
#
# Compressibility (1/GPa) = 0.07788515
#
# Stress axis : x y z
#
# Youngs Moduli (GPa) = 128.14078 47.70527 30.64544
#
# Poissons Ratio (x) = 0.15648 0.00227
# Poissons Ratio (y) = 0.42032 -0.35543
# Poissons Ratio (z) = 0.00950 -0.55330
#
# Static dielectric constant tensor:
#      x y z
#    x 3.964090 0.000000 0.040540 
#    y 0.000000 3.667140 0.000000 
#    z 0.040540 0.000000 3.629530 
# 
# 
# High freq. dielectric constant tensor:
#      x y z
#    x 1.776360 0.000000 0.003000 
#    y 0.000000 1.747260 0.000000 
#    z 0.003000 0.000000 1.783640 
# 
# From -- ./inp_files/246942.got.cif
#   From: 2010.06.25/outbox.cif.g09.slc.cpg/sg15_124_cif.got.tgz:246942.got - 2010.06.28 07:06:18.
