data_PCOD8137411
_publ_section_title
;
Structure prediction by ZEFSAII (Michael W. Deem and Ramdas Pophale) SiO2 
 PCOD8137411
Probable space group: C 2/C
;
_chemical_formula_sum "Si O2"
_cell_formula_units_Z 44
_cell_length_a 8.697275
_cell_length_b 10.842633
_cell_length_c 25.399367
_cell_angle_alpha 90.000000
_cell_angle_beta 120.689119
_cell_angle_gamma 90.000000
_cell_volume 2059.745947
_symmetry_space_group_name_H-M "C 2/C"
_symmetry_group_IT_number 15
_symmetry_cell_setting 'monoclinic'
loop_
_space_group_symop_operation_xyz
x,y,z
-x,y,1/2-z
-x,-y,-z
x,-y,1/2+z
1/2+x,1/2+y,z
1/2-x,1/2+y,1/2-z
1/2-x,1/2-y,-z
1/2+x,1/2-y,1/2+z
loop_
_atom_site_type_symbol
_atom_site_label
_atom_site_fract_x
_atom_site_fract_y
_atom_site_fract_z
Si Si1 0.715259 0.169464 0.333373
Si Si2 0.986423 0.115359 0.036211
Si Si3 0.819407 0.647957 0.287956
Si Si4 0.410837 0.113197 0.514101
Si Si5 0.000000 0.668490 0.750000
Si Si6 0.418777 0.912120 0.347202
O O1 0.525048 0.193079 0.327740
O O2 0.711310 0.096880 0.277048
O O3 0.779250 0.304812 0.329605
O O4 0.849782 0.098543 0.395274
O O5 0.994500 0.253458 0.011017
O O6 0.799770 0.110570 0.035445
O O7 0.000000 0.000000 0.000000
O O8 0.679556 0.750876 0.280318
O O9 0.801659 0.537189 0.327080
O O10 0.434722 0.092870 0.581000
O O11 0.500000 0.000000 0.500000
O O12 0.982785 0.589217 0.693080
#
# Coordination Sequence:
#
# PCOD8137411 Si02
#       6
#     8   8   8   8   4   8
#     4   9  20  38  56  85 119 149 193 244 293 356
#     4  10  21  40  63  87 120 160 203 250 298 350
#     4  10  20  36  58  83 115 149 190 240 299 355
#     4  10  23  41  61  89 124 159 202 249 296 357
#     4  10  22  36  60  90 112 150 198 242 296 354
#     4  10  21  39  60  85 118 153 191 244 298 350
#
# _framework density 21.361856
#
# number of rings (size 3 to 8) (size 9 to 14) (size 15 to 20)
#    0.000    2.182    0.000    2.182    0.000    9.455 
#    0.000   14.545    0.000    0.000    0.000    0.000 
#    0.000    0.000    0.000    0.000    0.000    0.000 
#
# Total GULP energy -272660.713441 kJ/mol
# GULP energy per Si atom -12393.668793 kJ/mol
# Density = 2.131324 g / cm^3
# Si number density = 21.361856 Si / 1000 Ang^3
#
#
#
# Elastic Constant Matrix: (Units=GPa)
#
#
# Indices 1 2 3 4 5 6 
#
# 1 87.4675 25.6140 56.4052 0.0000 14.3360 0.0000
# 2 25.6140 87.0642 33.1214 0.0000 -11.1000 0.0000
# 3 56.4052 33.1214 117.0905 0.0000 15.2497 0.0000
# 4 0.0000 0.0000 0.0000 37.2902 0.0000 -8.1654
# 5 14.3360 -11.1000 15.2497 0.0000 36.3336 0.0000
# 6 0.0000 0.0000 0.0000 -8.1654 0.0000 21.7042
#
#
#
# Elastic Compliance Matrix: (Units=1/GPa)
#
#
# Indices 1 2 3 4 5 6 
#
# 1 0.017680 -0.003196 -0.006957 0.000000 -0.005032 0.000000
# 2 -0.003196 0.014706 -0.003565 0.000000 0.007250 0.000000
# 3 -0.006957 -0.003565 0.013418 0.000000 -0.003976 0.000000
# 4 0.000000 0.000000 0.000000 0.029224 0.000000 0.010994
# 5 -0.005032 0.007250 -0.003976 0.000000 0.033392 0.000000
# 6 0.000000 0.000000 0.000000 0.010994 0.000000 0.050210
#
#
# Mechanical properties :
#
#
# Convention : Reuss Voigt Hill
#
# Bulk Modulus (GPa) = 54.44179 57.98928 56.21553
# Shear Modulus (GPa) = 26.01587 30.83104 28.42345
#
# Velocity S-wave (km/s) = 3.49358 3.80317 3.65166
# Velocity P-wave (km/s) = 6.46640 6.81840 6.64473
#
# Compressibility (1/GPa) = 0.01836824
#
# Stress axis : x y z
#
# Youngs Moduli (GPa) = 56.56011 67.99718 74.52646
#
# Poissons Ratio (x) = 0.21734 0.51852
# Poissons Ratio (y) = 0.18078 0.26565
# Poissons Ratio (z) = 0.39352 0.24238
#
# Static dielectric constant tensor:
#      x y z
#    x 3.692900 0.000000 0.128180 
#    y 0.000000 4.013020 0.000000 
#    z 0.128180 0.000000 4.216010 
# 
# 
# High freq. dielectric constant tensor:
#      x y z
#    x 1.824900 0.000000 0.017130 
#    y 0.000000 1.849600 0.000000 
#    z 0.017130 0.000000 1.841340 
# 
# From -- ./inp_files/230144.got.cif
#   From: 2010.06.25/outbox.cif.g09.slc.cpg/sg15_116_cif.got.tgz:230144.got - 2010.06.28 07:06:18.
