data_PCOD8137057
_publ_section_title
;
Structure prediction by ZEFSAII (Michael W. Deem and Ramdas Pophale) SiO2 
 PCOD8137057
Probable space group: C 2/C
;
_chemical_formula_sum "Si O2"
_cell_formula_units_Z 40
_cell_length_a 17.978146
_cell_length_b 6.089456
_cell_length_c 19.348793
_cell_angle_alpha 90.000000
_cell_angle_beta 79.091930
_cell_angle_gamma 90.000000
_cell_volume 2079.977908
_symmetry_space_group_name_H-M "C 2/C"
_symmetry_group_IT_number 15
_symmetry_cell_setting 'monoclinic'
loop_
_space_group_symop_operation_xyz
x,y,z
-x,y,1/2-z
-x,-y,-z
x,-y,1/2+z
1/2+x,1/2+y,z
1/2-x,1/2+y,1/2-z
1/2-x,1/2-y,-z
1/2+x,1/2-y,1/2+z
loop_
_atom_site_type_symbol
_atom_site_label
_atom_site_fract_x
_atom_site_fract_y
_atom_site_fract_z
Si Si1 0.524652 0.130861 0.577194
Si Si2 0.213347 0.939002 0.460777
Si Si3 0.029691 0.014455 0.668076
Si Si4 0.069497 0.243383 0.926704
Si Si5 0.148031 0.281625 0.577848
O O1 0.541733 0.259253 0.645557
O O2 0.530172 0.289759 0.509309
O O3 0.444413 0.998845 0.594034
O O4 0.589941 0.950645 0.553837
O O5 0.250000 0.750000 0.500000
O O6 0.158231 0.821879 0.414903
O O7 0.165885 0.100605 0.517420
O O8 0.277483 0.084452 0.410384
O O9 0.107120 0.156295 0.648948
O O10 0.000000 0.037790 0.750000
O O11 0.966821 0.088013 0.624171
#
# Coordination Sequence:
#
# PCOD8137057 Si02
#       5
#     8   8   8   8   8
#     4  10  20  35  59  90 116 146 201 254 293 350
#     4  11  20  35  60  93 121 150 190 248 309 356
#     4  11  23  39  59  85 119 160 204 250 305 360
#     4  10  21  34  61  89 115 152 197 252 299 351
#     4  10  21  35  61  89 119 149 194 243 300 362
#
# _framework density 19.230972999999999
#
# number of rings (size 3 to 8) (size 9 to 14) (size 15 to 20)
#    0.000    1.600    4.000    0.600    5.600    3.200 
#    0.000    0.000    8.800    0.000    0.000    0.000 
#    0.000    0.000    0.000    0.000    0.000    0.000 
#
# Total GULP energy -247835.498694 kJ/mol
# GULP energy per Si atom -12391.774935 kJ/mol
# Density = 1.918720 g / cm^3
# Si number density = 19.230973 Si / 1000 Ang^3
#
#
#
# Elastic Constant Matrix: (Units=GPa)
#
#
# Indices 1 2 3 4 5 6 
#
# 1 137.3052 67.4563 46.4751 0.0000 -6.5553 0.0000
# 2 67.4563 114.5668 50.0587 0.0000 -7.7573 0.0000
# 3 46.4751 50.0587 111.8117 0.0000 -14.7479 0.0000
# 4 0.0000 0.0000 0.0000 18.0447 0.0000 -2.4310
# 5 -6.5553 -7.7573 -14.7479 0.0000 18.9862 0.0000
# 6 0.0000 0.0000 0.0000 -2.4310 0.0000 49.1105
#
#
#
# Elastic Compliance Matrix: (Units=1/GPa)
#
#
# Indices 1 2 3 4 5 6 
#
# 1 0.010596 -0.005365 -0.002015 0.000000 -0.000099 0.000000
# 2 -0.005365 0.013577 -0.003745 0.000000 0.000786 0.000000
# 3 -0.002015 -0.003745 0.012439 0.000000 0.007436 0.000000
# 4 0.000000 0.000000 0.000000 0.055790 0.000000 0.002762
# 5 -0.000099 0.000786 0.007436 0.000000 0.058733 0.000000
# 6 0.000000 0.000000 0.000000 0.002762 0.000000 0.020499
#
#
# Mechanical properties :
#
#
# Convention : Reuss Voigt Hill
#
# Bulk Modulus (GPa) = 69.63177 76.85154 73.24165
# Shear Modulus (GPa) = 25.16712 30.54118 27.85415
#
# Velocity S-wave (km/s) = 3.62149 3.98945 3.80991
# Velocity P-wave (km/s) = 7.33305 7.82752 7.58432
#
# Compressibility (1/GPa) = 0.01436126
#
# Stress axis : x y z
#
# Youngs Moduli (GPa) = 94.37219 73.65431 80.39404
#
# Poissons Ratio (x) = 0.39516 0.16203
# Poissons Ratio (y) = 0.50632 0.30106
# Poissons Ratio (z) = 0.19021 0.27582
#
# Static dielectric constant tensor:
#      x y z
#    x 3.749940 0.000000 -0.097180 
#    y 0.000000 3.985270 0.000000 
#    z -0.097180 0.000000 3.034890 
# 
# 
# High freq. dielectric constant tensor:
#      x y z
#    x 1.749000 0.000000 -0.001010 
#    y 0.000000 1.776190 0.000000 
#    z -0.001010 0.000000 1.688150 
# 
# From -- ./inp_files/208106.got.cif
#   From: 2010.06.25/outbox.cif.g09.slc.cpg/sg15_105_cif.got.tgz:208106.got - 2010.06.28 07:06:18.
