data_PCOD8137336
_publ_section_title
;
Structure prediction by ZEFSAII (Michael W. Deem and Ramdas Pophale) SiO2 
 PCOD8137336
Probable space group: C 2/C
;
_chemical_formula_sum "Si O2"
_cell_formula_units_Z 48
_cell_length_a 10.307860
_cell_length_b 29.941040
_cell_length_c 10.666531
_cell_angle_alpha 90.000000
_cell_angle_beta 48.451856
_cell_angle_gamma 90.000000
_cell_volume 2463.721442
_symmetry_space_group_name_H-M "C 2/C"
_symmetry_group_IT_number 15
_symmetry_cell_setting 'monoclinic'
loop_
_space_group_symop_operation_xyz
x,y,z
-x,y,1/2-z
-x,-y,-z
x,-y,1/2+z
1/2+x,1/2+y,z
1/2-x,1/2+y,1/2-z
1/2-x,1/2-y,-z
1/2+x,1/2-y,1/2+z
loop_
_atom_site_type_symbol
_atom_site_label
_atom_site_fract_x
_atom_site_fract_y
_atom_site_fract_z
Si Si1 0.253820 0.875895 0.167916
Si Si2 0.027006 0.799829 0.877368
Si Si3 0.880034 0.121704 0.014865
Si Si4 0.207917 0.469130 0.629950
Si Si5 0.176158 0.473826 0.376945
Si Si6 0.342655 0.207538 0.756871
O O1 0.218147 0.863047 0.047454
O O2 0.365614 0.921157 0.110660
O O3 0.358986 0.833921 0.152485
O O4 0.080336 0.886900 0.355968
O O5 0.137964 0.754694 0.826929
O O6 0.000000 0.811913 0.750000
O O7 0.135751 0.839428 0.871970
O O8 0.839694 0.792948 0.057203
O O9 0.791183 0.077025 0.125321
O O10 0.281387 0.480495 0.441820
O O11 0.269074 0.506599 0.692112
O O12 0.000000 0.464590 0.750000
O O13 0.000000 0.500000 0.500000
O O14 0.500000 0.202523 0.750000
#
# Coordination Sequence:
#
# PCOD8137336 Si02
#       6
#     8   8   8   8   8   8
#     4   9  19  36  58  77 107 151 173 225 275 325
#     4  10  20  38  55  81 112 143 180 233 272 330
#     4   9  19  37  55  77 112 139 185 222 272 326
#     4   9  18  35  53  80 108 145 176 230 272 322
#     4   9  18  34  52  76 111 138 185 218 270 321
#     4  10  20  36  57  81 110 144 183 223 281 328
#
# _framework density 19.482721999999999
#
# number of rings (size 3 to 8) (size 9 to 14) (size 15 to 20)
#    0.000    2.667    0.000    2.000    0.000    3.333 
#   24.000    0.000    0.000    0.000    0.000    0.000 
#    0.000    0.000    0.000    0.000    0.000    0.000 
#
# Total GULP energy -297447.905918 kJ/mol
# GULP energy per Si atom -12393.662747 kJ/mol
# Density = 1.943838 g / cm^3
# Si number density = 19.482722 Si / 1000 Ang^3
#
#
#
# Elastic Constant Matrix: (Units=GPa)
#
#
# Indices 1 2 3 4 5 6 
#
# 1 71.2272 84.7048 31.1382 0.0000 16.5504 0.0000
# 2 84.7048 183.5471 57.7749 0.0000 35.2353 0.0000
# 3 31.1382 57.7749 68.1025 0.0000 24.9103 0.0000
# 4 0.0000 0.0000 0.0000 37.0192 0.0000 4.5483
# 5 16.5504 35.2353 24.9103 0.0000 31.5244 0.0000
# 6 0.0000 0.0000 0.0000 4.5483 0.0000 43.6177
#
#
#
# Elastic Compliance Matrix: (Units=1/GPa)
#
#
# Indices 1 2 3 4 5 6 
#
# 1 0.031553 -0.013821 -0.003225 0.000000 0.001431 0.000000
# 2 -0.013821 0.014012 -0.003507 0.000000 -0.005634 0.000000
# 3 -0.003225 -0.003507 0.024024 0.000000 -0.013371 0.000000
# 4 0.000000 0.000000 0.000000 0.027364 0.000000 -0.002853
# 5 0.001431 -0.005634 -0.013371 0.000000 0.047833 0.000000
# 6 0.000000 0.000000 0.000000 -0.002853 0.000000 0.023224
#
#
# Mechanical properties :
#
#
# Convention : Reuss Voigt Hill
#
# Bulk Modulus (GPa) = 35.10873 74.45696 54.78285
# Shear Modulus (GPa) = 22.87178 32.38286 27.62732
#
# Velocity S-wave (km/s) = 3.43002 4.08135 3.76978
# Velocity P-wave (km/s) = 5.80915 7.77880 6.86498
#
# Compressibility (1/GPa) = 0.02848294
#
# Stress axis : x y z
#
# Youngs Moduli (GPa) = 31.69260 71.36863 41.62470
#
# Poissons Ratio (x) = 0.98637 0.13426
# Poissons Ratio (y) = 0.43802 0.14597
# Poissons Ratio (z) = 0.10222 0.25028
#
# Static dielectric constant tensor:
#      x y z
#    x 3.633160 0.000000 0.436060 
#    y 0.000000 3.901730 0.000000 
#    z 0.436060 0.000000 3.974830 
# 
# 
# High freq. dielectric constant tensor:
#      x y z
#    x 1.744970 0.000000 0.012110 
#    y 0.000000 1.765690 0.000000 
#    z 0.012110 0.000000 1.757750 
# 
# From -- ./inp_files/91678.got.cif
#   From: 2010.06.25/outbox.cif.g09.slc.cpg/sg15_46_cif.got.tgz:91678.got - 2010.06.28 07:06:18.
