data_PCOD8137305
_publ_section_title
;
Structure prediction by ZEFSAII (Michael W. Deem and Ramdas Pophale) SiO2 
 PCOD8137305
Probable space group: C 2/C
;
_chemical_formula_sum "Si O2"
_cell_formula_units_Z 40
_cell_length_a 20.178833
_cell_length_b 14.947120
_cell_length_c 8.712877
_cell_angle_alpha 90.000000
_cell_angle_beta 53.611708
_cell_angle_gamma 90.000000
_cell_volume 2115.529792
_symmetry_space_group_name_H-M "C 2/C"
_symmetry_group_IT_number 15
_symmetry_cell_setting 'monoclinic'
loop_
_space_group_symop_operation_xyz
x,y,z
-x,y,1/2-z
-x,-y,-z
x,-y,1/2+z
1/2+x,1/2+y,z
1/2-x,1/2+y,1/2-z
1/2-x,1/2-y,-z
1/2+x,1/2-y,1/2+z
loop_
_atom_site_type_symbol
_atom_site_label
_atom_site_fract_x
_atom_site_fract_y
_atom_site_fract_z
Si Si1 0.605136 0.066151 0.264645
Si Si2 0.254797 0.902389 0.137612
Si Si3 0.541448 0.867653 0.356466
Si Si4 0.729047 0.578046 0.339293
Si Si5 0.305060 0.751090 0.276358
O O1 0.525265 0.125552 0.412824
O O2 0.671615 0.090238 0.306142
O O3 0.587924 0.961190 0.284257
O O4 0.647436 0.084497 0.040069
O O5 0.252255 0.806608 0.223288
O O6 0.213776 0.976679 0.304477
O O7 0.200700 0.906730 0.055336
O O8 0.500000 0.845144 0.250000
O O9 0.605244 0.790239 0.311856
O O10 0.682582 0.649545 0.297679
O O11 0.250000 0.750000 0.500000
#
# Coordination Sequence:
#
# PCOD8137305 Si02
#       5
#     8   8   8   8   8
#     4   9  20  32  57  79 121 145 189 229 297 339
#     4  10  20  37  56  85 113 151 193 234 292 338
#     4  11  21  34  54  87 119 156 186 231 298 351
#     4  10  20  36  56  85 117 152 190 233 289 345
#     4  12  22  35  54  82 121 156 193 234 283 348
#
# _framework density 18.907793000000002
#
# number of rings (size 3 to 8) (size 9 to 14) (size 15 to 20)
#    1.200    0.400    2.000    5.400    2.800    0.000 
#    0.000    0.000    0.000    0.000    0.000   12.600 
#    6.000    0.200    0.000    0.000    0.000    0.000 
#
# Total GULP energy -247768.217641 kJ/mol
# GULP energy per Si atom -12388.410882 kJ/mol
# Density = 1.886476 g / cm^3
# Si number density = 18.907793 Si / 1000 Ang^3
#
#
#
# Elastic Constant Matrix: (Units=GPa)
#
#
# Indices 1 2 3 4 5 6 
#
# 1 67.8757 19.2320 8.7597 0.0000 6.3985 0.0000
# 2 19.2320 60.1246 9.4947 0.0000 2.9215 0.0000
# 3 8.7597 9.4947 69.5437 0.0000 17.9460 0.0000
# 4 0.0000 0.0000 0.0000 30.1908 0.0000 3.7591
# 5 6.3985 2.9215 17.9460 0.0000 25.4579 0.0000
# 6 0.0000 0.0000 0.0000 3.7591 0.0000 45.2598
#
#
#
# Elastic Compliance Matrix: (Units=1/GPa)
#
#
# Indices 1 2 3 4 5 6 
#
# 1 0.016535 -0.005044 -0.000576 0.000000 -0.003171 0.000000
# 2 -0.005044 0.018540 -0.002046 0.000000 0.000583 0.000000
# 3 -0.000576 -0.002046 0.017887 0.000000 -0.012230 0.000000
# 4 0.000000 0.000000 0.000000 0.033469 0.000000 -0.002780
# 5 -0.003171 0.000583 -0.012230 0.000000 0.048632 0.000000
# 6 0.000000 0.000000 0.000000 -0.002780 0.000000 0.022326
#
#
# Mechanical properties :
#
#
# Convention : Reuss Voigt Hill
#
# Bulk Modulus (GPa) = 26.57410 30.27965 28.42687
# Shear Modulus (GPa) = 26.98839 30.85221 28.92030
#
# Velocity S-wave (km/s) = 3.78215 4.04384 3.91518
# Velocity P-wave (km/s) = 5.75830 6.15245 5.95863
#
# Compressibility (1/GPa) = 0.03763063
#
# Stress axis : x y z
#
# Youngs Moduli (GPa) = 60.47675 53.93627 55.90573
#
# Poissons Ratio (x) = 0.27206 0.03219
# Poissons Ratio (y) = 0.30505 0.11440
# Poissons Ratio (z) = 0.03482 0.11037
#
# Static dielectric constant tensor:
#      x y z
#    x 3.330910 0.000000 0.238650 
#    y 0.000000 3.350950 0.000000 
#    z 0.238650 0.000000 3.467080 
# 
# 
# High freq. dielectric constant tensor:
#      x y z
#    x 1.709860 0.000000 0.031650 
#    y 0.000000 1.719050 0.000000 
#    z 0.031650 0.000000 1.732100 
# 
# From -- ./inp_files/61157.got.cif
#   From: 2010.06.25/outbox.cif.g09.slc.cpg/sg15_31_cif.got.tgz:61157.got - 2010.06.28 07:06:18.
