data_PCOD8137189
_publ_section_title
;
Structure prediction by ZEFSAII (Michael W. Deem and Ramdas Pophale) SiO2 
 PCOD8137189
Probable space group: C 2/C
;
_chemical_formula_sum "Si O2"
_cell_formula_units_Z 56
_cell_length_a 11.822967
_cell_length_b 13.469054
_cell_length_c 14.475378
_cell_angle_alpha 90.000000
_cell_angle_beta 57.504171
_cell_angle_gamma 90.000000
_cell_volume 1944.208406
_symmetry_space_group_name_H-M "C 2/C"
_symmetry_group_IT_number 15
_symmetry_cell_setting 'monoclinic'
loop_
_space_group_symop_operation_xyz
x,y,z
-x,y,1/2-z
-x,-y,-z
x,-y,1/2+z
1/2+x,1/2+y,z
1/2-x,1/2+y,1/2-z
1/2-x,1/2-y,-z
1/2+x,1/2-y,1/2+z
loop_
_atom_site_type_symbol
_atom_site_label
_atom_site_fract_x
_atom_site_fract_y
_atom_site_fract_z
Si Si1 0.987681 0.910985 0.372031
Si Si2 0.262683 0.880167 0.181927
Si Si3 0.679601 0.850274 0.968628
Si Si4 0.583694 0.608610 0.026686
Si Si5 0.439825 0.205956 0.460769
Si Si6 0.992784 0.495944 0.646879
Si Si7 0.623520 0.704111 0.261054
O O1 0.102653 0.907342 0.238686
O O2 0.086160 0.920777 0.418765
O O3 0.910964 0.805995 0.416598
O O4 0.893266 0.007977 0.419256
O O5 0.287899 0.799100 0.250400
O O6 0.348243 0.977254 0.168254
O O7 0.303386 0.832083 0.066344
O O8 0.785711 0.820811 0.005666
O O9 0.555592 0.775625 0.992145
O O10 0.776340 0.869044 0.838118
O O11 0.605478 0.950014 0.035320
O O12 0.436384 0.648925 0.122904
O O13 0.494894 0.122465 0.367301
O O14 0.000000 0.528026 0.750000
O O15 0.500000 0.739461 0.250000
#
# Coordination Sequence:
#
# PCOD8137189 Si02
#       7
#     8   8   8   8   8   8   8
#     4  11  23  40  64  98 136 181 217 273 341 408
#     4  11  21  39  68  99 129 173 219 278 339 397
#     4  10  21  42  65  97 129 172 220 289 332 396
#     4  10  23  39  62  98 140 170 218 274 350 405
#     4  11  24  43  68  96 132 177 230 279 334 407
#     4  11  25  44  66  94 131 177 230 273 336 402
#     4  10  20  35  63  98 134 164 216 280 345 402
#
# _framework density 28.803495999999999
#
# number of rings (size 3 to 8) (size 9 to 14) (size 15 to 20)
#    0.000    1.429    2.857    3.000    4.000    1.714 
#    2.571    2.857    0.000    0.000    0.000    0.000 
#    0.000    0.000    0.000    0.000    0.000    0.000 
#
# Total GULP energy -347147.762004 kJ/mol
# GULP energy per Si atom -12398.134357 kJ/mol
# Density = 2.873794 g / cm^3
# Si number density = 28.803496 Si / 1000 Ang^3
#
#
#
# Elastic Constant Matrix: (Units=GPa)
#
#
# Indices 1 2 3 4 5 6 
#
# 1 117.5943 8.0159 21.6244 0.0000 -32.5567 0.0000
# 2 8.0159 121.4403 36.5663 0.0000 -11.0423 0.0000
# 3 21.6244 36.5663 97.9731 0.0000 -13.9245 0.0000
# 4 0.0000 0.0000 0.0000 42.1073 0.0000 1.8440
# 5 -32.5567 -11.0423 -13.9245 0.0000 29.8547 0.0000
# 6 0.0000 0.0000 0.0000 1.8440 0.0000 32.9228
#
#
#
# Elastic Compliance Matrix: (Units=1/GPa)
#
#
# Indices 1 2 3 4 5 6 
#
# 1 0.012304 0.000720 -0.001113 0.000000 0.013165 0.000000
# 2 0.000720 0.009426 -0.003288 0.000000 0.002738 0.000000
# 3 -0.001113 -0.003288 0.012139 0.000000 0.003231 0.000000
# 4 0.000000 0.000000 0.000000 0.023807 0.000000 -0.001333
# 5 0.013165 0.002738 0.003231 0.000000 0.050372 0.000000
# 6 0.000000 0.000000 0.000000 -0.001333 0.000000 0.030449
#
#
# Mechanical properties :
#
#
# Convention : Reuss Voigt Hill
#
# Bulk Modulus (GPa) = 37.72590 52.15787 44.94188
# Shear Modulus (GPa) = 32.32165 39.03036 35.67601
#
# Velocity S-wave (km/s) = 3.35347 3.68510 3.52319
# Velocity P-wave (km/s) = 5.30288 6.02114 5.67339
#
# Compressibility (1/GPa) = 0.02650699
#
# Stress axis : x y z
#
# Youngs Moduli (GPa) = 81.27258 106.09046 82.37894
#
# Poissons Ratio (x) = -0.07640 0.09173
# Poissons Ratio (y) = -0.05853 0.27085
# Poissons Ratio (z) = 0.09050 0.34880
#
# Static dielectric constant tensor:
#      x y z
#    x 5.375770 0.000000 0.071030 
#    y 0.000000 5.321630 0.000000 
#    z 0.071030 0.000000 5.313200 
# 
# 
# High freq. dielectric constant tensor:
#      x y z
#    x 2.180950 0.000000 0.004150 
#    y 0.000000 2.184660 0.000000 
#    z 0.004150 0.000000 2.176100 
# 
# From -- ./inp_files/205331.got.cif
#   From: 2010.06.25/outbox.cif.g09.slc.cpg/sg15_103_cif.got.tgz:205331.got - 2010.06.28 07:06:18.
