data_PCOD8137851
_publ_section_title
;
Structure prediction by ZEFSAII (Michael W. Deem and Ramdas Pophale) SiO2 
 PCOD8137851
Probable space group: C 2/C
;
_chemical_formula_sum "Si O2"
_cell_formula_units_Z 44
_cell_length_a 11.046215
_cell_length_b 20.995508
_cell_length_c 14.145473
_cell_angle_alpha 90.000000
_cell_angle_beta 37.405215
_cell_angle_gamma 90.000000
_cell_volume 1992.813069
_symmetry_space_group_name_H-M "C 2/C"
_symmetry_group_IT_number 15
_symmetry_cell_setting 'monoclinic'
loop_
_space_group_symop_operation_xyz
x,y,z
-x,y,1/2-z
-x,-y,-z
x,-y,1/2+z
1/2+x,1/2+y,z
1/2-x,1/2+y,1/2-z
1/2-x,1/2-y,-z
1/2+x,1/2-y,1/2+z
loop_
_atom_site_type_symbol
_atom_site_label
_atom_site_fract_x
_atom_site_fract_y
_atom_site_fract_z
Si Si1 0.313854 0.171881 0.552503
Si Si2 0.500000 0.234142 0.750000
Si Si3 0.307271 0.973436 0.069802
Si Si4 0.471242 0.710893 0.625699
Si Si5 0.579047 0.329948 0.543005
Si Si6 0.458538 0.521513 0.417850
O O1 0.370163 0.099319 0.521118
O O2 0.505096 0.212697 0.400985
O O3 0.248055 0.196327 0.697771
O O4 0.133294 0.182058 0.594114
O O5 0.463153 0.282030 0.684951
O O6 0.687386 0.188987 0.610967
O O7 0.253293 0.998821 0.997176
O O8 0.125184 0.986337 0.252897
O O9 0.500000 0.000000 0.000000
O O10 0.515416 0.675271 0.501231
O O11 0.542791 0.402575 0.596877
O O12 0.500000 0.500000 0.500000
#
# Coordination Sequence:
#
# PCOD8137851 Si02
#       6
#     8   4   8   8   8   8
#     4  10  21  39  60  93 118 151 201 245 313 365
#     4  10  24  38  60  88 122 160 206 266 304 368
#     4  11  25  43  65  91 129 169 207 259 312 377
#     4  10  20  36  64  86 119 154 191 258 304 363
#     4  11  22  40  61  90 122 162 210 253 317 364
#     4  11  24  43  66  92 127 169 210 258 310 380
#
# _framework density 22.079340999999999
#
# number of rings (size 3 to 8) (size 9 to 14) (size 15 to 20)
#    0.000    1.455    0.000    6.545    0.000    9.455 
#    0.000    3.636    0.000    0.000    0.000    0.000 
#    0.000    0.000    0.000    0.000    0.000    0.000 
#
# Total GULP energy -272639.428648 kJ/mol
# GULP energy per Si atom -12392.701302 kJ/mol
# Density = 2.202909 g / cm^3
# Si number density = 22.079341 Si / 1000 Ang^3
#
#
#
# Elastic Constant Matrix: (Units=GPa)
#
#
# Indices 1 2 3 4 5 6 
#
# 1 122.6401 37.7723 23.4424 0.0191 21.0373 -0.0323
# 2 37.7723 167.6493 6.8484 0.0265 0.2574 -0.0435
# 3 23.4424 6.8484 29.5640 0.1050 17.1464 -0.1562
# 4 0.0191 0.0265 0.1050 261.7555 -0.0412 -321.3340
# 5 21.0373 0.2574 17.1464 -0.0412 36.9794 0.0617
# 6 -0.0323 -0.0435 -0.1562 -321.3340 0.0617 487.7878
#
#
#
# Elastic Compliance Matrix: (Units=1/GPa)
#
#
# Indices 1 2 3 4 5 6 
#
# 1 0.010495 -0.002115 -0.005988 0.000001 -0.003179 -0.000001
# 2 -0.002115 0.006467 -0.000674 0.000000 0.001471 0.000000
# 3 -0.005988 -0.000674 0.050269 -0.000003 -0.019897 0.000016
# 4 0.000001 0.000000 -0.000003 0.019970 0.000001 0.013156
# 5 -0.003179 0.001471 -0.019897 0.000001 0.038067 -0.000011
# 6 -0.000001 0.000000 0.000016 0.013156 -0.000011 0.010716
#
#
# Mechanical properties :
#
#
# Convention : Reuss Voigt Hill
#
# Bulk Modulus (GPa) = 20.12995 50.66439 35.39717
# Shear Modulus (GPa) = 29.39475 174.09055 101.74265
#
# Velocity S-wave (km/s) = 3.65269 8.88926 6.79562
# Velocity P-wave (km/s) = 5.18907 11.32938 8.81139
#
# Compressibility (1/GPa) = 0.04967722
#
# Stress axis : x y z
#
# Youngs Moduli (GPa) = 95.27954 154.63932 19.89278
#
# Poissons Ratio (x) = 0.32709 0.11912
# Poissons Ratio (y) = 0.20153 0.01340
# Poissons Ratio (z) = 0.57056 0.10419
#
# Static dielectric constant tensor:
#      x y z
#    x 4.330280 -0.000210 0.220620 
#    y -0.000210 4.356050 0.000120 
#    z 0.220620 0.000120 4.314940 
# 
# 
# High freq. dielectric constant tensor:
#      x y z
#    x 1.886340 0.000000 0.016150 
#    y 0.000000 1.877120 0.000000 
#    z 0.016150 0.000000 1.857030 
# 
# From -- ./inp_files/147004.got.cif
#   From: 2010.06.25/outbox.cif.g09.slc.cpg/sg15_74_cif.got.tgz:147004.got - 2010.06.28 07:06:18.
