data_PCOD8137918
_publ_section_title
;
Structure prediction by ZEFSAII (Michael W. Deem and Ramdas Pophale) SiO2 
 PCOD8137918
Probable space group: C 2/C
;
_chemical_formula_sum "Si O2"
_cell_formula_units_Z 36
_cell_length_a 12.129666
_cell_length_b 15.823679
_cell_length_c 8.277045
_cell_angle_alpha 90.000000
_cell_angle_beta 110.985727
_cell_angle_gamma 90.000000
_cell_volume 1483.285921
_symmetry_space_group_name_H-M "C 2/C"
_symmetry_group_IT_number 15
_symmetry_cell_setting 'monoclinic'
loop_
_space_group_symop_operation_xyz
x,y,z
-x,y,1/2-z
-x,-y,-z
x,-y,1/2+z
1/2+x,1/2+y,z
1/2-x,1/2+y,1/2-z
1/2-x,1/2-y,-z
1/2+x,1/2-y,1/2+z
loop_
_atom_site_type_symbol
_atom_site_label
_atom_site_fract_x
_atom_site_fract_y
_atom_site_fract_z
Si Si1 0.500000 0.645546 0.750000
Si Si2 0.490011 0.094618 0.434988
Si Si3 0.635143 0.247206 0.554635
Si Si4 0.728924 0.382827 0.814208
Si Si5 0.873854 0.986432 0.016989
O O1 0.480768 0.706433 0.585420
O O2 0.612121 0.580185 0.823360
O O3 0.500000 0.099582 0.250000
O O4 0.594737 0.151243 0.568595
O O5 0.365161 0.132759 0.424810
O O6 0.500000 0.000000 0.500000
O O7 0.750000 0.250000 0.500000
O O8 0.666090 0.293752 0.739165
O O9 0.719652 0.446225 0.655709
O O10 0.668959 0.423387 0.940505
O O11 0.000000 0.000000 0.000000
#
# Coordination Sequence:
#
# PCOD8137918 Si02
#       5
#     4   8   8   8   8
#     4  10  20  36  66  96 128 184 236 288 356 432
#     4  12  25  46  71 105 149 190 245 303 373 443
#     4  11  22  42  69  99 142 193 244 293 368 448
#     4  11  23  40  72 107 139 195 244 300 371 444
#     4  11  21  39  67 108 143 182 245 305 368 440
#
# _framework density 24.270437000000001
#
# number of rings (size 3 to 8) (size 9 to 14) (size 15 to 20)
#    0.000    0.889    5.556    1.333    3.111    0.000 
#    0.000    4.444    0.000   16.000    0.000    0.000 
#    0.000    0.000    0.000    0.000    0.000    0.000 
#
# Total GULP energy -223025.940593 kJ/mol
# GULP energy per Si atom -12390.330033 kJ/mol
# Density = 2.421520 g / cm^3
# Si number density = 24.270437 Si / 1000 Ang^3
#
#
#
# Elastic Constant Matrix: (Units=GPa)
#
#
# Indices 1 2 3 4 5 6 
#
# 1 139.1451 65.2349 34.6480 0.0000 6.4381 0.0000
# 2 65.2349 180.0170 32.8375 0.0000 6.1121 0.0000
# 3 34.6480 32.8375 48.8802 0.0000 9.7719 0.0000
# 4 0.0000 0.0000 0.0000 29.0636 0.0000 0.4747
# 5 6.4381 6.1121 9.7719 0.0000 32.7983 0.0000
# 6 0.0000 0.0000 0.0000 0.4747 0.0000 40.2438
#
#
#
# Elastic Compliance Matrix: (Units=1/GPa)
#
#
# Indices 1 2 3 4 5 6 
#
# 1 0.009668 -0.002568 -0.005151 0.000000 0.000115 0.000000
# 2 -0.002568 0.007013 -0.002904 0.000000 0.000062 0.000000
# 3 -0.005151 -0.002904 0.027381 0.000000 -0.006606 0.000000
# 4 0.000000 0.000000 0.000000 0.034414 0.000000 -0.000406
# 5 0.000115 0.000062 -0.006606 0.000000 0.032423 0.000000
# 6 0.000000 0.000000 0.000000 -0.000406 0.000000 0.024853
#
#
# Mechanical properties :
#
#
# Convention : Reuss Voigt Hill
#
# Bulk Modulus (GPa) = 43.82756 70.38700 57.10728
# Shear Modulus (GPa) = 30.37621 36.10926 33.24274
#
# Velocity S-wave (km/s) = 3.54160 3.86137 3.70493
# Velocity P-wave (km/s) = 5.90094 6.99602 6.47168
#
# Compressibility (1/GPa) = 0.02281670
#
# Stress axis : x y z
#
# Youngs Moduli (GPa) = 103.43544 142.59031 36.52222
#
# Poissons Ratio (x) = 0.36614 0.18813
# Poissons Ratio (y) = 0.26560 0.10605
# Poissons Ratio (z) = 0.53279 0.41404
#
# Static dielectric constant tensor:
#      x y z
#    x 4.200300 0.000000 0.347470 
#    y 0.000000 4.703540 0.000000 
#    z 0.347470 0.000000 4.529980 
# 
# 
# High freq. dielectric constant tensor:
#      x y z
#    x 1.940300 0.000000 0.026650 
#    y 0.000000 1.978350 0.000000 
#    z 0.026650 0.000000 1.951280 
# 
# From -- ./inp_files/29412.got.cif
#   From: 2010.06.25/outbox.cif.g09.slc.cpg/sg15_15_cif.got.tgz:29412.got - 2010.06.28 07:06:18.
