data_PCOD8137198
_publ_section_title
;
Structure prediction by ZEFSAII (Michael W. Deem and Ramdas Pophale) SiO2 
 PCOD8137198
Probable space group: C 2/C
;
_chemical_formula_sum "Si O2"
_cell_formula_units_Z 52
_cell_length_a 13.301088
_cell_length_b 8.461334
_cell_length_c 22.940348
_cell_angle_alpha 90.000000
_cell_angle_beta 73.196241
_cell_angle_gamma 90.000000
_cell_volume 2471.577926
_symmetry_space_group_name_H-M "C 2/C"
_symmetry_group_IT_number 15
_symmetry_cell_setting 'monoclinic'
loop_
_space_group_symop_operation_xyz
x,y,z
-x,y,1/2-z
-x,-y,-z
x,-y,1/2+z
1/2+x,1/2+y,z
1/2-x,1/2+y,1/2-z
1/2-x,1/2-y,-z
1/2+x,1/2-y,1/2+z
loop_
_atom_site_type_symbol
_atom_site_label
_atom_site_fract_x
_atom_site_fract_y
_atom_site_fract_z
Si Si1 0.401937 0.040008 0.658109
Si Si2 0.819655 0.021862 0.077858
Si Si3 0.379864 0.820675 0.560815
Si Si4 0.500000 0.127794 0.250000
Si Si5 0.695612 0.721806 0.658389
Si Si6 0.482898 0.707127 0.434965
Si Si7 0.300351 0.481352 0.451379
O O1 0.281923 0.111204 0.677969
O O2 0.481155 0.168930 0.619189
O O3 0.415513 0.880037 0.618128
O O4 0.442883 0.990723 0.714566
O O5 0.743105 0.105542 0.136547
O O6 0.938988 0.059466 0.075182
O O7 0.806023 0.833481 0.082155
O O8 0.800510 0.091858 0.016146
O O9 0.476059 0.785388 0.500724
O O10 0.317250 0.965945 0.543026
O O11 0.410317 0.247856 0.287982
O O12 0.661865 0.643684 0.602929
O O13 0.370597 0.639341 0.435800
#
# Coordination Sequence:
#
# PCOD8137198 Si02
#       7
#     8   8   8   4   8   8   8
#     4  10  25  45  62  95 124 169 225 265 321 390
#     4  10  20  35  64  96 132 159 200 267 322 400
#     4  10  20  35  64  96 132 159 200 267 322 400
#     4  12  28  44  74  82 132 184 222 276 328 366
#     4  10  25  45  62  95 124 169 225 265 321 390
#     4  10  20  36  61  99 127 165 200 258 339 388
#     4  10  20  36  61  99 127 165 200 258 339 388
#
# _framework density 21.039190999999999
#
# number of rings (size 3 to 8) (size 9 to 14) (size 15 to 20)
#    0.000    1.846    0.000    4.615    8.615    1.231 
#    5.538    0.000    0.000    0.000    0.000    0.000 
#    0.000    0.000    0.000    0.000    0.000    0.000 
#
# Total GULP energy -322312.788031 kJ/mol
# GULP energy per Si atom -12396.645694 kJ/mol
# Density = 2.099130 g / cm^3
# Si number density = 21.039191 Si / 1000 Ang^3
#
#
#
# Elastic Constant Matrix: (Units=GPa)
#
#
# Indices 1 2 3 4 5 6 
#
# 1 77.8733 15.1297 42.6878 0.0000 -8.3200 0.0000
# 2 15.1297 59.2684 32.3751 0.0000 -4.0458 0.0000
# 3 42.6878 32.3751 94.4195 0.0000 1.6996 0.0000
# 4 0.0000 0.0000 0.0000 27.8132 0.0000 -0.0869
# 5 -8.3200 -4.0458 1.6996 0.0000 44.5261 0.0000
# 6 0.0000 0.0000 0.0000 -0.0869 0.0000 24.2297
#
#
#
# Elastic Compliance Matrix: (Units=1/GPa)
#
#
# Indices 1 2 3 4 5 6 
#
# 1 0.017633 0.000167 -0.008094 0.000000 0.003619 0.000000
# 2 0.000167 0.020972 -0.007307 0.000000 0.002216 0.000000
# 3 -0.008094 -0.007307 0.016807 0.000000 -0.002818 0.000000
# 4 0.000000 0.000000 0.000000 0.035955 0.000000 0.000129
# 5 0.003619 0.002216 -0.002818 0.000000 0.023444 0.000000
# 6 0.000000 0.000000 0.000000 0.000129 0.000000 0.041272
#
#
# Mechanical properties :
#
#
# Convention : Reuss Voigt Hill
#
# Bulk Modulus (GPa) = 40.08954 45.77184 42.93069
# Shear Modulus (GPa) = 25.65895 28.73837 27.19866
#
# Velocity S-wave (km/s) = 3.49604 3.69988 3.59940
# Velocity P-wave (km/s) = 5.94915 6.32889 6.14196
#
# Compressibility (1/GPa) = 0.02494416
#
# Stress axis : x y z
#
# Youngs Moduli (GPa) = 56.71315 47.68236 59.50031
#
# Poissons Ratio (x) = -0.00798 0.48162
# Poissons Ratio (y) = -0.00950 0.43475
# Poissons Ratio (z) = 0.45906 0.34840
#
# Static dielectric constant tensor:
#      x y z
#    x 3.748570 0.000000 0.048870 
#    y 0.000000 3.766450 0.000000 
#    z 0.048870 0.000000 3.659180 
# 
# 
# High freq. dielectric constant tensor:
#      x y z
#    x 1.827650 0.000000 0.002530 
#    y 0.000000 1.830560 0.000000 
#    z 0.002530 0.000000 1.803610 
# 
# From -- ./inp_files/242413.got.cif
#   From: 2010.06.25/outbox.cif.g09.slc.cpg/sg15_122_cif.got.tgz:242413.got - 2010.06.28 07:06:18.
