data_PCOD8137506
_publ_section_title
;
Structure prediction by ZEFSAII (Michael W. Deem and Ramdas Pophale) SiO2 
 PCOD8137506
Probable space group: C 2/C
;
_chemical_formula_sum "Si O2"
_cell_formula_units_Z 64
_cell_length_a 14.851240
_cell_length_b 29.209154
_cell_length_c 9.020596
_cell_angle_alpha 90.000000
_cell_angle_beta 57.133578
_cell_angle_gamma 90.000000
_cell_volume 3286.731153
_symmetry_space_group_name_H-M "C 2/C"
_symmetry_group_IT_number 15
_symmetry_cell_setting 'monoclinic'
loop_
_space_group_symop_operation_xyz
x,y,z
-x,y,1/2-z
-x,-y,-z
x,-y,1/2+z
1/2+x,1/2+y,z
1/2-x,1/2+y,1/2-z
1/2-x,1/2-y,-z
1/2+x,1/2-y,1/2+z
loop_
_atom_site_type_symbol
_atom_site_label
_atom_site_fract_x
_atom_site_fract_y
_atom_site_fract_z
Si Si1 0.928896 0.087275 0.670783
Si Si2 0.091339 0.752794 0.561967
Si Si3 0.751363 0.945412 0.519152
Si Si4 0.921435 0.489778 0.438822
Si Si5 0.479387 0.315901 0.441288
Si Si6 0.246122 0.915038 0.662361
Si Si7 0.601843 0.529587 0.084938
Si Si8 0.282681 0.313107 0.825865
O O1 0.805787 0.083634 0.837736
O O2 0.938443 0.050134 0.533811
O O3 0.000000 0.074674 0.750000
O O4 0.963450 0.135848 0.570729
O O5 0.177040 0.718265 0.414106
O O6 0.144014 0.794096 0.607548
O O7 0.000000 0.729234 0.750000
O O8 0.037182 0.774098 0.467327
O O9 0.758834 0.912720 0.654717
O O10 0.635538 0.962782 0.565155
O O11 0.809232 0.991728 0.522280
O O12 0.842034 0.448944 0.542984
O O13 0.000000 0.468585 0.250000
O O14 0.000000 0.500000 0.500000
O O15 0.500000 0.307327 0.250000
O O16 0.354451 0.315671 0.609335
O O17 0.141577 0.932234 0.667366
O O18 0.262477 0.863195 0.593254
O O19 0.500000 0.505072 0.250000
#
# Coordination Sequence:
#
# PCOD8137506 Si02
#       8
#     8   8   8   8   8   8   8   8
#     4  11  22  35  54  83 117 150 188 233 289 354
#     4   9  20  39  62  85 117 149 188 240 299 356
#     4  11  23  37  56  79 114 154 193 241 293 341
#     4  11  23  42  61  78 113 162 205 251 299 343
#     4  10  20  36  59  85 118 153 183 233 297 360
#     4  11  22  36  59  85 109 149 199 242 287 348
#     4  11  21  33  52  80 115 148 190 232 282 340
#     4  10  20  37  62  87 114 152 191 240 295 354
#
# _framework density 19.472234
#
# number of rings (size 3 to 8) (size 9 to 14) (size 15 to 20)
#    0.000    1.500    1.250    5.625    1.750    3.500 
#    0.000    0.000    2.750    0.000    0.000    0.000 
#    0.000    0.000    0.000    0.000    0.000    0.000 
#
# Total GULP energy -396467.362183 kJ/mol
# GULP energy per Si atom -12389.605068 kJ/mol
# Density = 1.942791 g / cm^3
# Si number density = 19.472234 Si / 1000 Ang^3
#
#
#
# Elastic Constant Matrix: (Units=GPa)
#
#
# Indices 1 2 3 4 5 6 
#
# 1 90.7907 27.7938 25.5054 0.0000 -3.0576 0.0000
# 2 27.7938 93.0409 32.7553 0.0000 -10.3060 0.0000
# 3 25.5054 32.7553 114.7642 0.0000 -13.0629 0.0000
# 4 0.0000 0.0000 0.0000 24.0473 0.0000 -2.3697
# 5 -3.0576 -10.3060 -13.0629 0.0000 31.0267 0.0000
# 6 0.0000 0.0000 0.0000 -2.3697 0.0000 15.1490
#
#
#
# Elastic Compliance Matrix: (Units=1/GPa)
#
#
# Indices 1 2 3 4 5 6 
#
# 1 0.012497 -0.003112 -0.001960 0.000000 -0.000628 0.000000
# 2 -0.003112 0.012937 -0.002675 0.000000 0.002864 0.000000
# 3 -0.001960 -0.002675 0.010282 0.000000 0.003247 0.000000
# 4 0.000000 0.000000 0.000000 0.042236 0.000000 0.006607
# 5 -0.000628 0.002864 0.003247 0.000000 0.034487 0.000000
# 6 0.000000 0.000000 0.000000 0.006607 0.000000 0.067044
#
#
# Mechanical properties :
#
#
# Convention : Reuss Voigt Hill
#
# Bulk Modulus (GPa) = 49.45423 52.30051 50.87737
# Shear Modulus (GPa) = 24.78709 28.21402 26.50056
#
# Velocity S-wave (km/s) = 3.57171 3.81062 3.69310
# Velocity P-wave (km/s) = 6.51628 6.80282 6.66109
#
# Compressibility (1/GPa) = 0.02022072
#
# Stress axis : x y z
#
# Youngs Moduli (GPa) = 80.02077 77.30007 97.25553
#
# Poissons Ratio (x) = 0.24060 0.19066
# Poissons Ratio (y) = 0.24906 0.26011
# Poissons Ratio (z) = 0.15687 0.20674
#
# Static dielectric constant tensor:
#      x y z
#    x 3.588630 0.000000 -0.226900 
#    y 0.000000 3.378890 0.000000 
#    z -0.226900 0.000000 3.521850 
# 
# 
# High freq. dielectric constant tensor:
#      x y z
#    x 1.755750 0.000000 0.000840 
#    y 0.000000 1.740640 0.000000 
#    z 0.000840 0.000000 1.773590 
# 
# From -- ./inp_files/44551.got.cif
#   From: 2010.06.25/outbox.cif.g09.slc.cpg/sg15_23_cif.got.tgz:44551.got - 2010.06.28 07:06:18.
