data_PCOD8137751
_publ_section_title
;
Structure prediction by ZEFSAII (Michael W. Deem and Ramdas Pophale) SiO2 
 PCOD8137751
Probable space group: C 2/C
;
_chemical_formula_sum "Si O2"
_cell_formula_units_Z 56
_cell_length_a 9.914571
_cell_length_b 19.069351
_cell_length_c 22.217844
_cell_angle_alpha 90.000000
_cell_angle_beta 42.673102
_cell_angle_gamma 90.000000
_cell_volume 2847.230724
_symmetry_space_group_name_H-M "C 2/C"
_symmetry_group_IT_number 15
_symmetry_cell_setting 'monoclinic'
loop_
_space_group_symop_operation_xyz
x,y,z
-x,y,1/2-z
-x,-y,-z
x,-y,1/2+z
1/2+x,1/2+y,z
1/2-x,1/2+y,1/2-z
1/2-x,1/2-y,-z
1/2+x,1/2-y,1/2+z
loop_
_atom_site_type_symbol
_atom_site_label
_atom_site_fract_x
_atom_site_fract_y
_atom_site_fract_z
Si Si1 0.589211 0.188776 0.048718
Si Si2 0.822249 0.234822 0.263952
Si Si3 0.916711 0.389129 0.196891
Si Si4 0.513007 0.682877 0.091489
Si Si5 0.175953 0.909403 0.947153
Si Si6 0.717359 0.453107 0.364667
Si Si7 0.948570 0.660675 0.965276
O O1 0.382771 0.221360 0.135970
O O2 0.646145 0.124620 0.073425
O O3 0.750000 0.250000 0.000000
O O4 0.567085 0.158212 0.988798
O O5 0.820174 0.315261 0.245163
O O6 0.849525 0.182279 0.198355
O O7 0.000000 0.217492 0.250000
O O8 0.773044 0.448750 0.274644
O O9 0.140830 0.395380 0.150048
O O10 0.938848 0.394026 0.116970
O O11 0.426461 0.648022 0.060705
O O12 0.553280 0.763514 0.064234
O O13 0.713246 0.642198 0.047917
O O14 0.267403 0.970677 0.875709
O O15 0.013925 0.937532 0.048215
#
# Coordination Sequence:
#
# PCOD8137751 Si02
#       7
#     8   8   8   8   8   8   8
#     4  12  24  38  61  98 138 161 201 281 334 370
#     4  11  21  35  60  93 126 163 206 259 328 387
#     4  10  20  37  64  87 114 172 226 241 298 389
#     4  10  20  36  62  89 127 161 210 252 319 395
#     4  11  23  40  60  96 128 165 215 261 327 367
#     4  10  21  38  66  86 121 173 218 260 292 393
#     4  10  20  36  62  93 122 166 203 260 324 384
#
# _framework density 19.668234000000002
#
# number of rings (size 3 to 8) (size 9 to 14) (size 15 to 20)
#    0.000    1.429    5.714    0.857    0.000    2.857 
#    0.000    2.857    0.000    0.000    0.000    0.000 
#    0.000    0.000    0.000    0.000    0.000    0.000 
#
# Total GULP energy -347077.977266 kJ/mol
# GULP energy per Si atom -12395.642045 kJ/mol
# Density = 1.962347 g / cm^3
# Si number density = 19.668234 Si / 1000 Ang^3
#
#
#
# Elastic Constant Matrix: (Units=GPa)
#
#
# Indices 1 2 3 4 5 6 
#
# 1 100.9226 15.5817 48.6534 0.0061 4.4029 -0.0015
# 2 15.5817 55.0740 44.0357 0.0073 -0.0911 -0.0073
# 3 48.6534 44.0357 146.3000 -0.0044 4.1400 -0.0096
# 4 0.0061 0.0073 -0.0044 28.9219 -0.0076 7.4909
# 5 4.4029 -0.0911 4.1400 -0.0076 32.3092 0.0100
# 6 -0.0015 -0.0073 -0.0096 7.4909 0.0100 21.5754
#
#
#
# Elastic Compliance Matrix: (Units=1/GPa)
#
#
# Indices 1 2 3 4 5 6 
#
# 1 0.011844 -0.000301 -0.003816 -0.000003 -0.001126 0.000001
# 2 -0.000301 0.023952 -0.007138 -0.000009 0.001023 0.000007
# 3 -0.003816 -0.007138 0.010276 0.000004 -0.000817 0.000001
# 4 -0.000003 -0.000009 0.000004 0.037992 0.000013 -0.013191
# 5 -0.001126 0.001023 -0.000817 0.000013 0.031212 -0.000019
# 6 0.000001 0.000007 0.000001 -0.013191 -0.000019 0.050929
#
#
# Mechanical properties :
#
#
# Convention : Reuss Voigt Hill
#
# Bulk Modulus (GPa) = 42.44433 57.64870 50.04651
# Shear Modulus (GPa) = 25.43623 29.49635 27.46629
#
# Velocity S-wave (km/s) = 3.60010 3.87679 3.74100
# Velocity P-wave (km/s) = 6.23762 7.02948 6.64536
#
# Compressibility (1/GPa) = 0.02356027
#
# Stress axis : x y z
#
# Youngs Moduli (GPa) = 84.43102 41.75054 97.31373
#
# Poissons Ratio (x) = 0.01259 0.37137
# Poissons Ratio (y) = 0.02545 0.69463
# Poissons Ratio (z) = 0.32221 0.29802
#
# Static dielectric constant tensor:
#      x y z
#    x 3.324660 0.000000 0.203580 
#    y 0.000000 3.430200 -0.000010 
#    z 0.203580 -0.000010 3.992250 
# 
# 
# High freq. dielectric constant tensor:
#      x y z
#    x 1.747720 0.000000 0.004450 
#    y 0.000000 1.738100 0.000000 
#    z 0.004450 0.000000 1.787020 
# 
# From -- ./inp_files/233761.got.cif
#   From: 2010.06.25/outbox.cif.g09.slc.cpg/sg15_117_cif.got.tgz:233761.got - 2010.06.28 07:06:18.
