data_PCOD8137060
_publ_section_title
;
Structure prediction by ZEFSAII (Michael W. Deem and Ramdas Pophale) SiO2 
 PCOD8137060
Probable space group: C 2/C
;
_chemical_formula_sum "Si O2"
_cell_formula_units_Z 56
_cell_length_a 11.819289
_cell_length_b 20.608172
_cell_length_c 13.155931
_cell_angle_alpha 90.000000
_cell_angle_beta 117.166734
_cell_angle_gamma 90.000000
_cell_volume 2850.933095
_symmetry_space_group_name_H-M "C 2/C"
_symmetry_group_IT_number 15
_symmetry_cell_setting 'monoclinic'
loop_
_space_group_symop_operation_xyz
x,y,z
-x,y,1/2-z
-x,-y,-z
x,-y,1/2+z
1/2+x,1/2+y,z
1/2-x,1/2+y,1/2-z
1/2-x,1/2-y,-z
1/2+x,1/2-y,1/2+z
loop_
_atom_site_type_symbol
_atom_site_label
_atom_site_fract_x
_atom_site_fract_y
_atom_site_fract_z
Si Si1 0.134882 0.288321 0.349198
Si Si2 0.066580 0.911831 0.475147
Si Si3 0.241016 0.657259 0.089817
Si Si4 0.859913 0.176482 0.800005
Si Si5 0.763379 0.322544 0.468842
Si Si6 0.567691 0.550254 0.384457
Si Si7 0.968213 0.318267 0.850245
O O1 0.142545 0.312514 0.467976
O O2 0.147729 0.210238 0.345955
O O3 0.248519 0.323100 0.336374
O O4 0.000000 0.309927 0.250000
O O5 0.191482 0.867602 0.520604
O O6 0.950718 0.884202 0.359913
O O7 0.026617 0.912567 0.577105
O O8 0.105482 0.982180 0.449677
O O9 0.302436 0.590265 0.078755
O O10 0.157906 0.646328 0.158064
O O11 0.797369 0.166118 0.665390
O O12 0.945886 0.240785 0.840414
O O13 0.750000 0.250000 0.500000
O O14 0.913381 0.338018 0.529477
O O15 0.500000 0.539999 0.250000
O O16 0.000000 0.342791 0.750000
#
# Coordination Sequence:
#
# PCOD8137060 Si02
#       7
#     8   8   8   8   8   8   8
#     4  10  20  35  59  90 127 163 197 258 317 368
#     4  11  24  42  65  93 125 161 213 255 309 368
#     4  10  22  38  58  89 127 159 210 250 310 372
#     4  11  20  38  60  91 130 158 210 259 310 373
#     4  12  22  35  62  92 124 166 203 257 320 365
#     4  11  24  42  66  92 121 168 209 258 304 368
#     4  11  22  36  57  92 126 163 200 260 316 371
#
# _framework density 19.642692
#
# number of rings (size 3 to 8) (size 9 to 14) (size 15 to 20)
#    0.000    1.143    4.286    2.571    2.000    1.143 
#    0.000    0.714    0.000    0.857    0.000    0.000 
#    0.000    0.000    0.000    0.000    0.000    0.000 
#
# Total GULP energy -347283.534868 kJ/mol
# GULP energy per Si atom -12402.983388 kJ/mol
# Density = 1.959798 g / cm^3
# Si number density = 19.642692 Si / 1000 Ang^3
#
#
#
# Elastic Constant Matrix: (Units=GPa)
#
#
# Indices 1 2 3 4 5 6 
#
# 1 127.0259 56.2848 42.5537 0.0000 -9.6883 0.0000
# 2 56.2848 86.4976 7.9923 0.0000 -10.0001 0.0000
# 3 42.5537 7.9923 75.7749 0.0000 -13.3007 0.0000
# 4 0.0000 0.0000 0.0000 21.1598 0.0000 -3.3878
# 5 -9.6883 -10.0001 -13.3007 0.0000 41.0732 0.0000
# 6 0.0000 0.0000 0.0000 -3.3878 0.0000 34.3229
#
#
#
# Elastic Compliance Matrix: (Units=1/GPa)
#
#
# Indices 1 2 3 4 5 6 
#
# 1 0.013972 -0.008559 -0.007137 0.000000 -0.001099 0.000000
# 2 -0.008559 0.017184 0.003578 0.000000 0.003323 0.000000
# 3 -0.007137 0.003578 0.017690 0.000000 0.004916 0.000000
# 4 0.000000 0.000000 0.000000 0.048018 0.000000 0.004740
# 5 -0.001099 0.003323 0.004916 0.000000 0.026489 0.000000
# 6 0.000000 0.000000 0.000000 0.004740 0.000000 0.029603
#
#
# Mechanical properties :
#
#
# Convention : Reuss Voigt Hill
#
# Bulk Modulus (GPa) = 40.63378 55.88445 48.25911
# Shear Modulus (GPa) = 26.96928 31.47570 29.22249
#
# Velocity S-wave (km/s) = 3.70941 4.00736 3.86126
# Velocity P-wave (km/s) = 6.25121 7.06570 6.67090
#
# Compressibility (1/GPa) = 0.02461007
#
# Stress axis : x y z
#
# Youngs Moduli (GPa) = 71.57218 58.19264 56.52810
#
# Poissons Ratio (x) = 0.49809 0.40341
# Poissons Ratio (y) = 0.61261 -0.20224
# Poissons Ratio (z) = 0.51078 -0.20819
#
# Static dielectric constant tensor:
#      x y z
#    x 3.752630 0.000000 -0.299120 
#    y 0.000000 3.415100 0.000000 
#    z -0.299120 0.000000 3.229920 
# 
# 
# High freq. dielectric constant tensor:
#      x y z
#    x 1.777840 0.000000 -0.012150 
#    y 0.000000 1.735040 0.000000 
#    z -0.012150 0.000000 1.774300 
# 
# From -- ./inp_files/89058.got.cif
#   From: 2010.06.25/outbox.cif.g09.slc.cpg/sg15_45_cif.got.tgz:89058.got - 2010.06.28 07:06:18.
