data_PCOD8137419
_publ_section_title
;
Structure prediction by ZEFSAII (Michael W. Deem and Ramdas Pophale) SiO2 
 PCOD8137419
Probable space group: C 2/C
;
_chemical_formula_sum "Si O2"
_cell_formula_units_Z 44
_cell_length_a 11.682226
_cell_length_b 9.417101
_cell_length_c 26.350681
_cell_angle_alpha 90.000000
_cell_angle_beta 44.694790
_cell_angle_gamma 90.000000
_cell_volume 2038.890294
_symmetry_space_group_name_H-M "C 2/C"
_symmetry_group_IT_number 15
_symmetry_cell_setting 'monoclinic'
loop_
_space_group_symop_operation_xyz
x,y,z
-x,y,1/2-z
-x,-y,-z
x,-y,1/2+z
1/2+x,1/2+y,z
1/2-x,1/2+y,1/2-z
1/2-x,1/2-y,-z
1/2+x,1/2-y,1/2+z
loop_
_atom_site_type_symbol
_atom_site_label
_atom_site_fract_x
_atom_site_fract_y
_atom_site_fract_z
Si Si1 0.711241 0.319783 0.277275
Si Si2 0.940672 0.049018 0.365932
Si Si3 0.549165 0.813956 0.384940
Si Si4 0.826932 0.684825 0.542885
Si Si5 0.500000 0.282912 0.750000
Si Si6 0.054381 0.379725 0.599596
O O1 0.610339 0.463633 0.316024
O O2 0.777277 0.308106 0.198801
O O3 0.601058 0.181529 0.321857
O O4 0.864214 0.318263 0.267573
O O5 0.943489 0.174579 0.406339
O O6 0.917970 0.114677 0.317372
O O7 0.789559 0.950784 0.426347
O O8 0.572125 0.822462 0.437698
O O9 0.449828 0.950717 0.396936
O O10 0.951070 0.679927 0.456538
O O11 0.720481 0.828732 0.574558
#
# Coordination Sequence:
#
# PCOD8137419 Si02
#       6
#     8   8   8   8   4   8
#     4  10  21  38  59  87 118 151 193 238 288 342
#     4  10  21  36  58  87 114 151 199 235 283 346
#     4  11  21  36  62  87 112 153 199 235 281 343
#     4  10  22  41  60  82 120 156 185 239 291 335
#     4  10  20  36  58  84 120 152 186 250 292 322
#     4  10  22  40  60  86 119 153 190 234 292 344
#
# _framework density 21.580366999999999
#
# number of rings (size 3 to 8) (size 9 to 14) (size 15 to 20)
#    0.000    1.818    0.000    4.909    0.000    5.818 
#    0.000   10.000    0.000    0.000    0.000    0.000 
#    0.000    0.000    0.000    0.000    0.000    0.000 
#
# Total GULP energy -272881.165696 kJ/mol
# GULP energy per Si atom -12403.689350 kJ/mol
# Density = 2.153125 g / cm^3
# Si number density = 21.580367 Si / 1000 Ang^3
#
#
#
# Elastic Constant Matrix: (Units=GPa)
#
#
# Indices 1 2 3 4 5 6 
#
# 1 45.8175 30.3775 -2.8198 0.0000 9.0469 0.0000
# 2 30.3775 118.3269 7.8718 0.0000 12.7839 0.0000
# 3 -2.8198 7.8718 60.2749 0.0000 3.2034 0.0000
# 4 0.0000 0.0000 0.0000 19.1792 0.0000 5.9903
# 5 9.0469 12.7839 3.2034 0.0000 13.5373 0.0000
# 6 0.0000 0.0000 0.0000 5.9903 0.0000 21.7980
#
#
#
# Elastic Compliance Matrix: (Units=1/GPa)
#
#
# Indices 1 2 3 4 5 6 
#
# 1 0.028830 -0.006056 0.002896 0.000000 -0.014233 0.000000
# 2 -0.006056 0.010719 -0.001378 0.000000 -0.005749 0.000000
# 3 0.002896 -0.001378 0.017156 0.000000 -0.004694 0.000000
# 4 0.000000 0.000000 0.000000 0.057035 0.000000 -0.015674
# 5 -0.014233 -0.005749 -0.004694 0.000000 0.089921 0.000000
# 6 0.000000 0.000000 0.000000 -0.015674 0.000000 0.050183
#
#
# Mechanical properties :
#
#
# Convention : Reuss Voigt Hill
#
# Bulk Modulus (GPa) = 20.99593 32.80868 26.90231
# Shear Modulus (GPa) = 17.93432 23.50223 20.71827
#
# Velocity S-wave (km/s) = 2.88592 3.30366 3.10183
# Velocity P-wave (km/s) = 4.56673 5.45787 5.03206
#
# Compressibility (1/GPa) = 0.04762828
#
# Stress axis : x y z
#
# Youngs Moduli (GPa) = 34.68648 93.29491 58.29019
#
# Poissons Ratio (x) = 0.56502 -0.16881
# Poissons Ratio (y) = 0.21007 0.08030
# Poissons Ratio (z) = -0.10046 0.12853
#
# Static dielectric constant tensor:
#      x y z
#    x 3.734680 0.000000 0.049930 
#    y 0.000000 3.994810 0.000000 
#    z 0.049930 0.000000 4.009850 
# 
# 
# High freq. dielectric constant tensor:
#      x y z
#    x 1.829730 0.000000 0.004670 
#    y 0.000000 1.855100 0.000000 
#    z 0.004670 0.000000 1.856180 
# 
# From -- ./inp_files/236048.got.cif
#   From: 2010.06.25/outbox.cif.g09.slc.cpg/sg15_119_cif.got.tgz:236048.got - 2010.06.28 07:06:18.
