data_PCOD8137366
_publ_section_title
;
Structure prediction by ZEFSAII (Michael W. Deem and Ramdas Pophale) SiO2 
 PCOD8137366
Probable space group: C 2/C
;
_chemical_formula_sum "Si O2"
_cell_formula_units_Z 56
_cell_length_a 13.150008
_cell_length_b 8.194995
_cell_length_c 32.521056
_cell_angle_alpha 90.000000
_cell_angle_beta 127.231941
_cell_angle_gamma 90.000000
_cell_volume 2790.342829
_symmetry_space_group_name_H-M "C 2/C"
_symmetry_group_IT_number 15
_symmetry_cell_setting 'monoclinic'
loop_
_space_group_symop_operation_xyz
x,y,z
-x,y,1/2-z
-x,-y,-z
x,-y,1/2+z
1/2+x,1/2+y,z
1/2-x,1/2+y,1/2-z
1/2-x,1/2-y,-z
1/2+x,1/2-y,1/2+z
loop_
_atom_site_type_symbol
_atom_site_label
_atom_site_fract_x
_atom_site_fract_y
_atom_site_fract_z
Si Si1 0.817882 0.516761 0.503609
Si Si2 0.721614 0.160098 0.307535
Si Si3 0.041254 0.833903 0.690509
Si Si4 0.085250 0.822728 0.484914
Si Si5 0.000000 0.413212 0.250000
Si Si6 0.655421 0.512051 0.084311
Si Si7 0.000000 0.910492 0.250000
Si Si8 0.326268 0.233908 0.581261
O O1 0.919200 0.375084 0.517984
O O2 0.694096 0.414853 0.486506
O O3 0.783668 0.633618 0.456682
O O4 0.872895 0.637155 0.552031
O O5 0.814884 0.186625 0.291352
O O6 0.806522 0.125850 0.368419
O O7 0.628658 0.312610 0.291996
O O8 0.630697 0.009193 0.276465
O O9 0.993690 0.687075 0.706845
O O10 0.944099 0.835783 0.628444
O O11 0.031489 0.993919 0.716015
O O12 0.099025 0.867455 0.536081
O O13 0.955161 0.883298 0.431772
O O14 0.776045 0.404766 0.099797
#
# Coordination Sequence:
#
# PCOD8137366 Si02
#       8
#     8   8   8   8   4   8   4   8
#     4   9  19  36  57  84 121 160 206 244 301 372
#     4  11  22  42  64  89 122 163 201 257 314 368
#     4  11  22  42  64  90 124 158 202 262 309 369
#     4   9  19  36  57  84 121 160 202 250 297 370
#     4  10  22  42  64  88 122 154 204 264 300 370
#     4  10  20  36  57  87 121 160 201 252 310 359
#     4  10  26  42  64  94 118 162 212 254 314 380
#     4  10  20  36  57  87 123 159 200 257 303 362
#
# _framework density 20.069216999999998
#
# number of rings (size 3 to 8) (size 9 to 14) (size 15 to 20)
#    0.000    2.000    1.429    1.714    2.000    1.714 
#    5.143    1.429    0.000    0.000    0.000    0.000 
#    0.000    0.000    0.000    0.000    0.000    0.000 
#
# Total GULP energy -347076.011733 kJ/mol
# GULP energy per Si atom -12395.571848 kJ/mol
# Density = 2.002354 g / cm^3
# Si number density = 20.069217 Si / 1000 Ang^3
#
#
#
# Elastic Constant Matrix: (Units=GPa)
#
#
# Indices 1 2 3 4 5 6 
#
# 1 86.4476 21.2925 29.8207 0.0000 5.3502 0.0000
# 2 21.2925 103.4260 42.2610 0.0000 2.3618 0.0000
# 3 29.8207 42.2610 109.8151 0.0000 10.6933 0.0000
# 4 0.0000 0.0000 0.0000 7.1755 0.0000 12.3696
# 5 5.3502 2.3618 10.6933 0.0000 26.4486 0.0000
# 6 0.0000 0.0000 0.0000 12.3696 0.0000 3.7912
#
#
#
# Elastic Compliance Matrix: (Units=1/GPa)
#
#
# Indices 1 2 3 4 5 6 
#
# 1 0.012992 -0.001490 -0.002823 0.000000 -0.001354 0.000000
# 2 -0.001490 0.011660 -0.004175 0.000000 0.000948 0.000000
# 3 -0.002823 -0.004175 0.011854 0.000000 -0.003849 0.000000
# 4 0.000000 0.000000 0.000000 -0.030136 0.000000 0.098325
# 5 -0.001354 0.000948 -0.003849 0.000000 0.039555 0.000000
# 6 0.000000 0.000000 0.000000 0.098325 0.000000 -0.057038
#
#
# Mechanical properties :
#
#
# Convention : Reuss Voigt Hill
#
# Bulk Modulus (GPa) = 51.20207 54.04858 52.62533
# Shear Modulus (GPa) = 404.11810 21.23737 212.67774
#
# Velocity S-wave (km/s) = 14.20561 3.25654 10.30544
# Velocity P-wave (km/s) = 17.16490 6.41324 12.95692
#
# Compressibility (1/GPa) = 0.01953046
#
# Stress axis : x y z
#
# Youngs Moduli (GPa) = 76.96864 85.76495 84.35895
#
# Poissons Ratio (x) = 0.12783 0.23812
# Poissons Ratio (y) = 0.11472 0.35217
# Poissons Ratio (z) = 0.21726 0.35804
#
# Static dielectric constant tensor:
#      x y z
#    x 4.474200 0.000000 1.213150 
#    y 0.000000 3.802440 0.000000 
#    z 1.213150 0.000000 5.256030 
# 
# 
# High freq. dielectric constant tensor:
#      x y z
#    x 1.781990 0.000000 0.001220 
#    y 0.000000 1.789590 0.000000 
#    z 0.001220 0.000000 1.778760 
# 
# From -- ./inp_files/294793.got.cif
#   From: 2010.06.25/outbox.cif.g09.slc.cpg/sg15_148_cif.got.tgz:294793.got - 2010.06.28 07:06:18.
