data_PCOD8137788
_publ_section_title
;
Structure prediction by ZEFSAII (Michael W. Deem and Ramdas Pophale) SiO2 
 PCOD8137788
Probable space group: C 2/C
;
_chemical_formula_sum "Si O2"
_cell_formula_units_Z 48
_cell_length_a 24.821339
_cell_length_b 12.043184
_cell_length_c 20.023807
_cell_angle_alpha 90.000000
_cell_angle_beta 21.549479
_cell_angle_gamma 90.000000
_cell_volume 2198.566026
_symmetry_space_group_name_H-M "C 2/C"
_symmetry_group_IT_number 15
_symmetry_cell_setting 'monoclinic'
loop_
_space_group_symop_operation_xyz
x,y,z
-x,y,1/2-z
-x,-y,-z
x,-y,1/2+z
1/2+x,1/2+y,z
1/2-x,1/2+y,1/2-z
1/2-x,1/2-y,-z
1/2+x,1/2-y,1/2+z
loop_
_atom_site_type_symbol
_atom_site_label
_atom_site_fract_x
_atom_site_fract_y
_atom_site_fract_z
Si Si1 0.858821 0.185512 0.120800
Si Si2 0.651438 0.454113 0.408873
Si Si3 0.462018 0.229037 0.964905
Si Si4 0.671612 0.116504 0.920309
Si Si5 0.886348 0.520668 0.751068
Si Si6 0.669239 0.139270 0.068389
O O1 0.695665 0.170454 0.340684
O O2 0.862375 0.251939 0.046782
O O3 0.954618 0.257398 0.061379
O O4 0.930912 0.066201 0.019703
O O5 0.550944 0.353162 0.553728
O O6 0.709449 0.402808 0.273368
O O7 0.772306 0.489766 0.322690
O O8 0.559397 0.149354 0.803866
O O9 0.527971 0.048307 0.067550
O O10 0.734580 0.096075 0.922300
O O11 0.815475 0.466148 0.899251
O O12 0.500000 0.169806 0.250000
O O13 0.750000 0.250000 0.000000
#
# Coordination Sequence:
#
# PCOD8137788 Si02
#       6
#     8   8   8   8   8   8
#     4  11  21  35  59  95 133 159 215 260 322 371
#     4  11  21  35  62  94 128 163 217 266 312 377
#     4  11  21  36  59  93 132 168 204 266 320 374
#     4  10  20  36  62  95 123 168 207 261 320 381
#     4  11  20  40  63  90 131 171 209 258 332 374
#     4  10  23  41  66  93 128 169 211 262 320 382
#
# _framework density 21.832412000000001
#
# number of rings (size 3 to 8) (size 9 to 14) (size 15 to 20)
#    0.000    1.333    5.000    3.000    0.000    4.000 
#    0.000    1.667    0.000   16.000    0.000   10.500 
#    0.000    0.000    0.000    0.000    0.000    0.000 
#
# Total GULP energy -297338.951364 kJ/mol
# GULP energy per Si atom -12389.122974 kJ/mol
# Density = 2.178272 g / cm^3
# Si number density = 21.832412 Si / 1000 Ang^3
#
#
#
# Elastic Constant Matrix: (Units=GPa)
#
#
# Indices 1 2 3 4 5 6 
#
# 1 124.6350 52.0844 36.6669 0.0006 10.8249 -0.0006
# 2 52.0844 180.5783 22.0968 0.0011 14.3111 -0.0012
# 3 36.6669 22.0968 30.8724 0.0016 -1.4665 -0.0017
# 4 0.0006 0.0011 0.0016 40.5558 -0.0010 -3.9178
# 5 10.8249 14.3111 -1.4665 -0.0010 24.2828 0.0007
# 6 -0.0006 -0.0012 -0.0017 -3.9178 0.0007 38.7874
#
#
#
# Elastic Compliance Matrix: (Units=1/GPa)
#
#
# Indices 1 2 3 4 5 6 
#
# 1 0.013792 -0.001590 -0.015535 0.000000 -0.006150 0.000000
# 2 -0.001590 0.006634 -0.003021 0.000000 -0.003384 0.000000
# 3 -0.015535 -0.003021 0.053572 -0.000001 0.011941 0.000002
# 4 0.000000 0.000000 -0.000001 0.024900 0.000001 0.002515
# 5 -0.006150 -0.003384 0.011941 0.000001 0.046638 0.000000
# 6 0.000000 0.000000 0.000002 0.002515 0.000000 0.026036
#
#
# Mechanical properties :
#
#
# Convention : Reuss Voigt Hill
#
# Bulk Modulus (GPa) = 29.66790 61.97577 45.82183
# Shear Modulus (GPa) = 22.41150 35.74103 29.07627
#
# Velocity S-wave (km/s) = 3.20742 4.05045 3.65333
# Velocity P-wave (km/s) = 5.22830 7.09391 6.23132
#
# Compressibility (1/GPa) = 0.03370646
#
# Stress axis : x y z
#
# Youngs Moduli (GPa) = 72.50436 150.73603 18.66650
#
# Poissons Ratio (x) = 0.23963 0.28999
# Poissons Ratio (y) = 0.11526 0.05639
# Poissons Ratio (z) = 1.12637 0.45536
#
# Static dielectric constant tensor:
#      x y z
#    x 4.017660 0.000000 -0.059000 
#    y 0.000000 4.541070 0.000000 
#    z -0.059000 0.000000 3.758340 
# 
# 
# High freq. dielectric constant tensor:
#      x y z
#    x 1.854760 0.000000 -0.023160 
#    y 0.000000 1.878850 0.000000 
#    z -0.023160 0.000000 1.820300 
# 
# From -- ./inp_files/257599.got.cif
#   From: 2010.06.25/outbox.cif.g09.slc.cpg/sg15_129_cif.got.tgz:257599.got - 2010.06.28 07:06:18.
