data_PCOD8137879
_publ_section_title
;
Structure prediction by ZEFSAII (Michael W. Deem and Ramdas Pophale) SiO2 
 PCOD8137879
Probable space group: C 2/C
;
_chemical_formula_sum "Si O2"
_cell_formula_units_Z 56
_cell_length_a 18.062586
_cell_length_b 10.385062
_cell_length_c 21.218104
_cell_angle_alpha 90.000000
_cell_angle_beta 138.730834
_cell_angle_gamma 90.000000
_cell_volume 2625.272859
_symmetry_space_group_name_H-M "C 2/C"
_symmetry_group_IT_number 15
_symmetry_cell_setting 'monoclinic'
loop_
_space_group_symop_operation_xyz
x,y,z
-x,y,1/2-z
-x,-y,-z
x,-y,1/2+z
1/2+x,1/2+y,z
1/2-x,1/2+y,1/2-z
1/2-x,1/2-y,-z
1/2+x,1/2-y,1/2+z
loop_
_atom_site_type_symbol
_atom_site_label
_atom_site_fract_x
_atom_site_fract_y
_atom_site_fract_z
Si Si1 0.245405 0.695185 0.292321
Si Si2 0.500000 0.962713 0.750000
Si Si3 0.284856 0.311328 0.678545
Si Si4 0.516969 0.187010 0.384024
Si Si5 0.362393 0.436565 0.074201
Si Si6 0.500000 0.392272 0.750000
Si Si7 0.303985 0.920942 0.420889
Si Si8 0.739618 0.040558 0.878637
O O1 0.313779 0.680247 0.271148
O O2 0.278826 0.828985 0.345939
O O3 0.277105 0.575380 0.356975
O O4 0.114961 0.699022 0.189674
O O5 0.454989 0.871548 0.665907
O O6 0.604160 0.048443 0.794357
O O7 0.398989 0.305993 0.711185
O O8 0.208907 0.431421 0.608332
O O9 0.218961 0.177864 0.622110
O O10 0.579730 0.323140 0.427872
O O11 0.569109 0.098289 0.472828
O O12 0.461798 0.519658 0.167477
O O13 0.281911 0.383483 0.077995
O O14 0.291041 0.523436 0.980624
#
# Coordination Sequence:
#
# PCOD8137879 Si02
#       8
#     8   4   8   8   8   4   8   8
#     4  11  24  43  65  91 128 166 211 260 309 369
#     4  10  20  36  64  98 121 165 204 264 309 361
#     4  11  25  45  61  93 128 167 209 256 317 377
#     4  11  20  37  65  98 125 163 211 257 310 361
#     4  11  20  40  66 100 124 163 215 257 305 369
#     4  10  24  42  66  88 125 167 206 266 317 367
#     4  11  22  40  68  92 131 165 208 262 303 370
#     4  11  22  40  66  92 132 162 208 260 308 371
#
# _framework density 21.331116000000002
#
# number of rings (size 3 to 8) (size 9 to 14) (size 15 to 20)
#    0.000    1.143    2.857    5.571    0.000    2.857 
#    7.714    1.429    0.000    0.000    0.000    0.000 
#    0.000    0.000    0.000    0.000    0.000    0.000 
#
# Total GULP energy -347313.610376 kJ/mol
# GULP energy per Si atom -12404.057513 kJ/mol
# Density = 2.128257 g / cm^3
# Si number density = 21.331116 Si / 1000 Ang^3
#
#
#
# Elastic Constant Matrix: (Units=GPa)
#
#
# Indices 1 2 3 4 5 6 
#
# 1 55.4702 28.6431 24.0424 0.0000 -24.4462 0.0000
# 2 28.6431 141.4738 52.7557 0.0000 -8.8192 0.0000
# 3 24.0424 52.7557 136.4955 0.0000 -11.9991 0.0000
# 4 0.0000 0.0000 0.0000 21.8180 0.0000 -9.4140
# 5 -24.4462 -8.8192 -11.9991 0.0000 29.6912 0.0000
# 6 0.0000 0.0000 0.0000 -9.4140 0.0000 17.6553
#
#
#
# Elastic Compliance Matrix: (Units=1/GPa)
#
#
# Indices 1 2 3 4 5 6 
#
# 1 0.031576 -0.004217 -0.001821 0.000000 0.024009 0.000000
# 2 -0.004217 0.008864 -0.002858 0.000000 -0.001994 0.000000
# 3 -0.001821 -0.002858 0.008860 0.000000 0.001232 0.000000
# 4 0.000000 0.000000 0.000000 0.059530 0.000000 0.031742
# 5 0.024009 -0.001994 0.001232 0.000000 0.053353 0.000000
# 6 0.000000 0.000000 0.000000 0.031742 0.000000 0.073565
#
#
# Mechanical properties :
#
#
# Convention : Reuss Voigt Hill
#
# Bulk Modulus (GPa) = 31.73981 60.48020 46.11000
# Shear Modulus (GPa) = 18.93630 29.03280 23.98455
#
# Velocity S-wave (km/s) = 2.98271 3.69325 3.35683
# Velocity P-wave (km/s) = 5.17436 6.82652 6.05704
#
# Compressibility (1/GPa) = 0.03150618
#
# Stress axis : x y z
#
# Youngs Moduli (GPa) = 31.66997 112.81831 112.86507
#
# Poissons Ratio (x) = 0.47576 0.20556
# Poissons Ratio (y) = 0.13355 0.32261
# Poissons Ratio (z) = 0.05768 0.32248
#
# Static dielectric constant tensor:
#      x y z
#    x 3.674730 0.000000 -0.043470 
#    y 0.000000 3.771150 0.000000 
#    z -0.043470 0.000000 3.919970 
# 
# 
# High freq. dielectric constant tensor:
#      x y z
#    x 1.820010 0.000000 -0.009160 
#    y 0.000000 1.840310 0.000000 
#    z -0.009160 0.000000 1.844840 
# 
# From -- ./inp_files/252442.got.cif
#   From: 2010.06.25/outbox.cif.g09.slc.cpg/sg15_127_cif.got.tgz:252442.got - 2010.06.28 07:06:18.
