data_PCOD8137541
_publ_section_title
;
Structure prediction by ZEFSAII (Michael W. Deem and Ramdas Pophale) SiO2 
 PCOD8137541
Probable space group: C 2/C
;
_chemical_formula_sum "Si O2"
_cell_formula_units_Z 52
_cell_length_a 22.965385
_cell_length_b 25.249211
_cell_length_c 5.044118
_cell_angle_alpha 90.000000
_cell_angle_beta 119.220409
_cell_angle_gamma 90.000000
_cell_volume 2552.676402
_symmetry_space_group_name_H-M "C 2/C"
_symmetry_group_IT_number 15
_symmetry_cell_setting 'monoclinic'
loop_
_space_group_symop_operation_xyz
x,y,z
-x,y,1/2-z
-x,-y,-z
x,-y,1/2+z
1/2+x,1/2+y,z
1/2-x,1/2+y,1/2-z
1/2-x,1/2-y,-z
1/2+x,1/2-y,1/2+z
loop_
_atom_site_type_symbol
_atom_site_label
_atom_site_fract_x
_atom_site_fract_y
_atom_site_fract_z
Si Si1 0.000000 0.536405 0.750000
Si Si2 0.193369 0.710311 0.773263
Si Si3 0.138023 0.812075 0.467302
Si Si4 0.924110 0.853582 0.666072
Si Si5 0.146006 0.462220 0.596729
Si Si6 0.781898 0.646421 0.202581
Si Si7 0.420480 0.530266 0.061967
O O1 0.928232 0.566618 0.573743
O O2 0.000000 0.500000 0.500000
O O3 0.137081 0.749709 0.536875
O O4 0.214727 0.671299 0.582422
O O5 0.250000 0.750000 0.000000
O O6 0.169583 0.675456 0.973331
O O7 0.084649 0.839438 0.545095
O O8 0.207886 0.843285 0.654797
O O9 0.115662 0.813672 0.112034
O O10 0.892330 0.911382 0.547733
O O11 0.000000 0.852165 0.750000
O O12 0.156129 0.494108 0.347431
O O13 0.200081 0.415735 0.759468
O O14 0.500000 0.531266 0.250000
O O15 0.392879 0.490103 0.221467
#
# Coordination Sequence:
#
# PCOD8137541 Si02
#       7
#     4   8   8   8   8   8   8
#     4   8  16  32  56  80 110 158 192 208 254 350
#     4  10  20  37  61  84 106 146 194 241 282 343
#     4  11  21  37  58  82 109 145 198 239 289 343
#     4  11  22  36  56  78 108 151 191 233 289 351
#     4  10  20  36  59  89 123 156 188 228 283 351
#     4  11  21  37  61  88 114 147 192 244 285 332
#     4   9  17  31  49  69  94 130 182 229 262 313
#
# _framework density 20.370777
#
# number of rings (size 3 to 8) (size 9 to 14) (size 15 to 20)
#    0.000    1.846    0.000    6.923    0.000    2.462 
#    0.000    4.615   10.154    0.000    0.000    0.000 
#    0.000    0.000    0.000    0.000    0.000    0.000 
#
# Total GULP energy -322136.487696 kJ/mol
# GULP energy per Si atom -12389.864911 kJ/mol
# Density = 2.032441 g / cm^3
# Si number density = 20.370777 Si / 1000 Ang^3
#
#
#
# Elastic Constant Matrix: (Units=GPa)
#
#
# Indices 1 2 3 4 5 6 
#
# 1 66.5677 22.2396 12.6947 0.0000 -8.9224 0.0000
# 2 22.2396 94.3975 25.1366 0.0000 -0.9196 0.0000
# 3 12.6947 25.1366 83.9579 0.0000 -22.6830 0.0000
# 4 0.0000 0.0000 0.0000 32.8229 0.0000 -7.8837
# 5 -8.9224 -0.9196 -22.6830 0.0000 34.7463 0.0000
# 6 0.0000 0.0000 0.0000 -7.8837 0.0000 26.7106
#
#
#
# Elastic Compliance Matrix: (Units=1/GPa)
#
#
# Indices 1 2 3 4 5 6 
#
# 1 0.016913 -0.003863 -0.000310 0.000000 0.004039 0.000000
# 2 -0.003863 0.012555 -0.004071 0.000000 -0.003317 0.000000
# 3 -0.000310 -0.004071 0.015937 0.000000 0.010216 0.000000
# 4 0.000000 0.000000 0.000000 0.032791 0.000000 0.009678
# 5 0.004039 -0.003317 0.010216 0.000000 0.036399 0.000000
# 6 0.000000 0.000000 0.000000 0.009678 0.000000 0.040295
#
#
# Mechanical properties :
#
#
# Convention : Reuss Voigt Hill
#
# Bulk Modulus (GPa) = 34.58080 40.56274 37.57177
# Shear Modulus (GPa) = 27.62173 31.17943 29.40058
#
# Velocity S-wave (km/s) = 3.68632 3.91653 3.80316
# Velocity P-wave (km/s) = 5.92715 6.35670 6.14568
#
# Compressibility (1/GPa) = 0.02891778
#
# Stress axis : x y z
#
# Youngs Moduli (GPa) = 59.12527 79.64732 62.74848
#
# Poissons Ratio (x) = 0.30767 0.01943
# Poissons Ratio (y) = 0.22839 0.25546
# Poissons Ratio (z) = 0.01831 0.32426
#
# Static dielectric constant tensor:
#      x y z
#    x 3.660510 0.000000 -0.126300 
#    y 0.000000 3.843450 0.000000 
#    z -0.126300 0.000000 4.012720 
# 
# 
# High freq. dielectric constant tensor:
#      x y z
#    x 1.775110 0.000000 -0.027750 
#    y 0.000000 1.784330 0.000000 
#    z -0.027750 0.000000 1.809560 
# 
# From -- ./inp_files/15890.got.cif
#   From: 2010.06.25/outbox.cif.g09.slc.cpg/sg15_8_cif.got.tgz:15890.got - 2010.06.28 07:06:18.
