data_PCOD8137309
_publ_section_title
;
Structure prediction by ZEFSAII (Michael W. Deem and Ramdas Pophale) SiO2 
 PCOD8137309
Probable space group: C 2/C
;
_chemical_formula_sum "Si O2"
_cell_formula_units_Z 48
_cell_length_a 13.621385
_cell_length_b 25.701429
_cell_length_c 10.763926
_cell_angle_alpha 90.000000
_cell_angle_beta 38.350658
_cell_angle_gamma 90.000000
_cell_volume 2338.147389
_symmetry_space_group_name_H-M "C 2/C"
_symmetry_group_IT_number 15
_symmetry_cell_setting 'monoclinic'
loop_
_space_group_symop_operation_xyz
x,y,z
-x,y,1/2-z
-x,-y,-z
x,-y,1/2+z
1/2+x,1/2+y,z
1/2-x,1/2+y,1/2-z
1/2-x,1/2-y,-z
1/2+x,1/2-y,1/2+z
loop_
_atom_site_type_symbol
_atom_site_label
_atom_site_fract_x
_atom_site_fract_y
_atom_site_fract_z
Si Si1 0.249990 0.901659 0.178691
Si Si2 0.000000 0.061486 0.250000
Si Si3 0.500000 0.944061 0.750000
Si Si4 0.093448 0.093366 0.419514
Si Si5 0.241447 0.494072 0.152676
Si Si6 0.218182 0.309841 0.661937
Si Si7 0.151515 0.702875 0.949541
O O1 0.280725 0.843640 0.204112
O O2 0.062500 0.905943 0.337891
O O3 0.306889 0.944491 0.218791
O O4 0.359223 0.908007 0.945947
O O5 0.957759 0.098750 0.174518
O O6 0.850863 0.024325 0.429355
O O7 0.423669 0.981717 0.724953
O O8 0.167417 0.036289 0.355325
O O9 0.215214 0.137762 0.341631
O O10 0.243529 0.307743 0.488976
O O11 0.306689 0.260681 0.638490
O O12 0.034353 0.304083 0.867984
#
# Coordination Sequence:
#
# PCOD8137309 Si02
#       7
#     8   4   4   8   8   8   8
#     4  11  22  35  55  81 115 151 187 227 277 337
#     4  10  22  40  58  78 112 152 196 236 280 336
#     4  12  22  34  54  84 120 148 184 230 284 344
#     4  11  22  38  59  83 113 152 192 235 283 336
#     4  11  22  37  57  83 114 151 189 233 284 337
#     4  10  21  36  59  85 115 147 184 232 287 340
#     4  10  20  36  56  86 116 145 182 230 285 340
#
# _framework density 20.529074000000001
#
# number of rings (size 3 to 8) (size 9 to 14) (size 15 to 20)
#    0.000    1.333    0.000    8.500    0.000    4.667 
#    0.000    0.000    0.000   10.000    0.000    0.000 
#    0.000    0.000    0.000    0.000    0.000    0.000 
#
# Total GULP energy -297505.481049 kJ/mol
# GULP energy per Si atom -12396.061710 kJ/mol
# Density = 2.048235 g / cm^3
# Si number density = 20.529074 Si / 1000 Ang^3
#
#
#
# Elastic Constant Matrix: (Units=GPa)
#
#
# Indices 1 2 3 4 5 6 
#
# 1 80.7786 36.1247 37.9290 0.0000 -13.5200 0.0000
# 2 36.1247 150.2576 41.5866 0.0000 -3.8192 0.0000
# 3 37.9290 41.5866 81.9220 0.0000 -5.9226 0.0000
# 4 0.0000 0.0000 0.0000 36.9710 0.0000 -9.3740
# 5 -13.5200 -3.8192 -5.9226 0.0000 25.2989 0.0000
# 6 0.0000 0.0000 0.0000 -9.3740 0.0000 18.5731
#
#
#
# Elastic Compliance Matrix: (Units=1/GPa)
#
#
# Indices 1 2 3 4 5 6 
#
# 1 0.017720 -0.002267 -0.006504 0.000000 0.007605 0.000000
# 2 -0.002267 0.008035 -0.003081 0.000000 -0.000720 0.000000
# 3 -0.006504 -0.003081 0.016781 0.000000 -0.000012 0.000000
# 4 0.000000 0.000000 0.000000 0.031018 0.000000 0.015655
# 5 0.007605 -0.000720 -0.000012 0.000000 0.043480 0.000000
# 6 0.000000 0.000000 0.000000 0.015655 0.000000 0.061743
#
#
# Mechanical properties :
#
#
# Convention : Reuss Voigt Hill
#
# Bulk Modulus (GPa) = 53.10015 60.47098 56.78556
# Shear Modulus (GPa) = 23.95134 29.32311 26.63722
#
# Velocity S-wave (km/s) = 3.41941 3.78348 3.60604
# Velocity P-wave (km/s) = 6.44296 6.97183 6.71261
#
# Compressibility (1/GPa) = 0.01883234
#
# Stress axis : x y z
#
# Youngs Moduli (GPa) = 56.43393 124.45969 59.59097
#
# Poissons Ratio (x) = 0.28214 0.38755
# Poissons Ratio (y) = 0.12793 0.18361
# Poissons Ratio (z) = 0.36702 0.38349
#
# Static dielectric constant tensor:
#      x y z
#    x 3.474800 0.000000 -0.202970 
#    y 0.000000 4.019870 0.000000 
#    z -0.202970 0.000000 3.729870 
# 
# 
# High freq. dielectric constant tensor:
#      x y z
#    x 1.775250 0.000000 -0.031080 
#    y 0.000000 1.820350 0.000000 
#    z -0.031080 0.000000 1.799800 
# 
# From -- ./inp_files/101270.got.cif
#   From: 2010.06.25/outbox.cif.g09.slc.cpg/sg15_51_cif.got.tgz:101270.got - 2010.06.28 07:06:18.
