data_PCOD8137345
_publ_section_title
;
Structure prediction by ZEFSAII (Michael W. Deem and Ramdas Pophale) SiO2 
 PCOD8137345
Probable space group: C 2/C
;
_chemical_formula_sum "Si O2"
_cell_formula_units_Z 40
_cell_length_a 8.168382
_cell_length_b 13.792235
_cell_length_c 20.681282
_cell_angle_alpha 90.000000
_cell_angle_beta 126.947572
_cell_angle_gamma 90.000000
_cell_volume 1862.069713
_symmetry_space_group_name_H-M "C 2/C"
_symmetry_group_IT_number 15
_symmetry_cell_setting 'monoclinic'
loop_
_space_group_symop_operation_xyz
x,y,z
-x,y,1/2-z
-x,-y,-z
x,-y,1/2+z
1/2+x,1/2+y,z
1/2-x,1/2+y,1/2-z
1/2-x,1/2-y,-z
1/2+x,1/2-y,1/2+z
loop_
_atom_site_type_symbol
_atom_site_label
_atom_site_fract_x
_atom_site_fract_y
_atom_site_fract_z
Si Si1 0.409370 0.658884 0.979165
Si Si2 0.062987 0.987513 0.422211
Si Si3 0.279539 0.900255 0.727460
Si Si4 0.971267 0.271756 0.374603
Si Si5 0.224919 0.962558 0.325593
O O1 0.537386 0.619693 0.947909
O O2 0.208548 0.718663 0.909664
O O3 0.342279 0.563629 0.004426
O O4 0.547445 0.729538 0.056577
O O5 0.224018 0.983993 0.401784
O O6 0.837968 0.021485 0.345058
O O7 0.500000 0.876935 0.750000
O O8 0.145458 0.802161 0.700758
O O9 0.301154 0.942211 0.805137
O O10 0.875796 0.376399 0.345204
O O11 0.000000 0.930511 0.250000
#
# Coordination Sequence:
#
# PCOD8137345 Si02
#       5
#     8   8   8   8   8
#     4   9  19  37  58  81 112 150 187 229 286 344
#     4   9  19  37  58  82 114 149 188 235 287 339
#     4  10  20  37  58  80 114 154 190 235 285 336
#     4  10  20  36  57  83 113 148 191 231 281 344
#     4  10  21  37  56  84 114 144 191 239 284 339
#
# _framework density 21.481472
#
# number of rings (size 3 to 8) (size 9 to 14) (size 15 to 20)
#    0.000    2.400    0.000    1.800    0.000    1.600 
#    0.000   39.000    0.000    0.000    0.000    0.000 
#    0.000    0.000    0.000    0.000    0.000    0.000 
#
# Total GULP energy -247982.332721 kJ/mol
# GULP energy per Si atom -12399.116636 kJ/mol
# Density = 2.143258 g / cm^3
# Si number density = 21.481472 Si / 1000 Ang^3
#
#
#
# Elastic Constant Matrix: (Units=GPa)
#
#
# Indices 1 2 3 4 5 6 
#
# 1 89.3367 50.0213 41.7400 0.0000 -18.0858 0.0000
# 2 50.0213 110.5861 46.7450 0.0000 -4.4259 0.0000
# 3 41.7400 46.7450 56.1057 0.0000 -13.4944 0.0000
# 4 0.0000 0.0000 0.0000 36.0861 0.0000 1.4769
# 5 -18.0858 -4.4259 -13.4944 0.0000 35.3591 0.0000
# 6 0.0000 0.0000 0.0000 1.4769 0.0000 31.0331
#
#
#
# Elastic Compliance Matrix: (Units=1/GPa)
#
#
# Indices 1 2 3 4 5 6 
#
# 1 0.019167 -0.004629 -0.009011 0.000000 0.005785 0.000000
# 2 -0.004629 0.015365 -0.010421 0.000000 -0.004422 0.000000
# 3 -0.009011 -0.010421 0.035000 0.000000 0.007444 0.000000
# 4 0.000000 0.000000 0.000000 0.027766 0.000000 -0.001321
# 5 0.005785 -0.004422 0.007444 0.000000 0.033528 0.000000
# 6 0.000000 0.000000 0.000000 -0.001321 0.000000 0.032287
#
#
# Mechanical properties :
#
#
# Convention : Reuss Voigt Hill
#
# Bulk Modulus (GPa) = 46.70824 59.22678 52.96751
# Shear Modulus (GPa) = 22.89700 28.33045 25.61373
#
# Velocity S-wave (km/s) = 3.26835 3.63551 3.45681
# Velocity P-wave (km/s) = 6.00279 6.72708 6.37523
#
# Compressibility (1/GPa) = 0.02140950
#
# Stress axis : x y z
#
# Youngs Moduli (GPa) = 52.17322 65.08489 28.57175
#
# Poissons Ratio (x) = 0.30130 0.25746
# Poissons Ratio (y) = 0.24153 0.29773
# Poissons Ratio (z) = 0.47013 0.67822
#
# Static dielectric constant tensor:
#      x y z
#    x 3.608210 0.000000 -0.128280 
#    y 0.000000 3.886100 0.000000 
#    z -0.128280 0.000000 3.930940 
# 
# 
# High freq. dielectric constant tensor:
#      x y z
#    x 1.819390 0.000000 -0.000110 
#    y 0.000000 1.841430 0.000000 
#    z -0.000110 0.000000 1.838860 
# 
# From -- ./inp_files/188387.got.cif
#   From: 2010.06.25/outbox.cif.g09.slc.cpg/sg15_95_cif.got.tgz:188387.got - 2010.06.28 07:06:18.
