data_PCOD8137812
_publ_section_title
;
Structure prediction by ZEFSAII (Michael W. Deem and Ramdas Pophale) SiO2 
 PCOD8137812
Probable space group: C 2/C
;
_chemical_formula_sum "Si O2"
_cell_formula_units_Z 56
_cell_length_a 15.393694
_cell_length_b 8.566667
_cell_length_c 25.164359
_cell_angle_alpha 90.000000
_cell_angle_beta 60.354621
_cell_angle_gamma 90.000000
_cell_volume 2884.111726
_symmetry_space_group_name_H-M "C 2/C"
_symmetry_group_IT_number 15
_symmetry_cell_setting 'monoclinic'
loop_
_space_group_symop_operation_xyz
x,y,z
-x,y,1/2-z
-x,-y,-z
x,-y,1/2+z
1/2+x,1/2+y,z
1/2-x,1/2+y,1/2-z
1/2-x,1/2-y,-z
1/2+x,1/2-y,1/2+z
loop_
_atom_site_type_symbol
_atom_site_label
_atom_site_fract_x
_atom_site_fract_y
_atom_site_fract_z
Si Si1 0.273977 0.491718 0.198749
Si Si2 0.351919 0.822458 0.682137
Si Si3 0.396038 0.194241 0.811035
Si Si4 0.822365 0.364130 0.010432
Si Si5 0.140506 0.264708 0.390462
Si Si6 0.256379 0.542770 0.374557
Si Si7 0.474116 0.030623 0.886843
O O1 0.352909 0.361507 0.195413
O O2 0.239062 0.598429 0.257809
O O3 0.179931 0.402137 0.202158
O O4 0.334459 0.593648 0.137737
O O5 0.328806 0.844125 0.625749
O O6 0.457764 0.900831 0.663642
O O7 0.500000 0.205068 0.750000
O O8 0.362047 0.373213 0.832783
O O9 0.402721 0.107384 0.865081
O O10 0.876378 0.261915 0.040493
O O11 0.761629 0.508110 0.057094
O O12 0.750000 0.250000 0.000000
O O13 0.906574 0.440158 0.949024
O O14 0.238208 0.376386 0.349331
O O15 0.041824 0.334807 0.392692
#
# Coordination Sequence:
#
# PCOD8137812 Si02
#       7
#     8   8   8   8   8   8   8
#     4  11  21  40  61  89 126 161 204 249 319 368
#     4  10  20  36  63  89 118 164 198 255 304 374
#     4  11  22  38  61  93 126 158 201 255 313 375
#     4  10  21  41  65  86 124 165 208 255 307 365
#     4   9  21  40  62  88 115 167 202 255 299 363
#     4   8  21  38  61  84 117 164 198 244 313 356
#     4  11  21  40  62  91 125 158 208 255 310 363
#
# _framework density 19.416723999999999
#
# number of rings (size 3 to 8) (size 9 to 14) (size 15 to 20)
#    0.857    1.143    1.429    3.000    2.000    0.571 
#    2.571    1.429    0.000    0.000    0.000    0.000 
#    0.000    0.000    0.000    0.000    0.000    0.000 
#
# Total GULP energy -346874.647071 kJ/mol
# GULP energy per Si atom -12388.380253 kJ/mol
# Density = 1.937253 g / cm^3
# Si number density = 19.416724 Si / 1000 Ang^3
#
#
#
# Elastic Constant Matrix: (Units=GPa)
#
#
# Indices 1 2 3 4 5 6 
#
# 1 64.3511 27.3414 12.9868 0.0000 1.6820 0.0000
# 2 27.3414 115.0898 35.0883 0.0000 -3.4794 -0.0001
# 3 12.9868 35.0883 80.6769 0.0000 3.6306 0.0000
# 4 0.0000 0.0000 0.0000 38.6662 0.0000 0.0967
# 5 1.6820 -3.4794 3.6306 0.0000 26.2713 0.0000
# 6 0.0000 -0.0001 0.0000 0.0967 0.0000 29.3368
#
#
#
# Elastic Compliance Matrix: (Units=1/GPa)
#
#
# Indices 1 2 3 4 5 6 
#
# 1 0.017434 -0.003863 -0.001059 0.000000 -0.001481 0.000000
# 2 -0.003863 0.010973 -0.004253 0.000000 0.002288 0.000000
# 3 -0.001059 -0.004253 0.014528 0.000000 -0.002503 0.000000
# 4 0.000000 0.000000 0.000000 0.025863 0.000000 -0.000085
# 5 -0.001481 0.002288 -0.002503 0.000000 0.038808 0.000000
# 6 0.000000 0.000000 0.000000 -0.000085 0.000000 0.034087
#
#
# Mechanical properties :
#
#
# Convention : Reuss Voigt Hill
#
# Bulk Modulus (GPa) = 40.67983 45.66121 43.17052
# Shear Modulus (GPa) = 29.71964 31.16829 30.44397
#
# Velocity S-wave (km/s) = 3.91656 4.01088 3.96400
# Velocity P-wave (km/s) = 6.43809 6.70947 6.57518
#
# Compressibility (1/GPa) = 0.02458221
#
# Stress axis : x y z
#
# Youngs Moduli (GPa) = 57.35995 91.13594 68.83184
#
# Poissons Ratio (x) = 0.35210 0.07292
# Poissons Ratio (y) = 0.22161 0.29276
# Poissons Ratio (z) = 0.06077 0.38763
#
# Static dielectric constant tensor:
#      x y z
#    x 3.555820 0.000000 0.126770 
#    y 0.000000 3.672900 0.000000 
#    z 0.126770 0.000000 3.509090 
# 
# 
# High freq. dielectric constant tensor:
#      x y z
#    x 1.742080 0.000000 0.014300 
#    y 0.000000 1.755430 0.000000 
#    z 0.014300 0.000000 1.749870 
# 
# From -- ./inp_files/276524.got.cif
#   From: 2010.06.25/outbox.cif.g09.slc.cpg/sg15_139_cif.got.tgz:276524.got - 2010.06.28 07:06:18.
