data_PCOD8137275
_publ_section_title
;
Structure prediction by ZEFSAII (Michael W. Deem and Ramdas Pophale) SiO2 
 PCOD8137275
Probable space group: C 2/C
;
_chemical_formula_sum "Si O2"
_cell_formula_units_Z 56
_cell_length_a 9.436969
_cell_length_b 10.565225
_cell_length_c 32.861457
_cell_angle_alpha 90.000000
_cell_angle_beta 124.854208
_cell_angle_gamma 90.000000
_cell_volume 2688.650235
_symmetry_space_group_name_H-M "C 2/C"
_symmetry_group_IT_number 15
_symmetry_cell_setting 'monoclinic'
loop_
_space_group_symop_operation_xyz
x,y,z
-x,y,1/2-z
-x,-y,-z
x,-y,1/2+z
1/2+x,1/2+y,z
1/2-x,1/2+y,1/2-z
1/2-x,1/2-y,-z
1/2+x,1/2-y,1/2+z
loop_
_atom_site_type_symbol
_atom_site_label
_atom_site_fract_x
_atom_site_fract_y
_atom_site_fract_z
Si Si1 0.411207 0.582286 0.693749
Si Si2 0.710537 0.237262 0.945782
Si Si3 0.522486 0.151151 0.460697
Si Si4 0.164661 0.669390 0.354240
Si Si5 0.468852 0.013810 0.881655
Si Si6 0.285378 0.674181 0.564782
Si Si7 0.987042 0.040498 0.371505
O O1 0.500000 0.540801 0.750000
O O2 0.448558 0.732027 0.691449
O O3 0.485381 0.483942 0.672179
O O4 0.203847 0.574028 0.664771
O O5 0.622494 0.109320 0.916803
O O6 0.604164 0.352594 0.910159
O O7 0.896207 0.238281 0.954561
O O8 0.750000 0.250000 0.000000
O O9 0.668531 0.204813 0.454736
O O10 0.626846 0.097243 0.517566
O O11 0.419389 0.045710 0.417800
O O12 0.032368 0.587035 0.358762
O O13 0.275942 0.766157 0.401864
O O14 0.287927 0.577730 0.347932
O O15 0.456791 0.589352 0.597325
#
# Coordination Sequence:
#
# PCOD8137275 Si02
#       7
#     8   8   8   8   8   8   8
#     4  11  25  45  67  90 118 161 215 272 329 374
#     4  12  23  33  62  97 134 171 210 247 312 386
#     4  10  20  36  55  89 130 170 209 251 300 374
#     4  10  22  42  66  90 125 162 209 265 314 374
#     4  11  23  42  63  90 128 167 208 261 316 377
#     4   9  20  35  58  88 127 172 210 244 307 370
#     4  11  21  39  63  89 130 161 206 266 307 376
#
# _framework density 20.828294
#
# number of rings (size 3 to 8) (size 9 to 14) (size 15 to 20)
#    0.000    1.429    2.857    2.571    2.000    2.286 
#    0.000    5.714    0.000    0.000    0.000    0.000 
#    0.000    0.000    0.000    0.000    0.000    0.000 
#
# Total GULP energy -347001.768047 kJ/mol
# GULP energy per Si atom -12392.920287 kJ/mol
# Density = 2.078089 g / cm^3
# Si number density = 20.828294 Si / 1000 Ang^3
#
#
#
# Elastic Constant Matrix: (Units=GPa)
#
#
# Indices 1 2 3 4 5 6 
#
# 1 91.4787 24.7835 40.7023 0.0000 -9.9071 0.0000
# 2 24.7835 87.0389 41.8205 0.0000 -9.0117 0.0000
# 3 40.7023 41.8205 134.5516 0.0000 -5.6923 0.0000
# 4 0.0000 0.0000 0.0000 26.3410 0.0000 -1.1651
# 5 -9.9071 -9.0117 -5.6923 0.0000 23.7816 0.0000
# 6 0.0000 0.0000 0.0000 -1.1651 0.0000 38.5218
#
#
#
# Elastic Compliance Matrix: (Units=1/GPa)
#
#
# Indices 1 2 3 4 5 6 
#
# 1 0.013327 -0.001784 -0.003304 0.000000 0.004085 0.000000
# 2 -0.001784 0.014164 -0.003705 0.000000 0.003737 0.000000
# 3 -0.003304 -0.003705 0.009562 0.000000 -0.000491 0.000000
# 4 0.000000 0.000000 0.000000 0.038015 0.000000 0.001150
# 5 0.004085 0.003737 -0.000491 0.000000 0.045050 0.000000
# 6 0.000000 0.000000 0.000000 0.001150 0.000000 0.025994
#
#
# Mechanical properties :
#
#
# Convention : Reuss Voigt Hill
#
# Bulk Modulus (GPa) = 51.36701 58.63129 54.99915
# Shear Modulus (GPa) = 29.37936 31.44638 30.41287
#
# Velocity S-wave (km/s) = 3.75980 3.88982 3.82536
# Velocity P-wave (km/s) = 6.60029 6.95595 6.78045
#
# Compressibility (1/GPa) = 0.01946775
#
# Stress axis : x y z
#
# Youngs Moduli (GPa) = 75.03289 70.60112 104.57787
#
# Poissons Ratio (x) = 0.12597 0.34555
# Poissons Ratio (y) = 0.13388 0.38741
# Poissons Ratio (z) = 0.24792 0.26154
#
# Static dielectric constant tensor:
#      x y z
#    x 3.826560 0.000000 -0.151200 
#    y 0.000000 3.919400 0.000000 
#    z -0.151200 0.000000 3.820100 
# 
# 
# High freq. dielectric constant tensor:
#      x y z
#    x 1.814960 0.000000 -0.013160 
#    y 0.000000 1.817770 0.000000 
#    z -0.013160 0.000000 1.804530 
# 
# From -- ./inp_files/307227.got.cif
#   From: 2010.06.25/outbox.cif.g09.slc.cpg/sg15_154_cif.got.tgz:307227.got - 2010.06.28 07:06:18.
