data_PCOD8137475
_publ_section_title
;
Structure prediction by ZEFSAII (Michael W. Deem and Ramdas Pophale) SiO2 
 PCOD8137475
Probable space group: C 2/C
;
_chemical_formula_sum "Si O2"
_cell_formula_units_Z 52
_cell_length_a 11.621467
_cell_length_b 26.923482
_cell_length_c 9.402437
_cell_angle_alpha 90.000000
_cell_angle_beta 123.604165
_cell_angle_gamma 90.000000
_cell_volume 2450.279194
_symmetry_space_group_name_H-M "C 2/C"
_symmetry_group_IT_number 15
_symmetry_cell_setting 'monoclinic'
loop_
_space_group_symop_operation_xyz
x,y,z
-x,y,1/2-z
-x,-y,-z
x,-y,1/2+z
1/2+x,1/2+y,z
1/2-x,1/2+y,1/2-z
1/2-x,1/2-y,-z
1/2+x,1/2-y,1/2+z
loop_
_atom_site_type_symbol
_atom_site_label
_atom_site_fract_x
_atom_site_fract_y
_atom_site_fract_z
Si Si1 0.805339 0.056896 0.329462
Si Si2 0.500000 0.815531 0.250000
Si Si3 0.282700 0.136996 0.425034
Si Si4 0.523426 0.291617 0.106864
Si Si5 0.901053 0.104423 0.952906
Si Si6 0.158248 0.964623 0.329608
Si Si7 0.301114 0.738261 0.250920
O O1 0.711252 0.103344 0.213365
O O2 0.767213 0.045368 0.467954
O O3 0.967247 0.070263 0.423020
O O4 0.770703 0.009546 0.207669
O O5 0.561265 0.850382 0.416932
O O6 0.370665 0.781843 0.206838
O O7 0.204471 0.102927 0.487994
O O8 0.196249 0.187186 0.335601
O O9 0.500000 0.309566 0.250000
O O10 0.556124 0.338936 0.034926
O O11 0.644086 0.251233 0.179219
O O12 0.384245 0.266415 0.954502
O O13 0.828170 0.084580 0.759250
O O14 0.000000 0.978163 0.250000
#
# Coordination Sequence:
#
# PCOD8137475 Si02
#       7
#     8   4   8   8   8   8   8
#     4  11  21  36  62  93 125 161 199 260 324 384
#     4  12  24  42  60  92 120 168 222 268 306 366
#     4  12  23  38  64  88 124 165 214 259 314 379
#     4  12  24  41  61  94 134 173 213 263 322 378
#     4  11  21  35  61  93 126 162 201 259 317 378
#     4  10  20  36  58  95 130 154 200 258 325 384
#     4  12  24  41  64  92 130 172 222 264 312 379
#
# _framework density 21.222072000000001
#
# number of rings (size 3 to 8) (size 9 to 14) (size 15 to 20)
#    0.000    0.615    4.615    7.385    0.000    0.000 
#    0.000    0.000    0.000    3.692    0.000    0.000 
#    0.000    0.000    0.000    0.000    0.000    0.000 
#
# Total GULP energy -322463.665897 kJ/mol
# GULP energy per Si atom -12402.448688 kJ/mol
# Density = 2.117377 g / cm^3
# Si number density = 21.222072 Si / 1000 Ang^3
#
#
#
# Elastic Constant Matrix: (Units=GPa)
#
#
# Indices 1 2 3 4 5 6 
#
# 1 40.2516 22.1151 38.0868 0.0000 -0.7234 0.0000
# 2 22.1151 105.4559 65.1504 0.0000 -1.6178 0.0000
# 3 38.0868 65.1504 167.4215 0.0000 -3.1818 0.0000
# 4 0.0000 0.0000 0.0000 1431.7596 0.0000 1157.8955
# 5 -0.7234 -1.6178 -3.1818 0.0000 32.5006 0.0000
# 6 0.0000 0.0000 0.0000 1157.8955 0.0000 1001.9992
#
#
#
# Elastic Compliance Matrix: (Units=1/GPa)
#
#
# Indices 1 2 3 4 5 6 
#
# 1 0.032338 -0.002945 -0.006211 0.000000 -0.000035 0.000000
# 2 -0.002945 0.012753 -0.004290 0.000000 0.000149 0.000000
# 3 -0.006211 -0.004290 0.009066 0.000000 0.000536 0.000000
# 4 0.000000 0.000000 0.000000 0.010671 0.000000 -0.012331
# 5 -0.000035 0.000149 0.000536 0.000000 0.030828 0.000000
# 6 0.000000 0.000000 0.000000 -0.012331 0.000000 0.015248
#
#
# Mechanical properties :
#
#
# Convention : Reuss Voigt Hill
#
# Bulk Modulus (GPa) = 36.67770 62.64817 49.66294
# Shear Modulus (GPa) = 34.04065 505.77035 269.90550
#
# Velocity S-wave (km/s) = 4.00937 15.45445 11.28971
# Velocity P-wave (km/s) = 6.22525 18.65578 13.90668
#
# Compressibility (1/GPa) = 0.02726452
#
# Stress axis : x y z
#
# Youngs Moduli (GPa) = 30.92305 78.41456 110.30812
#
# Poissons Ratio (x) = 0.23091 0.68517
# Poissons Ratio (y) = 0.09106 0.47321
# Poissons Ratio (z) = 0.19207 0.33639
#
# Static dielectric constant tensor:
#      x y z
#    x 3.371550 0.000000 -0.181630 
#    y 0.000000 3.871290 0.000000 
#    z -0.181630 0.000000 4.186680 
# 
# 
# High freq. dielectric constant tensor:
#      x y z
#    x 1.778420 0.000000 -0.017170 
#    y 0.000000 1.841060 0.000000 
#    z -0.017170 0.000000 1.848900 
# 
# From -- ./inp_files/34092.got.cif
#   From: 2010.06.25/outbox.cif.g09.slc.cpg/sg15_18_cif.got.tgz:34092.got - 2010.06.28 07:06:18.
