data_PCOD8137656
_publ_section_title
;
Structure prediction by ZEFSAII (Michael W. Deem and Ramdas Pophale) SiO2 
 PCOD8137656
Probable space group: C 2/C
;
_chemical_formula_sum "Si O2"
_cell_formula_units_Z 48
_cell_length_a 23.620531
_cell_length_b 11.891123
_cell_length_c 8.607674
_cell_angle_alpha 90.000000
_cell_angle_beta 105.362621
_cell_angle_gamma 90.000000
_cell_volume 2331.289959
_symmetry_space_group_name_H-M "C 2/C"
_symmetry_group_IT_number 15
_symmetry_cell_setting 'monoclinic'
loop_
_space_group_symop_operation_xyz
x,y,z
-x,y,1/2-z
-x,-y,-z
x,-y,1/2+z
1/2+x,1/2+y,z
1/2-x,1/2+y,1/2-z
1/2-x,1/2-y,-z
1/2+x,1/2-y,1/2+z
loop_
_atom_site_type_symbol
_atom_site_label
_atom_site_fract_x
_atom_site_fract_y
_atom_site_fract_z
Si Si1 0.487081 0.678867 0.070390
Si Si2 0.359716 0.962206 0.160894
Si Si3 0.903477 0.349254 0.894842
Si Si4 0.705015 0.131372 0.599413
Si Si5 0.832801 0.181791 0.647778
Si Si6 0.557980 0.552465 0.896266
O O1 0.500000 0.728271 0.250000
O O2 0.438421 0.578141 0.049083
O O3 0.463888 0.778507 0.941255
O O4 0.547400 0.630406 0.040622
O O5 0.325388 0.885304 0.257416
O O6 0.407220 0.041296 0.286261
O O7 0.392859 0.881744 0.065785
O O8 0.312640 0.035457 0.034397
O O9 0.852057 0.269592 0.793780
O O10 0.775100 0.120547 0.671303
O O11 0.684663 0.253220 0.523149
O O12 0.883124 0.090024 0.648392
O O13 0.500000 0.568825 0.750000
#
# Coordination Sequence:
#
# PCOD8137656 Si02
#       6
#     8   8   8   8   8   8
#     4  10  22  37  59  90 116 153 199 237 296 350
#     4   9  20  39  60  81 120 153 195 249 288 340
#     4  10  20  39  62  83 119 156 194 246 292 342
#     4   9  20  37  57  87 115 155 196 239 292 346
#     4  10  20  36  61  85 117 156 195 237 297 349
#     4  10  20  39  59  85 121 155 184 246 296 344
#
# _framework density 20.589458
#
# number of rings (size 3 to 8) (size 9 to 14) (size 15 to 20)
#    0.000    2.333    1.667    0.000    2.333    2.000 
#    0.000    2.500    0.000    0.000    0.000    0.000 
#    0.000    0.000    0.000    0.000    0.000    0.000 
#
# Total GULP energy -297528.934270 kJ/mol
# GULP energy per Si atom -12397.038928 kJ/mol
# Density = 2.054260 g / cm^3
# Si number density = 20.589458 Si / 1000 Ang^3
#
#
#
# Elastic Constant Matrix: (Units=GPa)
#
#
# Indices 1 2 3 4 5 6 
#
# 1 76.0125 43.3745 24.1547 0.0000 4.4353 0.0000
# 2 43.3745 73.9861 20.7063 0.0000 -5.6103 0.0000
# 3 24.1547 20.7063 88.6826 0.0000 -13.0747 0.0000
# 4 0.0000 0.0000 0.0000 27.8585 0.0000 -0.9720
# 5 4.4353 -5.6103 -13.0747 0.0000 28.8696 0.0000
# 6 0.0000 0.0000 0.0000 -0.9720 0.0000 27.7129
#
#
#
# Elastic Compliance Matrix: (Units=1/GPa)
#
#
# Indices 1 2 3 4 5 6 
#
# 1 0.021951 -0.012262 -0.004248 0.000000 -0.007679 0.000000
# 2 -0.012262 0.021362 -0.000812 0.000000 0.005667 0.000000
# 3 -0.004248 -0.000812 0.013604 0.000000 0.006656 0.000000
# 4 0.000000 0.000000 0.000000 0.035940 0.000000 0.001261
# 5 -0.007679 0.005667 0.006656 0.000000 0.039934 0.000000
# 6 0.000000 0.000000 0.000000 0.001261 0.000000 0.036129
#
#
# Mechanical properties :
#
#
# Convention : Reuss Voigt Hill
#
# Bulk Modulus (GPa) = 44.89927 46.12802 45.51365
# Shear Modulus (GPa) = 23.69810 26.91791 25.30800
#
# Velocity S-wave (km/s) = 3.39629 3.61967 3.50976
# Velocity P-wave (km/s) = 6.10197 6.31836 6.21111
#
# Compressibility (1/GPa) = 0.02227208
#
# Stress axis : x y z
#
# Youngs Moduli (GPa) = 45.55668 46.81251 73.50704
#
# Poissons Ratio (x) = 0.57402 0.31225
# Poissons Ratio (y) = 0.55862 0.05971
# Poissons Ratio (z) = 0.19352 0.03803
#
# Static dielectric constant tensor:
#      x y z
#    x 3.479010 0.000000 -0.073950 
#    y 0.000000 3.838670 0.000000 
#    z -0.073950 0.000000 3.953620 
# 
# 
# High freq. dielectric constant tensor:
#      x y z
#    x 1.775020 0.000000 -0.005910 
#    y 0.000000 1.802640 0.000000 
#    z -0.005910 0.000000 1.818200 
# 
# From -- ./inp_files/60555.got.cif
#   From: 2010.06.25/outbox.cif.g09.slc.cpg/sg15_31_cif.got.tgz:60555.got - 2010.06.28 07:06:18.
