data_PCOD8137537
_publ_section_title
;
Structure prediction by ZEFSAII (Michael W. Deem and Ramdas Pophale) SiO2 
 PCOD8137537
Probable space group: C 2/C
;
_chemical_formula_sum "Si O2"
_cell_formula_units_Z 60
_cell_length_a 21.001005
_cell_length_b 15.959338
_cell_length_c 10.197292
_cell_angle_alpha 90.000000
_cell_angle_beta 60.106917
_cell_angle_gamma 90.000000
_cell_volume 2963.038709
_symmetry_space_group_name_H-M "C 2/C"
_symmetry_group_IT_number 15
_symmetry_cell_setting 'monoclinic'
loop_
_space_group_symop_operation_xyz
x,y,z
-x,y,1/2-z
-x,-y,-z
x,-y,1/2+z
1/2+x,1/2+y,z
1/2-x,1/2+y,1/2-z
1/2-x,1/2-y,-z
1/2+x,1/2-y,1/2+z
loop_
_atom_site_type_symbol
_atom_site_label
_atom_site_fract_x
_atom_site_fract_y
_atom_site_fract_z
Si Si1 0.300105 0.193067 0.754578
Si Si2 0.000000 0.458921 0.750000
Si Si3 0.936152 0.699938 0.441009
Si Si4 0.717840 0.541091 0.436695
Si Si5 0.851986 0.560942 0.886210
Si Si6 0.706091 0.157356 0.322554
Si Si7 0.420926 0.734657 0.664998
Si Si8 0.327193 0.419280 0.228347
O O1 0.358167 0.211693 0.583639
O O2 0.345773 0.152839 0.827163
O O3 0.257029 0.275947 0.849717
O O4 0.243798 0.132914 0.738061
O O5 0.033759 0.396951 0.603477
O O6 0.067185 0.521393 0.716895
O O7 0.924821 0.744877 0.314217
O O8 0.995875 0.749130 0.470239
O O9 0.796631 0.497945 0.367085
O O10 0.740094 0.630061 0.351625
O O11 0.664172 0.492769 0.388747
O O12 0.679232 0.545629 0.617149
O O13 0.821864 0.576830 0.064972
O O14 0.633347 0.200426 0.345866
O O15 0.399059 0.639458 0.654432
#
# Coordination Sequence:
#
# PCOD8137537 Si02
#       8
#     8   4   8   8   8   8   8   8
#     4  10  22  36  59  83 118 158 199 240 290 354
#     4  10  22  34  54  88 126 158 182 238 304 370
#     4  10  20  39  58  88 116 152 203 235 290 357
#     4  11  20  36  58  87 116 150 198 246 298 341
#     4  11  23  35  53  89 125 156 184 243 302 363
#     4  11  21  37  58  83 117 158 202 242 290 350
#     4   9  20  36  59  81 114 154 195 244 282 357
#     4  10  20  36  59  89 116 149 197 245 297 344
#
# _framework density 20.249483000000001
#
# number of rings (size 3 to 8) (size 9 to 14) (size 15 to 20)
#    0.000    1.867    1.333    4.400    3.733    2.667 
#    0.000    0.000    0.000    7.200    0.000    0.000 
#    0.000    0.000    0.000    0.000    0.000    0.000 
#
# Total GULP energy -371645.814235 kJ/mol
# GULP energy per Si atom -12388.193808 kJ/mol
# Density = 2.020339 g / cm^3
# Si number density = 20.249483 Si / 1000 Ang^3
#
#
#
# Elastic Constant Matrix: (Units=GPa)
#
#
# Indices 1 2 3 4 5 6 
#
# 1 91.3612 38.4556 14.8646 0.0000 -3.6472 0.0000
# 2 38.4556 64.4645 13.0377 0.0000 0.5621 0.0000
# 3 14.8646 13.0377 48.1517 0.0000 7.5330 0.0000
# 4 0.0000 0.0000 0.0000 23.0054 0.0000 5.7312
# 5 -3.6472 0.5621 7.5330 0.0000 29.5195 0.0000
# 6 0.0000 0.0000 0.0000 5.7312 0.0000 7.9851
#
#
#
# Elastic Compliance Matrix: (Units=1/GPa)
#
#
# Indices 1 2 3 4 5 6 
#
# 1 0.015064 -0.008445 -0.002791 0.000000 0.002734 0.000000
# 2 -0.008445 0.021167 -0.003018 0.000000 -0.000676 0.000000
# 3 -0.002791 -0.003018 0.023427 0.000000 -0.006266 0.000000
# 4 0.000000 0.000000 0.000000 0.052933 0.000000 -0.037992
# 5 0.002734 -0.000676 -0.006266 0.000000 0.035826 0.000000
# 6 0.000000 0.000000 0.000000 -0.037992 0.000000 0.152502
#
#
# Mechanical properties :
#
#
# Convention : Reuss Voigt Hill
#
# Bulk Modulus (GPa) = 32.10540 37.41036 34.75788
# Shear Modulus (GPa) = 14.71411 21.27661 17.99536
#
# Velocity S-wave (km/s) = 2.69855 3.24500 2.98431
# Velocity P-wave (km/s) = 5.05954 5.70569 5.39230
#
# Compressibility (1/GPa) = 0.03114741
#
# Stress axis : x y z
#
# Youngs Moduli (GPa) = 66.38477 47.24385 42.68618
#
# Poissons Ratio (x) = 0.39899 0.11915
# Poissons Ratio (y) = 0.56065 0.12884
# Poissons Ratio (z) = 0.18530 0.14259
#
# Static dielectric constant tensor:
#      x y z
#    x 3.963130 0.000000 -0.097160 
#    y 0.000000 3.914980 0.000000 
#    z -0.097160 0.000000 3.569660 
# 
# 
# High freq. dielectric constant tensor:
#      x y z
#    x 1.791250 0.000000 0.003040 
#    y 0.000000 1.789900 0.000000 
#    z 0.003040 0.000000 1.771190 
# 
# From -- ./inp_files/112712.got.cif
#   From: 2010.06.25/outbox.cif.g09.slc.cpg/sg15_57_cif.got.tgz:112712.got - 2010.06.28 07:06:18.
