data_PCOD8137642
_publ_section_title
;
Structure prediction by ZEFSAII (Michael W. Deem and Ramdas Pophale) SiO2 
 PCOD8137642
Probable space group: C 2/C
;
_chemical_formula_sum "Si O2"
_cell_formula_units_Z 56
_cell_length_a 20.508505
_cell_length_b 7.455449
_cell_length_c 19.954074
_cell_angle_alpha 90.000000
_cell_angle_beta 117.989509
_cell_angle_gamma 90.000000
_cell_volume 2694.117820
_symmetry_space_group_name_H-M "C 2/C"
_symmetry_group_IT_number 15
_symmetry_cell_setting 'monoclinic'
loop_
_space_group_symop_operation_xyz
x,y,z
-x,y,1/2-z
-x,-y,-z
x,-y,1/2+z
1/2+x,1/2+y,z
1/2-x,1/2+y,1/2-z
1/2-x,1/2-y,-z
1/2+x,1/2-y,1/2+z
loop_
_atom_site_type_symbol
_atom_site_label
_atom_site_fract_x
_atom_site_fract_y
_atom_site_fract_z
Si Si1 0.084002 0.996534 0.514940
Si Si2 0.667812 0.509416 0.679520
Si Si3 0.708448 0.747293 0.318494
Si Si4 0.415574 0.012831 0.709183
Si Si5 0.081905 0.638242 0.148048
Si Si6 0.652953 0.117857 0.049182
Si Si7 0.085913 0.669045 0.426067
O O1 0.096772 0.873849 0.455024
O O2 0.136376 0.908730 0.598091
O O3 0.110246 0.197968 0.509449
O O4 0.000000 0.000000 0.500000
O O5 0.675394 0.384975 0.747099
O O6 0.745636 0.601405 0.699330
O O7 0.603482 0.653612 0.663071
O O8 0.640953 0.824190 0.330717
O O9 0.759727 0.649685 0.398284
O O10 0.500000 0.082220 0.750000
O O11 0.391203 0.946639 0.770134
O O12 0.404456 0.852807 0.649584
O O13 0.122774 0.543156 0.105742
O O14 0.995847 0.608389 0.093438
O O15 0.642870 0.967909 0.988080
#
# Coordination Sequence:
#
# PCOD8137642 Si02
#       7
#     8   8   8   8   8   8   8
#     4  10  20  36  60  96 118 150 215 261 300 363
#     4  10  21  36  66  91 118 158 214 269 298 361
#     4  10  21  40  57  92 123 159 215 251 309 379
#     4  10  23  40  60  87 130 169 200 249 328 380
#     4   9  19  39  59  91 115 161 211 258 309 359
#     4  10  22  37  64  90 119 164 212 263 300 359
#     4  11  21  39  61  90 129 161 197 261 316 362
#
# _framework density 20.786024000000001
#
# number of rings (size 3 to 8) (size 9 to 14) (size 15 to 20)
#    0.000    2.286    2.857    2.143    4.000    1.714 
#    2.571    3.571    0.000    0.000    0.000    0.000 
#    0.000    0.000    0.000    0.000    0.000    0.000 
#
# Total GULP energy -347037.255860 kJ/mol
# GULP energy per Si atom -12394.187709 kJ/mol
# Density = 2.073871 g / cm^3
# Si number density = 20.786024 Si / 1000 Ang^3
#
#
#
# Elastic Constant Matrix: (Units=GPa)
#
#
# Indices 1 2 3 4 5 6 
#
# 1 59.5801 21.0827 31.2151 0.0000 3.0576 0.0000
# 2 21.0827 52.7589 27.3311 0.0000 0.0637 0.0000
# 3 31.2151 27.3311 95.3602 0.0000 10.0526 0.0000
# 4 0.0000 0.0000 0.0000 44.3545 0.0000 -1.3275
# 5 3.0576 0.0637 10.0526 0.0000 20.7136 0.0000
# 6 0.0000 0.0000 0.0000 -1.3275 0.0000 29.5207
#
#
#
# Elastic Compliance Matrix: (Units=1/GPa)
#
#
# Indices 1 2 3 4 5 6 
#
# 1 0.021706 -0.005901 -0.005352 0.000000 -0.000589 0.000000
# 2 -0.005901 0.024065 -0.005322 0.000000 0.003380 0.000000
# 3 -0.005352 -0.005322 0.014416 0.000000 -0.006190 0.000000
# 4 0.000000 0.000000 0.000000 0.022576 0.000000 0.001015
# 5 -0.000589 0.003380 -0.006190 0.000000 0.051358 0.000000
# 6 0.000000 0.000000 0.000000 0.001015 0.000000 0.033920
#
#
# Mechanical properties :
#
#
# Convention : Reuss Voigt Hill
#
# Bulk Modulus (GPa) = 36.98476 40.77299 38.87887
# Shear Modulus (GPa) = 23.78638 27.45578 25.62108
#
# Velocity S-wave (km/s) = 3.38649 3.63833 3.51466
# Velocity P-wave (km/s) = 5.75524 6.10803 5.93426
#
# Compressibility (1/GPa) = 0.02703817
#
# Stress axis : x y z
#
# Youngs Moduli (GPa) = 46.06942 41.55406 69.36552
#
# Poissons Ratio (x) = 0.24520 0.37125
# Poissons Ratio (y) = 0.27184 0.36916
# Poissons Ratio (z) = 0.24657 0.22115
#
# Static dielectric constant tensor:
#      x y z
#    x 3.598520 0.000000 0.138090 
#    y 0.000000 3.560910 0.000000 
#    z 0.138090 0.000000 4.093730 
# 
# 
# High freq. dielectric constant tensor:
#      x y z
#    x 1.797680 0.000000 0.013620 
#    y 0.000000 1.789650 0.000000 
#    z 0.013620 0.000000 1.832980 
# 
# From -- ./inp_files/251948.got.cif
#   From: 2010.06.25/outbox.cif.g09.slc.cpg/sg15_126_cif.got.tgz:251948.got - 2010.06.28 07:06:18.
