data_PCOD8137869
_publ_section_title
;
Structure prediction by ZEFSAII (Michael W. Deem and Ramdas Pophale) SiO2 
 PCOD8137869
Probable space group: C 2/C
;
_chemical_formula_sum "Si O2"
_cell_formula_units_Z 48
_cell_length_a 21.180543
_cell_length_b 12.548625
_cell_length_c 13.158088
_cell_angle_alpha 90.000000
_cell_angle_beta 140.985235
_cell_angle_gamma 90.000000
_cell_volume 2201.587702
_symmetry_space_group_name_H-M "C 2/C"
_symmetry_group_IT_number 15
_symmetry_cell_setting 'monoclinic'
loop_
_space_group_symop_operation_xyz
x,y,z
-x,y,1/2-z
-x,-y,-z
x,-y,1/2+z
1/2+x,1/2+y,z
1/2-x,1/2+y,1/2-z
1/2-x,1/2-y,-z
1/2+x,1/2-y,1/2+z
loop_
_atom_site_type_symbol
_atom_site_label
_atom_site_fract_x
_atom_site_fract_y
_atom_site_fract_z
Si Si1 0.000000 0.023723 0.250000
Si Si2 0.932849 0.872852 0.479715
Si Si3 0.361964 0.649793 0.601423
Si Si4 0.856220 0.649822 0.406068
Si Si5 0.500000 0.045879 0.750000
Si Si6 0.634666 0.398769 0.632479
Si Si7 0.135831 0.375420 0.812956
O O1 0.934164 0.100742 0.100136
O O2 0.930220 0.945740 0.232722
O O3 0.859447 0.773558 0.378325
O O4 0.044534 0.840610 0.580071
O O5 0.882068 0.975813 0.365447
O O6 0.371617 0.641772 0.491458
O O7 0.249362 0.628332 0.495398
O O8 0.406910 0.759092 0.706204
O O9 0.942950 0.618111 0.594643
O O10 0.745672 0.627947 0.314038
O O11 0.871975 0.593769 0.316210
O O12 0.581796 0.971290 0.801096
#
# Coordination Sequence:
#
# PCOD8137869 Si02
#       7
#     4   8   8   8   4   8   8
#     4  10  20  36  64  94 128 160 218 262 312 382
#     4  10  22  41  66  95 129 169 214 263 320 394
#     4   9  20  39  64  96 124 164 218 269 319 379
#     4  11  25  44  63  97 129 171 218 269 327 388
#     4  12  26  42  62  90 136 174 212 268 336 390
#     4   9  22  42  68  96 129 170 215 268 321 381
#     4  10  23  40  64  92 130 167 218 270 321 384
#
# _framework density 21.802446
#
# number of rings (size 3 to 8) (size 9 to 14) (size 15 to 20)
#    0.000    2.000    0.000    1.500   11.667    2.667 
#    9.000    1.667    0.000    0.000    0.000    0.000 
#    0.000    0.000    0.000    0.000    0.000    0.000 
#
# Total GULP energy -297374.075133 kJ/mol
# GULP energy per Si atom -12390.586464 kJ/mol
# Density = 2.175282 g / cm^3
# Si number density = 21.802446 Si / 1000 Ang^3
#
#
#
# Elastic Constant Matrix: (Units=GPa)
#
#
# Indices 1 2 3 4 5 6 
#
# 1 91.2388 42.8276 30.8904 0.0000 17.6980 0.0000
# 2 42.8276 80.9439 29.9744 0.0000 17.1340 0.0000
# 3 30.8904 29.9744 99.3317 0.0000 7.5794 0.0000
# 4 0.0000 0.0000 0.0000 17.8089 0.0000 20.5433
# 5 17.6980 17.1340 7.5794 0.0000 38.0009 0.0000
# 6 0.0000 0.0000 0.0000 20.5433 0.0000 11.1515
#
#
#
# Elastic Compliance Matrix: (Units=1/GPa)
#
#
# Indices 1 2 3 4 5 6 
#
# 1 0.015636 -0.006495 -0.002610 0.000000 -0.003833 0.000000
# 2 -0.006495 0.017848 -0.003029 0.000000 -0.004418 0.000000
# 3 -0.002610 -0.003029 0.011775 0.000000 0.000233 0.000000
# 4 0.000000 0.000000 0.000000 -0.049910 0.000000 0.091944
# 5 -0.003833 -0.004418 0.000233 0.000000 0.030046 0.000000
# 6 0.000000 0.000000 0.000000 0.091944 0.000000 -0.079706
#
#
# Mechanical properties :
#
#
# Convention : Reuss Voigt Hill
#
# Bulk Modulus (GPa) = 47.63952 53.21102 50.42527
# Shear Modulus (GPa) = -216.96076 24.58040 -96.19018
#
# Velocity S-wave (km/s) = -9.98640 3.36134 -6.64942
# Velocity P-wave (km/s) = 10.53911 6.28680 5.98118
#
# Compressibility (1/GPa) = 0.02099098
#
# Stress axis : x y z
#
# Youngs Moduli (GPa) = 63.95342 56.02961 84.92450
#
# Poissons Ratio (x) = 0.36393 0.22166
# Poissons Ratio (y) = 0.41540 0.25721
# Poissons Ratio (z) = 0.16693 0.16970
#
# Static dielectric constant tensor:
#      x y z
#    x 4.009590 0.000000 0.136650 
#    y 0.000000 3.870270 0.000000 
#    z 0.136650 0.000000 4.037010 
# 
# 
# High freq. dielectric constant tensor:
#      x y z
#    x 1.862270 0.000000 0.001580 
#    y 0.000000 1.843860 0.000000 
#    z 0.001580 0.000000 1.861190 
# 
# From -- ./inp_files/167958.got.cif
#   From: 2010.06.25/outbox.cif.g09.slc.cpg/sg15_84_cif.got.tgz:167958.got - 2010.06.28 07:06:18.
