data_PCOD8137529
_publ_section_title
;
Structure prediction by ZEFSAII (Michael W. Deem and Ramdas Pophale) SiO2 
 PCOD8137529
Probable space group: C 2/C
;
_chemical_formula_sum "Si O2"
_cell_formula_units_Z 40
_cell_length_a 18.388397
_cell_length_b 9.918159
_cell_length_c 14.532812
_cell_angle_alpha 90.000000
_cell_angle_beta 135.554763
_cell_angle_gamma 90.000000
_cell_volume 1855.938514
_symmetry_space_group_name_H-M "C 2/C"
_symmetry_group_IT_number 15
_symmetry_cell_setting 'monoclinic'
loop_
_space_group_symop_operation_xyz
x,y,z
-x,y,1/2-z
-x,-y,-z
x,-y,1/2+z
1/2+x,1/2+y,z
1/2-x,1/2+y,1/2-z
1/2-x,1/2-y,-z
1/2+x,1/2-y,1/2+z
loop_
_atom_site_type_symbol
_atom_site_label
_atom_site_fract_x
_atom_site_fract_y
_atom_site_fract_z
Si Si1 0.104799 0.175831 0.300518
Si Si2 0.966259 0.655148 0.120083
Si Si3 0.179402 0.456416 0.745359
Si Si4 0.153459 0.255812 0.149166
Si Si5 0.696017 0.946054 0.455993
O O1 0.085475 0.213685 0.176490
O O2 0.197739 0.067617 0.390523
O O3 0.136637 0.305435 0.389128
O O4 0.000000 0.115188 0.250000
O O5 0.881795 0.539720 0.059042
O O6 0.000000 0.718068 0.250000
O O7 0.061119 0.589044 0.151474
O O8 0.914707 0.766092 0.005560
O O9 0.185173 0.586923 0.684974
O O10 0.243016 0.333788 0.758661
O O11 0.229205 0.491376 0.888591
#
# Coordination Sequence:
#
# PCOD8137529 Si02
#       5
#     8   8   8   8   8
#     4  10  20  36  59  88 124 163 204 253 301 355
#     4  10  21  39  62  87 122 165 204 244 300 366
#     4  10  22  39  63  91 121 160 203 250 301 360
#     4  11  22  38  63  93 121 157 205 250 301 360
#     4   9  19  37  59  86 122 164 206 243 298 369
#
# _framework density 21.552437999999999
#
# number of rings (size 3 to 8) (size 9 to 14) (size 15 to 20)
#    0.000    2.000    0.000    4.800    0.000    8.000 
#    0.000    7.000    0.000    0.000    0.000    0.000 
#    0.000    0.000    0.000    0.000    0.000    0.000 
#
# Total GULP energy -247985.142970 kJ/mol
# GULP energy per Si atom -12399.257148 kJ/mol
# Density = 2.150338 g / cm^3
# Si number density = 21.552438 Si / 1000 Ang^3
#
#
#
# Elastic Constant Matrix: (Units=GPa)
#
#
# Indices 1 2 3 4 5 6 
#
# 1 125.1373 35.2621 66.0621 0.0000 6.1876 0.0000
# 2 35.2621 37.9653 30.5403 0.0000 2.1460 0.0000
# 3 66.0621 30.5403 141.0227 0.0000 -3.6860 0.0000
# 4 0.0000 0.0000 0.0000 23.3824 0.0000 -4.7270
# 5 6.1876 2.1460 -3.6860 0.0000 29.8619 0.0000
# 6 0.0000 0.0000 0.0000 -4.7270 0.0000 24.7979
#
#
#
# Elastic Compliance Matrix: (Units=1/GPa)
#
#
# Indices 1 2 3 4 5 6 
#
# 1 0.012661 -0.008223 -0.004217 0.000000 -0.002553 0.000000
# 2 -0.008223 0.037536 -0.004317 0.000000 -0.001527 0.000000
# 3 -0.004217 -0.004317 0.010065 0.000000 0.002426 0.000000
# 4 0.000000 0.000000 0.000000 0.044481 0.000000 0.008479
# 5 -0.002553 -0.001527 0.002426 0.000000 0.034426 0.000000
# 6 0.000000 0.000000 0.000000 0.008479 0.000000 0.041942
#
#
# Mechanical properties :
#
#
# Convention : Reuss Voigt Hill
#
# Bulk Modulus (GPa) = 37.38534 63.09494 50.24014
# Shear Modulus (GPa) = 22.36735 27.09248 24.72992
#
# Velocity S-wave (km/s) = 3.22500 3.54934 3.39105
# Velocity P-wave (km/s) = 5.59029 6.79233 6.22041
#
# Compressibility (1/GPa) = 0.02674846
#
# Stress axis : x y z
#
# Youngs Moduli (GPa) = 78.98459 26.64106 99.35663
#
# Poissons Ratio (x) = 0.21906 0.41898
# Poissons Ratio (y) = 0.64947 0.42891
# Poissons Ratio (z) = 0.33307 0.11501
#
# Static dielectric constant tensor:
#      x y z
#    x 3.845830 0.000000 -0.170670 
#    y 0.000000 3.607000 0.000000 
#    z -0.170670 0.000000 4.169680 
# 
# 
# High freq. dielectric constant tensor:
#      x y z
#    x 1.854250 0.000000 -0.010960 
#    y 0.000000 1.812470 0.000000 
#    z -0.010960 0.000000 1.851780 
# 
# From -- ./inp_files/160563.got.cif
#   From: 2010.06.25/outbox.cif.g09.slc.cpg/sg15_81_cif.got.tgz:160563.got - 2010.06.28 07:06:18.
