data_PCOD8137180
_publ_section_title
;
Structure prediction by ZEFSAII (Michael W. Deem and Ramdas Pophale) SiO2 
 PCOD8137180
Probable space group: C 2/C
;
_chemical_formula_sum "Si O2"
_cell_formula_units_Z 40
_cell_length_a 8.644252
_cell_length_b 29.575279
_cell_length_c 8.697207
_cell_angle_alpha 90.000000
_cell_angle_beta 86.821477
_cell_angle_gamma 90.000000
_cell_volume 2220.074002
_symmetry_space_group_name_H-M "C 2/C"
_symmetry_group_IT_number 15
_symmetry_cell_setting 'monoclinic'
loop_
_space_group_symop_operation_xyz
x,y,z
-x,y,1/2-z
-x,-y,-z
x,-y,1/2+z
1/2+x,1/2+y,z
1/2-x,1/2+y,1/2-z
1/2-x,1/2-y,-z
1/2+x,1/2-y,1/2+z
loop_
_atom_site_type_symbol
_atom_site_label
_atom_site_fract_x
_atom_site_fract_y
_atom_site_fract_z
Si Si1 0.517180 0.363852 0.067711
Si Si2 0.202136 0.698615 0.986087
Si Si3 0.000000 0.344421 0.750000
Si Si4 0.705355 0.113106 0.481423
Si Si5 0.461533 0.547834 0.430715
Si Si6 0.500000 0.846830 0.250000
O O1 0.500000 0.361207 0.250000
O O2 0.642532 0.329618 0.996296
O O3 0.349875 0.352197 0.000353
O O4 0.567529 0.414638 0.012192
O O5 0.124005 0.685818 0.827145
O O6 0.250000 0.750000 0.000000
O O7 0.078936 0.688525 0.124383
O O8 0.125443 0.376546 0.823896
O O9 0.779893 0.062301 0.469383
O O10 0.583860 0.119117 0.626912
O O11 0.500000 0.547545 0.250000
O O12 0.500000 0.500000 0.500000
#
# Coordination Sequence:
#
# PCOD8137180 Si02
#       6
#     8   8   4   8   8   4
#     4  10  20  38  61  85 115 156 205 236 293 352
#     4  11  23  36  58  82 120 158 203 247 292 358
#     4  10  22  38  56  87 124 156 191 248 312 334
#     4   9  21  37  64  85 118 158 191 247 295 357
#     4  10  20  35  63  92 113 147 202 243 288 353
#     4  10  20  40  56  87 120 158 193 250 310 334
#
# _framework density 18.017416999999998
#
# number of rings (size 3 to 8) (size 9 to 14) (size 15 to 20)
#    1.200    0.800    2.000    1.800    1.400    1.600 
#    0.000    4.000    0.000   20.400    0.000    0.000 
#    0.000    0.000    0.000    0.000    0.000    0.000 
#
# Total GULP energy -247822.871295 kJ/mol
# GULP energy per Si atom -12391.143565 kJ/mol
# Density = 1.797641 g / cm^3
# Si number density = 18.017417 Si / 1000 Ang^3
#
#
#
# Elastic Constant Matrix: (Units=GPa)
#
#
# Indices 1 2 3 4 5 6 
#
# 1 113.5050 51.0402 33.3157 0.0000 15.5768 0.0000
# 2 51.0402 133.6180 35.4601 0.0000 -2.5796 0.0000
# 3 33.3157 35.4601 87.9261 0.0000 3.5179 0.0000
# 4 0.0000 0.0000 0.0000 16.2328 0.0000 2.9392
# 5 15.5768 -2.5796 3.5179 0.0000 33.1714 0.0000
# 6 0.0000 0.0000 0.0000 2.9392 0.0000 31.8786
#
#
#
# Elastic Compliance Matrix: (Units=1/GPa)
#
#
# Indices 1 2 3 4 5 6 
#
# 1 0.012236 -0.004050 -0.002772 0.000000 -0.005767 0.000000
# 2 -0.004050 0.009755 -0.002517 0.000000 0.002927 0.000000
# 3 -0.002772 -0.002517 0.013452 0.000000 -0.000320 0.000000
# 4 0.000000 0.000000 0.000000 0.062650 0.000000 -0.005776
# 5 -0.005767 0.002927 -0.000320 0.000000 0.033116 0.000000
# 6 0.000000 0.000000 0.000000 -0.005776 0.000000 0.031902
#
#
# Mechanical properties :
#
#
# Convention : Reuss Voigt Hill
#
# Bulk Modulus (GPa) = 59.64763 63.85344 61.75053
# Shear Modulus (GPa) = 26.68408 30.60542 28.64475
#
# Velocity S-wave (km/s) = 3.85257 4.12595 3.99160
# Velocity P-wave (km/s) = 7.27785 7.62986 7.45593
#
# Compressibility (1/GPa) = 0.01676513
#
# Stress axis : x y z
#
# Youngs Moduli (GPa) = 81.72318 102.50703 74.34057
#
# Poissons Ratio (x) = 0.41512 0.20611
# Poissons Ratio (y) = 0.33095 0.18711
# Poissons Ratio (z) = 0.22658 0.25801
#
# Static dielectric constant tensor:
#      x y z
#    x 3.524300 0.000000 0.022980 
#    y 0.000000 3.574430 0.000000 
#    z 0.022980 0.000000 3.319250 
# 
# 
# High freq. dielectric constant tensor:
#      x y z
#    x 1.702960 0.000000 0.000510 
#    y 0.000000 1.668880 0.000000 
#    z 0.000510 0.000000 1.715110 
# 
# From -- ./inp_files/24489.got.cif
#   From: 2010.06.25/outbox.cif.g09.slc.cpg/sg15_13_cif.got.tgz:24489.got - 2010.06.28 07:06:18.
