data_PCOD8137863
_publ_section_title
;
Structure prediction by ZEFSAII (Michael W. Deem and Ramdas Pophale) SiO2 
 PCOD8137863
Probable space group: C 2/C
;
_chemical_formula_sum "Si O2"
_cell_formula_units_Z 60
_cell_length_a 8.330288
_cell_length_b 29.500750
_cell_length_c 11.458071
_cell_angle_alpha 90.000000
_cell_angle_beta 104.464182
_cell_angle_gamma 90.000000
_cell_volume 2726.567772
_symmetry_space_group_name_H-M "C 2/C"
_symmetry_group_IT_number 15
_symmetry_cell_setting 'monoclinic'
loop_
_space_group_symop_operation_xyz
x,y,z
-x,y,1/2-z
-x,-y,-z
x,-y,1/2+z
1/2+x,1/2+y,z
1/2-x,1/2+y,1/2-z
1/2-x,1/2-y,-z
1/2+x,1/2-y,1/2+z
loop_
_atom_site_type_symbol
_atom_site_label
_atom_site_fract_x
_atom_site_fract_y
_atom_site_fract_z
Si Si1 0.921354 0.048846 0.973377
Si Si2 0.588827 0.911783 0.384942
Si Si3 0.092822 0.134875 0.097302
Si Si4 0.663408 0.820415 0.712427
Si Si5 0.677934 0.229411 0.745997
Si Si6 0.203626 0.643431 0.589516
Si Si7 0.240739 0.175189 0.524610
Si Si8 0.000000 0.907771 0.250000
O O1 0.719281 0.050639 0.961096
O O2 0.945465 0.060000 0.843509
O O3 0.024991 0.083481 0.074064
O O4 0.000000 0.000000 0.000000
O O5 0.500000 0.928519 0.250000
O O6 0.444069 0.894267 0.444862
O O7 0.705421 0.867866 0.386054
O O8 0.188157 0.142730 0.237126
O O9 0.944129 0.170164 0.056636
O O10 0.232445 0.149588 0.029105
O O11 0.500000 0.836847 0.750000
O O12 0.713082 0.771713 0.777939
O O13 0.638485 0.818419 0.566984
O O14 0.500000 0.248283 0.750000
O O15 0.652336 0.190822 0.642257
O O16 0.761286 0.215692 0.884311
O O17 0.349925 0.624706 0.694476
#
# Coordination Sequence:
#
# PCOD8137863 Si02
#       8
#     8   8   8   8   8   8   8   4
#     4  10  22  42  68  99 127 162 215 268 336 403
#     4  11  18  38  69  95 124 164 212 266 324 382
#     4  10  24  43  66  89 132 172 207 269 340 399
#     4  12  28  42  58  88 135 179 224 268 321 392
#     4  12  23  38  63  94 125 166 227 275 316 384
#     4  11  19  37  68  95 125 166 219 261 329 372
#     4  11  21  42  63  90 125 177 215 268 330 386
#     4  10  20  36  64  92 130 160 202 270 320 398
#
# _framework density 22.005686000000001
#
# number of rings (size 3 to 8) (size 9 to 14) (size 15 to 20)
#    0.000    1.067    4.000    4.000    2.800    0.533 
#    4.800    3.333    0.000    0.000    0.000    0.000 
#    0.000    0.000    0.000    0.000    0.000    0.000 
#
# Total GULP energy -371765.115356 kJ/mol
# GULP energy per Si atom -12392.170512 kJ/mol
# Density = 2.195560 g / cm^3
# Si number density = 22.005686 Si / 1000 Ang^3
#
#
#
# Elastic Constant Matrix: (Units=GPa)
#
#
# Indices 1 2 3 4 5 6 
#
# 1 104.4605 13.4742 8.9133 0.0000 15.9789 0.0000
# 2 13.4742 74.7124 23.4118 0.0000 19.7418 0.0000
# 3 8.9133 23.4118 72.1403 0.0000 11.7534 0.0000
# 4 0.0000 0.0000 0.0000 7.3630 0.0000 19.9762
# 5 15.9789 19.7418 11.7534 0.0000 41.3564 0.0000
# 6 0.0000 0.0000 0.0000 19.9762 0.0000 23.9724
#
#
#
# Elastic Compliance Matrix: (Units=1/GPa)
#
#
# Indices 1 2 3 4 5 6 
#
# 1 0.010241 -0.000796 -0.000445 0.000000 -0.003451 0.000000
# 2 -0.000796 0.016541 -0.004229 0.000000 -0.006387 0.000000
# 3 -0.000445 -0.004229 0.015657 0.000000 -0.002259 0.000000
# 4 0.000000 0.000000 0.000000 -0.107723 0.000000 0.089765
# 5 -0.003451 -0.006387 -0.002259 0.000000 0.029204 0.000000
# 6 0.000000 0.000000 0.000000 0.089765 0.000000 -0.033087
#
#
# Mechanical properties :
#
#
# Convention : Reuss Voigt Hill
#
# Bulk Modulus (GPa) = 31.74604 38.10129 34.92366
# Shear Modulus (GPa) = -104.76526 28.23930 -38.26298
#
# Velocity S-wave (km/s) = -6.90736 3.58617 -4.17439
# Velocity P-wave (km/s) = 7.01127 5.87361 2.70726
#
# Compressibility (1/GPa) = 0.03149999
#
# Stress axis : x y z
#
# Youngs Moduli (GPa) = 97.64250 60.45574 63.86752
#
# Poissons Ratio (x) = 0.04811 0.02842
# Poissons Ratio (y) = 0.07770 0.27011
# Poissons Ratio (z) = 0.04344 0.25568
#
# Static dielectric constant tensor:
#      x y z
#    x 4.252560 0.000000 0.242140 
#    y 0.000000 3.890300 0.000000 
#    z 0.242140 0.000000 3.858650 
# 
# 
# High freq. dielectric constant tensor:
#      x y z
#    x 1.885210 0.000000 0.011570 
#    y 0.000000 1.823040 0.000000 
#    z 0.011570 0.000000 1.869010 
# 
# From -- ./inp_files/82659.got.cif
#   From: 2010.06.25/outbox.cif.g09.slc.cpg/sg15_42_cif.got.tgz:82659.got - 2010.06.28 07:06:18.
