data_PCOD8137493
_publ_section_title
;
Structure prediction by ZEFSAII (Michael W. Deem and Ramdas Pophale) SiO2 
 PCOD8137493
Probable space group: C 2/C
;
_chemical_formula_sum "Si O2"
_cell_formula_units_Z 56
_cell_length_a 11.487826
_cell_length_b 28.707343
_cell_length_c 12.410148
_cell_angle_alpha 90.000000
_cell_angle_beta 132.575820
_cell_angle_gamma 90.000000
_cell_volume 3013.778786
_symmetry_space_group_name_H-M "C 2/C"
_symmetry_group_IT_number 15
_symmetry_cell_setting 'monoclinic'
loop_
_space_group_symop_operation_xyz
x,y,z
-x,y,1/2-z
-x,-y,-z
x,-y,1/2+z
1/2+x,1/2+y,z
1/2-x,1/2+y,1/2-z
1/2-x,1/2-y,-z
1/2+x,1/2-y,1/2+z
loop_
_atom_site_type_symbol
_atom_site_label
_atom_site_fract_x
_atom_site_fract_y
_atom_site_fract_z
Si Si1 0.823239 0.956355 0.967832
Si Si2 0.394856 0.044127 0.965188
Si Si3 0.879438 0.723384 0.772342
Si Si4 0.827656 0.055619 0.862703
Si Si5 0.346762 0.192592 0.418970
Si Si6 0.682194 0.861653 0.380659
Si Si7 0.104701 0.384981 0.716619
O O1 0.749466 0.915060 0.851627
O O2 0.807244 0.004228 0.894786
O O3 0.736294 0.966165 0.025992
O O4 0.004932 0.940910 0.093979
O O5 0.309239 0.064834 0.808219
O O6 0.510372 0.084243 0.073369
O O7 0.500000 0.000000 0.000000
O O8 0.773953 0.768704 0.699058
O O9 0.775381 0.676781 0.685155
O O10 0.000000 0.725676 0.750000
O O11 0.983376 0.717036 0.947160
O O12 0.801162 0.094515 0.939568
O O13 0.286472 0.161759 0.482538
O O14 0.345221 0.161033 0.312910
O O15 0.500000 0.878070 0.250000
O O16 0.000000 0.368069 0.750000
#
# Coordination Sequence:
#
# PCOD8137493 Si02
#       7
#     8   8   8   8   8   8   8
#     4  10  24  37  52  85 121 150 190 246 293 328
#     4  11  21  37  62  76 110 162 199 232 283 337
#     4   9  18  35  55  86 116 142 183 240 301 351
#     4  11  22  37  56  85 119 148 193 243 289 351
#     4  10  20  36  59  84 115 149 190 242 294 357
#     4   9  19  32  58  88 112 147 197 237 287 362
#     4  10  22  40  56  84 112 153 200 240 283 346
#
# _framework density 18.581325
#
# number of rings (size 3 to 8) (size 9 to 14) (size 15 to 20)
#    0.000    2.286    1.429    3.857    4.000    2.286 
#    0.000    0.714    0.000    1.714    0.000    0.000 
#    0.000    0.000    0.000    0.000    0.000    0.000 
#
# Total GULP energy -346988.004583 kJ/mol
# GULP energy per Si atom -12392.428735 kJ/mol
# Density = 1.853903 g / cm^3
# Si number density = 18.581325 Si / 1000 Ang^3
#
#
#
# Elastic Constant Matrix: (Units=GPa)
#
#
# Indices 1 2 3 4 5 6 
#
# 1 75.5775 56.1663 26.1139 0.0000 1.8466 0.0000
# 2 56.1663 99.4569 48.6934 0.0000 -7.5987 0.0000
# 3 26.1139 48.6934 84.3319 0.0000 -5.0612 0.0000
# 4 0.0000 0.0000 0.0000 31.4509 0.0000 -2.1200
# 5 1.8466 -7.5987 -5.0612 0.0000 14.5717 0.0000
# 6 0.0000 0.0000 0.0000 -2.1200 0.0000 31.9748
#
#
#
# Elastic Compliance Matrix: (Units=1/GPa)
#
#
# Indices 1 2 3 4 5 6 
#
# 1 0.024298 -0.014691 0.000321 0.000000 -0.010629 0.000000
# 2 -0.014691 0.023207 -0.008183 0.000000 0.011121 0.000000
# 3 0.000321 -0.008183 0.016571 0.000000 0.001448 0.000000
# 4 0.000000 0.000000 0.000000 0.031938 0.000000 0.002118
# 5 -0.010629 0.011121 0.001448 0.000000 0.076275 0.000000
# 6 0.000000 0.000000 0.000000 0.002118 0.000000 0.031415
#
#
# Mechanical properties :
#
#
# Convention : Reuss Voigt Hill
#
# Bulk Modulus (GPa) = 52.71852 57.92370 55.32111
# Shear Modulus (GPa) = 19.59752 24.15899 21.87826
#
# Velocity S-wave (km/s) = 3.25112 3.60971 3.43510
# Velocity P-wave (km/s) = 6.52123 6.97238 6.75057
#
# Compressibility (1/GPa) = 0.01896866
#
# Stress axis : x y z
#
# Youngs Moduli (GPa) = 41.15559 43.09029 60.34805
#
# Poissons Ratio (x) = 0.63303 -0.01935
# Poissons Ratio (y) = 0.60461 0.49384
# Poissons Ratio (z) = -0.01319 0.35262
#
# Static dielectric constant tensor:
#      x y z
#    x 3.383990 0.000000 0.073840 
#    y 0.000000 3.006680 0.000000 
#    z 0.073840 0.000000 3.479820 
# 
# 
# High freq. dielectric constant tensor:
#      x y z
#    x 1.701580 0.000000 0.002880 
#    y 0.000000 1.727630 0.000000 
#    z 0.002880 0.000000 1.723330 
# 
# From -- ./inp_files/91977.got.cif
#   From: 2010.06.25/outbox.cif.g09.slc.cpg/sg15_46_cif.got.tgz:91977.got - 2010.06.28 07:06:18.
