data_PCOD8137865
_publ_section_title
;
Structure prediction by ZEFSAII (Michael W. Deem and Ramdas Pophale) SiO2 
 PCOD8137865
Probable space group: C 2/C
;
_chemical_formula_sum "Si O2"
_cell_formula_units_Z 48
_cell_length_a 9.160246
_cell_length_b 13.854707
_cell_length_c 28.345286
_cell_angle_alpha 90.000000
_cell_angle_beta 39.004046
_cell_angle_gamma 90.000000
_cell_volume 2264.096843
_symmetry_space_group_name_H-M "C 2/C"
_symmetry_group_IT_number 15
_symmetry_cell_setting 'monoclinic'
loop_
_space_group_symop_operation_xyz
x,y,z
-x,y,1/2-z
-x,-y,-z
x,-y,1/2+z
1/2+x,1/2+y,z
1/2-x,1/2+y,1/2-z
1/2-x,1/2-y,-z
1/2+x,1/2-y,1/2+z
loop_
_atom_site_type_symbol
_atom_site_label
_atom_site_fract_x
_atom_site_fract_y
_atom_site_fract_z
Si Si1 0.903615 0.694764 0.000106
Si Si2 0.264591 0.953404 0.893123
Si Si3 0.126622 0.685239 0.267233
Si Si4 0.522149 0.362748 0.453342
Si Si5 0.916794 0.857506 0.372503
Si Si6 0.480355 0.427764 0.870954
O O1 0.784211 0.598210 0.050058
O O2 0.913049 0.759524 0.043984
O O3 0.750000 0.750000 0.000000
O O4 0.161426 0.669831 0.916216
O O5 0.516583 0.908211 0.821163
O O6 0.102118 0.922817 0.890891
O O7 0.173331 0.912771 0.965468
O O8 0.255950 0.070392 0.895543
O O9 0.394635 0.653596 0.192963
O O10 0.000000 0.705821 0.250000
O O11 0.104729 0.783374 0.303300
O O12 0.412932 0.347551 0.429606
O O13 0.986288 0.968201 0.343279
#
# Coordination Sequence:
#
# PCOD8137865 Si02
#       6
#     8   8   8   8   8   8
#     4  12  21  38  61  94 123 161 198 248 307 370
#     4   9  18  37  62  90 116 162 205 247 302 371
#     4  10  20  40  61  83 121 168 203 240 308 382
#     4  10  20  36  64  93 115 151 210 255 300 353
#     4  11  23  40  64  89 121 161 204 260 301 357
#     4  10  22  38  60  91 125 157 205 255 310 362
#
# _framework density 21.200507000000002
#
# number of rings (size 3 to 8) (size 9 to 14) (size 15 to 20)
#    0.000    1.667    3.333    2.000    0.000    1.333 
#    0.000    4.167    0.000    0.000    0.000    0.000 
#    0.000    0.000    0.000    0.000    0.000    0.000 
#
# Total GULP energy -297433.638045 kJ/mol
# GULP energy per Si atom -12393.068252 kJ/mol
# Density = 2.115225 g / cm^3
# Si number density = 21.200507 Si / 1000 Ang^3
#
#
#
# Elastic Constant Matrix: (Units=GPa)
#
#
# Indices 1 2 3 4 5 6 
#
# 1 58.8860 24.1341 22.7687 -0.0003 3.1309 0.0000
# 2 24.1341 119.5441 49.5799 -0.0001 -2.4920 0.0000
# 3 22.7687 49.5799 91.6213 0.0003 3.9147 -0.0003
# 4 -0.0003 -0.0001 0.0003 43.2597 -0.0002 7.4400
# 5 3.1309 -2.4920 3.9147 -0.0002 25.1716 0.0000
# 6 0.0000 0.0000 -0.0003 7.4400 0.0000 25.9608
#
#
#
# Elastic Compliance Matrix: (Units=1/GPa)
#
#
# Indices 1 2 3 4 5 6 
#
# 1 0.019448 -0.002585 -0.003342 0.000000 -0.002155 0.000000
# 2 -0.002585 0.011229 -0.005532 0.000000 0.002294 0.000000
# 3 -0.003342 -0.005532 0.014843 0.000000 -0.002440 0.000000
# 4 0.000000 0.000000 0.000000 0.024315 0.000000 -0.006968
# 5 -0.002155 0.002294 -0.002440 0.000000 0.040602 0.000000
# 6 0.000000 0.000000 0.000000 -0.006968 0.000000 0.040517
#
#
# Mechanical properties :
#
#
# Convention : Reuss Voigt Hill
#
# Bulk Modulus (GPa) = 44.24429 51.44631 47.84530
# Shear Modulus (GPa) = 27.56242 30.44966 29.00604
#
# Velocity S-wave (km/s) = 3.60958 3.79393 3.70290
# Velocity P-wave (km/s) = 6.18764 6.59629 6.39523
#
# Compressibility (1/GPa) = 0.02260179
#
# Stress axis : x y z
#
# Youngs Moduli (GPa) = 51.41834 89.05323 67.37199
#
# Poissons Ratio (x) = 0.23022 0.22516
# Poissons Ratio (y) = 0.13292 0.37271
# Poissons Ratio (z) = 0.17184 0.49266
#
# Static dielectric constant tensor:
#      x y z
#    x 3.601620 0.000000 0.050180 
#    y 0.000000 4.131780 0.000000 
#    z 0.050180 0.000000 3.997290 
# 
# 
# High freq. dielectric constant tensor:
#      x y z
#    x 1.803840 0.000000 0.011500 
#    y 0.000000 1.843680 0.000000 
#    z 0.011500 0.000000 1.823520 
# 
# From -- ./inp_files/307901.got.cif
#   From: 2010.06.25/outbox.cif.g09.slc.cpg/sg15_154_cif.got.tgz:307901.got - 2010.06.28 07:06:18.
