data_PCOD8137824
_publ_section_title
;
Structure prediction by ZEFSAII (Michael W. Deem and Ramdas Pophale) SiO2 
 PCOD8137824
Probable space group: C 2/C
;
_chemical_formula_sum "Si O2"
_cell_formula_units_Z 60
_cell_length_a 11.883149
_cell_length_b 26.541957
_cell_length_c 17.085106
_cell_angle_alpha 90.000000
_cell_angle_beta 148.842078
_cell_angle_gamma 90.000000
_cell_volume 2788.094481
_symmetry_space_group_name_H-M "C 2/C"
_symmetry_group_IT_number 15
_symmetry_cell_setting 'monoclinic'
loop_
_space_group_symop_operation_xyz
x,y,z
-x,y,1/2-z
-x,-y,-z
x,-y,1/2+z
1/2+x,1/2+y,z
1/2-x,1/2+y,1/2-z
1/2-x,1/2-y,-z
1/2+x,1/2-y,1/2+z
loop_
_atom_site_type_symbol
_atom_site_label
_atom_site_fract_x
_atom_site_fract_y
_atom_site_fract_z
Si Si1 0.107064 0.846494 0.974567
Si Si2 0.306680 0.967451 0.856151
Si Si3 0.723534 0.613229 0.000849
Si Si4 0.813936 0.170913 0.805212
Si Si5 0.868586 0.362959 0.979918
Si Si6 0.198835 0.403273 0.780759
Si Si7 0.867318 0.769805 0.743097
Si Si8 0.500000 0.540387 0.750000
O O1 0.274901 0.868300 0.011705
O O2 0.880973 0.876315 0.837737
O O3 0.043091 0.789289 0.911887
O O4 0.206361 0.851754 0.119899
O O5 0.306851 0.914395 0.901264
O O6 0.334803 0.957523 0.780179
O O7 0.099071 0.002728 0.745043
O O8 0.500000 0.000000 0.000000
O O9 0.726843 0.585282 0.086800
O O10 0.975298 0.630481 0.138726
O O11 0.548400 0.659131 0.903910
O O12 0.666965 0.575678 0.896640
O O13 0.628863 0.145846 0.640747
O O14 0.784101 0.230944 0.799081
O O15 0.765793 0.316162 0.872538
O O16 0.000000 0.742969 0.750000
#
# Coordination Sequence:
#
# PCOD8137824 Si02
#       8
#     8   8   8   8   8   8   8   4
#     4  10  20  37  62  88 128 163 204 261 322 376
#     4  12  23  39  66  92 124 164 212 261 324 370
#     4  10  24  42  64  89 129 170 214 260 308 376
#     4  11  22  37  60  94 127 166 204 259 322 382
#     4  11  22  38  62  97 129 161 208 271 319 386
#     4  10  21  44  63  86 123 173 209 258 313 375
#     4  10  20  36  63  93 128 166 207 260 331 385
#     4  12  24  42  68  98 122 166 216 264 322 378
#
# _framework density 21.520073
#
# number of rings (size 3 to 8) (size 9 to 14) (size 15 to 20)
#    0.000    1.333    2.667    3.600    0.933    2.667 
#    0.000    3.333    0.000    3.200    0.000    0.000 
#    0.000    0.000    0.000    0.000    0.000    0.000 
#
# Total GULP energy -371704.852190 kJ/mol
# GULP energy per Si atom -12390.161740 kJ/mol
# Density = 2.147109 g / cm^3
# Si number density = 21.520073 Si / 1000 Ang^3
#
#
#
# Elastic Constant Matrix: (Units=GPa)
#
#
# Indices 1 2 3 4 5 6 
#
# 1 49.8816 17.6325 12.2850 0.0006 5.4807 -0.0002
# 2 17.6325 87.0553 18.2696 0.0001 -2.9351 -0.0004
# 3 12.2850 18.2696 87.2641 0.0025 2.6789 0.0009
# 4 0.0006 0.0001 0.0025 28.5802 0.0008 8.5117
# 5 5.4807 -2.9351 2.6789 0.0008 37.4065 0.0001
# 6 -0.0002 -0.0004 0.0009 8.5117 0.0001 22.9148
#
#
#
# Elastic Compliance Matrix: (Units=1/GPa)
#
#
# Indices 1 2 3 4 5 6 
#
# 1 0.022451 -0.004208 -0.002173 0.000000 -0.003464 0.000000
# 2 -0.004208 0.012851 -0.002153 0.000000 0.001779 0.000000
# 3 -0.002173 -0.002153 0.012238 -0.000001 -0.000727 0.000000
# 4 0.000000 0.000000 -0.000001 0.039341 -0.000001 -0.014613
# 5 -0.003464 0.001779 -0.000727 -0.000001 0.027432 0.000000
# 6 0.000000 0.000000 0.000000 -0.014613 0.000000 0.049068
#
#
# Mechanical properties :
#
#
# Convention : Reuss Voigt Hill
#
# Bulk Modulus (GPa) = 32.81669 35.61947 34.21808
# Shear Modulus (GPa) = 26.23191 29.51457 27.87324
#
# Velocity S-wave (km/s) = 3.49513 3.70738 3.60282
# Velocity P-wave (km/s) = 5.61875 5.90880 5.76560
#
# Compressibility (1/GPa) = 0.03047229
#
# Stress axis : x y z
#
# Youngs Moduli (GPa) = 44.54184 77.81495 81.70983
#
# Poissons Ratio (x) = 0.32744 0.17758
# Poissons Ratio (y) = 0.18743 0.17590
# Poissons Ratio (z) = 0.09680 0.16751
#
# Static dielectric constant tensor:
#      x y z
#    x 3.632650 0.000000 -0.090010 
#    y 0.000000 2.914150 0.000000 
#    z -0.090010 0.000000 4.127960 
# 
# 
# High freq. dielectric constant tensor:
#      x y z
#    x 1.847780 0.000000 -0.003660 
#    y 0.000000 1.815460 0.000000 
#    z -0.003660 0.000000 1.866720 
# 
# From -- ./inp_files/201266.got.cif
#   From: 2010.06.25/outbox.cif.g09.slc.cpg/sg15_101_cif.got.tgz:201266.got - 2010.06.28 07:06:18.
