data_PCOD8137973
_publ_section_title
;
Structure prediction by ZEFSAII (Michael W. Deem and Ramdas Pophale) SiO2 
 PCOD8137973
Probable space group: C 2/C
;
_chemical_formula_sum "Si O2"
_cell_formula_units_Z 64
_cell_length_a 21.345891
_cell_length_b 29.117159
_cell_length_c 17.814656
_cell_angle_alpha 90.000000
_cell_angle_beta 160.422368
_cell_angle_gamma 90.000000
_cell_volume 3710.172639
_symmetry_space_group_name_H-M "C 2/C"
_symmetry_group_IT_number 15
_symmetry_cell_setting 'monoclinic'
loop_
_space_group_symop_operation_xyz
x,y,z
-x,y,1/2-z
-x,-y,-z
x,-y,1/2+z
1/2+x,1/2+y,z
1/2-x,1/2+y,1/2-z
1/2-x,1/2-y,-z
1/2+x,1/2-y,1/2+z
loop_
_atom_site_type_symbol
_atom_site_label
_atom_site_fract_x
_atom_site_fract_y
_atom_site_fract_z
Si Si1 0.780236 0.988270 0.008388
Si Si2 0.292082 0.518265 0.186116
Si Si3 0.724126 0.686454 0.084386
Si Si4 0.918466 0.854555 0.327897
Si Si5 0.085007 0.713246 0.425475
Si Si6 0.208315 0.388344 0.959050
Si Si7 0.647822 0.432555 0.139606
Si Si8 0.556303 0.035954 0.625857
O O1 0.720961 0.009474 0.021495
O O2 0.000000 0.988595 0.250000
O O3 0.695001 0.016278 0.844437
O O4 0.703321 0.936735 0.911204
O O5 0.310209 0.468614 0.246380
O O6 0.483096 0.546568 0.402724
O O7 0.136403 0.550677 0.051306
O O8 0.701718 0.651236 0.990704
O O9 0.943828 0.700299 0.335093
O O10 0.633099 0.662052 0.055285
O O11 0.606968 0.732608 0.939533
O O12 0.909830 0.882009 0.396355
O O13 0.779900 0.810886 0.166491
O O14 0.848745 0.891613 0.187947
O O15 0.000000 0.695544 0.250000
O O16 0.000000 0.375700 0.750000
O O17 0.828873 0.424785 0.289799
O O18 0.500000 0.000000 0.500000
#
# Coordination Sequence:
#
# PCOD8137973 Si02
#       8
#     8   8   8   8   8   8   8   8
#     4  12  22  37  57  80 107 147 192 230 269 324
#     4  10  20  37  55  74 107 139 184 228 274 322
#     4  12  23  35  53  70 101 141 182 233 281 317
#     4  12  22  35  52  74 102 137 182 234 268 329
#     4  12  22  35  51  72 101 139 185 231 285 326
#     4  12  23  33  48  77 101 134 191 234 260 312
#     4  10  22  36  50  78 104 140 181 231 279 315
#     4  10  22  36  56  75 107 143 177 229 280 321
#
# _framework density 17.249870999999999
#
# number of rings (size 3 to 8) (size 9 to 14) (size 15 to 20)
#    0.000    0.750    6.250    3.375    1.750    1.000 
#    0.000    0.000    0.000    0.000    0.000    0.000 
#    0.000    0.000    0.000    4.500    1.000    0.250 
#
# Total GULP energy -396465.828846 kJ/mol
# GULP energy per Si atom -12389.557151 kJ/mol
# Density = 1.721061 g / cm^3
# Si number density = 17.249871 Si / 1000 Ang^3
#
#
#
# Elastic Constant Matrix: (Units=GPa)
#
#
# Indices 1 2 3 4 5 6 
#
# 1 95.9567 34.2048 40.2337 0.0002 18.8598 0.0002
# 2 34.2048 47.4331 14.5085 0.0003 0.9351 0.0002
# 3 40.2337 14.5085 62.6512 0.0004 17.7310 0.0006
# 4 0.0002 0.0003 0.0004 10.1372 0.0002 3.1273
# 5 18.8598 0.9351 17.7310 0.0002 41.4309 0.0003
# 6 0.0002 0.0002 0.0006 3.1273 0.0003 18.9039
#
#
#
# Elastic Compliance Matrix: (Units=1/GPa)
#
#
# Indices 1 2 3 4 5 6 
#
# 1 0.018624 -0.010860 -0.008096 0.000000 -0.004768 0.000000
# 2 -0.010860 0.029165 -0.001129 -0.000001 0.004769 0.000000
# 3 -0.008096 -0.001129 0.023179 0.000000 -0.006209 -0.000001
# 4 0.000000 -0.000001 0.000000 0.103952 0.000000 -0.017197
# 5 -0.004768 0.004769 -0.006209 0.000000 0.028857 0.000000
# 6 0.000000 0.000000 -0.000001 -0.017197 0.000000 0.055744
#
#
# Mechanical properties :
#
#
# Convention : Reuss Voigt Hill
#
# Bulk Modulus (GPa) = 32.46962 42.65946 37.56454
# Shear Modulus (GPa) = 16.13125 21.90066 19.01595
#
# Velocity S-wave (km/s) = 3.06134 3.56703 3.32382
# Velocity P-wave (km/s) = 5.59998 6.46134 6.04602
#
# Compressibility (1/GPa) = 0.03079802
#
# Stress axis : x y z
#
# Youngs Moduli (GPa) = 53.69374 34.28767 43.14205
#
# Poissons Ratio (x) = 0.37236 0.34927
# Poissons Ratio (y) = 0.58311 0.04873
# Poissons Ratio (z) = 0.43470 0.03873
#
# Static dielectric constant tensor:
#      x y z
#    x 3.461870 0.000000 0.524630 
#    y 0.000000 3.036410 0.000000 
#    z 0.524630 0.000000 3.188720 
# 
# 
# High freq. dielectric constant tensor:
#      x y z
#    x 1.653420 0.000000 0.044120 
#    y 0.000000 1.638100 0.000000 
#    z 0.044120 0.000000 1.663600 
# 
# From -- ./inp_files/217201.got.cif
#   From: 2010.06.25/outbox.cif.g09.slc.cpg/sg15_109_cif.got.tgz:217201.got - 2010.06.28 07:06:18.
