data_PCOD8137670
_publ_section_title
;
Structure prediction by ZEFSAII (Michael W. Deem and Ramdas Pophale) SiO2 
 PCOD8137670
Probable space group: C 2/C
;
_chemical_formula_sum "Si O2"
_cell_formula_units_Z 40
_cell_length_a 25.042647
_cell_length_b 8.687979
_cell_length_c 9.876607
_cell_angle_alpha 90.000000
_cell_angle_beta 99.952078
_cell_angle_gamma 90.000000
_cell_volume 2116.518745
_symmetry_space_group_name_H-M "C 2/C"
_symmetry_group_IT_number 15
_symmetry_cell_setting 'monoclinic'
loop_
_space_group_symop_operation_xyz
x,y,z
-x,y,1/2-z
-x,-y,-z
x,-y,1/2+z
1/2+x,1/2+y,z
1/2-x,1/2+y,1/2-z
1/2-x,1/2-y,-z
1/2+x,1/2-y,1/2+z
loop_
_atom_site_type_symbol
_atom_site_label
_atom_site_fract_x
_atom_site_fract_y
_atom_site_fract_z
Si Si1 0.727246 0.684049 0.126954
Si Si2 0.885935 0.660177 0.529528
Si Si3 0.620725 0.141271 0.659216
Si Si4 0.997053 0.639341 0.899606
Si Si5 0.285137 0.676559 0.898838
O O1 0.666829 0.743453 0.129756
O O2 0.726792 0.501566 0.122238
O O3 0.770602 0.735234 0.256275
O O4 0.750000 0.750000 0.000000
O O5 0.871406 0.607309 0.676925
O O6 0.876871 0.516181 0.425057
O O7 0.847983 0.798565 0.463141
O O8 0.947121 0.733681 0.549205
O O9 0.561395 0.223575 0.607669
O O10 0.000000 0.570562 0.750000
O O11 0.000000 0.500000 0.000000
O O12 0.250000 0.750000 0.000000
#
# Coordination Sequence:
#
# PCOD8137670 Si02
#       5
#     8   8   8   8   8
#     4  12  26  40  61  86 119 155 193 242 294 351
#     4  10  20  36  61  88 120 155 195 239 288 347
#     4  10  20  37  60  89 119 154 196 239 289 347
#     4   8  16  32  56  85 116 152 191 234 283 344
#     4  12  24  42  59  86 118 153 196 241 296 350
#
# _framework density 18.898959000000001
#
# number of rings (size 3 to 8) (size 9 to 14) (size 15 to 20)
#    0.000    1.600    2.000    3.600    2.800    0.000 
#    0.000    1.000    0.000    0.000    0.000    0.000 
#    0.000    0.000    0.000    0.000    0.000    0.000 
#
# Total GULP energy -247775.154878 kJ/mol
# GULP energy per Si atom -12388.757744 kJ/mol
# Density = 1.885594 g / cm^3
# Si number density = 18.898959 Si / 1000 Ang^3
#
#
#
# Elastic Constant Matrix: (Units=GPa)
#
#
# Indices 1 2 3 4 5 6 
#
# 1 166.9805 48.3587 65.8754 0.0000 11.9117 0.0000
# 2 48.3587 107.6110 47.4458 0.0000 8.0516 0.0000
# 3 65.8754 47.4458 138.2022 0.0000 5.7934 0.0000
# 4 0.0000 0.0000 0.0000 24.4086 0.0000 2.0827
# 5 11.9117 8.0516 5.7934 0.0000 32.7706 0.0000
# 6 0.0000 0.0000 0.0000 2.0827 0.0000 28.8498
#
#
#
# Elastic Compliance Matrix: (Units=1/GPa)
#
#
# Indices 1 2 3 4 5 6 
#
# 1 0.007899 -0.002105 -0.002966 0.000000 -0.001830 0.000000
# 2 -0.002105 0.011648 -0.002929 0.000000 -0.001579 0.000000
# 3 -0.002966 -0.002929 0.009651 0.000000 0.000092 0.000000
# 4 0.000000 0.000000 0.000000 0.041223 0.000000 -0.002976
# 5 -0.001830 -0.001579 0.000092 0.000000 0.031552 0.000000
# 6 0.000000 0.000000 0.000000 -0.002976 0.000000 0.034877
#
#
# Mechanical properties :
#
#
# Convention : Reuss Voigt Hill
#
# Bulk Modulus (GPa) = 75.76804 81.79482 78.78143
# Shear Modulus (GPa) = 31.79640 33.94672 32.87156
#
# Velocity S-wave (km/s) = 4.10621 4.24278 4.17505
# Velocity P-wave (km/s) = 7.91577 8.20827 8.06334
#
# Compressibility (1/GPa) = 0.01319818
#
# Stress axis : x y z
#
# Youngs Moduli (GPa) = 126.59992 85.84823 103.61376
#
# Poissons Ratio (x) = 0.18073 0.30728
# Poissons Ratio (y) = 0.26652 0.30352
# Poissons Ratio (z) = 0.37545 0.25148
#
# Static dielectric constant tensor:
#      x y z
#    x 4.240660 0.000000 0.072020 
#    y 0.000000 3.130740 0.000000 
#    z 0.072020 0.000000 3.796430 
# 
# 
# High freq. dielectric constant tensor:
#      x y z
#    x 1.768600 0.000000 0.005410 
#    y 0.000000 1.682240 0.000000 
#    z 0.005410 0.000000 1.760260 
# 
# From -- ./inp_files/59900.got.cif
#   From: 2010.06.25/outbox.cif.g09.slc.cpg/sg15_30_cif.got.tgz:59900.got - 2010.06.28 07:06:18.
