data_PCOD8137429
_publ_section_title
;
Structure prediction by ZEFSAII (Michael W. Deem and Ramdas Pophale) SiO2 
 PCOD8137429
Probable space group: C 2/C
;
_chemical_formula_sum "Si O2"
_cell_formula_units_Z 48
_cell_length_a 15.569790
_cell_length_b 8.886271
_cell_length_c 17.335279
_cell_angle_alpha 90.000000
_cell_angle_beta 97.382302
_cell_angle_gamma 90.000000
_cell_volume 2378.582560
_symmetry_space_group_name_H-M "C 2/C"
_symmetry_group_IT_number 15
_symmetry_cell_setting 'monoclinic'
loop_
_space_group_symop_operation_xyz
x,y,z
-x,y,1/2-z
-x,-y,-z
x,-y,1/2+z
1/2+x,1/2+y,z
1/2-x,1/2+y,1/2-z
1/2-x,1/2-y,-z
1/2+x,1/2-y,1/2+z
loop_
_atom_site_type_symbol
_atom_site_label
_atom_site_fract_x
_atom_site_fract_y
_atom_site_fract_z
Si Si1 0.534804 0.394534 0.874983
Si Si2 0.698773 0.269708 0.281477
Si Si3 0.958051 0.367658 0.448054
Si Si4 0.862234 0.905747 0.763762
Si Si5 0.411505 0.282243 0.085820
Si Si6 0.554961 0.084423 0.183638
O O1 0.531691 0.254025 0.933160
O O2 0.438341 0.429141 0.833818
O O3 0.598984 0.351783 0.813047
O O4 0.570369 0.540884 0.922985
O O5 0.798506 0.222732 0.287655
O O6 0.689320 0.439058 0.251003
O O7 0.668996 0.254077 0.366875
O O8 0.642849 0.162243 0.220057
O O9 0.889873 0.286724 0.498482
O O10 0.917365 0.440845 0.365973
O O11 0.000000 0.500000 0.500000
O O12 0.497367 0.206046 0.131388
O O13 0.500000 0.022513 0.250000
#
# Coordination Sequence:
#
# PCOD8137429 Si02
#       6
#     8   8   8   8   8   8
#     4  10  20  38  59  85 113 152 191 230 285 338
#     4  10  20  36  58  85 116 146 189 240 289 327
#     4  10  21  33  58  87 113 147 195 230 279 338
#     4  10  22  35  62  88 113 145 195 238 280 335
#     4   9  18  38  58  79 114 153 185 229 286 343
#     4   9  18  33  56  84 113 147 187 238 280 333
#
# _framework density 20.180084999999998
#
# number of rings (size 3 to 8) (size 9 to 14) (size 15 to 20)
#    0.000    2.333    1.667    0.500    4.667    2.667 
#    0.000    0.833    3.667    3.000    0.000    0.000 
#    0.000    0.000    0.000    0.000    0.000    0.000 
#
# Total GULP energy -297530.091944 kJ/mol
# GULP energy per Si atom -12397.087164 kJ/mol
# Density = 2.013415 g / cm^3
# Si number density = 20.180085 Si / 1000 Ang^3
#
#
#
# Elastic Constant Matrix: (Units=GPa)
#
#
# Indices 1 2 3 4 5 6 
#
# 1 86.5370 41.6884 24.5896 0.0000 -23.3076 0.0000
# 2 41.6884 124.5656 66.5773 0.0000 -26.4762 0.0000
# 3 24.5896 66.5773 106.5046 0.0000 -25.4514 0.0000
# 4 0.0000 0.0000 0.0000 41.8567 0.0000 -6.3552
# 5 -23.3076 -26.4762 -25.4514 0.0000 19.6070 0.0000
# 6 0.0000 0.0000 0.0000 -6.3552 0.0000 27.6116
#
#
#
# Elastic Compliance Matrix: (Units=1/GPa)
#
#
# Indices 1 2 3 4 5 6 
#
# 1 0.017783 -0.003023 0.002697 0.000000 0.020557 0.000000
# 2 -0.003023 0.013902 -0.006328 0.000000 0.006964 0.000000
# 3 0.002697 -0.006328 0.016594 0.000000 0.016201 0.000000
# 4 0.000000 0.000000 0.000000 0.024756 0.000000 0.005698
# 5 0.020557 0.006964 0.016201 0.000000 0.105874 0.000000
# 6 0.000000 0.000000 0.000000 0.005698 0.000000 0.037528
#
#
# Mechanical properties :
#
#
# Convention : Reuss Voigt Hill
#
# Bulk Modulus (GPa) = 28.59628 64.81309 46.70468
# Shear Modulus (GPa) = 20.71228 30.13185 25.42206
#
# Velocity S-wave (km/s) = 3.20718 3.86832 3.55316
# Velocity P-wave (km/s) = 5.28356 7.22073 6.32673
#
# Compressibility (1/GPa) = 0.03496958
#
# Stress axis : x y z
#
# Youngs Moduli (GPa) = 56.23441 71.93085 60.26284
#
# Poissons Ratio (x) = 0.21747 -0.16252
# Poissons Ratio (y) = 0.17002 0.38135
# Poissons Ratio (z) = -0.15166 0.45519
#
# Static dielectric constant tensor:
#      x y z
#    x 3.291420 0.000000 -0.269290 
#    y 0.000000 3.945190 0.000000 
#    z -0.269290 0.000000 4.050260 
# 
# 
# High freq. dielectric constant tensor:
#      x y z
#    x 1.753710 0.000000 -0.019650 
#    y 0.000000 1.804970 0.000000 
#    z -0.019650 0.000000 1.788880 
# 
# From -- ./inp_files/202976.got.cif
#   From: 2010.06.25/outbox.cif.g09.slc.cpg/sg15_102_cif.got.tgz:202976.got - 2010.06.28 07:06:18.
