data_PCOD8137988
_publ_section_title
;
Structure prediction by ZEFSAII (Michael W. Deem and Ramdas Pophale) SiO2 
 PCOD8137988
Probable space group: C 2/C
;
_chemical_formula_sum "Si O2"
_cell_formula_units_Z 40
_cell_length_a 5.012735
_cell_length_b 27.916145
_cell_length_c 13.084376
_cell_angle_alpha 90.000000
_cell_angle_beta 90.114363
_cell_angle_gamma 90.000000
_cell_volume 1830.974695
_symmetry_space_group_name_H-M "C 2/C"
_symmetry_group_IT_number 15
_symmetry_cell_setting 'monoclinic'
loop_
_space_group_symop_operation_xyz
x,y,z
-x,y,1/2-z
-x,-y,-z
x,-y,1/2+z
1/2+x,1/2+y,z
1/2-x,1/2+y,1/2-z
1/2-x,1/2-y,-z
1/2+x,1/2-y,1/2+z
loop_
_atom_site_type_symbol
_atom_site_label
_atom_site_fract_x
_atom_site_fract_y
_atom_site_fract_z
Si Si1 0.526698 0.195319 0.560150
Si Si2 0.759033 0.062713 0.185869
Si Si3 0.480453 0.747492 0.865668
Si Si4 0.147633 0.588911 0.959089
Si Si5 0.377251 0.531557 0.588971
O O1 0.547889 0.207793 0.439660
O O2 0.318866 0.230192 0.615069
O O3 0.436911 0.141189 0.577266
O O4 0.814070 0.203795 0.612670
O O5 0.500000 0.073857 0.250000
O O6 0.000000 0.086014 0.250000
O O7 0.806150 0.005015 0.179784
O O8 0.746267 0.088601 0.076261
O O9 0.500000 0.765987 0.750000
O O10 0.392305 0.571026 0.885746
O O11 0.894428 0.554827 0.949887
O O12 0.500000 0.500000 0.500000
#
# Coordination Sequence:
#
# PCOD8137988 Si02
#       5
#     8   8   8   8   8
#     4  10  22  39  63  90 116 153 195 237 294 352
#     4  11  21  35  55  82 113 148 193 239 283 331
#     4  10  21  41  63  86 120 154 188 237 297 356
#     4  11  21  38  59  81 112 150 192 235 283 340
#     4  10  20  37  56  75 110 154 182 219 281 336
#
# _framework density 21.846288999999999
#
# number of rings (size 3 to 8) (size 9 to 14) (size 15 to 20)
#    0.000    1.600    0.000    7.800    0.000    0.800 
#    0.000   14.000    0.000    0.000    0.000    0.000 
#    0.000    0.000    0.000    0.000    0.000    0.000 
#
# Total GULP energy -247991.625969 kJ/mol
# GULP energy per Si atom -12399.581298 kJ/mol
# Density = 2.179657 g / cm^3
# Si number density = 21.846289 Si / 1000 Ang^3
#
#
#
# Elastic Constant Matrix: (Units=GPa)
#
#
# Indices 1 2 3 4 5 6 
#
# 1 124.4123 -7.6293 12.6807 0.0000 9.6335 0.0000
# 2 -7.6293 45.4323 -14.8526 0.0000 4.0486 0.0000
# 3 12.6807 -14.8526 62.7361 0.0000 -2.6682 0.0000
# 4 0.0000 0.0000 0.0000 18.0997 0.0000 -5.0547
# 5 9.6335 4.0486 -2.6682 0.0000 31.0406 0.0000
# 6 0.0000 0.0000 0.0000 -5.0547 0.0000 41.6795
#
#
#
# Elastic Compliance Matrix: (Units=1/GPa)
#
#
# Indices 1 2 3 4 5 6 
#
# 1 0.008496 0.001176 -0.001563 0.000000 -0.002924 0.000000
# 2 0.001176 0.024237 0.005370 0.000000 -0.003065 0.000000
# 3 -0.001563 0.005370 0.017582 0.000000 0.001296 0.000000
# 4 0.000000 0.000000 0.000000 0.057186 0.000000 0.006935
# 5 -0.002924 -0.003065 0.001296 0.000000 0.033635 0.000000
# 6 0.000000 0.000000 0.000000 0.006935 0.000000 0.024834
#
#
# Mechanical properties :
#
#
# Convention : Reuss Voigt Hill
#
# Bulk Modulus (GPa) = 16.58899 23.66424 20.12661
# Shear Modulus (GPa) = 28.39346 34.32277 31.35811
#
# Velocity S-wave (km/s) = 3.60904 3.96801 3.79277
# Velocity P-wave (km/s) = 4.99768 5.64351 5.33039
#
# Compressibility (1/GPa) = 0.06028095
#
# Stress axis : x y z
#
# Youngs Moduli (GPa) = 117.70679 41.25935 56.87579
#
# Poissons Ratio (x) = -0.04853 0.08890
# Poissons Ratio (y) = -0.13845 -0.30542
# Poissons Ratio (z) = 0.18399 -0.22156
#
# Static dielectric constant tensor:
#      x y z
#    x 4.512950 0.000000 -0.080090 
#    y 0.000000 3.831000 0.000000 
#    z -0.080090 0.000000 3.674140 
# 
# 
# High freq. dielectric constant tensor:
#      x y z
#    x 1.886220 0.000000 0.002660 
#    y 0.000000 1.832940 0.000000 
#    z 0.002660 0.000000 1.846230 
# 
# From -- ./inp_files/73348.got.cif
#   From: 2010.06.25/outbox.cif.g09.slc.cpg/sg15_37_cif.got.tgz:73348.got - 2010.06.28 07:06:18.
