data_PCOD8137210
_publ_section_title
;
Structure prediction by ZEFSAII (Michael W. Deem and Ramdas Pophale) SiO2 
 PCOD8137210
Probable space group: C 2/C
;
_chemical_formula_sum "Si O2"
_cell_formula_units_Z 64
_cell_length_a 5.892599
_cell_length_b 17.143064
_cell_length_c 32.138236
_cell_angle_alpha 90.000000
_cell_angle_beta 89.915087
_cell_angle_gamma 90.000000
_cell_volume 3246.511106
_symmetry_space_group_name_H-M "C 2/C"
_symmetry_group_IT_number 15
_symmetry_cell_setting 'monoclinic'
loop_
_space_group_symop_operation_xyz
x,y,z
-x,y,1/2-z
-x,-y,-z
x,-y,1/2+z
1/2+x,1/2+y,z
1/2-x,1/2+y,1/2-z
1/2-x,1/2-y,-z
1/2+x,1/2-y,1/2+z
loop_
_atom_site_type_symbol
_atom_site_label
_atom_site_fract_x
_atom_site_fract_y
_atom_site_fract_z
Si Si1 0.104724 0.351795 0.294395
Si Si2 0.999694 0.207214 0.999905
Si Si3 0.691709 0.768094 0.647251
Si Si4 0.614801 0.090490 0.353129
Si Si5 0.423366 0.679559 0.411101
Si Si6 0.302735 0.950370 0.354169
Si Si7 0.084211 0.001438 0.705612
Si Si8 0.390405 0.671775 0.588475
O O1 0.198197 0.270390 0.312130
O O2 0.302417 0.414487 0.288198
O O3 0.000000 0.332115 0.250000
O O4 0.918044 0.383590 0.326370
O O5 0.001552 0.157552 0.957258
O O6 0.750000 0.250000 0.000000
O O7 0.250000 0.250000 0.000000
O O8 0.998936 0.155910 0.042151
O O9 0.512620 0.832188 0.662599
O O10 0.585583 0.698676 0.620062
O O11 0.864095 0.816598 0.619202
O O12 0.762976 0.111978 0.393488
O O13 0.746289 0.063517 0.311896
O O14 0.468832 0.017959 0.369703
O O15 0.307212 0.764216 0.412487
O O16 0.203013 0.910821 0.395572
O O17 0.116571 0.993319 0.326950
O O18 0.000000 0.970341 0.750000
#
# Coordination Sequence:
#
# PCOD8137210 Si02
#       8
#     8   8   8   8   8   8   8   8
#     4  11  22  37  66  94 118 158 212 271 319 374
#     4  10  20  36  64 102 133 171 220 281 333 399
#     4  11  20  39  64  89 127 158 208 266 324 384
#     4  10  25  39  62  89 126 174 205 255 332 396
#     4  10  20  39  61  92 131 166 211 267 329 385
#     4  11  21  40  63  90 122 166 217 256 319 390
#     4  11  22  41  66  85 121 167 216 260 315 390
#     4  10  20  35  66  96 121 167 217 267 321 385
#
# _framework density 19.713470999999998
#
# number of rings (size 3 to 8) (size 9 to 14) (size 15 to 20)
#    0.000    1.500    5.000    0.750    0.000    0.000 
#    0.000    4.375    2.750    3.000    0.000    0.000 
#    0.000    0.000    0.000    0.000    0.000    0.000 
#
# Total GULP energy -396633.163542 kJ/mol
# GULP energy per Si atom -12394.786361 kJ/mol
# Density = 1.966860 g / cm^3
# Si number density = 19.713471 Si / 1000 Ang^3
#
#
#
# Elastic Constant Matrix: (Units=GPa)
#
#
# Indices 1 2 3 4 5 6 
#
# 1 112.6805 45.0768 57.1841 0.0000 -5.8195 0.0000
# 2 45.0768 100.2734 75.1334 0.0000 -4.1384 0.0000
# 3 57.1841 75.1334 159.1377 0.0000 -7.1699 0.0000
# 4 0.0000 0.0000 0.0000 20.5631 0.0000 7.3154
# 5 -5.8195 -4.1384 -7.1699 0.0000 17.9233 0.0000
# 6 0.0000 0.0000 0.0000 7.3154 0.0000 16.2274
#
#
#
# Elastic Compliance Matrix: (Units=1/GPa)
#
#
# Indices 1 2 3 4 5 6 
#
# 1 0.011552 -0.003200 -0.002551 0.000000 0.001992 0.000000
# 2 -0.003200 0.016326 -0.006553 0.000000 0.000109 0.000000
# 3 -0.002551 -0.006553 0.010376 0.000000 0.001809 0.000000
# 4 0.000000 0.000000 0.000000 0.057920 0.000000 -0.026111
# 5 0.001992 0.000109 0.001809 0.000000 0.057189 0.000000
# 6 0.000000 0.000000 0.000000 -0.026111 0.000000 0.073395
#
#
# Mechanical properties :
#
#
# Convention : Reuss Voigt Hill
#
# Bulk Modulus (GPa) = 73.27840 80.76446 77.02143
# Shear Modulus (GPa) = 19.53785 23.92258 21.73022
#
# Velocity S-wave (km/s) = 3.15158 3.48733 3.32370
# Velocity P-wave (km/s) = 7.10603 7.56792 7.34061
#
# Compressibility (1/GPa) = 0.01364659
#
# Stress axis : x y z
#
# Youngs Moduli (GPa) = 86.56555 61.25265 96.37734
#
# Poissons Ratio (x) = 0.19599 0.24583
# Poissons Ratio (y) = 0.27698 0.63158
# Poissons Ratio (z) = 0.22080 0.40140
#
# Static dielectric constant tensor:
#      x y z
#    x 3.984480 0.000000 0.010750 
#    y 0.000000 3.292370 0.000000 
#    z 0.010750 0.000000 3.767550 
# 
# 
# High freq. dielectric constant tensor:
#      x y z
#    x 1.788780 0.000000 0.000040 
#    y 0.000000 1.738760 0.000000 
#    z 0.000040 0.000000 1.772780 
# 
# From -- ./inp_files/305797.got.cif
#   From: 2010.06.25/outbox.cif.g09.slc.cpg/sg15_153_cif.got.tgz:305797.got - 2010.06.28 07:06:18.
