data_PCOD8137075
_publ_section_title
;
Structure prediction by ZEFSAII (Michael W. Deem and Ramdas Pophale) SiO2 
 PCOD8137075
Probable space group: C 2/C
;
_chemical_formula_sum "Si O2"
_cell_formula_units_Z 44
_cell_length_a 17.227252
_cell_length_b 21.918004
_cell_length_c 5.411433
_cell_angle_alpha 90.000000
_cell_angle_beta 88.636439
_cell_angle_gamma 90.000000
_cell_volume 2042.708029
_symmetry_space_group_name_H-M "C 2/C"
_symmetry_group_IT_number 15
_symmetry_cell_setting 'monoclinic'
loop_
_space_group_symop_operation_xyz
x,y,z
-x,y,1/2-z
-x,-y,-z
x,-y,1/2+z
1/2+x,1/2+y,z
1/2-x,1/2+y,1/2-z
1/2-x,1/2-y,-z
1/2+x,1/2-y,1/2+z
loop_
_atom_site_type_symbol
_atom_site_label
_atom_site_fract_x
_atom_site_fract_y
_atom_site_fract_z
Si Si1 0.911285 0.524306 0.312288
Si Si2 0.299101 0.253424 0.245999
Si Si3 0.587235 0.474782 0.515069
Si Si4 0.500000 0.759633 0.250000
Si Si5 0.426455 0.340226 0.095417
Si Si6 0.580402 0.163146 0.113511
O O1 0.872660 0.484761 0.541267
O O2 0.902215 0.592237 0.415888
O O3 0.000000 0.504318 0.250000
O O4 0.250000 0.250000 0.500000
O O5 0.351812 0.315316 0.253896
O O6 0.351519 0.192988 0.234109
O O7 0.250000 0.250000 0.000000
O O8 0.500000 0.500000 0.500000
O O9 0.628581 0.504917 0.753477
O O10 0.594513 0.401670 0.552604
O O11 0.451439 0.716588 0.431097
O O12 0.568463 0.802429 0.354226
O O13 0.500000 0.360468 0.250000
O O14 0.500000 0.175626 0.250000
#
# Coordination Sequence:
#
# PCOD8137075 Si02
#       6
#     8   8   8   4   8   8
#     4   9  20  34  57  92 122 152 201 265 325 375
#     4  12  27  44  61  94 137 178 217 265 335 408
#     4  10  20  35  59  99 128 156 205 283 331 387
#     4  12  20  36  64 102 124 166 222 280 330 390
#     4  12  23  39  68  96 132 172 221 278 335 397
#     4  11  23  39  67  94 126 168 218 279 327 388
#
# _framework density 21.540035
#
# number of rings (size 3 to 8) (size 9 to 14) (size 15 to 20)
#    0.000    1.091    5.455    2.182    6.364    0.000 
#    0.000    0.000    0.000    6.545    0.000    0.000 
#    0.000    0.000    0.000    0.000    0.000    0.000 
#
# Total GULP energy -272575.549051 kJ/mol
# GULP energy per Si atom -12389.797684 kJ/mol
# Density = 2.149101 g / cm^3
# Si number density = 21.540035 Si / 1000 Ang^3
#
#
#
# Elastic Constant Matrix: (Units=GPa)
#
#
# Indices 1 2 3 4 5 6 
#
# 1 69.0659 24.2715 23.6280 0.0000 4.8850 0.0000
# 2 24.2715 161.2631 62.2375 0.0000 -1.7388 0.0000
# 3 23.6280 62.2375 156.6925 0.0000 16.0904 0.0000
# 4 0.0000 0.0000 0.0000 -273.3252 0.0000 -21.2136
# 5 4.8850 -1.7388 16.0904 0.0000 31.2767 0.0000
# 6 0.0000 0.0000 0.0000 -21.2136 0.0000 -4.4005
#
#
#
# Elastic Compliance Matrix: (Units=1/GPa)
#
#
# Indices 1 2 3 4 5 6 
#
# 1 0.015749 -0.001825 -0.001464 0.000000 -0.001808 0.000000
# 2 -0.001825 0.007657 -0.002997 0.000000 0.002253 0.000000
# 3 -0.001464 -0.002997 0.008221 0.000000 -0.004167 0.000000
# 4 0.000000 0.000000 0.000000 -0.005846 0.000000 0.028182
# 5 -0.001808 0.002253 -0.004167 0.000000 0.034524 0.000000
# 6 0.000000 0.000000 0.000000 0.028182 0.000000 -0.363105
#
#
# Mechanical properties :
#
#
# Convention : Reuss Voigt Hill
#
# Bulk Modulus (GPa) = 52.48240 67.47727 59.97984
# Shear Modulus (GPa) = -17.61336 -30.83083 -24.22209
#
# Velocity S-wave (km/s) = -2.86265 -3.78739 -3.35702
# Velocity P-wave (km/s) = 3.67309 3.50267 3.58889
#
# Compressibility (1/GPa) = 0.01905401
#
# Stress axis : x y z
#
# Youngs Moduli (GPa) = 63.49602 130.60318 121.63605
#
# Poissons Ratio (x) = 0.23831 0.17813
# Poissons Ratio (y) = 0.11586 0.36459
# Poissons Ratio (z) = 0.09299 0.39147
#
# Static dielectric constant tensor:
#      x y z
#    x 3.583960 0.000000 0.014810 
#    y 0.000000 4.142390 0.000000 
#    z 0.014810 0.000000 4.685000 
# 
# 
# High freq. dielectric constant tensor:
#      x y z
#    x 1.789070 0.000000 0.003960 
#    y 0.000000 1.856320 0.000000 
#    z 0.003960 0.000000 1.865080 
# 
# From -- ./inp_files/10354.got.cif
#   From: 2010.06.25/outbox.cif.g09.slc.cpg/sg15_6_cif.got.tgz:10354.got - 2010.06.28 07:06:18.
