data_PCOD8137845
_publ_section_title
;
Structure prediction by ZEFSAII (Michael W. Deem and Ramdas Pophale) SiO2 
 PCOD8137845
Probable space group: C 2/C
;
_chemical_formula_sum "Si O2"
_cell_formula_units_Z 52
_cell_length_a 17.992196
_cell_length_b 18.494019
_cell_length_c 9.255060
_cell_angle_alpha 90.000000
_cell_angle_beta 62.355177
_cell_angle_gamma 90.000000
_cell_volume 2728.038052
_symmetry_space_group_name_H-M "C 2/C"
_symmetry_group_IT_number 15
_symmetry_cell_setting 'monoclinic'
loop_
_space_group_symop_operation_xyz
x,y,z
-x,y,1/2-z
-x,-y,-z
x,-y,1/2+z
1/2+x,1/2+y,z
1/2-x,1/2+y,1/2-z
1/2-x,1/2-y,-z
1/2+x,1/2-y,1/2+z
loop_
_atom_site_type_symbol
_atom_site_label
_atom_site_fract_x
_atom_site_fract_y
_atom_site_fract_z
Si Si1 0.708217 0.796823 0.833096
Si Si2 0.000000 0.760981 0.750000
Si Si3 0.346909 0.187598 0.800495
Si Si4 0.401994 0.667814 0.576992
Si Si5 0.727397 0.425758 0.909811
Si Si6 0.248284 0.429135 0.270407
Si Si7 0.969859 0.936248 0.426901
O O1 0.792735 0.755332 0.797023
O O2 0.641764 0.740245 0.820081
O O3 0.726833 0.855604 0.694501
O O4 0.671735 0.831564 0.013874
O O5 0.055189 0.709613 0.805572
O O6 0.066420 0.812945 0.611422
O O7 0.329908 0.118823 0.713658
O O8 0.334006 0.603855 0.627862
O O9 0.481932 0.640146 0.594171
O O10 0.763620 0.492301 0.786533
O O11 0.749309 0.433034 0.058618
O O12 0.628079 0.419531 0.975810
O O13 0.000000 0.968527 0.250000
O O14 0.000000 0.000000 0.500000
#
# Coordination Sequence:
#
# PCOD8137845 Si02
#       7
#     8   4   8   8   8   8   8
#     4   9  20  37  60  80 117 156 198 231 289 346
#     4  10  20  36  64  84 114 158 186 244 302 334
#     4   9  19  38  58  87 111 150 196 240 283 355
#     4  10  21  37  56  89 118 151 197 235 282 351
#     4  12  22  39  59  85 117 163 186 245 289 347
#     4  11  23  37  59  86 117 151 205 235 289 350
#     4  12  23  37  54  87 122 155 190 235 286 340
#
# _framework density 19.061316999999999
#
# number of rings (size 3 to 8) (size 9 to 14) (size 15 to 20)
#    0.000    1.538    3.077    2.769    1.077    3.692 
#    2.769    0.000    0.000    8.308    0.000    0.000 
#    0.000    0.000    0.000    0.000    0.000    0.000 
#
# Total GULP energy -322294.160560 kJ/mol
# GULP energy per Si atom -12395.929252 kJ/mol
# Density = 1.901793 g / cm^3
# Si number density = 19.061317 Si / 1000 Ang^3
#
#
#
# Elastic Constant Matrix: (Units=GPa)
#
#
# Indices 1 2 3 4 5 6 
#
# 1 93.5761 56.5921 43.4983 0.0000 19.8951 0.0000
# 2 56.5921 121.3983 62.3923 0.0000 8.9647 0.0000
# 3 43.4983 62.3923 100.8235 0.0000 12.2846 0.0000
# 4 0.0000 0.0000 0.0000 46.8154 0.0000 -30.5906
# 5 19.8951 8.9647 12.2846 0.0000 23.8525 0.0000
# 6 0.0000 0.0000 0.0000 -30.5906 0.0000 139.7752
#
#
#
# Elastic Compliance Matrix: (Units=1/GPa)
#
#
# Indices 1 2 3 4 5 6 
#
# 1 0.018095 -0.006298 -0.002517 0.000000 -0.011430 0.000000
# 2 -0.006298 0.014283 -0.006517 0.000000 0.003241 0.000000
# 3 -0.002517 -0.006517 0.015452 0.000000 -0.003410 0.000000
# 4 0.000000 0.000000 0.000000 0.024925 0.000000 0.005455
# 5 -0.011430 0.003241 -0.003410 0.000000 0.051996 0.000000
# 6 0.000000 0.000000 0.000000 0.005455 0.000000 0.008348
#
#
# Mechanical properties :
#
#
# Convention : Reuss Voigt Hill
#
# Bulk Modulus (GPa) = 58.24808 71.19590 64.72199
# Shear Modulus (GPa) = 29.50118 52.30964 40.90541
#
# Velocity S-wave (km/s) = 3.93835 5.24427 4.63751
# Velocity P-wave (km/s) = 7.16278 8.60825 7.91856
#
# Compressibility (1/GPa) = 0.01716795
#
# Stress axis : x y z
#
# Youngs Moduli (GPa) = 55.26299 70.01322 64.71548
#
# Poissons Ratio (x) = 0.44093 0.16289
# Poissons Ratio (y) = 0.34804 0.42172
# Poissons Ratio (z) = 0.13909 0.45624
#
# Static dielectric constant tensor:
#      x y z
#    x 3.684370 0.000000 0.004500 
#    y 0.000000 3.528700 0.000000 
#    z 0.004500 0.000000 3.411860 
# 
# 
# High freq. dielectric constant tensor:
#      x y z
#    x 1.735450 0.000000 0.002410 
#    y 0.000000 1.738500 0.000000 
#    z 0.002410 0.000000 1.732190 
# 
# From -- ./inp_files/48449.got.cif
#   From: 2010.06.25/outbox.cif.g09.slc.cpg/sg15_25_cif.got.tgz:48449.got - 2010.06.28 07:06:18.
