data_PCOD8137083
_publ_section_title
;
Structure prediction by ZEFSAII (Michael W. Deem and Ramdas Pophale) SiO2 
 PCOD8137083
Probable space group: C 2/C
;
_chemical_formula_sum "Si O2"
_cell_formula_units_Z 40
_cell_length_a 11.757644
_cell_length_b 20.266067
_cell_length_c 8.812994
_cell_angle_alpha 90.000000
_cell_angle_beta 130.262788
_cell_angle_gamma 90.000000
_cell_volume 1602.463020
_symmetry_space_group_name_H-M "C 2/C"
_symmetry_group_IT_number 15
_symmetry_cell_setting 'monoclinic'
loop_
_space_group_symop_operation_xyz
x,y,z
-x,y,1/2-z
-x,-y,-z
x,-y,1/2+z
1/2+x,1/2+y,z
1/2-x,1/2+y,1/2-z
1/2-x,1/2-y,-z
1/2+x,1/2-y,1/2+z
loop_
_atom_site_type_symbol
_atom_site_label
_atom_site_fract_x
_atom_site_fract_y
_atom_site_fract_z
Si Si1 0.385939 0.810298 0.516749
Si Si2 0.645178 0.335439 0.544029
Si Si3 0.602997 0.909401 0.597204
Si Si4 0.792345 0.508838 0.580551
Si Si5 0.097748 0.943967 0.160658
O O1 0.500000 0.798514 0.750000
O O2 0.376688 0.740399 0.423023
O O3 0.228024 0.835296 0.449290
O O4 0.451906 0.866324 0.462807
O O5 0.746961 0.365727 0.765013
O O6 0.489538 0.374653 0.398623
O O7 0.396644 0.952433 0.053591
O O8 0.603721 0.955366 0.746751
O O9 0.657720 0.468599 0.378043
O O10 0.732362 0.561159 0.654464
O O11 0.000000 0.000000 0.000000
#
# Coordination Sequence:
#
# PCOD8137083 Si02
#       5
#     8   8   8   8   8
#     4   9  21  39  56  87 120 169 208 255 301 382
#     4  10  20  35  60  86 123 157 214 255 306 368
#     4  10  21  39  63  93 127 161 209 256 325 367
#     4  10  21  36  61  96 128 160 203 269 313 379
#     4  11  20  33  61  93 126 158 209 262 316 363
#
# _framework density 24.961576000000001
#
# number of rings (size 3 to 8) (size 9 to 14) (size 15 to 20)
#    0.000    2.000    4.000    0.600    2.800    0.000 
#    0.000   12.000    0.000    0.000    0.000    0.000 
#    0.000    0.800    0.000    0.000    0.000    0.000 
#
# Total GULP energy -247948.699957 kJ/mol
# GULP energy per Si atom -12397.434998 kJ/mol
# Density = 2.490476 g / cm^3
# Si number density = 24.961576 Si / 1000 Ang^3
#
#
#
# Elastic Constant Matrix: (Units=GPa)
#
#
# Indices 1 2 3 4 5 6 
#
# 1 112.8132 89.8683 44.2442 0.0000 -2.9568 0.0000
# 2 89.8683 194.7201 53.0114 0.0000 18.7168 0.0000
# 3 44.2442 53.0114 70.3178 0.0000 -6.8342 0.0000
# 4 0.0000 0.0000 0.0000 38.4716 0.0000 23.3373
# 5 -2.9568 18.7168 -6.8342 0.0000 35.5528 0.0000
# 6 0.0000 0.0000 0.0000 23.3373 0.0000 51.0320
#
#
#
# Elastic Compliance Matrix: (Units=1/GPa)
#
#
# Indices 1 2 3 4 5 6 
#
# 1 0.015976 -0.006416 -0.004848 0.000000 0.003774 0.000000
# 2 -0.006416 0.009801 -0.003979 0.000000 -0.006458 0.000000
# 3 -0.004848 -0.003979 0.020825 0.000000 0.005695 0.000000
# 4 0.000000 0.000000 0.000000 0.035972 0.000000 -0.016450
# 5 0.003774 -0.006458 0.005695 0.000000 0.032936 0.000000
# 6 0.000000 0.000000 0.000000 -0.016450 0.000000 0.027118
#
#
# Mechanical properties :
#
#
# Convention : Reuss Voigt Hill
#
# Bulk Modulus (GPa) = 62.05605 83.56651 72.81128
# Shear Modulus (GPa) = 28.01329 37.72642 32.86985
#
# Velocity S-wave (km/s) = 3.35364 3.89186 3.63274
# Velocity P-wave (km/s) = 6.31748 7.33118 6.84312
#
# Compressibility (1/GPa) = 0.01611446
#
# Stress axis : x y z
#
# Youngs Moduli (GPa) = 62.59518 102.03124 48.01901
#
# Poissons Ratio (x) = 0.65464 0.23280
# Poissons Ratio (y) = 0.40162 0.19109
# Poissons Ratio (z) = 0.30347 0.40602
#
# Static dielectric constant tensor:
#      x y z
#    x 5.054300 0.000000 0.401160 
#    y 0.000000 5.162830 0.000000 
#    z 0.401160 0.000000 4.654420 
# 
# 
# High freq. dielectric constant tensor:
#      x y z
#    x 1.978570 0.000000 0.030030 
#    y 0.000000 2.001080 0.000000 
#    z 0.030030 0.000000 2.004240 
# 
# From -- ./inp_files/163464.got.cif
#   From: 2010.06.25/outbox.cif.g09.slc.cpg/sg15_82_cif.got.tgz:163464.got - 2010.06.28 07:06:18.
