data_PCOD8137278
_publ_section_title
;
Structure prediction by ZEFSAII (Michael W. Deem and Ramdas Pophale) SiO2 
 PCOD8137278
Probable space group: C 2/C
;
_chemical_formula_sum "Si O2"
_cell_formula_units_Z 52
_cell_length_a 16.249498
_cell_length_b 15.933129
_cell_length_c 12.955087
_cell_angle_alpha 90.000000
_cell_angle_beta 52.842911
_cell_angle_gamma 90.000000
_cell_volume 2673.191930
_symmetry_space_group_name_H-M "C 2/C"
_symmetry_group_IT_number 15
_symmetry_cell_setting 'monoclinic'
loop_
_space_group_symop_operation_xyz
x,y,z
-x,y,1/2-z
-x,-y,-z
x,-y,1/2+z
1/2+x,1/2+y,z
1/2-x,1/2+y,1/2-z
1/2-x,1/2-y,-z
1/2+x,1/2-y,1/2+z
loop_
_atom_site_type_symbol
_atom_site_label
_atom_site_fract_x
_atom_site_fract_y
_atom_site_fract_z
Si Si1 0.327717 0.789766 0.737418
Si Si2 0.394240 0.513279 0.392002
Si Si3 0.931241 0.161179 0.521685
Si Si4 0.629476 0.336900 0.004772
Si Si5 0.000000 0.726628 0.250000
Si Si6 0.234648 0.139595 0.115164
Si Si7 0.604648 0.781896 0.134088
O O1 0.352770 0.695739 0.671708
O O2 0.229488 0.787578 0.887402
O O3 0.431228 0.824652 0.718299
O O4 0.301169 0.858142 0.669053
O O5 0.500000 0.496382 0.250000
O O6 0.400626 0.575202 0.486623
O O7 0.342657 0.428224 0.471261
O O8 0.320045 0.550790 0.359238
O O9 0.045725 0.148760 0.478524
O O10 0.931752 0.235578 0.440793
O O11 0.586142 0.282729 0.130547
O O12 0.149257 0.214565 0.182697
O O13 0.307023 0.151255 0.959007
O O14 0.500000 0.827850 0.250000
#
# Coordination Sequence:
#
# PCOD8137278 Si02
#       7
#     8   8   8   8   4   8   8
#     4  10  20  36  56  78 108 145 194 231 267 324
#     4  11  20  33  54  86 125 144 170 228 289 343
#     4   9  19  31  53  86 113 146 183 222 278 327
#     4  11  20  35  55  83 113 150 181 226 283 332
#     4  10  22  38  56  80 104 148 196 232 270 322
#     4   9  18  30  50  80 109 145 182 225 281 324
#     4   9  15  28  50  79 112 143 183 228 267 324
#
# _framework density 19.452400999999998
#
# number of rings (size 3 to 8) (size 9 to 14) (size 15 to 20)
#    0.000    2.154    0.769    5.538    0.000    0.000 
#    0.000    0.000    1.692    0.923    0.000    0.000 
#    0.000    0.000    0.000    0.000    0.000    0.000 
#
# Total GULP energy -322121.234826 kJ/mol
# GULP energy per Si atom -12389.278263 kJ/mol
# Density = 1.940813 g / cm^3
# Si number density = 19.452401 Si / 1000 Ang^3
#
#
#
# Elastic Constant Matrix: (Units=GPa)
#
#
# Indices 1 2 3 4 5 6 
#
# 1 136.0051 29.6078 23.8574 0.0000 1.4912 0.0000
# 2 29.6078 49.0479 30.4001 0.0000 -5.8562 0.0000
# 3 23.8574 30.4001 115.0381 0.0000 -16.7271 0.0000
# 4 0.0000 0.0000 0.0000 14.7845 0.0000 -2.3767
# 5 1.4912 -5.8562 -16.7271 0.0000 30.3401 0.0000
# 6 0.0000 0.0000 0.0000 -2.3767 0.0000 12.2392
#
#
#
# Elastic Compliance Matrix: (Units=1/GPa)
#
#
# Indices 1 2 3 4 5 6 
#
# 1 0.008575 -0.004934 -0.000733 0.000000 -0.001778 0.000000
# 2 -0.004934 0.027265 -0.005850 0.000000 0.002280 0.000000
# 3 -0.000733 -0.005850 0.011124 0.000000 0.005039 0.000000
# 4 0.000000 0.000000 0.000000 0.069818 0.000000 0.013558
# 5 -0.001778 0.002280 0.005039 0.000000 0.036265 0.000000
# 6 0.000000 0.000000 0.000000 0.013558 0.000000 0.084338
#
#
# Mechanical properties :
#
#
# Convention : Reuss Voigt Hill
#
# Bulk Modulus (GPa) = 41.79111 51.98018 46.88565
# Shear Modulus (GPa) = 18.62922 25.88781 22.25851
#
# Velocity S-wave (km/s) = 3.09800 3.65201 3.38635
# Velocity P-wave (km/s) = 5.85895 6.67553 6.28052
#
# Compressibility (1/GPa) = 0.02392853
#
# Stress axis : x y z
#
# Youngs Moduli (GPa) = 116.61958 36.67703 89.89950
#
# Poissons Ratio (x) = 0.18097 0.06589
# Poissons Ratio (y) = 0.57543 0.52594
# Poissons Ratio (z) = 0.08547 0.21457
#
# Static dielectric constant tensor:
#      x y z
#    x 3.908580 0.000000 0.032440 
#    y 0.000000 3.144140 0.000000 
#    z 0.032440 0.000000 3.830410 
# 
# 
# High freq. dielectric constant tensor:
#      x y z
#    x 1.773760 0.000000 0.005240 
#    y 0.000000 1.697310 0.000000 
#    z 0.005240 0.000000 1.764340 
# 
# From -- ./inp_files/162904.got.cif
#   From: 2010.06.25/outbox.cif.g09.slc.cpg/sg15_82_cif.got.tgz:162904.got - 2010.06.28 07:06:18.
