data_PCOD8137328
_publ_section_title
;
Structure prediction by ZEFSAII (Michael W. Deem and Ramdas Pophale) SiO2 
 PCOD8137328
Probable space group: C 2/C
;
_chemical_formula_sum "Si O2"
_cell_formula_units_Z 56
_cell_length_a 21.414415
_cell_length_b 17.137768
_cell_length_c 22.009093
_cell_angle_alpha 90.000000
_cell_angle_beta 161.835427
_cell_angle_gamma 90.000000
_cell_volume 2518.057037
_symmetry_space_group_name_H-M "C 2/C"
_symmetry_group_IT_number 15
_symmetry_cell_setting 'monoclinic'
loop_
_space_group_symop_operation_xyz
x,y,z
-x,y,1/2-z
-x,-y,-z
x,-y,1/2+z
1/2+x,1/2+y,z
1/2-x,1/2+y,1/2-z
1/2-x,1/2-y,-z
1/2+x,1/2-y,1/2+z
loop_
_atom_site_type_symbol
_atom_site_label
_atom_site_fract_x
_atom_site_fract_y
_atom_site_fract_z
Si Si1 0.201121 0.428421 0.120560
Si Si2 0.631583 0.529336 0.050091
Si Si3 0.869040 0.308230 0.989500
Si Si4 0.284711 0.635767 0.911457
Si Si5 0.725902 0.593508 0.461847
Si Si6 0.522237 0.056153 0.335923
Si Si7 0.157523 0.412407 0.636174
O O1 0.434339 0.420466 0.351687
O O2 0.121306 0.517909 0.053949
O O3 0.162604 0.400105 0.015191
O O4 0.051605 0.381627 0.027046
O O5 0.591128 0.435765 0.004963
O O6 0.688035 0.553115 0.170893
O O7 0.800246 0.550556 0.157637
O O8 0.083251 0.350775 0.187492
O O9 0.911004 0.215940 0.027578
O O10 0.738136 0.332655 0.927298
O O11 0.759685 0.339266 0.826515
O O12 0.219612 0.618656 0.920091
O O13 0.500000 0.559889 0.250000
O O14 0.881682 0.528098 0.585919
O O15 0.500000 0.100133 0.250000
#
# Coordination Sequence:
#
# PCOD8137328 Si02
#       7
#     8   8   8   8   8   8   8
#     4  10  20  36  57  79 103 148 201 251 307 349
#     4  11  22  39  61  80 111 157 207 257 299 354
#     4  12  24  40  54  81 116 158 210 258 297 352
#     4  12  24  37  56  80 115 158 204 252 302 351
#     4  12  22  38  55  77 115 164 206 249 296 348
#     4  11  20  33  54  84 118 148 196 245 294 347
#     4  10  22  39  57  80 109 148 212 263 300 350
#
# _framework density 22.239369
#
# number of rings (size 3 to 8) (size 9 to 14) (size 15 to 20)
#    0.000    0.857    4.286    4.714    2.000    0.000 
#    0.000    0.000    0.000    0.000    0.000    0.000 
#    0.000    0.000    0.000   68.143   24.571    7.000 
#
# Total GULP energy -347037.251806 kJ/mol
# GULP energy per Si atom -12394.187565 kJ/mol
# Density = 2.218875 g / cm^3
# Si number density = 22.239369 Si / 1000 Ang^3
#
#
#
# Elastic Constant Matrix: (Units=GPa)
#
#
# Indices 1 2 3 4 5 6 
#
# 1 143.1687 32.0599 45.8425 0.1441 -29.7510 0.0624
# 2 32.0599 36.5202 15.0623 0.2147 -5.5338 0.1398
# 3 45.8425 15.0623 115.7154 0.1701 -10.5335 0.1023
# 4 0.1441 0.2147 0.1701 15.5189 0.1183 -2.7226
# 5 -29.7510 -5.5338 -10.5335 0.1183 31.2787 0.0688
# 6 0.0624 0.1398 0.1023 -2.7226 0.0688 14.4545
#
#
#
# Elastic Compliance Matrix: (Units=1/GPa)
#
#
# Indices 1 2 3 4 5 6 
#
# 1 0.011309 -0.007513 -0.002728 -0.000037 0.008509 -0.000004
# 2 -0.007513 0.034418 -0.001649 -0.000440 -0.001610 -0.000364
# 3 -0.002728 -0.001649 0.009981 -0.000075 0.000475 -0.000059
# 4 -0.000037 -0.000440 -0.000075 0.066652 -0.000418 0.012561
# 5 0.008509 -0.001610 0.000475 -0.000418 0.039941 -0.000293
# 6 -0.000004 -0.000364 -0.000059 0.012561 -0.000293 0.071554
#
#
# Mechanical properties :
#
#
# Convention : Reuss Voigt Hill
#
# Bulk Modulus (GPa) = 31.32107 53.48153 42.40130
# Shear Modulus (GPa) = 18.63748 25.74637 22.19193
#
# Velocity S-wave (km/s) = 2.89803 3.40618 3.16233
# Velocity P-wave (km/s) = 5.03113 6.29045 5.69570
#
# Compressibility (1/GPa) = 0.03192739
#
# Stress axis : x y z
#
# Youngs Moduli (GPa) = 88.42708 29.05475 100.19459
#
# Poissons Ratio (x) = 0.21829 0.27329
# Poissons Ratio (y) = 0.66436 0.16524
# Poissons Ratio (z) = 0.24119 0.04792
#
# Static dielectric constant tensor:
#      x y z
#    x 4.432160 -0.000220 -0.142530 
#    y -0.000220 3.375910 -0.000620 
#    z -0.142530 -0.000620 4.201820 
# 
# 
# High freq. dielectric constant tensor:
#      x y z
#    x 1.898140 -0.000030 0.000260 
#    y -0.000030 1.787650 -0.000040 
#    z 0.000260 -0.000040 1.902730 
# 
# From -- ./inp_files/253380.got.cif
#   From: 2010.06.25/outbox.cif.g09.slc.cpg/sg15_127_cif.got.tgz:253380.got - 2010.06.28 07:06:18.
