data_PCOD8137728
_publ_section_title
;
Structure prediction by ZEFSAII (Michael W. Deem and Ramdas Pophale) SiO2 
 PCOD8137728
Probable space group: C 2/C
;
_chemical_formula_sum "Si O2"
_cell_formula_units_Z 56
_cell_length_a 17.348092
_cell_length_b 18.755438
_cell_length_c 9.613729
_cell_angle_alpha 90.000000
_cell_angle_beta 121.664450
_cell_angle_gamma 90.000000
_cell_volume 2662.381362
_symmetry_space_group_name_H-M "C 2/C"
_symmetry_group_IT_number 15
_symmetry_cell_setting 'monoclinic'
loop_
_space_group_symop_operation_xyz
x,y,z
-x,y,1/2-z
-x,-y,-z
x,-y,1/2+z
1/2+x,1/2+y,z
1/2-x,1/2+y,1/2-z
1/2-x,1/2-y,-z
1/2+x,1/2-y,1/2+z
loop_
_atom_site_type_symbol
_atom_site_label
_atom_site_fract_x
_atom_site_fract_y
_atom_site_fract_z
Si Si1 0.756812 0.832804 0.034708
Si Si2 0.838676 0.539904 0.737946
Si Si3 0.410146 0.449060 0.744501
Si Si4 0.170770 0.043358 0.051795
Si Si5 0.243372 0.315587 0.333091
Si Si6 0.603690 0.715943 0.316406
Si Si7 0.091930 0.568771 0.397908
O O1 0.829494 0.874707 0.005948
O O2 0.663299 0.872479 0.916486
O O3 0.750000 0.750000 0.000000
O O4 0.781346 0.838825 0.219420
O O5 0.764351 0.480580 0.714607
O O6 0.790826 0.610939 0.630402
O O7 0.896484 0.507608 0.666734
O O8 0.903584 0.557736 0.931103
O O9 0.500000 0.473727 0.750000
O O10 0.334364 0.491366 0.586798
O O11 0.407615 0.468646 0.906474
O O12 0.397582 0.364924 0.732726
O O13 0.329985 0.278418 0.487297
O O14 0.154829 0.263083 0.246784
O O15 0.500000 0.742353 0.250000
O O16 0.000000 0.601781 0.250000
#
# Coordination Sequence:
#
# PCOD8137728 Si02
#       7
#     8   8   8   8   8   8   8
#     4  10  22  41  61  83 118 162 208 243 314 376
#     4  10  20  36  62  85 120 152 201 241 310 368
#     4  11  22  37  60  88 124 153 202 255 300 362
#     4  11  21  38  63  89 118 165 201 248 310 372
#     4  10  20  40  61  86 124 164 202 262 306 377
#     4  10  22  38  60  89 123 163 213 254 315 369
#     4  10  21  38  59  89 118 153 194 259 306 365
#
# _framework density 21.033799999999999
#
# number of rings (size 3 to 8) (size 9 to 14) (size 15 to 20)
#    0.000    1.714    1.429    4.286    0.000    0.571 
#    7.714    0.714    0.000    0.000    0.000    0.000 
#    0.000    0.000    0.000    0.000    0.000    0.000 
#
# Total GULP energy -346896.190131 kJ/mol
# GULP energy per Si atom -12389.149648 kJ/mol
# Density = 2.098593 g / cm^3
# Si number density = 21.033800 Si / 1000 Ang^3
#
#
#
# Elastic Constant Matrix: (Units=GPa)
#
#
# Indices 1 2 3 4 5 6 
#
# 1 96.5938 22.2887 49.1460 0.0000 -7.8356 0.0000
# 2 22.2887 90.4722 27.8072 0.0000 -3.0160 0.0000
# 3 49.1460 27.8072 92.2117 0.0000 -3.3911 0.0000
# 4 0.0000 0.0000 0.0000 25.3152 0.0000 -4.1937
# 5 -7.8356 -3.0160 -3.3911 0.0000 33.9808 0.0000
# 6 0.0000 0.0000 0.0000 -4.1937 0.0000 26.1415
#
#
#
# Elastic Compliance Matrix: (Units=1/GPa)
#
#
# Indices 1 2 3 4 5 6 
#
# 1 0.014554 -0.001263 -0.007283 0.000000 0.002517 0.000000
# 2 -0.001263 0.012309 -0.003020 0.000000 0.000500 0.000000
# 3 -0.007283 -0.003020 0.015623 0.000000 -0.000388 0.000000
# 4 0.000000 0.000000 0.000000 0.040580 0.000000 0.006510
# 5 0.002517 0.000500 -0.000388 0.000000 0.030014 0.000000
# 6 0.000000 0.000000 0.000000 0.006510 0.000000 0.039298
#
#
# Mechanical properties :
#
#
# Convention : Reuss Voigt Hill
#
# Bulk Modulus (GPa) = 51.67271 53.08462 52.37866
# Shear Modulus (GPa) = 27.47806 29.08987 28.28397
#
# Velocity S-wave (km/s) = 3.61830 3.72291 3.67098
# Velocity P-wave (km/s) = 6.48660 6.61609 6.55167
#
# Compressibility (1/GPa) = 0.01935257
#
# Stress axis : x y z
#
# Youngs Moduli (GPa) = 68.70977 81.23945 64.00826
#
# Poissons Ratio (x) = 0.10261 0.46620
# Poissons Ratio (y) = 0.08678 0.19333
# Poissons Ratio (z) = 0.50044 0.24538
#
# Static dielectric constant tensor:
#      x y z
#    x 4.203140 0.000000 -0.206360 
#    y 0.000000 3.969540 0.000000 
#    z -0.206360 0.000000 3.922510 
# 
# 
# High freq. dielectric constant tensor:
#      x y z
#    x 1.813940 0.000000 -0.005410 
#    y 0.000000 1.825970 0.000000 
#    z -0.005410 0.000000 1.816980 
# 
# From -- ./inp_files/50313.got.cif
#   From: 2010.06.25/outbox.cif.g09.slc.cpg/sg15_26_cif.got.tgz:50313.got - 2010.06.28 07:06:18.
