data_PCOD8137825
_publ_section_title
;
Structure prediction by ZEFSAII (Michael W. Deem and Ramdas Pophale) SiO2 
 PCOD8137825
Probable space group: C 2/C
;
_chemical_formula_sum "Si O2"
_cell_formula_units_Z 56
_cell_length_a 29.501837
_cell_length_b 16.215695
_cell_length_c 17.104397
_cell_angle_alpha 90.000000
_cell_angle_beta 161.099730
_cell_angle_gamma 90.000000
_cell_volume 2650.529695
_symmetry_space_group_name_H-M "C 2/C"
_symmetry_group_IT_number 15
_symmetry_cell_setting 'monoclinic'
loop_
_space_group_symop_operation_xyz
x,y,z
-x,y,1/2-z
-x,-y,-z
x,-y,1/2+z
1/2+x,1/2+y,z
1/2-x,1/2+y,1/2-z
1/2-x,1/2-y,-z
1/2+x,1/2-y,1/2+z
loop_
_atom_site_type_symbol
_atom_site_label
_atom_site_fract_x
_atom_site_fract_y
_atom_site_fract_z
Si Si1 0.592779 0.512600 0.331644
Si Si2 0.623926 0.894698 0.005850
Si Si3 0.805843 0.418948 0.912347
Si Si4 0.022153 0.340454 0.166542
Si Si5 0.005529 0.082898 0.557582
Si Si6 0.899214 0.427041 0.357691
Si Si7 0.573185 0.337982 0.017459
O O1 0.500000 0.476661 0.250000
O O2 0.614052 0.436928 0.305075
O O3 0.740139 0.543511 0.602403
O O4 0.504403 0.586692 0.149942
O O5 0.562763 0.895745 0.993923
O O6 0.761010 0.836947 0.229095
O O7 0.666091 0.983431 0.038306
O O8 0.500000 0.857173 0.750000
O O9 0.643383 0.397641 0.646121
O O10 0.868925 0.373530 0.091395
O O11 0.874190 0.385130 0.943474
O O12 0.080355 0.357328 0.174788
O O13 0.999354 0.242971 0.136034
O O14 0.054411 0.157286 0.581423
O O15 0.000000 0.000000 0.500000
O O16 0.000000 0.500000 0.500000
#
# Coordination Sequence:
#
# PCOD8137825 Si02
#       7
#     8   8   8   8   8   8   8
#     4  11  22  39  68 103 134 175 227 287 337 410
#     4  12  23  43  70  94 134 186 234 281 337 423
#     4  11  20  40  67 100 134 177 224 283 340 403
#     4  11  25  39  67 103 136 167 228 288 343 392
#     4  10  20  36  63  93 134 175 221 266 340 410
#     4  12  24  40  69 101 132 177 238 278 334 415
#     4  11  25  42  65 102 140 176 222 288 355 401
#
# _framework density 21.127853000000002
#
# number of rings (size 3 to 8) (size 9 to 14) (size 15 to 20)
#    0.000    0.857    7.143    1.714    4.000    3.429 
#    0.000    0.714    3.143    0.000    0.000    0.000 
#    0.000    0.000    0.000    0.000    0.000    0.000 
#
# Total GULP energy -347132.102686 kJ/mol
# GULP energy per Si atom -12397.575096 kJ/mol
# Density = 2.107976 g / cm^3
# Si number density = 21.127853 Si / 1000 Ang^3
#
#
#
# Elastic Constant Matrix: (Units=GPa)
#
#
# Indices 1 2 3 4 5 6 
#
# 1 138.8545 12.5005 34.9136 0.0000 -3.5918 0.0000
# 2 12.5005 56.1447 4.6130 0.0000 -9.2859 0.0000
# 3 34.9136 4.6130 91.8395 0.0000 0.9440 0.0000
# 4 0.0000 0.0000 0.0000 22.6053 0.0000 2.9281
# 5 -3.5918 -9.2859 0.9440 0.0000 41.5127 0.0000
# 6 0.0000 0.0000 0.0000 2.9281 0.0000 21.0959
#
#
#
# Elastic Compliance Matrix: (Units=1/GPa)
#
#
# Indices 1 2 3 4 5 6 
#
# 1 0.008104 -0.001485 -0.003011 0.000000 0.000438 0.000000
# 2 -0.001485 0.018854 -0.000425 0.000000 0.004099 0.000000
# 3 -0.003011 -0.000425 0.012061 0.000000 -0.000630 0.000000
# 4 0.000000 0.000000 0.000000 0.045047 0.000000 -0.006253
# 5 0.000438 0.004099 -0.000630 0.000000 0.025058 0.000000
# 6 0.000000 0.000000 0.000000 -0.006253 0.000000 0.048270
#
#
# Mechanical properties :
#
#
# Convention : Reuss Voigt Hill
#
# Bulk Modulus (GPa) = 34.27111 43.43253 38.85182
# Shear Modulus (GPa) = 28.25479 32.69689 30.47584
#
# Velocity S-wave (km/s) = 3.66091 3.93819 3.80208
# Velocity P-wave (km/s) = 5.84172 6.42501 6.14030
#
# Compressibility (1/GPa) = 0.02917910
#
# Stress axis : x y z
#
# Youngs Moduli (GPa) = 123.39975 53.03790 82.91257
#
# Poissons Ratio (x) = 0.07874 0.24962
# Poissons Ratio (y) = 0.18319 0.03522
# Poissons Ratio (z) = 0.37151 0.02253
#
# Static dielectric constant tensor:
#      x y z
#    x 4.387110 0.000000 0.328990 
#    y 0.000000 3.544520 0.000000 
#    z 0.328990 0.000000 3.260440 
# 
# 
# High freq. dielectric constant tensor:
#      x y z
#    x 1.851760 0.000000 0.007690 
#    y 0.000000 1.788430 0.000000 
#    z 0.007690 0.000000 1.827020 
# 
# From -- ./inp_files/225742.got.cif
#   From: 2010.06.25/outbox.cif.g09.slc.cpg/sg15_113_cif.got.tgz:225742.got - 2010.06.28 07:06:18.
