data_PCOD8137113
_publ_section_title
;
Structure prediction by ZEFSAII (Michael W. Deem and Ramdas Pophale) SiO2 
 PCOD8137113
Probable space group: C 2/C
;
_chemical_formula_sum "Si O2"
_cell_formula_units_Z 52
_cell_length_a 10.619199
_cell_length_b 28.685641
_cell_length_c 12.071888
_cell_angle_alpha 90.000000
_cell_angle_beta 42.721970
_cell_angle_gamma 90.000000
_cell_volume 2494.846739
_symmetry_space_group_name_H-M "C 2/C"
_symmetry_group_IT_number 15
_symmetry_cell_setting 'monoclinic'
loop_
_space_group_symop_operation_xyz
x,y,z
-x,y,1/2-z
-x,-y,-z
x,-y,1/2+z
1/2+x,1/2+y,z
1/2-x,1/2+y,1/2-z
1/2-x,1/2-y,-z
1/2+x,1/2-y,1/2+z
loop_
_atom_site_type_symbol
_atom_site_label
_atom_site_fract_x
_atom_site_fract_y
_atom_site_fract_z
Si Si1 0.960069 0.392181 0.486709
Si Si2 0.000000 0.077071 0.750000
Si Si3 0.699011 0.797619 0.897950
Si Si4 0.416501 0.701229 0.473206
Si Si5 0.877297 0.540528 0.435107
Si Si6 0.823311 0.050028 0.435347
Si Si7 0.325751 0.392041 0.142188
O O1 0.935930 0.340182 0.553983
O O2 0.754097 0.403354 0.573075
O O3 0.021340 0.432820 0.531651
O O4 0.102850 0.389932 0.292088
O O5 0.889397 0.104710 0.728455
O O6 0.155608 0.050873 0.574721
O O7 0.744134 0.801930 0.999659
O O8 0.886272 0.798322 0.710257
O O9 0.598860 0.748045 0.942563
O O10 0.415109 0.656109 0.549755
O O11 0.857251 0.484384 0.455636
O O12 0.000000 0.554656 0.250000
O O13 0.881599 0.064714 0.523770
O O14 0.000000 0.031232 0.250000
#
# Coordination Sequence:
#
# PCOD8137113 Si02
#       7
#     8   4   8   8   8   8   8
#     4  11  23  40  62  97 129 169 216 261 329 389
#     4  10  26  46  62  96 126 182 218 266 322 386
#     4  10  20  35  60  99 129 162 209 255 335 378
#     4  10  20  35  62  94 132 166 200 269 316 392
#     4  11  25  44  65  89 134 174 218 270 320 392
#     4  12  24  40  66  99 129 167 217 271 331 391
#     4  11  23  41  67  90 136 168 217 269 322 387
#
# _framework density 20.842963999999998
#
# number of rings (size 3 to 8) (size 9 to 14) (size 15 to 20)
#    0.000    1.231    2.308    3.692    4.308    3.077 
#    0.000    0.000    1.692    2.769    0.000    0.000 
#    0.000    0.000    0.000    0.000    0.000    0.000 
#
# Total GULP energy -322133.176490 kJ/mol
# GULP energy per Si atom -12389.737557 kJ/mol
# Density = 2.079552 g / cm^3
# Si number density = 20.842964 Si / 1000 Ang^3
#
#
#
# Elastic Constant Matrix: (Units=GPa)
#
#
# Indices 1 2 3 4 5 6 
#
# 1 65.4189 31.6939 30.2169 0.0000 4.5447 0.0000
# 2 31.6939 125.3554 36.1804 0.0000 11.0264 0.0000
# 3 30.2169 36.1804 135.7587 0.0000 -4.3140 0.0000
# 4 0.0000 0.0000 0.0000 479.1294 0.0000 345.4684
# 5 4.5447 11.0264 -4.3140 0.0000 27.6805 0.0000
# 6 0.0000 0.0000 0.0000 345.4684 0.0000 291.7243
#
#
#
# Elastic Compliance Matrix: (Units=1/GPa)
#
#
# Indices 1 2 3 4 5 6 
#
# 1 0.018686 -0.003592 -0.003270 0.000000 -0.002147 0.000000
# 2 -0.003592 0.009754 -0.001914 0.000000 -0.003594 0.000000
# 3 -0.003270 -0.001914 0.008688 0.000000 0.002654 0.000000
# 4 0.000000 0.000000 0.000000 0.014283 0.000000 -0.016914
# 5 -0.002147 -0.003594 0.002654 0.000000 0.038324 0.000000
# 6 0.000000 0.000000 0.000000 -0.016914 0.000000 0.023458
#
#
# Mechanical properties :
#
#
# Convention : Reuss Voigt Hill
#
# Bulk Modulus (GPa) = 51.08275 58.07948 54.58111
# Shear Modulus (GPa) = 36.42450 174.93629 105.68039
#
# Velocity S-wave (km/s) = 4.18493 9.17130 7.12834
# Velocity P-wave (km/s) = 6.92193 11.83538 9.69508
#
# Compressibility (1/GPa) = 0.01957608
#
# Stress axis : x y z
#
# Youngs Moduli (GPa) = 53.51659 102.52123 115.09676
#
# Poissons Ratio (x) = 0.36823 0.37637
# Poissons Ratio (y) = 0.19222 0.22033
# Poissons Ratio (z) = 0.17500 0.19625
#
# Static dielectric constant tensor:
#      x y z
#    x 3.398770 0.000000 -0.101200 
#    y 0.000000 3.944520 0.000000 
#    z -0.101200 0.000000 3.978920 
# 
# 
# High freq. dielectric constant tensor:
#      x y z
#    x 1.774990 0.000000 -0.016540 
#    y 0.000000 1.825060 0.000000 
#    z -0.016540 0.000000 1.834090 
# 
# From -- ./inp_files/92534.got.cif
#   From: 2010.06.25/outbox.cif.g09.slc.cpg/sg15_47_cif.got.tgz:92534.got - 2010.06.28 07:06:18.
