data_PCOD8137410
_publ_section_title
;
Structure prediction by ZEFSAII (Michael W. Deem and Ramdas Pophale) SiO2 
 PCOD8137410
Probable space group: C 2/C
;
_chemical_formula_sum "Si O2"
_cell_formula_units_Z 48
_cell_length_a 16.454729
_cell_length_b 9.103475
_cell_length_c 17.767712
_cell_angle_alpha 90.000000
_cell_angle_beta 57.129368
_cell_angle_gamma 90.000000
_cell_volume 2235.404280
_symmetry_space_group_name_H-M "C 2/C"
_symmetry_group_IT_number 15
_symmetry_cell_setting 'monoclinic'
loop_
_space_group_symop_operation_xyz
x,y,z
-x,y,1/2-z
-x,-y,-z
x,-y,1/2+z
1/2+x,1/2+y,z
1/2-x,1/2+y,1/2-z
1/2-x,1/2-y,-z
1/2+x,1/2-y,1/2+z
loop_
_atom_site_type_symbol
_atom_site_label
_atom_site_fract_x
_atom_site_fract_y
_atom_site_fract_z
Si Si1 0.127318 0.421262 0.314589
Si Si2 0.962316 0.633239 0.351841
Si Si3 0.782905 0.426273 0.862064
Si Si4 0.545472 0.379582 0.806209
Si Si5 0.704907 0.405144 0.167078
Si Si6 0.384746 0.427713 0.444397
O O1 0.201151 0.449196 0.208348
O O2 0.094759 0.252896 0.325766
O O3 0.187228 0.451965 0.360943
O O4 0.035062 0.527280 0.359231
O O5 0.860323 0.548852 0.390710
O O6 0.945281 0.776866 0.410776
O O7 0.000000 0.680396 0.250000
O O8 0.804949 0.268710 0.812155
O O9 0.674063 0.437800 0.948262
O O10 0.500000 0.324833 0.750000
O O11 0.622569 0.509302 0.754600
O O12 0.459573 0.438322 0.902592
O O13 0.693041 0.434862 0.084471
#
# Coordination Sequence:
#
# PCOD8137410 Si02
#       6
#     8   8   8   8   8   8
#     4  11  21  36  58  86 115 146 184 233 282 328
#     4   9  17  33  59  83 109 153 193 220 267 340
#     4  10  20  38  60  83 110 149 191 229 271 331
#     4  10  20  36  58  83 113 150 186 222 280 346
#     4  10  20  37  60  83 110 149 192 227 268 332
#     4  10  20  38  61  82 108 149 194 229 268 331
#
# _framework density 21.472626000000002
#
# number of rings (size 3 to 8) (size 9 to 14) (size 15 to 20)
#    0.000    2.000    0.000    8.000    0.000    0.000 
#    0.000   15.833    0.000    0.000    0.000    0.000 
#    0.000    0.000    0.000    0.000    0.000    0.000 
#
# Total GULP energy -297578.483959 kJ/mol
# GULP energy per Si atom -12399.103498 kJ/mol
# Density = 2.142375 g / cm^3
# Si number density = 21.472626 Si / 1000 Ang^3
#
#
#
# Elastic Constant Matrix: (Units=GPa)
#
#
# Indices 1 2 3 4 5 6 
#
# 1 125.0359 50.5795 18.1579 0.0000 -8.4908 0.0000
# 2 50.5795 106.2145 57.6628 0.0000 -8.9016 0.0001
# 3 18.1579 57.6628 83.3309 0.0000 -28.4020 0.0000
# 4 0.0000 0.0000 0.0000 12.8115 0.0000 -7.7590
# 5 -8.4908 -8.9016 -28.4020 0.0000 22.9956 0.0000
# 6 0.0000 0.0001 0.0000 -7.7590 0.0000 31.4845
#
#
#
# Elastic Compliance Matrix: (Units=1/GPa)
#
#
# Indices 1 2 3 4 5 6 
#
# 1 0.010742 -0.007432 0.005480 0.000000 0.007858 0.000000
# 2 -0.007432 0.022494 -0.020574 0.000000 -0.019448 0.000000
# 3 0.005480 -0.020574 0.039753 0.000000 0.043158 0.000000
# 4 0.000000 0.000000 0.000000 0.091748 0.000000 0.022610
# 5 0.007858 -0.019448 0.043158 0.000000 0.092165 0.000000
# 6 0.000000 0.000000 0.000000 0.022610 0.000000 0.037334
#
#
# Mechanical properties :
#
#
# Convention : Reuss Voigt Hill
#
# Bulk Modulus (GPa) = 35.79507 63.04241 49.41874
# Shear Modulus (GPa) = 14.34315 26.00373 20.17344
#
# Velocity S-wave (km/s) = 2.58732 3.48374 3.06844
# Velocity P-wave (km/s) = 5.06280 6.75316 5.96813
#
# Compressibility (1/GPa) = 0.02793681
#
# Stress axis : x y z
#
# Youngs Moduli (GPa) = 93.09411 44.45707 25.15549
#
# Poissons Ratio (x) = 0.33040 -0.13786
# Poissons Ratio (y) = 0.69187 0.51755
# Poissons Ratio (z) = -0.51019 0.91467
#
# Static dielectric constant tensor:
#      x y z
#    x 4.185180 0.000000 -0.262510 
#    y 0.000000 3.680200 0.000000 
#    z -0.262510 0.000000 3.541500 
# 
# 
# High freq. dielectric constant tensor:
#      x y z
#    x 1.853820 0.000000 -0.019720 
#    y 0.000000 1.829150 0.000000 
#    z -0.019720 0.000000 1.814590 
# 
# From -- ./inp_files/246828.got.cif
#   From: 2010.06.25/outbox.cif.g09.slc.cpg/sg15_124_cif.got.tgz:246828.got - 2010.06.28 07:06:18.
