data_PCOD8137206
_publ_section_title
;
Structure prediction by ZEFSAII (Michael W. Deem and Ramdas Pophale) SiO2 
 PCOD8137206
Probable space group: C 2/C
;
_chemical_formula_sum "Si O2"
_cell_formula_units_Z 44
_cell_length_a 11.859087
_cell_length_b 23.555322
_cell_length_c 8.674773
_cell_angle_alpha 90.000000
_cell_angle_beta 57.402841
_cell_angle_gamma 90.000000
_cell_volume 2041.538437
_symmetry_space_group_name_H-M "C 2/C"
_symmetry_group_IT_number 15
_symmetry_cell_setting 'monoclinic'
loop_
_space_group_symop_operation_xyz
x,y,z
-x,y,1/2-z
-x,-y,-z
x,-y,1/2+z
1/2+x,1/2+y,z
1/2-x,1/2+y,1/2-z
1/2-x,1/2-y,-z
1/2+x,1/2-y,1/2+z
loop_
_atom_site_type_symbol
_atom_site_label
_atom_site_fract_x
_atom_site_fract_y
_atom_site_fract_z
Si Si1 0.652766 0.267614 0.432926
Si Si2 0.342362 0.660698 0.850922
Si Si3 0.782025 0.068265 0.288255
Si Si4 0.874207 0.660212 0.237014
Si Si5 0.000000 0.152662 0.250000
Si Si6 0.354738 0.534416 0.901664
O O1 0.750000 0.250000 0.500000
O O2 0.721858 0.304863 0.245549
O O3 0.592584 0.210429 0.405190
O O4 0.531811 0.306455 0.582848
O O5 0.500000 0.677356 0.750000
O O6 0.326672 0.593242 0.832126
O O7 0.258956 0.676220 0.066328
O O8 0.646936 0.101321 0.340849
O O9 0.873302 0.114790 0.303872
O O10 0.751405 0.015042 0.423912
O O11 0.852979 0.043252 0.084830
O O12 0.000000 0.648570 0.250000
O O13 0.500000 0.510202 0.750000
#
# Coordination Sequence:
#
# PCOD8137206 Si02
#       6
#     8   8   8   8   4   8
#     4  12  25  38  64  94 131 170 220 272 322 376
#     4  10  23  43  66  96 126 171 218 268 331 384
#     4  11  23  39  62  96 126 167 211 274 321 387
#     4  11  25  45  64  90 135 183 215 256 325 398
#     4  12  24  40  62 100 136 156 226 272 328 374
#     4  10  20  35  65  94 126 158 210 269 337 372
#
# _framework density 21.552372999999999
#
# number of rings (size 3 to 8) (size 9 to 14) (size 15 to 20)
#    0.000    1.091    2.727    4.909    5.091    0.000 
#    0.000    3.636    0.000    0.000    0.000    0.000 
#    0.000    0.000    0.000    0.000    0.000    0.000 
#
# Total GULP energy -272759.054961 kJ/mol
# GULP energy per Si atom -12398.138862 kJ/mol
# Density = 2.150332 g / cm^3
# Si number density = 21.552373 Si / 1000 Ang^3
#
#
#
# Elastic Constant Matrix: (Units=GPa)
#
#
# Indices 1 2 3 4 5 6 
#
# 1 120.7479 55.5046 14.2609 0.0000 15.1830 0.0000
# 2 55.5046 143.0758 37.9843 0.0000 22.9705 0.0000
# 3 14.2609 37.9843 62.0241 0.0000 11.2138 0.0000
# 4 0.0000 0.0000 0.0000 36.8117 0.0000 6.4041
# 5 15.1830 22.9705 11.2138 0.0000 30.0992 0.0000
# 6 0.0000 0.0000 0.0000 6.4041 0.0000 15.4712
#
#
#
# Elastic Compliance Matrix: (Units=1/GPa)
#
#
# Indices 1 2 3 4 5 6 
#
# 1 0.010239 -0.003661 0.000339 0.000000 -0.002497 0.000000
# 2 -0.003661 0.010353 -0.004722 0.000000 -0.004295 0.000000
# 3 0.000339 -0.004722 0.019639 0.000000 -0.003884 0.000000
# 4 0.000000 0.000000 0.000000 0.029273 0.000000 -0.012117
# 5 -0.002497 -0.004295 -0.003884 0.000000 0.039208 0.000000
# 6 0.000000 0.000000 0.000000 -0.012117 0.000000 0.069652
#
#
# Mechanical properties :
#
#
# Convention : Reuss Voigt Hill
#
# Bulk Modulus (GPa) = 41.41994 60.14972 50.78483
# Shear Modulus (GPa) = 24.69164 31.01628 27.85396
#
# Velocity S-wave (km/s) = 3.38843 3.79768 3.59888
# Velocity P-wave (km/s) = 5.87951 6.87016 6.39404
#
# Compressibility (1/GPa) = 0.02414296
#
# Stress axis : x y z
#
# Youngs Moduli (GPa) = 97.67017 96.59323 50.91982
#
# Poissons Ratio (x) = 0.35364 -0.01729
# Poissons Ratio (y) = 0.35759 0.24044
# Poissons Ratio (z) = -0.03316 0.45610
#
# Static dielectric constant tensor:
#      x y z
#    x 3.792730 0.000000 0.254490 
#    y 0.000000 4.247770 0.000000 
#    z 0.254490 0.000000 3.900160 
# 
# 
# High freq. dielectric constant tensor:
#      x y z
#    x 1.825460 0.000000 0.030800 
#    y 0.000000 1.868620 0.000000 
#    z 0.030800 0.000000 1.830580 
# 
# From -- ./inp_files/32437.got.cif
#   From: 2010.06.25/outbox.cif.g09.slc.cpg/sg15_17_cif.got.tgz:32437.got - 2010.06.28 07:06:18.
