data_PCOD8137418
_publ_section_title
;
Structure prediction by ZEFSAII (Michael W. Deem and Ramdas Pophale) SiO2 
 PCOD8137418
Probable space group: C 2/C
;
_chemical_formula_sum "Si O2"
_cell_formula_units_Z 36
_cell_length_a 18.748641
_cell_length_b 13.552145
_cell_length_c 9.374571
_cell_angle_alpha 90.000000
_cell_angle_beta 49.007155
_cell_angle_gamma 90.000000
_cell_volume 1797.861521
_symmetry_space_group_name_H-M "C 2/C"
_symmetry_group_IT_number 15
_symmetry_cell_setting 'monoclinic'
loop_
_space_group_symop_operation_xyz
x,y,z
-x,y,1/2-z
-x,-y,-z
x,-y,1/2+z
1/2+x,1/2+y,z
1/2-x,1/2+y,1/2-z
1/2-x,1/2-y,-z
1/2+x,1/2-y,1/2+z
loop_
_atom_site_type_symbol
_atom_site_label
_atom_site_fract_x
_atom_site_fract_y
_atom_site_fract_z
Si Si1 0.380966 0.437057 0.657716
Si Si2 0.777296 0.325984 0.763826
Si Si3 0.569662 0.968677 0.031771
Si Si4 0.241418 0.606147 0.894342
Si Si5 0.500000 0.511077 0.250000
O O1 0.305096 0.351164 0.740116
O O2 0.330135 0.541951 0.733348
O O3 0.447474 0.438703 0.430756
O O4 0.434571 0.418383 0.737535
O O5 0.876742 0.365787 0.572779
O O6 0.768835 0.209656 0.788078
O O7 0.762485 0.384055 0.930875
O O8 0.500000 0.944563 0.250000
O O9 0.500000 0.000000 0.000000
O O10 0.643674 0.057974 0.966231
#
# Coordination Sequence:
#
# PCOD8137418 Si02
#       5
#     8   8   8   8   4
#     4  10  20  39  59  86 121 161 186 259 299 364
#     4  10  21  40  64  88 122 162 206 250 311 368
#     4  11  22  42  64  94 126 164 206 261 305 371
#     4  10  21  40  64  89 120 163 207 246 318 364
#     4  10  20  36  58  84 118 152 200 230 308 350
#
# _framework density 20.023789000000001
#
# number of rings (size 3 to 8) (size 9 to 14) (size 15 to 20)
#    0.000    1.778    4.444    0.000    0.000    0.000 
#   12.000    2.222    0.000    0.000    0.000    0.000 
#    0.000    0.000    0.000    0.000    0.000    0.000 
#
# Total GULP energy -223096.593900 kJ/mol
# GULP energy per Si atom -12394.255217 kJ/mol
# Density = 1.997821 g / cm^3
# Si number density = 20.023789 Si / 1000 Ang^3
#
#
#
# Elastic Constant Matrix: (Units=GPa)
#
#
# Indices 1 2 3 4 5 6 
#
# 1 168.2563 43.9704 51.1999 0.0000 0.7429 0.0000
# 2 43.9704 102.6733 46.6756 0.0000 -7.0204 0.0000
# 3 51.1999 46.6756 133.9387 0.0000 -3.0538 0.0000
# 4 0.0000 0.0000 0.0000 13.5400 0.0000 3.9676
# 5 0.7429 -7.0204 -3.0538 0.0000 35.3011 0.0000
# 6 0.0000 0.0000 0.0000 3.9676 0.0000 16.0631
#
#
#
# Elastic Compliance Matrix: (Units=1/GPa)
#
#
# Indices 1 2 3 4 5 6 
#
# 1 0.007123 -0.002206 -0.001971 0.000000 -0.000759 0.000000
# 2 -0.002206 0.012393 -0.003425 0.000000 0.002215 0.000000
# 3 -0.001971 -0.003425 0.009417 0.000000 0.000175 0.000000
# 4 0.000000 0.000000 0.000000 0.079618 0.000000 -0.019666
# 5 -0.000759 0.002215 0.000175 0.000000 0.028799 0.000000
# 6 0.000000 0.000000 0.000000 -0.019666 0.000000 0.067112
#
#
# Mechanical properties :
#
#
# Convention : Reuss Voigt Hill
#
# Bulk Modulus (GPa) = 72.84270 76.50668 74.67469
# Shear Modulus (GPa) = 22.29720 30.51565 26.40643
#
# Velocity S-wave (km/s) = 3.34059 3.90804 3.63540
# Velocity P-wave (km/s) = 7.16494 7.65863 7.41589
#
# Compressibility (1/GPa) = 0.01372821
#
# Stress axis : x y z
#
# Youngs Moduli (GPa) = 140.38830 80.69165 106.18873
#
# Poissons Ratio (x) = 0.17802 0.20934
# Poissons Ratio (y) = 0.30973 0.36368
# Poissons Ratio (z) = 0.27676 0.27636
#
# Static dielectric constant tensor:
#      x y z
#    x 4.009960 0.000000 -0.052120 
#    y 0.000000 3.490720 0.000000 
#    z -0.052120 0.000000 3.734890 
# 
# 
# High freq. dielectric constant tensor:
#      x y z
#    x 1.803560 0.000000 -0.001190 
#    y 0.000000 1.752400 0.000000 
#    z -0.001190 0.000000 1.795090 
# 
# From -- ./inp_files/37422.got.cif
#   From: 2010.06.25/outbox.cif.g09.slc.cpg/sg15_19_cif.got.tgz:37422.got - 2010.06.28 07:06:18.
