data_PCOD8137621
_publ_section_title
;
Structure prediction by ZEFSAII (Michael W. Deem and Ramdas Pophale) SiO2 
 PCOD8137621
Probable space group: C 2/C
;
_chemical_formula_sum "Si O2"
_cell_formula_units_Z 52
_cell_length_a 22.904893
_cell_length_b 14.283869
_cell_length_c 13.022061
_cell_angle_alpha 90.000000
_cell_angle_beta 36.616150
_cell_angle_gamma 90.000000
_cell_volume 2541.140780
_symmetry_space_group_name_H-M "C 2/C"
_symmetry_group_IT_number 15
_symmetry_cell_setting 'monoclinic'
loop_
_space_group_symop_operation_xyz
x,y,z
-x,y,1/2-z
-x,-y,-z
x,-y,1/2+z
1/2+x,1/2+y,z
1/2-x,1/2+y,1/2-z
1/2-x,1/2-y,-z
1/2+x,1/2-y,1/2+z
loop_
_atom_site_type_symbol
_atom_site_label
_atom_site_fract_x
_atom_site_fract_y
_atom_site_fract_z
Si Si1 0.408677 0.691777 0.116569
Si Si2 0.126141 0.813723 0.248910
Si Si3 0.361837 0.957253 0.070840
Si Si4 0.000000 0.576173 0.750000
Si Si5 0.195237 0.022215 0.164077
Si Si6 0.153462 0.623327 0.690634
Si Si7 0.830942 0.740806 0.528285
O O1 0.394929 0.589720 0.183653
O O2 0.343983 0.771149 0.267431
O O3 0.364453 0.683716 0.064674
O O4 0.525723 0.708617 0.951291
O O5 0.212660 0.763671 0.190548
O O6 0.149614 0.922991 0.195306
O O7 0.118604 0.765496 0.149664
O O8 0.368576 0.947729 0.184396
O O9 0.374413 0.858077 0.999084
O O10 0.263221 0.007169 0.168497
O O11 0.454499 0.015626 0.905232
O O12 0.922527 0.636275 0.795719
O O13 0.249917 0.076571 0.994125
#
# Coordination Sequence:
#
# PCOD8137621 Si02
#       7
#     8   8   8   4   8   8   8
#     4  11  22  38  64  87 123 165 208 247 307 377
#     4  10  21  39  62  90 119 160 209 257 302 363
#     4   9  20  36  59  87 120 155 202 255 310 356
#     4  10  20  36  60  90 120 158 208 252 308 372
#     4  10  22  39  58  86 127 160 208 247 311 366
#     4  10  22  38  58  90 124 165 200 260 311 360
#     4   9  21  38  59  89 120 154 201 260 310 356
#
# _framework density 20.463251
#
# number of rings (size 3 to 8) (size 9 to 14) (size 15 to 20)
#    0.000    2.154    0.000    1.846    6.462    2.462 
#    2.769    1.538    3.385    0.000    0.000    0.000 
#    0.000    0.000    0.000    0.000    0.000    0.000 
#
# Total GULP energy -322178.964616 kJ/mol
# GULP energy per Si atom -12391.498639 kJ/mol
# Density = 2.041668 g / cm^3
# Si number density = 20.463251 Si / 1000 Ang^3
#
#
#
# Elastic Constant Matrix: (Units=GPa)
#
#
# Indices 1 2 3 4 5 6 
#
# 1 70.3387 8.7890 23.5477 0.0000 8.2021 0.0000
# 2 8.7890 60.7565 30.8192 0.0000 -3.6460 0.0000
# 3 23.5477 30.8192 78.3560 0.0000 -7.3275 0.0000
# 4 0.0000 0.0000 0.0000 33.5243 0.0000 15.7042
# 5 8.2021 -3.6460 -7.3275 0.0000 24.4521 0.0000
# 6 0.0000 0.0000 0.0000 15.7042 0.0000 125.9206
#
#
#
# Elastic Compliance Matrix: (Units=1/GPa)
#
#
# Indices 1 2 3 4 5 6 
#
# 1 0.017034 0.000049 -0.005835 0.000000 -0.007455 0.000000
# 2 0.000049 0.020572 -0.008046 0.000000 0.000640 0.000000
# 3 -0.005835 -0.008046 0.018263 0.000000 0.006231 0.000000
# 4 0.000000 0.000000 0.000000 0.031680 0.000000 -0.003951
# 5 -0.007455 0.000640 0.006231 0.000000 0.045359 0.000000
# 6 0.000000 0.000000 0.000000 -0.003951 0.000000 0.008434
#
#
# Mechanical properties :
#
#
# Convention : Reuss Voigt Hill
#
# Bulk Modulus (GPa) = 35.45699 37.30698 36.38198
# Shear Modulus (GPa) = 28.02542 46.53244 37.27893
#
# Velocity S-wave (km/s) = 3.70476 4.77377 4.27283
# Velocity P-wave (km/s) = 5.97202 6.97538 6.49311
#
# Compressibility (1/GPa) = 0.02820319
#
# Stress axis : x y z
#
# Youngs Moduli (GPa) = 58.70721 48.60965 54.75463
#
# Poissons Ratio (x) = -0.00236 0.31951
# Poissons Ratio (y) = -0.00285 0.44057
# Poissons Ratio (z) = 0.34257 0.39112
#
# Static dielectric constant tensor:
#      x y z
#    x 3.762560 0.000000 0.174400 
#    y 0.000000 3.640310 0.000000 
#    z 0.174400 0.000000 3.741930 
# 
# 
# High freq. dielectric constant tensor:
#      x y z
#    x 1.799260 0.000000 0.004480 
#    y 0.000000 1.795960 0.000000 
#    z 0.004480 0.000000 1.797020 
# 
# From -- ./inp_files/118736.got.cif
#   From: 2010.06.25/outbox.cif.g09.slc.cpg/sg15_60_cif.got.tgz:118736.got - 2010.06.28 07:06:18.
