data_PCOD8137049
_publ_section_title
;
Structure prediction by ZEFSAII (Michael W. Deem and Ramdas Pophale) SiO2 
 PCOD8137049
Probable space group: C 2/C
;
_chemical_formula_sum "Si O2"
_cell_formula_units_Z 56
_cell_length_a 8.716033
_cell_length_b 13.077382
_cell_length_c 31.172371
_cell_angle_alpha 90.000000
_cell_angle_beta 132.160617
_cell_angle_gamma 90.000000
_cell_volume 2633.805336
_symmetry_space_group_name_H-M "C 2/C"
_symmetry_group_IT_number 15
_symmetry_cell_setting 'monoclinic'
loop_
_space_group_symop_operation_xyz
x,y,z
-x,y,1/2-z
-x,-y,-z
x,-y,1/2+z
1/2+x,1/2+y,z
1/2-x,1/2+y,1/2-z
1/2-x,1/2-y,-z
1/2+x,1/2-y,1/2+z
loop_
_atom_site_type_symbol
_atom_site_label
_atom_site_fract_x
_atom_site_fract_y
_atom_site_fract_z
Si Si1 0.217988 0.356647 0.776442
Si Si2 0.651056 0.175277 0.636100
Si Si3 0.696893 0.028257 0.909457
Si Si4 0.856621 0.089096 0.515405
Si Si5 0.778015 0.272204 0.441165
Si Si6 0.917409 0.348973 0.841599
Si Si7 0.920829 0.018745 0.187472
O O1 0.265272 0.261858 0.816433
O O2 0.195573 0.314439 0.723451
O O3 0.396378 0.444237 0.810393
O O4 0.000000 0.406616 0.750000
O O5 0.448091 0.127809 0.619654
O O6 0.593234 0.221716 0.578820
O O7 0.825764 0.090585 0.656929
O O8 0.916907 0.049011 0.928565
O O9 0.586766 0.937383 0.862408
O O10 0.729222 0.996820 0.965622
O O11 0.890122 0.187124 0.490919
O O12 0.729162 0.120849 0.533972
O O13 0.537335 0.244720 0.385837
O O14 0.754399 0.392986 0.845563
O O15 0.000000 0.003385 0.250000
#
# Coordination Sequence:
#
# PCOD8137049 Si02
#       7
#     8   8   8   8   8   8   8
#     4  11  21  37  62  88 124 158 197 254 297 368
#     4  11  22  37  61  90 120 157 201 249 307 369
#     4   9  20  39  61  83 114 159 199 251 305 362
#     4   9  20  39  59  81 119 151 202 255 300 362
#     4  10  20  35  59  87 115 154 195 251 303 362
#     4   9  19  38  58  83 119 155 196 240 308 358
#     4   9  21  38  58  82 122 162 194 243 299 361
#
# _framework density 21.262011999999999
#
# number of rings (size 3 to 8) (size 9 to 14) (size 15 to 20)
#    0.000    2.286    1.429    0.429    2.000    2.286 
#    2.571    0.000    3.143    0.000    0.000    0.000 
#    0.000    0.000    0.000    0.000    0.000    0.000 
#
# Total GULP energy -347085.056353 kJ/mol
# GULP energy per Si atom -12395.894870 kJ/mol
# Density = 2.121362 g / cm^3
# Si number density = 21.262012 Si / 1000 Ang^3
#
#
#
# Elastic Constant Matrix: (Units=GPa)
#
#
# Indices 1 2 3 4 5 6 
#
# 1 70.7959 28.0837 13.5361 0.0000 2.8546 0.0000
# 2 28.0837 56.5835 18.3992 0.0000 -3.6953 0.0000
# 3 13.5361 18.3992 63.3881 0.0000 -5.5198 0.0000
# 4 0.0000 0.0000 0.0000 26.0137 0.0000 1.4475
# 5 2.8546 -3.6953 -5.5198 0.0000 34.6168 0.0000
# 6 0.0000 0.0000 0.0000 1.4475 0.0000 24.3334
#
#
#
# Elastic Compliance Matrix: (Units=1/GPa)
#
#
# Indices 1 2 3 4 5 6 
#
# 1 0.017928 -0.008559 -0.001574 0.000000 -0.002643 0.000000
# 2 -0.008559 0.023650 -0.004823 0.000000 0.002461 0.000000
# 3 -0.001574 -0.004823 0.017724 0.000000 0.002441 0.000000
# 4 0.000000 0.000000 0.000000 0.038569 0.000000 -0.002294
# 5 -0.002643 0.002461 0.002441 0.000000 0.029758 0.000000
# 6 0.000000 0.000000 0.000000 -0.002294 0.000000 0.041232
#
#
# Mechanical properties :
#
#
# Convention : Reuss Voigt Hill
#
# Bulk Modulus (GPa) = 34.02425 34.53394 34.27909
# Shear Modulus (GPa) = 23.97287 25.70933 24.84110
#
# Velocity S-wave (km/s) = 3.36147 3.48108 3.42180
# Velocity P-wave (km/s) = 5.57701 5.69514 5.63638
#
# Compressibility (1/GPa) = 0.02939081
#
# Stress axis : x y z
#
# Youngs Moduli (GPa) = 55.77939 42.28367 56.41930
#
# Poissons Ratio (x) = 0.36189 0.08882
# Poissons Ratio (y) = 0.47740 0.27209
# Poissons Ratio (z) = 0.08781 0.20392
#
# Static dielectric constant tensor:
#      x y z
#    x 3.676180 0.000000 0.171490 
#    y 0.000000 3.724760 0.000000 
#    z 0.171490 0.000000 3.946750 
# 
# 
# High freq. dielectric constant tensor:
#      x y z
#    x 1.811920 0.000000 0.007160 
#    y 0.000000 1.819300 0.000000 
#    z 0.007160 0.000000 1.839660 
# 
# From -- ./inp_files/308072.got.cif
#   From: 2010.06.25/outbox.cif.g09.slc.cpg/sg15_155_cif.got.tgz:308072.got - 2010.06.28 07:06:18.
