data_PCOD8137814
_publ_section_title
;
Structure prediction by ZEFSAII (Michael W. Deem and Ramdas Pophale) SiO2 
 PCOD8137814
Probable space group: C 2/C
;
_chemical_formula_sum "Si O2"
_cell_formula_units_Z 56
_cell_length_a 11.142445
_cell_length_b 12.667132
_cell_length_c 20.055700
_cell_angle_alpha 90.000000
_cell_angle_beta 73.287963
_cell_angle_gamma 90.000000
_cell_volume 2711.154510
_symmetry_space_group_name_H-M "C 2/C"
_symmetry_group_IT_number 15
_symmetry_cell_setting 'monoclinic'
loop_
_space_group_symop_operation_xyz
x,y,z
-x,y,1/2-z
-x,-y,-z
x,-y,1/2+z
1/2+x,1/2+y,z
1/2-x,1/2+y,1/2-z
1/2-x,1/2-y,-z
1/2+x,1/2-y,1/2+z
loop_
_atom_site_type_symbol
_atom_site_label
_atom_site_fract_x
_atom_site_fract_y
_atom_site_fract_z
Si Si1 0.088165 0.985720 0.073195
Si Si2 0.498664 0.913146 0.442763
Si Si3 0.096786 0.062100 0.790729
Si Si4 0.386523 0.239019 0.140115
Si Si5 0.773927 0.853687 0.036328
Si Si6 0.102972 0.239229 0.517760
Si Si7 0.218092 0.510901 0.338679
O O1 0.195583 0.975066 0.112892
O O2 0.080341 0.886035 0.024491
O O3 0.118493 0.082776 0.020460
O O4 0.953327 0.994006 0.132903
O O5 0.357943 0.914153 0.436851
O O6 0.545491 0.797721 0.461724
O O7 0.500000 0.000000 0.500000
O O8 0.587391 0.949553 0.368181
O O9 0.103537 0.190460 0.794748
O O10 0.000000 0.029242 0.750000
O O11 0.229677 0.018841 0.742933
O O12 0.322472 0.323319 0.100743
O O13 0.526495 0.208643 0.092251
O O14 0.300775 0.136806 0.160320
O O15 0.750000 0.750000 0.000000
O O16 0.250000 0.250000 0.500000
#
# Coordination Sequence:
#
# PCOD8137814 Si02
#       7
#     8   8   8   8   8   8   8
#     4  10  20  36  63  90 125 162 202 254 311 368
#     4  12  20  37  62  94 124 167 199 255 323 370
#     4   9  23  43  61  87 120 173 214 249 307 381
#     4  11  23  41  64  91 127 160 209 268 313 365
#     4  12  21  39  62  97 128 159 202 266 325 375
#     4  11  19  32  59  93 124 151 204 252 309 371
#     4  11  20  42  64  83 127 166 208 249 312 379
#
# _framework density 20.655408000000001
#
# number of rings (size 3 to 8) (size 9 to 14) (size 15 to 20)
#    0.000    1.143    7.143    0.000    0.000    2.286 
#    2.571    2.143    0.000    0.000    0.000    0.000 
#    0.000    0.000    0.000    0.000    0.000    0.000 
#
# Total GULP energy -346917.621387 kJ/mol
# GULP energy per Si atom -12389.915050 kJ/mol
# Density = 2.060839 g / cm^3
# Si number density = 20.655408 Si / 1000 Ang^3
#
#
#
# Elastic Constant Matrix: (Units=GPa)
#
#
# Indices 1 2 3 4 5 6 
#
# 1 99.5652 26.0161 48.5508 0.0000 -32.1520 0.0000
# 2 26.0161 121.2155 60.9903 0.0000 -23.6457 0.0000
# 3 48.5508 60.9903 117.2627 0.0000 -43.4562 0.0000
# 4 0.0000 0.0000 0.0000 37.6898 0.0000 -3.6895
# 5 -32.1520 -23.6457 -43.4562 0.0000 35.3925 0.0000
# 6 0.0000 0.0000 0.0000 -3.6895 0.0000 35.8025
#
#
#
# Elastic Compliance Matrix: (Units=1/GPa)
#
#
# Indices 1 2 3 4 5 6 
#
# 1 0.014478 0.000000 -0.002056 0.000000 0.010629 0.000000
# 2 0.000000 0.011181 -0.005591 0.000000 0.000605 0.000000
# 3 -0.002056 -0.005591 0.018736 0.000000 0.017402 0.000000
# 4 0.000000 0.000000 0.000000 0.026803 0.000000 0.002762
# 5 0.010629 0.000605 0.017402 0.000000 0.059681 0.000000
# 6 0.000000 0.000000 0.000000 0.002762 0.000000 0.028216
#
#
# Mechanical properties :
#
#
# Convention : Reuss Voigt Hill
#
# Bulk Modulus (GPa) = 34.36221 67.68422 51.02321
# Shear Modulus (GPa) = 27.16080 35.27604 31.21842
#
# Velocity S-wave (km/s) = 3.63016 4.13708 3.89188
# Velocity P-wave (km/s) = 5.85173 7.46056 6.70458
#
# Compressibility (1/GPa) = 0.02910174
#
# Stress axis : x y z
#
# Youngs Moduli (GPa) = 69.06873 89.43692 53.37312
#
# Poissons Ratio (x) = -0.00003 0.10972
# Poissons Ratio (y) = -0.00002 0.29843
# Poissons Ratio (z) = 0.14199 0.50007
#
# Static dielectric constant tensor:
#      x y z
#    x 3.878340 0.000000 -0.581710 
#    y 0.000000 3.829450 0.000000 
#    z -0.581710 0.000000 3.911030 
# 
# 
# High freq. dielectric constant tensor:
#      x y z
#    x 1.812990 0.000000 -0.022120 
#    y 0.000000 1.809020 0.000000 
#    z -0.022120 0.000000 1.789140 
# 
# From -- ./inp_files/237525.got.cif
#   From: 2010.06.25/outbox.cif.g09.slc.cpg/sg15_119_cif.got.tgz:237525.got - 2010.06.28 07:06:18.
