data_PCOD8137240
_publ_section_title
;
Structure prediction by ZEFSAII (Michael W. Deem and Ramdas Pophale) SiO2 
 PCOD8137240
Probable space group: C 2/C
;
_chemical_formula_sum "Si O2"
_cell_formula_units_Z 60
_cell_length_a 19.780210
_cell_length_b 24.012700
_cell_length_c 12.522719
_cell_angle_alpha 90.000000
_cell_angle_beta 32.809500
_cell_angle_gamma 90.000000
_cell_volume 3222.906170
_symmetry_space_group_name_H-M "C 2/C"
_symmetry_group_IT_number 15
_symmetry_cell_setting 'monoclinic'
loop_
_space_group_symop_operation_xyz
x,y,z
-x,y,1/2-z
-x,-y,-z
x,-y,1/2+z
1/2+x,1/2+y,z
1/2-x,1/2+y,1/2-z
1/2-x,1/2-y,-z
1/2+x,1/2-y,1/2+z
loop_
_atom_site_type_symbol
_atom_site_label
_atom_site_fract_x
_atom_site_fract_y
_atom_site_fract_z
Si Si1 0.884965 0.099116 0.105468
Si Si2 0.682818 0.542105 0.096483
Si Si3 0.500000 0.544425 0.750000
Si Si4 0.064202 0.486412 0.763641
Si Si5 0.534047 0.186633 0.830775
Si Si6 0.603950 0.919739 0.911863
Si Si7 0.998378 0.806781 0.918111
Si Si8 0.811732 0.159652 0.508638
O O1 0.895395 0.056921 0.192542
O O2 0.738284 0.100383 0.275154
O O3 0.941511 0.159487 0.062394
O O4 0.967321 0.081235 0.895984
O O5 0.618831 0.492621 0.117889
O O6 0.687775 0.593968 0.010607
O O7 0.824117 0.524242 0.931289
O O8 0.113799 0.438273 0.775560
O O9 0.000000 0.454522 0.750000
O O10 0.956006 0.526740 0.951991
O O11 0.500000 0.184377 0.750000
O O12 0.479205 0.240905 0.964506
O O13 0.680755 0.187433 0.657200
O O14 0.484096 0.132969 0.958433
O O15 0.094244 0.808989 0.693604
O O16 0.863045 0.831471 0.061722
#
# Coordination Sequence:
#
# PCOD8137240 Si02
#       8
#     8   8   4   8   8   8   8   8
#     4  11  23  40  60  87 120 154 208 244 301 360
#     4  11  20  37  61  86 123 156 196 239 295 367
#     4  12  24  40  60  86 114 166 196 248 302 356
#     4  11  21  40  58  88 126 158 194 242 298 354
#     4  12  21  35  63  90 120 160 201 246 302 348
#     4  11  23  37  61  91 120 159 197 244 298 358
#     4  10  22  36  57  87 122 158 197 249 301 348
#     4  10  20  36  53  93 128 153 190 249 295 358
#
# _framework density 18.616737000000001
#
# number of rings (size 3 to 8) (size 9 to 14) (size 15 to 20)
#    0.000    1.067    5.333    4.400    1.867    0.000 
#    2.400    0.000    1.467    0.800    0.000    0.000 
#    0.000    0.000    0.000    0.000    0.000    0.000 
#
# Total GULP energy -371838.263996 kJ/mol
# GULP energy per Si atom -12394.608800 kJ/mol
# Density = 1.857436 g / cm^3
# Si number density = 18.616737 Si / 1000 Ang^3
#
#
#
# Elastic Constant Matrix: (Units=GPa)
#
#
# Indices 1 2 3 4 5 6 
#
# 1 126.3734 55.6363 38.3292 0.0014 -15.2970 -0.0026
# 2 55.6363 103.4357 23.4148 0.0007 10.5256 -0.0009
# 3 38.3292 23.4148 49.7515 0.0020 -1.2134 -0.0012
# 4 0.0014 0.0007 0.0020 16.9775 -0.0010 0.1560
# 5 -15.2970 10.5256 -1.2134 -0.0010 34.4838 0.0018
# 6 -0.0026 -0.0009 -0.0012 0.1560 0.0018 18.7739
#
#
#
# Elastic Compliance Matrix: (Units=1/GPa)
#
#
# Indices 1 2 3 4 5 6 
#
# 1 0.014126 -0.006714 -0.007527 0.000000 0.008051 0.000000
# 2 -0.006714 0.014447 -0.001809 0.000000 -0.007451 0.000000
# 3 -0.007527 -0.001809 0.026705 -0.000003 -0.001847 0.000001
# 4 0.000000 0.000000 -0.000003 0.058906 0.000002 -0.000489
# 5 0.008051 -0.007451 -0.001847 0.000002 0.034780 -0.000003
# 6 0.000000 0.000000 0.000001 -0.000489 -0.000003 0.053269
#
#
# Mechanical properties :
#
#
# Convention : Reuss Voigt Hill
#
# Bulk Modulus (GPa) = 43.14178 57.14680 50.14429
# Shear Modulus (GPa) = 20.65622 24.85906 22.75764
#
# Velocity S-wave (km/s) = 3.33461 3.65815 3.50012
# Velocity P-wave (km/s) = 6.16848 6.97179 6.58240
#
# Compressibility (1/GPa) = 0.02317939
#
# Stress axis : x y z
#
# Youngs Moduli (GPa) = 70.79047 69.22029 37.44631
#
# Poissons Ratio (x) = 0.46472 0.28186
# Poissons Ratio (y) = 0.47526 0.06772
# Poissons Ratio (z) = 0.53284 0.12519
#
# Static dielectric constant tensor:
#      x y z
#    x 3.744840 0.000000 -0.221470 
#    y 0.000000 3.404020 0.000000 
#    z -0.221470 0.000000 3.290020 
# 
# 
# High freq. dielectric constant tensor:
#      x y z
#    x 1.735570 0.000000 -0.026560 
#    y 0.000000 1.715070 0.000000 
#    z -0.026560 0.000000 1.695770 
# 
# From -- ./inp_files/108102.got.cif
#   From: 2010.06.25/outbox.cif.g09.slc.cpg/sg15_55_cif.got.tgz:108102.got - 2010.06.28 07:06:18.
