data_PCOD8137452
_publ_section_title
;
Structure prediction by ZEFSAII (Michael W. Deem and Ramdas Pophale) SiO2 
 PCOD8137452
Probable space group: C 2/C
;
_chemical_formula_sum "Si O2"
_cell_formula_units_Z 44
_cell_length_a 9.904290
_cell_length_b 27.376239
_cell_length_c 16.102238
_cell_angle_alpha 90.000000
_cell_angle_beta 147.708824
_cell_angle_gamma 90.000000
_cell_volume 2332.412054
_symmetry_space_group_name_H-M "C 2/C"
_symmetry_group_IT_number 15
_symmetry_cell_setting 'monoclinic'
loop_
_space_group_symop_operation_xyz
x,y,z
-x,y,1/2-z
-x,-y,-z
x,-y,1/2+z
1/2+x,1/2+y,z
1/2-x,1/2+y,1/2-z
1/2-x,1/2-y,-z
1/2+x,1/2-y,1/2+z
loop_
_atom_site_type_symbol
_atom_site_label
_atom_site_fract_x
_atom_site_fract_y
_atom_site_fract_z
Si Si1 0.000000 0.382266 0.750000
Si Si2 0.976357 0.057432 0.494370
Si Si3 0.877923 0.620295 0.776337
Si Si4 0.893237 0.893646 0.609449
Si Si5 0.763819 0.220457 0.839426
Si Si6 0.177228 0.809122 0.685922
O O1 0.784358 0.419943 0.606048
O O2 0.890371 0.346628 0.763836
O O3 0.183373 0.075667 0.668394
O O4 0.017656 0.075286 0.422379
O O5 0.000000 0.000000 0.500000
O O6 0.745091 0.672380 0.724786
O O7 0.000000 0.628262 0.750000
O O8 0.087430 0.607601 0.954435
O O9 0.000000 0.917107 0.750000
O O10 0.993465 0.838412 0.652634
O O11 0.500000 0.229127 0.750000
O O12 0.819282 0.266590 0.809499
O O13 0.002945 0.214434 0.024112
#
# Coordination Sequence:
#
# PCOD8137452 Si02
#       6
#     4   8   8   8   8   8
#     4  10  22  40  54  88 118 146 206 230 292 372
#     4  10  21  39  67  83 108 159 193 244 304 361
#     4   9  17  35  55  84 114 142 199 243 280 344
#     4  10  20  36  58  89 118 142 194 259 290 329
#     4  11  19  34  55  85 114 155 202 237 284 341
#     4  11  22  34  55  81 121 159 191 242 282 349
#
# _framework density 18.864591000000001
#
# number of rings (size 3 to 8) (size 9 to 14) (size 15 to 20)
#    0.000    1.818    7.273    1.091    6.364    0.727 
#    0.000    0.909    0.000    0.000    0.000    0.000 
#    0.000    0.000    0.000    0.000    0.000    0.000 
#
# Total GULP energy -272637.257393 kJ/mol
# GULP energy per Si atom -12392.602609 kJ/mol
# Density = 1.882165 g / cm^3
# Si number density = 18.864591 Si / 1000 Ang^3
#
#
#
# Elastic Constant Matrix: (Units=GPa)
#
#
# Indices 1 2 3 4 5 6 
#
# 1 43.3602 34.0323 47.1645 0.0000 8.5712 0.0000
# 2 34.0323 154.0400 54.8938 0.0000 11.8528 0.0000
# 3 47.1645 54.8938 134.0964 0.0001 -1.4981 0.0003
# 4 0.0000 0.0000 0.0001 30.6696 0.0000 1.1544
# 5 8.5712 11.8528 -1.4981 0.0000 24.9648 0.0001
# 6 0.0000 0.0000 0.0003 1.1544 0.0001 17.8903
#
#
#
# Elastic Compliance Matrix: (Units=1/GPa)
#
#
# Indices 1 2 3 4 5 6 
#
# 1 0.044195 -0.003589 -0.014235 0.000000 -0.014324 0.000000
# 2 -0.003589 0.008270 -0.002155 0.000000 -0.002823 0.000000
# 3 -0.014235 -0.002155 0.013421 0.000000 0.006716 0.000000
# 4 0.000000 0.000000 0.000000 0.032685 0.000000 -0.002109
# 5 -0.014324 -0.002823 0.006716 0.000000 0.046718 0.000000
# 6 0.000000 0.000000 0.000000 -0.002109 0.000000 0.056032
#
#
# Mechanical properties :
#
#
# Convention : Reuss Voigt Hill
#
# Bulk Modulus (GPa) = 38.56741 67.07532 52.82137
# Shear Modulus (GPa) = 20.00626 27.73200 23.86913
#
# Velocity S-wave (km/s) = 3.26009 3.83829 3.56095
# Velocity P-wave (km/s) = 5.88725 7.43483 6.70583
#
# Compressibility (1/GPa) = 0.02592862
#
# Stress axis : x y z
#
# Youngs Moduli (GPa) = 22.62683 120.92194 74.50928
#
# Poissons Ratio (x) = 0.43400 1.06066
# Poissons Ratio (y) = 0.08121 0.16053
# Poissons Ratio (z) = 0.32210 0.26053
#
# Static dielectric constant tensor:
#      x y z
#    x 3.118330 0.000000 0.212540 
#    y 0.000000 3.575480 0.000000 
#    z 0.212540 0.000000 3.675960 
# 
# 
# High freq. dielectric constant tensor:
#      x y z
#    x 1.685200 0.000000 0.013690 
#    y 0.000000 1.738610 0.000000 
#    z 0.013690 0.000000 1.738970 
# 
# From -- ./inp_files/138806.got.cif
#   From: 2010.06.25/outbox.cif.g09.slc.cpg/sg15_70_cif.got.tgz:138806.got - 2010.06.28 07:06:18.
