data_PCOD8137586
_publ_section_title
;
Structure prediction by ZEFSAII (Michael W. Deem and Ramdas Pophale) SiO2 
 PCOD8137586
Probable space group: C 2/C
;
_chemical_formula_sum "Si O2"
_cell_formula_units_Z 56
_cell_length_a 9.104668
_cell_length_b 25.484806
_cell_length_c 17.336285
_cell_angle_alpha 90.000000
_cell_angle_beta 45.766280
_cell_angle_gamma 90.000000
_cell_volume 2882.158034
_symmetry_space_group_name_H-M "C 2/C"
_symmetry_group_IT_number 15
_symmetry_cell_setting 'monoclinic'
loop_
_space_group_symop_operation_xyz
x,y,z
-x,y,1/2-z
-x,-y,-z
x,-y,1/2+z
1/2+x,1/2+y,z
1/2-x,1/2+y,1/2-z
1/2-x,1/2-y,-z
1/2+x,1/2-y,1/2+z
loop_
_atom_site_type_symbol
_atom_site_label
_atom_site_fract_x
_atom_site_fract_y
_atom_site_fract_z
Si Si1 0.381780 0.942481 0.669593
Si Si2 0.889858 0.819224 0.965083
Si Si3 0.662016 0.176381 0.256752
Si Si4 0.268961 0.739211 0.362821
Si Si5 0.500000 0.021982 0.750000
Si Si6 0.139746 0.069149 0.968721
Si Si7 0.661053 0.538256 0.541423
Si Si8 0.000000 0.999637 0.750000
O O1 0.351041 0.883920 0.711956
O O2 0.597596 0.948117 0.545034
O O3 0.370400 0.983476 0.743553
O O4 0.193529 0.960222 0.685470
O O5 0.757916 0.798955 0.941033
O O6 0.126495 0.809965 0.861652
O O7 0.830690 0.793173 0.069383
O O8 0.839607 0.880284 0.986350
O O9 0.500000 0.190056 0.250000
O O10 0.636567 0.213664 0.341619
O O11 0.500000 0.749607 0.250000
O O12 0.350562 0.061226 0.847274
O O13 0.948905 0.076781 0.979558
O O14 0.104675 0.020845 0.038032
O O15 0.555101 0.541806 0.663335
#
# Coordination Sequence:
#
# PCOD8137586 Si02
#       8
#     8   8   8   8   4   8   8   4
#     4  11  22  36  59  87 120 159 197 245 286 355
#     4  10  21  39  65  87 115 154 198 250 294 347
#     4  11  22  38  64  89 116 155 195 244 301 353
#     4   9  22  41  61  90 116 145 201 253 296 348
#     4  10  20  38  56  87 123 162 196 230 294 352
#     4  10  20  36  60  86 117 161 196 238 294 355
#     4  10  22  37  55  87 125 157 197 239 291 352
#     4  12  22  36  56  83 123 160 198 248 280 344
#
# _framework density 19.429886
#
# number of rings (size 3 to 8) (size 9 to 14) (size 15 to 20)
#    0.000    1.714    2.143    2.143    8.000    0.571 
#    0.000    0.000    1.571    0.000    0.000    0.000 
#    0.000    0.000    0.000    0.000    0.000    0.000 
#
# Total GULP energy -347122.295775 kJ/mol
# GULP energy per Si atom -12397.224849 kJ/mol
# Density = 1.938566 g / cm^3
# Si number density = 19.429886 Si / 1000 Ang^3
#
#
#
# Elastic Constant Matrix: (Units=GPa)
#
#
# Indices 1 2 3 4 5 6 
#
# 1 99.1521 25.2421 26.9035 0.0000 -0.2463 0.0000
# 2 25.2421 62.2136 18.2086 0.0000 8.1642 0.0000
# 3 26.9035 18.2086 92.8766 0.0000 12.7309 0.0001
# 4 0.0000 0.0000 0.0000 29.7864 0.0000 8.2592
# 5 -0.2463 8.1642 12.7309 0.0000 26.8036 -0.0001
# 6 0.0000 0.0000 0.0001 8.2592 -0.0001 32.7099
#
#
#
# Elastic Compliance Matrix: (Units=1/GPa)
#
#
# Indices 1 2 3 4 5 6 
#
# 1 0.012025 -0.004373 -0.003020 0.000000 0.002877 0.000000
# 2 -0.004373 0.019023 -0.001779 0.000000 -0.004990 0.000000
# 3 -0.003020 -0.001779 0.012750 0.000000 -0.005542 0.000000
# 4 0.000000 0.000000 0.000000 0.036100 0.000000 -0.009115
# 5 0.002877 -0.004990 -0.005542 0.000000 0.041487 0.000000
# 6 0.000000 0.000000 0.000000 -0.009115 0.000000 0.032873
#
#
# Mechanical properties :
#
#
# Convention : Reuss Voigt Hill
#
# Bulk Modulus (GPa) = 39.28536 43.88342 41.58439
# Shear Modulus (GPa) = 27.61087 30.11918 28.86503
#
# Velocity S-wave (km/s) = 3.77377 3.94146 3.85853
# Velocity P-wave (km/s) = 6.26510 6.58392 6.42649
#
# Compressibility (1/GPa) = 0.02545478
#
# Stress axis : x y z
#
# Youngs Moduli (GPa) = 83.15730 52.56735 78.42932
#
# Poissons Ratio (x) = 0.22986 0.23690
# Poissons Ratio (y) = 0.36361 0.13952
# Poissons Ratio (z) = 0.25118 0.09352
#
# Static dielectric constant tensor:
#      x y z
#    x 3.701770 0.000000 0.337310 
#    y 0.000000 3.326120 0.000000 
#    z 0.337310 0.000000 6.201630 
# 
# 
# High freq. dielectric constant tensor:
#      x y z
#    x 1.756840 0.000000 0.001460 
#    y 0.000000 1.732690 0.000000 
#    z 0.001460 0.000000 1.773240 
# 
# From -- ./inp_files/193226.got.cif
#   From: 2010.06.25/outbox.cif.g09.slc.cpg/sg15_97_cif.got.tgz:193226.got - 2010.06.28 07:06:18.
