data_PCOD8137660
_publ_section_title
;
Structure prediction by ZEFSAII (Michael W. Deem and Ramdas Pophale) SiO2 
 PCOD8137660
Probable space group: C 2/C
;
_chemical_formula_sum "Si O2"
_cell_formula_units_Z 64
_cell_length_a 26.420948
_cell_length_b 9.462447
_cell_length_c 22.681656
_cell_angle_alpha 90.000000
_cell_angle_beta 33.660793
_cell_angle_gamma 90.000000
_cell_volume 3143.054454
_symmetry_space_group_name_H-M "C 2/C"
_symmetry_group_IT_number 15
_symmetry_cell_setting 'monoclinic'
loop_
_space_group_symop_operation_xyz
x,y,z
-x,y,1/2-z
-x,-y,-z
x,-y,1/2+z
1/2+x,1/2+y,z
1/2-x,1/2+y,1/2-z
1/2-x,1/2-y,-z
1/2+x,1/2-y,1/2+z
loop_
_atom_site_type_symbol
_atom_site_label
_atom_site_fract_x
_atom_site_fract_y
_atom_site_fract_z
Si Si1 0.899371 0.767183 0.855757
Si Si2 0.227765 0.628319 0.321875
Si Si3 0.180373 0.875053 0.204963
Si Si4 0.902788 0.916494 0.335515
Si Si5 0.749361 0.697084 0.911417
Si Si6 0.615965 0.390663 0.922317
Si Si7 0.074336 0.194797 0.922436
Si Si8 0.205331 0.873117 0.953346
O O1 0.843643 0.738587 0.850818
O O2 0.000000 0.694134 0.750000
O O3 0.914424 0.931505 0.854587
O O4 0.836631 0.721645 0.973078
O O5 0.241184 0.476993 0.342062
O O6 0.257453 0.752067 0.336843
O O7 0.291108 0.642831 0.202979
O O8 0.123438 0.664716 0.402106
O O9 0.127516 0.948213 0.202100
O O10 0.107047 0.834861 0.324674
O O11 0.216224 0.734304 0.140120
O O12 0.830888 0.831861 0.446254
O O13 0.000000 0.837298 0.250000
O O14 0.746569 0.528991 0.913788
O O15 0.595328 0.557341 0.941172
O O16 0.626423 0.354755 0.980860
O O17 0.535626 0.291590 0.973192
#
# Coordination Sequence:
#
# PCOD8137660 Si02
#       8
#     8   8   8   8   8   8   8   8
#     4   9  19  36  60  90 117 152 203 250 290 344
#     4  11  21  38  62  87 121 153 202 249 296 347
#     4  11  22  38  61  87 122 157 198 245 304 358
#     4  10  20  36  61  89 114 154 205 246 289 356
#     4  10  20  36  61  86 119 154 199 244 295 352
#     4  10  21  37  62  89 115 158 204 250 295 354
#     4  10  21  38  62  88 116 156 208 248 292 353
#     4  11  21  37  61  84 122 156 195 241 305 355
#
# _framework density 20.362359000000001
#
# number of rings (size 3 to 8) (size 9 to 14) (size 15 to 20)
#    0.000    1.750    3.750    1.125    0.000    1.000 
#    0.000    1.250    5.500    0.000    0.000    0.000 
#    0.000    0.000    0.000    0.000    0.000    0.000 
#
# Total GULP energy -396506.793969 kJ/mol
# GULP energy per Si atom -12390.837312 kJ/mol
# Density = 2.031601 g / cm^3
# Si number density = 20.362359 Si / 1000 Ang^3
#
#
#
# Elastic Constant Matrix: (Units=GPa)
#
#
# Indices 1 2 3 4 5 6 
#
# 1 97.5342 5.7609 30.5389 0.0061 -0.5127 -0.0020
# 2 5.7609 51.6779 24.6385 0.0148 -3.3663 -0.0179
# 3 30.5389 24.6385 61.8705 0.0154 -10.4687 -0.0181
# 4 0.0061 0.0148 0.0154 23.7605 -0.0096 2.0221
# 5 -0.5127 -3.3663 -10.4687 -0.0096 41.0084 0.0074
# 6 -0.0020 -0.0179 -0.0181 2.0221 0.0074 19.9448
#
#
#
# Elastic Compliance Matrix: (Units=1/GPa)
#
#
# Indices 1 2 3 4 5 6 
#
# 1 0.012361 0.001919 -0.007120 0.000000 -0.001506 -0.000003
# 2 0.001919 0.024193 -0.010703 -0.000010 -0.000722 0.000013
# 3 -0.007120 -0.010703 0.024849 -0.000006 0.005376 0.000011
# 4 0.000000 -0.000010 -0.000006 0.042453 0.000008 -0.004304
# 5 -0.001506 -0.000722 0.005376 0.000008 0.025680 -0.000006
# 6 -0.000003 0.000013 0.000011 -0.004304 -0.000006 0.050575
#
#
# Mechanical properties :
#
#
# Convention : Reuss Voigt Hill
#
# Bulk Modulus (GPa) = 33.79167 36.99548 35.39357
# Shear Modulus (GPa) = 22.54440 26.95236 24.74838
#
# Velocity S-wave (km/s) = 3.33101 3.64213 3.49004
# Velocity P-wave (km/s) = 5.60583 5.99123 5.80173
#
# Compressibility (1/GPa) = 0.02959309
#
# Stress axis : x y z
#
# Youngs Moduli (GPa) = 80.89994 41.33464 40.24260
#
# Poissons Ratio (x) = -0.07931 0.28653
# Poissons Ratio (y) = -0.15522 0.43074
# Poissons Ratio (z) = 0.57602 0.44242
#
# Static dielectric constant tensor:
#      x y z
#    x 3.776590 0.000000 0.062620 
#    y 0.000000 3.442790 -0.000010 
#    z 0.062620 -0.000010 4.009200 
# 
# 
# High freq. dielectric constant tensor:
#      x y z
#    x 1.806310 0.000000 0.010410 
#    y 0.000000 1.762110 0.000000 
#    z 0.010410 0.000000 1.795660 
# 
# From -- ./inp_files/284415.got.cif
#   From: 2010.06.25/outbox.cif.g09.slc.cpg/sg15_143_cif.got.tgz:284415.got - 2010.06.28 07:06:18.
