data_PCOD8137833
_publ_section_title
;
Structure prediction by ZEFSAII (Michael W. Deem and Ramdas Pophale) SiO2 
 PCOD8137833
Probable space group: C 2/C
;
_chemical_formula_sum "Si O2"
_cell_formula_units_Z 56
_cell_length_a 17.960690
_cell_length_b 12.126979
_cell_length_c 14.310480
_cell_angle_alpha 90.000000
_cell_angle_beta 116.499443
_cell_angle_gamma 90.000000
_cell_volume 2789.479230
_symmetry_space_group_name_H-M "C 2/C"
_symmetry_group_IT_number 15
_symmetry_cell_setting 'monoclinic'
loop_
_space_group_symop_operation_xyz
x,y,z
-x,y,1/2-z
-x,-y,-z
x,-y,1/2+z
1/2+x,1/2+y,z
1/2-x,1/2+y,1/2-z
1/2-x,1/2-y,-z
1/2+x,1/2-y,1/2+z
loop_
_atom_site_type_symbol
_atom_site_label
_atom_site_fract_x
_atom_site_fract_y
_atom_site_fract_z
Si Si1 0.402070 0.134734 0.690010
Si Si2 0.680379 0.359918 0.555716
Si Si3 0.793805 0.509566 0.997549
Si Si4 0.973062 0.074150 0.635778
Si Si5 0.303084 0.861499 0.324507
Si Si6 0.144362 0.913993 0.130292
Si Si7 0.636347 0.635660 0.425220
O O1 0.500000 0.117095 0.750000
O O2 0.367313 0.044122 0.598891
O O3 0.362240 0.117911 0.769446
O O4 0.380328 0.256906 0.644035
O O5 0.758586 0.379795 0.529670
O O6 0.596845 0.346967 0.447410
O O7 0.687359 0.259200 0.628693
O O8 0.677293 0.467518 0.618078
O O9 0.828089 0.547814 0.916139
O O10 0.721439 0.420488 0.938348
O O11 0.000000 0.124235 0.750000
O O12 0.051168 0.073260 0.611956
O O13 0.939556 0.949665 0.630186
O O14 0.205677 0.869096 0.243776
O O15 0.145532 0.833465 0.040314
#
# Coordination Sequence:
#
# PCOD8137833 Si02
#       7
#     8   8   8   8   8   8   8
#     4  12  27  41  64  94 123 172 217 252 312 371
#     4  10  22  40  63  94 129 158 212 252 311 384
#     4  10  23  46  61  92 133 162 210 264 304 380
#     4  10  20  36  63  96 130 156 196 267 321 357
#     4  12  25  40  69  90 123 174 207 255 322 368
#     4  10  21  39  63  98 126 161 202 263 321 360
#     4  10  21  40  67  95 127 154 210 268 305 377
#
# _framework density 20.075433
#
# number of rings (size 3 to 8) (size 9 to 14) (size 15 to 20)
#    0.000    1.714    2.857    4.714    8.000    0.571 
#    0.000    2.143    0.000    0.000    0.000    0.000 
#    0.000    0.000    0.000    0.000    0.000    0.000 
#
# Total GULP energy -347210.285250 kJ/mol
# GULP energy per Si atom -12400.367330 kJ/mol
# Density = 2.002974 g / cm^3
# Si number density = 20.075433 Si / 1000 Ang^3
#
#
#
# Elastic Constant Matrix: (Units=GPa)
#
#
# Indices 1 2 3 4 5 6 
#
# 1 115.5534 45.1290 62.5526 0.0000 -4.9240 0.0000
# 2 45.1290 53.3409 68.1071 0.0000 -0.9458 0.0000
# 3 62.5526 68.1071 154.4093 0.0000 -0.3723 0.0000
# 4 0.0000 0.0000 0.0000 37.7864 0.0000 -10.7860
# 5 -4.9240 -0.9458 -0.3723 0.0000 38.4555 0.0000
# 6 0.0000 0.0000 0.0000 -10.7860 0.0000 14.1023
#
#
#
# Elastic Compliance Matrix: (Units=1/GPa)
#
#
# Indices 1 2 3 4 5 6 
#
# 1 0.013062 -0.009784 -0.000973 0.000000 0.001423 0.000000
# 2 -0.009784 0.050276 -0.018213 0.000000 -0.000193 0.000000
# 3 -0.000973 -0.018213 0.014903 0.000000 -0.000428 0.000000
# 4 0.000000 0.000000 0.000000 0.033856 0.000000 0.025895
# 5 0.001423 -0.000193 -0.000428 0.000000 0.026177 0.000000
# 6 0.000000 0.000000 0.000000 0.025895 0.000000 0.090716
#
#
# Mechanical properties :
#
#
# Convention : Reuss Voigt Hill
#
# Bulk Modulus (GPa) = 49.25618 74.98677 62.12147
# Shear Modulus (GPa) = 17.02434 27.90317 22.46376
#
# Velocity S-wave (km/s) = 2.91524 3.73220 3.34873
# Velocity P-wave (km/s) = 5.99335 7.48372 6.77961
#
# Compressibility (1/GPa) = 0.02030202
#
# Stress axis : x y z
#
# Youngs Moduli (GPa) = 76.55587 19.89005 67.10274
#
# Poissons Ratio (x) = 0.19461 0.06526
# Poissons Ratio (y) = 0.74905 1.22212
# Poissons Ratio (z) = 0.07445 0.36225
#
# Static dielectric constant tensor:
#      x y z
#    x 3.775360 0.000000 -0.100440 
#    y 0.000000 3.419450 0.000000 
#    z -0.100440 0.000000 3.968050 
# 
# 
# High freq. dielectric constant tensor:
#      x y z
#    x 1.786280 0.000000 -0.005490 
#    y 0.000000 1.760820 0.000000 
#    z -0.005490 0.000000 1.802620 
# 
# From -- ./inp_files/161394.got.cif
#   From: 2010.06.25/outbox.cif.g09.slc.cpg/sg15_81_cif.got.tgz:161394.got - 2010.06.28 07:06:18.
