data_PCOD8137238
_publ_section_title
;
Structure prediction by ZEFSAII (Michael W. Deem and Ramdas Pophale) SiO2 
 PCOD8137238
Probable space group: C 2/C
;
_chemical_formula_sum "Si O2"
_cell_formula_units_Z 64
_cell_length_a 25.508720
_cell_length_b 16.849714
_cell_length_c 14.551295
_cell_angle_alpha 90.000000
_cell_angle_beta 31.457437
_cell_angle_gamma 90.000000
_cell_volume 3263.931511
_symmetry_space_group_name_H-M "C 2/C"
_symmetry_group_IT_number 15
_symmetry_cell_setting 'monoclinic'
loop_
_space_group_symop_operation_xyz
x,y,z
-x,y,1/2-z
-x,-y,-z
x,-y,1/2+z
1/2+x,1/2+y,z
1/2-x,1/2+y,1/2-z
1/2-x,1/2-y,-z
1/2+x,1/2-y,1/2+z
loop_
_atom_site_type_symbol
_atom_site_label
_atom_site_fract_x
_atom_site_fract_y
_atom_site_fract_z
Si Si1 0.561583 0.460283 0.251555
Si Si2 0.146451 0.161640 0.962184
Si Si3 0.076221 0.141203 0.259726
Si Si4 0.279222 0.740136 0.135134
Si Si5 0.117520 0.604702 0.088529
Si Si6 0.888473 0.872436 0.596903
Si Si7 0.781466 0.593437 0.375498
Si Si8 0.239931 0.506058 0.764982
O O1 0.500000 0.468896 0.250000
O O2 0.578876 0.546561 0.266711
O O3 0.499524 0.408325 0.417228
O O4 0.667388 0.418108 0.078703
O O5 0.212634 0.230739 0.820099
O O6 0.184158 0.074668 0.878592
O O7 0.149578 0.169709 0.068271
O O8 0.034489 0.173256 0.093352
O O9 0.114704 0.173276 0.300479
O O10 0.370288 0.689814 0.042266
O O11 0.211296 0.684486 0.170945
O O12 0.323541 0.813075 0.012256
O O13 0.141123 0.577404 0.157292
O O14 0.000000 0.617502 0.250000
O O15 0.154038 0.538802 0.961041
O O16 0.803304 0.939895 0.723450
O O17 0.810510 0.532210 0.250545
#
# Coordination Sequence:
#
# PCOD8137238 Si02
#       8
#     8   8   8   8   8   8   8   8
#     4  12  18  34  63  99 119 138 186 257 316 352
#     4  10  20  36  53  85 124 154 190 239 296 361
#     4  11  19  33  60  88 118 154 191 243 307 358
#     4  10  24  39  56  86 122 158 195 243 297 363
#     4  11  26  41  61  86 119 162 206 246 293 352
#     4  11  22  33  61  91 122 152 192 247 304 368
#     4  11  22  40  66  88 120 158 194 256 308 350
#     4  10  20  39  59  89 118 150 199 247 295 359
#
# _framework density 19.608255
#
# number of rings (size 3 to 8) (size 9 to 14) (size 15 to 20)
#    0.000    1.250    6.250    1.500    5.250    2.000 
#    0.000    0.000   11.000    0.000    0.000    0.000 
#    0.000    0.000    0.000    0.000    0.000    0.000 
#
# Total GULP energy -396864.513464 kJ/mol
# GULP energy per Si atom -12402.016046 kJ/mol
# Density = 1.956363 g / cm^3
# Si number density = 19.608255 Si / 1000 Ang^3
#
#
#
# Elastic Constant Matrix: (Units=GPa)
#
#
# Indices 1 2 3 4 5 6 
#
# 1 130.4410 14.1317 34.9442 0.0000 13.3716 0.0000
# 2 14.1317 66.8841 25.4580 0.0000 2.7145 0.0000
# 3 34.9442 25.4580 74.7889 0.0000 12.0589 0.0000
# 4 0.0000 0.0000 0.0000 20.0268 0.0000 6.7142
# 5 13.3716 2.7145 12.0589 0.0000 25.2096 0.0000
# 6 0.0000 0.0000 0.0000 6.7142 0.0000 17.2702
#
#
#
# Elastic Compliance Matrix: (Units=1/GPa)
#
#
# Indices 1 2 3 4 5 6 
#
# 1 0.008975 -0.000417 -0.003567 0.000000 -0.003010 0.000000
# 2 -0.000417 0.017221 -0.005855 0.000000 0.001168 0.000000
# 3 -0.003567 -0.005855 0.018013 0.000000 -0.006094 0.000000
# 4 0.000000 0.000000 0.000000 0.057417 0.000000 -0.022322
# 5 -0.003010 0.001168 -0.006094 0.000000 0.044053 0.000000
# 6 0.000000 0.000000 0.000000 -0.022322 0.000000 0.066581
#
#
# Mechanical properties :
#
#
# Convention : Reuss Voigt Hill
#
# Bulk Modulus (GPa) = 40.76321 46.79798 43.78059
# Shear Modulus (GPa) = 20.82331 25.67332 23.24831
#
# Velocity S-wave (km/s) = 3.26232 3.62237 3.44705
# Velocity P-wave (km/s) = 5.91813 6.43535 6.18215
#
# Compressibility (1/GPa) = 0.02453193
#
# Stress axis : x y z
#
# Youngs Moduli (GPa) = 111.41523 58.06979 55.51488
#
# Poissons Ratio (x) = 0.02420 0.19799
# Poissons Ratio (y) = 0.04643 0.32506
# Poissons Ratio (z) = 0.39736 0.34002
#
# Static dielectric constant tensor:
#      x y z
#    x 3.767830 0.000000 0.224770 
#    y 0.000000 3.529460 0.000000 
#    z 0.224770 0.000000 3.577050 
# 
# 
# High freq. dielectric constant tensor:
#      x y z
#    x 1.770650 0.000000 0.019870 
#    y 0.000000 1.750590 0.000000 
#    z 0.019870 0.000000 1.752720 
# 
# From -- ./inp_files/174230.got.cif
#   From: 2010.06.25/outbox.cif.g09.slc.cpg/sg15_88_cif.got.tgz:174230.got - 2010.06.28 07:06:18.
