data_PCOD8137888
_publ_section_title
;
Structure prediction by ZEFSAII (Michael W. Deem and Ramdas Pophale) SiO2 
 PCOD8137888
Probable space group: C 2/C
;
_chemical_formula_sum "Si O2"
_cell_formula_units_Z 56
_cell_length_a 27.117662
_cell_length_b 18.310711
_cell_length_c 9.897285
_cell_angle_alpha 90.000000
_cell_angle_beta 34.712687
_cell_angle_gamma 90.000000
_cell_volume 2798.581370
_symmetry_space_group_name_H-M "C 2/C"
_symmetry_group_IT_number 15
_symmetry_cell_setting 'monoclinic'
loop_
_space_group_symop_operation_xyz
x,y,z
-x,y,1/2-z
-x,-y,-z
x,-y,1/2+z
1/2+x,1/2+y,z
1/2-x,1/2+y,1/2-z
1/2-x,1/2-y,-z
1/2+x,1/2-y,1/2+z
loop_
_atom_site_type_symbol
_atom_site_label
_atom_site_fract_x
_atom_site_fract_y
_atom_site_fract_z
Si Si1 0.824274 0.915453 0.887275
Si Si2 0.477650 0.069054 0.143204
Si Si3 0.509671 0.339907 0.877794
Si Si4 0.160622 0.916499 0.165222
Si Si5 0.548887 0.828117 0.270851
Si Si6 0.271007 0.105246 0.163915
Si Si7 0.787452 0.436660 0.116952
O O1 0.901830 0.864868 0.756345
O O2 0.797036 0.884781 0.803696
O O3 0.859551 0.998317 0.813717
O O4 0.739387 0.909444 0.173862
O O5 0.500000 0.054854 0.250000
O O6 0.377882 0.095683 0.362086
O O7 0.530193 0.134465 0.956830
O O8 0.500000 0.000000 0.000000
O O9 0.500000 0.372886 0.750000
O O10 0.513227 0.253103 0.866497
O O11 0.427114 0.369827 0.145265
O O12 0.209620 0.910099 0.197159
O O13 0.221539 0.881839 0.914596
O O14 0.500000 0.863648 0.250000
O O15 0.651915 0.835563 0.015042
O O16 0.306935 0.023134 0.073101
#
# Coordination Sequence:
#
# PCOD8137888 Si02
#       7
#     8   8   8   8   8   8   8
#     4  10  21  39  65  91 123 162 212 273 318 368
#     4  12  24  39  66  96 128 163 209 264 313 381
#     4  11  23  43  61  89 127 174 213 255 321 382
#     4  10  21  39  65  93 121 159 218 267 315 377
#     4  11  24  43  62  88 131 173 207 254 319 388
#     4  10  21  37  61  94 119 156 204 267 322 365
#     4  10  20  36  65  91 120 157 209 258 315 371
#
# _framework density 20.010138999999999
#
# number of rings (size 3 to 8) (size 9 to 14) (size 15 to 20)
#    0.000    1.429    2.857    2.571    4.000    1.143 
#    5.143    2.143    0.000    0.000    0.000    0.000 
#    0.000    0.000    0.000    0.000    0.000    0.000 
#
# Total GULP energy -347171.731297 kJ/mol
# GULP energy per Si atom -12398.990403 kJ/mol
# Density = 1.996460 g / cm^3
# Si number density = 20.010139 Si / 1000 Ang^3
#
#
#
# Elastic Constant Matrix: (Units=GPa)
#
#
# Indices 1 2 3 4 5 6 
#
# 1 72.7989 23.7312 33.7180 0.0000 6.4833 0.0000
# 2 23.7312 58.0033 40.6442 0.0000 -0.7978 0.0000
# 3 33.7180 40.6442 115.3721 0.0000 -1.5172 0.0000
# 4 0.0000 0.0000 0.0000 8.9251 0.0000 2.4810
# 5 6.4833 -0.7978 -1.5172 0.0000 41.3461 0.0000
# 6 0.0000 0.0000 0.0000 2.4810 0.0000 20.4951
#
#
#
# Elastic Compliance Matrix: (Units=1/GPa)
#
#
# Indices 1 2 3 4 5 6 
#
# 1 0.017081 -0.004652 -0.003391 0.000000 -0.002893 0.000000
# 2 -0.004652 0.024159 -0.007139 0.000000 0.000934 0.000000
# 3 -0.003391 -0.007139 0.012185 0.000000 0.000841 0.000000
# 4 0.000000 0.000000 0.000000 0.115945 0.000000 -0.014035
# 5 -0.002893 0.000934 0.000841 0.000000 0.024689 0.000000
# 6 0.000000 0.000000 0.000000 -0.014035 0.000000 0.050491
#
#
# Mechanical properties :
#
#
# Convention : Reuss Voigt Hill
#
# Bulk Modulus (GPa) = 43.36437 49.15121 46.25779
# Shear Modulus (GPa) = 17.69280 24.02534 20.85907
#
# Velocity S-wave (km/s) = 2.97676 3.46881 3.23216
# Velocity P-wave (km/s) = 5.79077 6.37652 6.09069
#
# Compressibility (1/GPa) = 0.02306040
#
# Stress axis : x y z
#
# Youngs Moduli (GPa) = 58.54366 41.39233 82.06942
#
# Poissons Ratio (x) = 0.19256 0.27832
# Poissons Ratio (y) = 0.27234 0.58590
# Poissons Ratio (z) = 0.19854 0.29550
#
# Static dielectric constant tensor:
#      x y z
#    x 3.812080 0.000000 0.234760 
#    y 0.000000 3.356790 0.000000 
#    z 0.234760 0.000000 3.929930 
# 
# 
# High freq. dielectric constant tensor:
#      x y z
#    x 1.790540 0.000000 0.003190 
#    y 0.000000 1.751020 0.000000 
#    z 0.003190 0.000000 1.796140 
# 
# From -- ./inp_files/67135.got.cif
#   From: 2010.06.25/outbox.cif.g09.slc.cpg/sg15_34_cif.got.tgz:67135.got - 2010.06.28 07:06:18.
