data_PCOD8137151
_publ_section_title
;
Structure prediction by ZEFSAII (Michael W. Deem and Ramdas Pophale) SiO2 
 PCOD8137151
Probable space group: C 2/C
;
_chemical_formula_sum "Si O2"
_cell_formula_units_Z 48
_cell_length_a 19.927047
_cell_length_b 18.171769
_cell_length_c 11.515131
_cell_angle_alpha 90.000000
_cell_angle_beta 146.089822
_cell_angle_gamma 90.000000
_cell_volume 2326.267173
_symmetry_space_group_name_H-M "C 2/C"
_symmetry_group_IT_number 15
_symmetry_cell_setting 'monoclinic'
loop_
_space_group_symop_operation_xyz
x,y,z
-x,y,1/2-z
-x,-y,-z
x,-y,1/2+z
1/2+x,1/2+y,z
1/2-x,1/2+y,1/2-z
1/2-x,1/2-y,-z
1/2+x,1/2-y,1/2+z
loop_
_atom_site_type_symbol
_atom_site_label
_atom_site_fract_x
_atom_site_fract_y
_atom_site_fract_z
Si Si1 0.459991 0.194497 0.025603
Si Si2 0.912382 0.740325 0.523737
Si Si3 0.712517 0.166082 0.457280
Si Si4 0.724329 0.382924 0.206068
Si Si5 0.681751 0.334186 0.622496
Si Si6 0.934806 0.981044 0.028702
O O1 0.516478 0.231820 0.993766
O O2 0.358893 0.132820 0.848983
O O3 0.395384 0.259186 0.007693
O O4 0.567483 0.157511 0.253998
O O5 0.871298 0.824620 0.483023
O O6 0.796652 0.687168 0.365812
O O7 0.000000 0.714928 0.750000
O O8 0.750000 0.250000 0.500000
O O9 0.772257 0.126498 0.650789
O O10 0.770596 0.128949 0.427998
O O11 0.678994 0.464767 0.114365
O O12 0.604198 0.399024 0.565495
O O13 0.000000 0.981297 0.250000
O O14 0.000000 0.000000 0.000000
#
# Coordination Sequence:
#
# PCOD8137151 Si02
#       6
#     8   8   8   8   8   8
#     4  10  20  35  62  89 112 151 205 267 303 358
#     4  10  21  37  56  83 117 154 199 252 311 364
#     4  11  19  36  64  94 120 150 213 269 311 359
#     4  11  22  36  58  91 122 156 204 254 315 375
#     4  10  23  37  61  89 118 158 208 257 312 371
#     4  12  27  43  63  89 130 172 209 259 322 384
#
# _framework density 20.633915999999999
#
# number of rings (size 3 to 8) (size 9 to 14) (size 15 to 20)
#    0.000    1.333    5.000    3.000    2.333    4.000 
#    0.000    5.000    0.000    0.000    0.000    0.000 
#    0.000    0.000    0.000    0.000    0.000    0.000 
#
# Total GULP energy -297374.591960 kJ/mol
# GULP energy per Si atom -12390.607998 kJ/mol
# Density = 2.058695 g / cm^3
# Si number density = 20.633916 Si / 1000 Ang^3
#
#
#
# Elastic Constant Matrix: (Units=GPa)
#
#
# Indices 1 2 3 4 5 6 
#
# 1 72.8187 5.6816 32.2333 0.0000 10.0184 0.0000
# 2 5.6816 78.7792 36.6947 0.0000 7.7612 0.0000
# 3 32.2333 36.6947 127.9022 0.0000 -1.4362 0.0000
# 4 0.0000 0.0000 0.0000 24.6776 0.0000 8.9092
# 5 10.0184 7.7612 -1.4362 0.0000 38.4510 0.0000
# 6 0.0000 0.0000 0.0000 8.9092 0.0000 27.1240
#
#
#
# Elastic Compliance Matrix: (Units=1/GPa)
#
#
# Indices 1 2 3 4 5 6 
#
# 1 0.016289 0.001414 -0.004564 0.000000 -0.004700 0.000000
# 2 0.001414 0.015157 -0.004745 0.000000 -0.003605 0.000000
# 3 -0.004564 -0.004745 0.010358 0.000000 0.002534 0.000000
# 4 0.000000 0.000000 0.000000 0.045974 0.000000 -0.015101
# 5 -0.004700 -0.003605 0.002534 0.000000 0.028054 0.000000
# 6 0.000000 0.000000 0.000000 -0.015101 0.000000 0.041828
#
#
# Mechanical properties :
#
#
# Convention : Reuss Voigt Hill
#
# Bulk Modulus (GPa) = 38.43966 47.63551 43.03758
# Shear Modulus (GPa) = 27.45406 31.70987 29.58197
#
# Velocity S-wave (km/s) = 3.65160 3.92444 3.79047
# Velocity P-wave (km/s) = 6.03728 6.60841 6.32929
#
# Compressibility (1/GPa) = 0.02601480
#
# Stress axis : x y z
#
# Youngs Moduli (GPa) = 61.39078 65.97500 96.53971
#
# Poissons Ratio (x) = -0.09328 0.44056
# Poissons Ratio (y) = -0.08680 0.45812
# Poissons Ratio (z) = 0.28016 0.31308
#
# Static dielectric constant tensor:
#      x y z
#    x 3.070690 0.000000 0.903650 
#    y 0.000000 3.476940 0.000000 
#    z 0.903650 0.000000 3.635560 
# 
# 
# High freq. dielectric constant tensor:
#      x y z
#    x 1.818920 0.000000 0.011170 
#    y 0.000000 1.774750 0.000000 
#    z 0.011170 0.000000 1.816810 
# 
# From -- ./inp_files/114307.got.cif
#   From: 2010.06.25/outbox.cif.g09.slc.cpg/sg15_58_cif.got.tgz:114307.got - 2010.06.28 07:06:18.
