data_PCOD8137236
_publ_section_title
;
Structure prediction by ZEFSAII (Michael W. Deem and Ramdas Pophale) SiO2 
 PCOD8137236
Probable space group: C 2/C
;
_chemical_formula_sum "Si O2"
_cell_formula_units_Z 56
_cell_length_a 31.340279
_cell_length_b 13.513254
_cell_length_c 8.259338
_cell_angle_alpha 90.000000
_cell_angle_beta 128.187746
_cell_angle_gamma 90.000000
_cell_volume 2749.315502
_symmetry_space_group_name_H-M "C 2/C"
_symmetry_group_IT_number 15
_symmetry_cell_setting 'monoclinic'
loop_
_space_group_symop_operation_xyz
x,y,z
-x,y,1/2-z
-x,-y,-z
x,-y,1/2+z
1/2+x,1/2+y,z
1/2-x,1/2+y,1/2-z
1/2-x,1/2-y,-z
1/2+x,1/2-y,1/2+z
loop_
_atom_site_type_symbol
_atom_site_label
_atom_site_fract_x
_atom_site_fract_y
_atom_site_fract_z
Si Si1 0.772928 0.715270 0.226509
Si Si2 0.570868 0.564512 0.746311
Si Si3 0.296289 0.146542 0.729384
Si Si4 0.646214 0.465853 0.695156
Si Si5 0.259934 0.019025 0.346374
Si Si6 0.975688 0.847349 0.857329
Si Si7 0.637644 0.272155 0.841337
O O1 0.740955 0.760856 0.306343
O O2 0.764007 0.597302 0.207695
O O3 0.835752 0.738863 0.422536
O O4 0.750000 0.750000 0.000000
O O5 0.613085 0.556998 0.695426
O O6 0.545677 0.457525 0.725045
O O7 0.524021 0.645560 0.604040
O O8 0.605289 0.596235 0.982906
O O9 0.273115 0.071295 0.544243
O O10 0.350236 0.194107 0.777183
O O11 0.298968 0.075603 0.897000
O O12 0.696645 0.513434 0.715695
O O13 0.662620 0.381565 0.863832
O O14 0.927519 0.774785 0.798919
O O15 0.000000 0.802948 0.750000
#
# Coordination Sequence:
#
# PCOD8137236 Si02
#       7
#     8   8   8   8   8   8   8
#     4  11  22  39  57  87 119 154 206 245 295 369
#     4  10  21  31  54  80 121 157 209 232 288 372
#     4  11  21  40  56  87 116 156 203 241 302 357
#     4  11  19  35  54  85 118 170 191 241 296 352
#     4  11  21  35  60  82 122 163 192 249 297 354
#     4  10  20  36  53  82 119 165 201 251 298 351
#     4  10  22  38  56  77 124 155 198 255 293 350
#
# _framework density 20.368707000000001
#
# number of rings (size 3 to 8) (size 9 to 14) (size 15 to 20)
#    0.000    1.429    4.286    2.571    2.000    1.143 
#    0.000    0.000    0.000    0.000    0.000    4.000 
#    0.000    0.143    0.000    0.000    0.000    0.000 
#
# Total GULP energy -346872.366186 kJ/mol
# GULP energy per Si atom -12388.298792 kJ/mol
# Density = 2.032235 g / cm^3
# Si number density = 20.368707 Si / 1000 Ang^3
#
#
#
# Elastic Constant Matrix: (Units=GPa)
#
#
# Indices 1 2 3 4 5 6 
#
# 1 123.2201 43.9389 35.8933 0.0000 16.6753 0.0000
# 2 43.9389 67.5781 9.6673 0.0000 12.3235 0.0000
# 3 35.8933 9.6673 78.5721 0.0000 5.1216 0.0000
# 4 0.0000 0.0000 0.0000 23.7511 0.0000 -0.7419
# 5 16.6753 12.3235 5.1216 0.0000 25.9256 0.0000
# 6 0.0000 0.0000 0.0000 -0.7419 0.0000 41.2824
#
#
#
# Elastic Compliance Matrix: (Units=1/GPa)
#
#
# Indices 1 2 3 4 5 6 
#
# 1 0.012348 -0.006670 -0.004568 0.000000 -0.003870 0.000000
# 2 -0.006670 0.019984 0.000940 0.000000 -0.005395 0.000000
# 3 -0.004568 0.000940 0.014726 0.000000 -0.000418 0.000000
# 4 0.000000 0.000000 0.000000 0.042127 0.000000 0.000757
# 5 -0.003870 -0.005395 -0.000418 0.000000 0.043708 0.000000
# 6 0.000000 0.000000 0.000000 0.000757 0.000000 0.024237
#
#
# Mechanical properties :
#
#
# Convention : Reuss Voigt Hill
#
# Bulk Modulus (GPa) = 37.79078 49.81881 43.80479
# Shear Modulus (GPa) = 26.80314 30.18320 28.49317
#
# Velocity S-wave (km/s) = 3.63147 3.85365 3.74420
# Velocity P-wave (km/s) = 6.01473 6.65675 6.34387
#
# Compressibility (1/GPa) = 0.02646148
#
# Stress axis : x y z
#
# Youngs Moduli (GPa) = 80.98367 50.04105 67.90926
#
# Poissons Ratio (x) = 0.33375 0.31021
# Poissons Ratio (y) = 0.54013 -0.06382
# Poissons Ratio (z) = 0.36994 -0.04702
#
# Static dielectric constant tensor:
#      x y z
#    x 3.950340 0.000000 -0.057140 
#    y 0.000000 3.644630 0.000000 
#    z -0.057140 0.000000 3.740030 
# 
# 
# High freq. dielectric constant tensor:
#      x y z
#    x 1.798830 0.000000 -0.021840 
#    y 0.000000 1.754060 0.000000 
#    z -0.021840 0.000000 1.787870 
# 
# From -- ./inp_files/69979.got.cif
#   From: 2010.06.25/outbox.cif.g09.slc.cpg/sg15_35_cif.got.tgz:69979.got - 2010.06.28 07:06:18.
