data_PCOD8137937
_publ_section_title
;
Structure prediction by ZEFSAII (Michael W. Deem and Ramdas Pophale) SiO2 
 PCOD8137937
Probable space group: C 2/C
;
_chemical_formula_sum "Si O2"
_cell_formula_units_Z 60
_cell_length_a 24.739222
_cell_length_b 8.910261
_cell_length_c 25.535689
_cell_angle_alpha 90.000000
_cell_angle_beta 147.558896
_cell_angle_gamma 90.000000
_cell_volume 3019.527762
_symmetry_space_group_name_H-M "C 2/C"
_symmetry_group_IT_number 15
_symmetry_cell_setting 'monoclinic'
loop_
_space_group_symop_operation_xyz
x,y,z
-x,y,1/2-z
-x,-y,-z
x,-y,1/2+z
1/2+x,1/2+y,z
1/2-x,1/2+y,1/2-z
1/2-x,1/2-y,-z
1/2+x,1/2-y,1/2+z
loop_
_atom_site_type_symbol
_atom_site_label
_atom_site_fract_x
_atom_site_fract_y
_atom_site_fract_z
Si Si1 0.500000 0.514471 0.750000
Si Si2 0.435843 0.764759 0.773684
Si Si3 0.289941 0.413918 0.536782
Si Si4 0.058155 0.636055 0.522032
Si Si5 0.372835 0.309354 0.332559
Si Si6 0.696150 0.383715 0.671259
Si Si7 0.367340 0.108085 0.025965
Si Si8 0.238861 0.097098 0.085128
O O1 0.480045 0.620500 0.782338
O O2 0.401670 0.416023 0.654198
O O3 0.374217 0.689900 0.770947
O O4 0.521468 0.887681 0.857329
O O5 0.355737 0.856272 0.673225
O O6 0.250000 0.250000 0.500000
O O7 0.211376 0.505076 0.508298
O O8 0.287912 0.458994 0.473987
O O9 0.128573 0.731350 0.618810
O O10 0.121317 0.562001 0.525883
O O11 0.000000 0.500000 0.500000
O O12 0.982733 0.765655 0.441557
O O13 0.347036 0.474343 0.332993
O O14 0.295361 0.173958 0.283498
O O15 0.713527 0.436351 0.625295
O O16 0.329413 0.276606 0.996316
#
# Coordination Sequence:
#
# PCOD8137937 Si02
#       8
#     4   8   8   8   8   8   8   8
#     4  12  22  42  66  86 118 160 200 256 306 364
#     4  10  20  36  68  88 114 161 219 249 294 371
#     4  12  26  41  61  96 128 155 202 260 324 365
#     4  10  21  37  60  88 122 163 210 252 308 362
#     4  10  21  38  57  93 121 160 212 253 305 366
#     4  10  21  38  62  87 127 162 208 260 304 369
#     4  10  20  39  62  87 118 161 211 252 292 379
#     4  10  20  39  63  89 117 165 212 250 300 371
#
# _framework density 19.870657000000001
#
# number of rings (size 3 to 8) (size 9 to 14) (size 15 to 20)
#    0.000    1.600    2.667    2.400    0.000    2.133 
#    4.800    0.000    0.000    0.000    0.000    0.000 
#    0.000    0.000    0.000    0.000    0.000    0.000 
#
# Total GULP energy -371766.388133 kJ/mol
# GULP energy per Si atom -12392.212938 kJ/mol
# Density = 1.982543 g / cm^3
# Si number density = 19.870657 Si / 1000 Ang^3
#
#
#
# Elastic Constant Matrix: (Units=GPa)
#
#
# Indices 1 2 3 4 5 6 
#
# 1 86.8492 51.6696 28.2305 0.0000 6.8470 0.0000
# 2 51.6696 87.2046 18.7373 0.0000 -1.0037 0.0001
# 3 28.2305 18.7373 102.9896 0.0000 8.8666 0.0000
# 4 0.0000 0.0000 0.0000 26.8078 0.0000 12.3079
# 5 6.8470 -1.0037 8.8666 0.0000 25.7552 0.0000
# 6 0.0000 0.0001 0.0000 12.3079 0.0000 52.1726
#
#
#
# Elastic Compliance Matrix: (Units=1/GPa)
#
#
# Indices 1 2 3 4 5 6 
#
# 1 0.019273 -0.010844 -0.002919 0.000000 -0.004541 0.000000
# 2 -0.010844 0.018075 -0.000644 0.000000 0.003809 0.000000
# 3 -0.002919 -0.000644 0.010885 0.000000 -0.002996 0.000000
# 4 0.000000 0.000000 0.000000 0.041834 0.000000 -0.009869
# 5 -0.004541 0.003809 -0.002996 0.000000 0.041215 0.000000
# 6 0.000000 0.000000 0.000000 -0.009869 0.000000 0.021495
#
#
# Mechanical properties :
#
#
# Convention : Reuss Voigt Hill
#
# Bulk Modulus (GPa) = 51.49777 52.70203 52.09990
# Shear Modulus (GPa) = 26.58684 32.84083 29.71384
#
# Velocity S-wave (km/s) = 3.66183 4.06979 3.87119
# Velocity P-wave (km/s) = 6.62204 6.97598 6.80132
#
# Compressibility (1/GPa) = 0.01941832
#
# Stress axis : x y z
#
# Youngs Moduli (GPa) = 51.88668 55.32539 91.87019
#
# Poissons Ratio (x) = 0.59997 0.26816
# Poissons Ratio (y) = 0.56268 0.05915
# Poissons Ratio (z) = 0.15145 0.03562
#
# Static dielectric constant tensor:
#      x y z
#    x 3.649380 0.000000 0.050900 
#    y 0.000000 3.134970 0.000000 
#    z 0.050900 0.000000 4.076930 
# 
# 
# High freq. dielectric constant tensor:
#      x y z
#    x 1.776930 0.000000 0.008770 
#    y 0.000000 1.749440 0.000000 
#    z 0.008770 0.000000 1.799280 
# 
# From -- ./inp_files/302090.got.cif
#   From: 2010.06.25/outbox.cif.g09.slc.cpg/sg15_152_cif.got.tgz:302090.got - 2010.06.28 07:06:18.
