data_PCOD8137076
_publ_section_title
;
Structure prediction by ZEFSAII (Michael W. Deem and Ramdas Pophale) SiO2 
 PCOD8137076
Probable space group: C 2/C
;
_chemical_formula_sum "Si O2"
_cell_formula_units_Z 56
_cell_length_a 20.316103
_cell_length_b 19.361927
_cell_length_c 15.824408
_cell_angle_alpha 90.000000
_cell_angle_beta 154.566137
_cell_angle_gamma 90.000000
_cell_volume 2673.303242
_symmetry_space_group_name_H-M "C 2/C"
_symmetry_group_IT_number 15
_symmetry_cell_setting 'monoclinic'
loop_
_space_group_symop_operation_xyz
x,y,z
-x,y,1/2-z
-x,-y,-z
x,-y,1/2+z
1/2+x,1/2+y,z
1/2-x,1/2+y,1/2-z
1/2-x,1/2-y,-z
1/2+x,1/2-y,1/2+z
loop_
_atom_site_type_symbol
_atom_site_label
_atom_site_fract_x
_atom_site_fract_y
_atom_site_fract_z
Si Si1 0.664457 0.238465 0.703181
Si Si2 0.173356 0.082342 0.768593
Si Si3 0.148553 0.664800 0.194829
Si Si4 0.952107 0.014821 0.102255
Si Si5 0.670740 0.984852 0.675910
Si Si6 0.669160 0.176477 0.410854
Si Si7 0.449829 0.341275 0.532657
O O1 0.734496 0.276101 0.701071
O O2 0.529379 0.186890 0.518743
O O3 0.596886 0.291944 0.693176
O O4 0.806105 0.197542 0.911393
O O5 0.115427 0.138801 0.635228
O O6 0.291332 0.027277 0.865121
O O7 0.244217 0.121383 0.930362
O O8 0.026162 0.037924 0.622659
O O9 0.186119 0.597649 0.181383
O O10 0.174191 0.645536 0.322342
O O11 0.000000 0.990391 0.250000
O O12 0.007806 0.093510 0.153329
O O13 0.772045 0.011697 0.872743
O O14 0.500000 0.000000 0.500000
O O15 0.500000 0.187646 0.250000
O O16 0.750000 0.250000 0.500000
#
# Coordination Sequence:
#
# PCOD8137076 Si02
#       7
#     8   8   8   8   8   8   8
#     4  10  20  35  60  84 112 151 196 240 293 360
#     4  11  23  38  58  85 119 158 199 240 293 364
#     4  11  20  35  56  84 116 153 193 242 297 353
#     4  11  23  40  61  86 118 158 200 246 299 356
#     4  11  22  39  63  87 116 158 205 252 298 358
#     4  12  24  37  55  87 127 161 195 243 303 368
#     4  10  20  38  58  83 111 147 193 241 292 353
#
# _framework density 20.947866999999999
#
# number of rings (size 3 to 8) (size 9 to 14) (size 15 to 20)
#    0.000    1.143    0.000   10.286    0.000    1.714 
#    0.000    0.714    0.000    0.000    0.000    0.000 
#    0.000    0.000    0.000    0.000    0.000    0.000 
#
# Total GULP energy -347196.927952 kJ/mol
# GULP energy per Si atom -12399.890284 kJ/mol
# Density = 2.090019 g / cm^3
# Si number density = 20.947867 Si / 1000 Ang^3
#
#
#
# Elastic Constant Matrix: (Units=GPa)
#
#
# Indices 1 2 3 4 5 6 
#
# 1 62.4005 32.0954 35.9734 0.0000 14.4261 0.0000
# 2 32.0954 129.1368 29.1729 0.0000 9.7719 0.0000
# 3 35.9734 29.1729 86.6386 0.0000 20.7954 0.0000
# 4 0.0000 0.0000 0.0000 31.4796 0.0000 1.1412
# 5 14.4261 9.7719 20.7954 0.0000 29.4971 0.0000
# 6 0.0000 0.0000 0.0000 1.1412 0.0000 37.2822
#
#
#
# Elastic Compliance Matrix: (Units=1/GPa)
#
#
# Indices 1 2 3 4 5 6 
#
# 1 0.023280 -0.003781 -0.007175 0.000000 -0.005075 0.000000
# 2 -0.003781 0.009017 -0.001436 0.000000 -0.000126 0.000000
# 3 -0.007175 -0.001436 0.016910 0.000000 -0.007937 0.000000
# 4 0.000000 0.000000 0.000000 0.031802 0.000000 -0.000973
# 5 -0.005075 -0.000126 -0.007937 0.000000 0.042020 0.000000
# 6 0.000000 0.000000 0.000000 -0.000973 0.000000 0.026852
#
#
# Mechanical properties :
#
#
# Convention : Reuss Voigt Hill
#
# Bulk Modulus (GPa) = 40.94552 52.51768 46.73160
# Shear Modulus (GPa) = 27.35129 31.71406 29.53268
#
# Velocity S-wave (km/s) = 3.61735 3.89517 3.75883
# Velocity P-wave (km/s) = 6.08570 6.73461 6.41836
#
# Compressibility (1/GPa) = 0.02442270
#
# Stress axis : x y z
#
# Youngs Moduli (GPa) = 42.95592 110.89638 59.13696
#
# Poissons Ratio (x) = 0.41930 0.42430
# Poissons Ratio (y) = 0.16242 0.08494
# Poissons Ratio (z) = 0.30820 0.15928
#
# Static dielectric constant tensor:
#      x y z
#    x 3.676490 0.000000 0.279560 
#    y 0.000000 5.033040 0.000000 
#    z 0.279560 0.000000 3.703870 
# 
# 
# High freq. dielectric constant tensor:
#      x y z
#    x 1.804040 0.000000 0.028170 
#    y 0.000000 1.844190 0.000000 
#    z 0.028170 0.000000 1.812490 
# 
# From -- ./inp_files/163836.got.cif
#   From: 2010.06.25/outbox.cif.g09.slc.cpg/sg15_82_cif.got.tgz:163836.got - 2010.06.28 07:06:18.
