data_PCOD8137756
_publ_section_title
;
Structure prediction by ZEFSAII (Michael W. Deem and Ramdas Pophale) SiO2 
 PCOD8137756
Probable space group: C 2/C
;
_chemical_formula_sum "Si O2"
_cell_formula_units_Z 52
_cell_length_a 11.921680
_cell_length_b 16.020555
_cell_length_c 28.153357
_cell_angle_alpha 90.000000
_cell_angle_beta 152.263385
_cell_angle_gamma 90.000000
_cell_volume 2502.527328
_symmetry_space_group_name_H-M "C 2/C"
_symmetry_group_IT_number 15
_symmetry_cell_setting 'monoclinic'
loop_
_space_group_symop_operation_xyz
x,y,z
-x,y,1/2-z
-x,-y,-z
x,-y,1/2+z
1/2+x,1/2+y,z
1/2-x,1/2+y,1/2-z
1/2-x,1/2-y,-z
1/2+x,1/2-y,1/2+z
loop_
_atom_site_type_symbol
_atom_site_label
_atom_site_fract_x
_atom_site_fract_y
_atom_site_fract_z
Si Si1 0.000000 0.106341 0.250000
Si Si2 0.194856 0.899818 0.467510
Si Si3 0.445811 0.804006 0.959208
Si Si4 0.261701 0.365535 0.366821
Si Si5 0.579131 0.021666 0.875684
Si Si6 0.211294 0.344589 0.501069
Si Si7 0.437470 0.463856 0.824608
O O1 0.779912 0.163450 0.154168
O O2 0.911503 0.047855 0.259040
O O3 0.325037 0.823681 0.488879
O O4 0.926400 0.875624 0.382238
O O5 0.329547 0.936969 0.564633
O O6 0.159927 0.972843 0.416028
O O7 0.398461 0.705677 0.948854
O O8 0.461155 0.846517 0.016758
O O9 0.245120 0.449018 0.393343
O O10 0.000000 0.337373 0.250000
O O11 0.574420 0.100395 0.910138
O O12 0.319903 0.000312 0.755132
O O13 0.250000 0.250000 0.500000
O O14 0.478485 0.380897 0.614889
#
# Coordination Sequence:
#
# PCOD8137756 Si02
#       7
#     4   8   8   8   8   8   8
#     4  10  20  36  62  90 124 158 206 266 330 364
#     4  11  24  40  63  95 125 168 221 268 316 398
#     4  11  22  39  63  94 124 167 215 269 325 387
#     4  12  23  40  63  89 129 175 214 258 332 395
#     4  11  22  42  64  90 130 168 214 273 321 395
#     4  10  22  40  64  94 130 172 213 266 346 392
#     4  10  22  37  64  95 124 167 217 268 325 393
#
# _framework density 20.778994000000001
#
# number of rings (size 3 to 8) (size 9 to 14) (size 15 to 20)
#    0.000    1.231    5.385    0.923    2.154    1.846 
#    0.000    0.000    0.000    0.000    0.000    0.000 
#    0.000    0.000    0.000    0.000    0.000    0.000 
#
# Total GULP energy -322217.196999 kJ/mol
# GULP energy per Si atom -12392.969115 kJ/mol
# Density = 2.073170 g / cm^3
# Si number density = 20.778994 Si / 1000 Ang^3
#
#
#
# Elastic Constant Matrix: (Units=GPa)
#
#
# Indices 1 2 3 4 5 6 
#
# 1 125.4203 34.8854 35.0378 -0.0001 16.4141 0.0000
# 2 34.8854 81.9101 32.5920 0.0003 10.6849 0.0000
# 3 35.0378 32.5920 79.2062 0.0028 8.8178 0.0004
# 4 -0.0001 0.0003 0.0028 27.6963 -0.0002 -2.9013
# 5 16.4141 10.6849 8.8178 -0.0002 32.7471 -0.0004
# 6 0.0000 0.0000 0.0004 -2.9013 -0.0004 34.6294
#
#
#
# Elastic Compliance Matrix: (Units=1/GPa)
#
#
# Indices 1 2 3 4 5 6 
#
# 1 0.009968 -0.002634 -0.002954 0.000000 -0.003342 0.000000
# 2 -0.002634 0.015637 -0.004998 0.000000 -0.002436 0.000000
# 3 -0.002954 -0.004998 0.016125 -0.000002 -0.001231 0.000000
# 4 0.000000 0.000000 -0.000002 0.036426 0.000000 0.003052
# 5 -0.003342 -0.002436 -0.001231 0.000000 0.033338 0.000000
# 6 0.000000 0.000000 0.000000 0.003052 0.000000 0.029133
#
#
# Mechanical properties :
#
#
# Convention : Reuss Voigt Hill
#
# Bulk Modulus (GPa) = 48.64029 54.61857 51.62943
# Shear Modulus (GPa) = 29.64687 31.28266 30.46476
#
# Velocity S-wave (km/s) = 3.78136 3.88428 3.83317
# Velocity P-wave (km/s) = 6.52105 6.81611 6.67021
#
# Compressibility (1/GPa) = 0.02055909
#
# Stress axis : x y z
#
# Youngs Moduli (GPa) = 100.31698 63.95157 62.01407
#
# Poissons Ratio (x) = 0.16847 0.18317
# Poissons Ratio (y) = 0.26427 0.30993
# Poissons Ratio (z) = 0.29630 0.31961
#
# Static dielectric constant tensor:
#      x y z
#    x 3.770930 0.000000 -0.102810 
#    y 0.000000 3.864480 0.000000 
#    z -0.102810 0.000000 3.686060 
# 
# 
# High freq. dielectric constant tensor:
#      x y z
#    x 1.811790 0.000000 -0.010230 
#    y 0.000000 1.811740 0.000000 
#    z -0.010230 0.000000 1.806760 
# 
# From -- ./inp_files/182817.got.cif
#   From: 2010.06.25/outbox.cif.g09.slc.cpg/sg15_92_cif.got.tgz:182817.got - 2010.06.28 07:06:18.
