data_PCOD8137211
_publ_section_title
;
Structure prediction by ZEFSAII (Michael W. Deem and Ramdas Pophale) SiO2 
 PCOD8137211
Probable space group: C 2/C
;
_chemical_formula_sum "Si O2"
_cell_formula_units_Z 52
_cell_length_a 10.939234
_cell_length_b 28.236325
_cell_length_c 8.137361
_cell_angle_alpha 90.000000
_cell_angle_beta 75.341877
_cell_angle_gamma 90.000000
_cell_volume 2431.691782
_symmetry_space_group_name_H-M "C 2/C"
_symmetry_group_IT_number 15
_symmetry_cell_setting 'monoclinic'
loop_
_space_group_symop_operation_xyz
x,y,z
-x,y,1/2-z
-x,-y,-z
x,-y,1/2+z
1/2+x,1/2+y,z
1/2-x,1/2+y,1/2-z
1/2-x,1/2-y,-z
1/2+x,1/2-y,1/2+z
loop_
_atom_site_type_symbol
_atom_site_label
_atom_site_fract_x
_atom_site_fract_y
_atom_site_fract_z
Si Si1 0.253269 0.143246 0.021081
Si Si2 0.658229 0.949716 0.519456
Si Si3 0.271997 0.146089 0.643612
Si Si4 0.500000 0.666821 0.250000
Si Si5 0.068573 0.207052 0.567451
Si Si6 0.863036 0.450580 0.593948
Si Si7 0.506329 0.814033 0.925787
O O1 0.219310 0.155907 0.844401
O O2 0.128583 0.137671 0.177688
O O3 0.315923 0.092125 0.997638
O O4 0.348673 0.184032 0.058970
O O5 0.742528 0.909102 0.402502
O O6 0.512482 0.949172 0.516861
O O7 0.677023 0.942622 0.705696
O O8 0.704730 0.001696 0.448112
O O9 0.206419 0.182646 0.536217
O O10 0.421424 0.157382 0.584587
O O11 0.508848 0.697901 0.410602
O O12 0.000000 0.183995 0.750000
O O13 0.058922 0.263329 0.582310
O O14 0.500000 0.840446 0.750000
#
# Coordination Sequence:
#
# PCOD8137211 Si02
#       7
#     8   8   8   4   8   8   8
#     4  12  25  41  69  97 137 176 230 271 343 398
#     4  10  20  35  66  96 138 167 213 272 340 389
#     4  12  23  42  68 100 134 176 219 283 335 407
#     4  12  26  46  70  90 134 188 222 280 332 402
#     4  11  25  46  65  95 134 177 228 276 335 405
#     4  10  20  37  61 102 132 173 211 272 333 402
#     4  11  24  42  66  99 129 172 221 281 338 400
#
# _framework density 21.38429
#
# number of rings (size 3 to 8) (size 9 to 14) (size 15 to 20)
#    0.000    0.923    3.077    4.615    2.154    3.077 
#    0.000    0.000    1.692    2.769    0.000    0.000 
#    0.000    0.000    0.000    0.000    0.000    0.000 
#
# Total GULP energy -322240.281292 kJ/mol
# GULP energy per Si atom -12393.856973 kJ/mol
# Density = 2.133562 g / cm^3
# Si number density = 21.384290 Si / 1000 Ang^3
#
#
#
# Elastic Constant Matrix: (Units=GPa)
#
#
# Indices 1 2 3 4 5 6 
#
# 1 77.3734 38.7012 25.4774 0.0000 3.0247 0.0000
# 2 38.7012 120.3113 25.2490 0.0000 4.6342 0.0000
# 3 25.4774 25.2490 116.3923 0.0000 4.7051 0.0000
# 4 0.0000 0.0000 0.0000 29.7896 0.0000 4.1327
# 5 3.0247 4.6342 4.7051 0.0000 37.6293 0.0000
# 6 0.0000 0.0000 0.0000 4.1327 0.0000 17.0972
#
#
#
# Elastic Compliance Matrix: (Units=1/GPa)
#
#
# Indices 1 2 3 4 5 6 
#
# 1 0.016080 -0.004632 -0.002498 0.000000 -0.000410 0.000000
# 2 -0.004632 0.010069 -0.001141 0.000000 -0.000725 0.000000
# 3 -0.002498 -0.001141 0.009420 0.000000 -0.000836 0.000000
# 4 0.000000 0.000000 0.000000 0.034734 0.000000 -0.008396
# 5 -0.000410 -0.000725 -0.000836 0.000000 0.026802 0.000000
# 6 0.000000 0.000000 0.000000 -0.008396 0.000000 0.060519
#
#
# Mechanical properties :
#
#
# Convention : Reuss Voigt Hill
#
# Bulk Modulus (GPa) = 52.56077 54.77025 53.66551
# Shear Modulus (GPa) = 27.69949 31.87983 29.78966
#
# Velocity S-wave (km/s) = 3.60296 3.86528 3.73643
# Velocity P-wave (km/s) = 6.47618 6.75193 6.61549
#
# Compressibility (1/GPa) = 0.01902560
#
# Stress axis : x y z
#
# Youngs Moduli (GPa) = 62.18861 99.31160 106.15904
#
# Poissons Ratio (x) = 0.46006 0.26522
# Poissons Ratio (y) = 0.28809 0.12113
# Poissons Ratio (z) = 0.15537 0.11332
#
# Static dielectric constant tensor:
#      x y z
#    x 3.676870 0.000000 0.023640 
#    y 0.000000 3.832470 0.000000 
#    z 0.023640 0.000000 3.940850 
# 
# 
# High freq. dielectric constant tensor:
#      x y z
#    x 1.814640 0.000000 0.009170 
#    y 0.000000 1.834400 0.000000 
#    z 0.009170 0.000000 1.854650 
# 
# From -- ./inp_files/33493.got.cif
#   From: 2010.06.25/outbox.cif.g09.slc.cpg/sg15_17_cif.got.tgz:33493.got - 2010.06.28 07:06:18.
