data_PCOD8137525
_publ_section_title
;
Structure prediction by ZEFSAII (Michael W. Deem and Ramdas Pophale) SiO2 
 PCOD8137525
Probable space group: C 2/C
;
_chemical_formula_sum "Si O2"
_cell_formula_units_Z 60
_cell_length_a 14.551532
_cell_length_b 8.481061
_cell_length_c 24.042446
_cell_angle_alpha 90.000000
_cell_angle_beta 102.091522
_cell_angle_gamma 90.000000
_cell_volume 2901.308523
_symmetry_space_group_name_H-M "C 2/C"
_symmetry_group_IT_number 15
_symmetry_cell_setting 'monoclinic'
loop_
_space_group_symop_operation_xyz
x,y,z
-x,y,1/2-z
-x,-y,-z
x,-y,1/2+z
1/2+x,1/2+y,z
1/2-x,1/2+y,1/2-z
1/2-x,1/2-y,-z
1/2+x,1/2-y,1/2+z
loop_
_atom_site_type_symbol
_atom_site_label
_atom_site_fract_x
_atom_site_fract_y
_atom_site_fract_z
Si Si1 0.650110 0.942535 0.765169
Si Si2 0.212279 0.080586 0.927254
Si Si3 0.218242 0.451450 0.942535
Si Si4 0.532946 0.533162 0.351658
Si Si5 0.834257 0.925094 0.859010
Si Si6 0.557063 0.902131 0.358809
Si Si7 0.500000 0.686170 0.750000
Si Si8 0.644755 0.927656 0.147123
O O1 0.752166 0.907311 0.803134
O O2 0.588522 0.790348 0.738836
O O3 0.587598 0.029060 0.803422
O O4 0.676389 0.048663 0.714952
O O5 0.200449 0.269003 0.924177
O O6 0.278625 0.003884 0.886985
O O7 0.107604 0.012287 0.908664
O O8 0.255524 0.022237 0.990590
O O9 0.300924 0.508708 0.911783
O O10 0.129637 0.561580 0.917446
O O11 0.426464 0.479675 0.352551
O O12 0.542383 0.718972 0.342872
O O13 0.553218 0.427071 0.300470
O O14 0.868262 0.749796 0.874991
O O15 0.462597 0.991339 0.368373
#
# Coordination Sequence:
#
# PCOD8137525 Si02
#       8
#     8   8   8   8   8   8   4   8
#     4  11  22  39  62  87 123 166 199 245 302 381
#     4  10  22  40  64  92 123 157 207 252 297 356
#     4   9  20  44  66  85 121 166 202 250 297 366
#     4  11  25  38  58  94 123 156 201 259 304 358
#     4   9  22  38  60  87 120 160 201 241 307 354
#     4  10  21  40  61  87 123 162 201 246 312 359
#     4  12  24  38  60  88 126 156 202 258 302 370
#     4  10  20  36  59  88 120 159 199 244 295 368
#
# _framework density 20.680323000000001
#
# number of rings (size 3 to 8) (size 9 to 14) (size 15 to 20)
#    0.000    1.867    1.333    2.400    7.467    1.600 
#    2.400    0.000    0.000    0.000    0.000    0.000 
#    0.000    0.000    0.000    0.000    0.000    0.000 
#
# Total GULP energy -371666.698680 kJ/mol
# GULP energy per Si atom -12388.889956 kJ/mol
# Density = 2.063325 g / cm^3
# Si number density = 20.680323 Si / 1000 Ang^3
#
#
#
# Elastic Constant Matrix: (Units=GPa)
#
#
# Indices 1 2 3 4 5 6 
#
# 1 148.3356 32.2165 68.2891 0.0000 13.7049 0.0000
# 2 32.2165 50.8895 25.3036 0.0000 8.3184 0.0000
# 3 68.2891 25.3036 130.1454 0.0000 4.5168 0.0000
# 4 0.0000 0.0000 0.0000 30.9731 0.0000 7.1305
# 5 13.7049 8.3184 4.5168 0.0000 23.3119 0.0000
# 6 0.0000 0.0000 0.0000 7.1305 0.0000 26.5666
#
#
#
# Elastic Compliance Matrix: (Units=1/GPa)
#
#
# Indices 1 2 3 4 5 6 
#
# 1 0.009844 -0.003455 -0.004365 0.000000 -0.003709 0.000000
# 2 -0.003455 0.024160 -0.002673 0.000000 -0.006072 0.000000
# 3 -0.004365 -0.002673 0.010442 0.000000 0.001497 0.000000
# 4 0.000000 0.000000 0.000000 0.034412 0.000000 -0.009236
# 5 -0.003709 -0.006072 0.001497 0.000000 0.046953 0.000000
# 6 0.000000 0.000000 0.000000 -0.009236 0.000000 0.040120
#
#
# Mechanical properties :
#
#
# Convention : Reuss Voigt Hill
#
# Bulk Modulus (GPa) = 42.62892 64.55431 53.59162
# Shear Modulus (GPa) = 25.67549 29.74106 27.70828
#
# Velocity S-wave (km/s) = 3.52738 3.79639 3.66435
# Velocity P-wave (km/s) = 6.10310 7.10632 6.62373
#
# Compressibility (1/GPa) = 0.02345825
#
# Stress axis : x y z
#
# Youngs Moduli (GPa) = 101.58500 41.39121 95.76903
#
# Poissons Ratio (x) = 0.14303 0.41801
# Poissons Ratio (y) = 0.35102 0.25603
# Poissons Ratio (z) = 0.44339 0.11066
#
# Static dielectric constant tensor:
#      x y z
#    x 4.208270 0.000000 -0.035110 
#    y 0.000000 3.563160 0.000000 
#    z -0.035110 0.000000 3.613910 
# 
# 
# High freq. dielectric constant tensor:
#      x y z
#    x 1.826390 0.000000 0.007690 
#    y 0.000000 1.790690 0.000000 
#    z 0.007690 0.000000 1.799390 
# 
# From -- ./inp_files/273221.got.cif
#   From: 2010.06.25/outbox.cif.g09.slc.cpg/sg15_137_cif.got.tgz:273221.got - 2010.06.28 07:06:18.
