data_PCOD8137187
_publ_section_title
;
Structure prediction by ZEFSAII (Michael W. Deem and Ramdas Pophale) SiO2 
 PCOD8137187
Probable space group: C 2/C
;
_chemical_formula_sum "Si O2"
_cell_formula_units_Z 64
_cell_length_a 14.200857
_cell_length_b 13.577653
_cell_length_c 17.546637
_cell_angle_alpha 90.000000
_cell_angle_beta 58.569341
_cell_angle_gamma 90.000000
_cell_volume 2886.825853
_symmetry_space_group_name_H-M "C 2/C"
_symmetry_group_IT_number 15
_symmetry_cell_setting 'monoclinic'
loop_
_space_group_symop_operation_xyz
x,y,z
-x,y,1/2-z
-x,-y,-z
x,-y,1/2+z
1/2+x,1/2+y,z
1/2-x,1/2+y,1/2-z
1/2-x,1/2-y,-z
1/2+x,1/2-y,1/2+z
loop_
_atom_site_type_symbol
_atom_site_label
_atom_site_fract_x
_atom_site_fract_y
_atom_site_fract_z
Si Si1 0.227727 0.107113 0.260787
Si Si2 0.487567 0.288860 0.669057
Si Si3 0.477997 0.895114 0.950191
Si Si4 0.792653 0.903312 0.180056
Si Si5 0.960150 0.571634 0.686500
Si Si6 0.681946 0.961018 0.934209
Si Si7 0.432861 0.759348 0.700966
Si Si8 0.192089 0.849298 0.499752
O O1 0.140265 0.195256 0.299051
O O2 0.240962 0.057849 0.171392
O O3 0.342881 0.151601 0.244278
O O4 0.177899 0.019650 0.334309
O O5 0.500000 0.326688 0.750000
O O6 0.523583 0.174757 0.646385
O O7 0.565189 0.351315 0.580333
O O8 0.575892 0.886839 0.971423
O O9 0.476053 0.795810 0.900416
O O10 0.511538 0.992216 0.888178
O O11 0.361111 0.923963 0.039436
O O12 0.668127 0.900057 0.262406
O O13 0.874522 0.841948 0.200682
O O14 0.802116 0.857760 0.092850
O O15 0.000000 0.526393 0.750000
O O16 0.746144 0.939606 0.985216
O O17 0.500000 0.741846 0.750000
O O18 0.250000 0.750000 0.500000
#
# Coordination Sequence:
#
# PCOD8137187 Si02
#       8
#     8   8   8   8   8   8   8   8
#     4  11  23  43  67  94 133 179 222 269 334 412
#     4  11  22  39  65  94 135 172 212 274 343 394
#     4  10  20  35  63  95 130 168 222 277 329 386
#     4  12  25  42  65  99 135 170 226 275 333 402
#     4  11  20  34  61  98 130 170 219 275 334 390
#     4  10  20  36  60  99 129 166 217 275 331 386
#     4  11  24  43  66  94 132 183 224 275 334 397
#     4  12  23  39  67 100 132 164 217 285 335 392
#
# _framework density 22.169677
#
# number of rings (size 3 to 8) (size 9 to 14) (size 15 to 20)
#    0.000    1.000    5.000    4.875    1.750    2.000 
#    0.000    0.000    0.000    1.500    0.000    0.000 
#    0.000    0.000    0.000    0.000    0.000    0.000 
#
# Total GULP energy -396601.573887 kJ/mol
# GULP energy per Si atom -12393.799184 kJ/mol
# Density = 2.211922 g / cm^3
# Si number density = 22.169677 Si / 1000 Ang^3
#
#
#
# Elastic Constant Matrix: (Units=GPa)
#
#
# Indices 1 2 3 4 5 6 
#
# 1 114.5498 21.5360 26.5552 0.0000 17.8590 0.0000
# 2 21.5360 70.3295 10.8686 0.0000 7.8598 0.0000
# 3 26.5552 10.8686 74.9798 0.0000 5.4089 0.0000
# 4 0.0000 0.0000 0.0000 24.9869 0.0000 2.9611
# 5 17.8590 7.8598 5.4089 0.0000 35.3279 0.0000
# 6 0.0000 0.0000 0.0000 2.9611 0.0000 31.5575
#
#
#
# Elastic Compliance Matrix: (Units=1/GPa)
#
#
# Indices 1 2 3 4 5 6 
#
# 1 0.010552 -0.002266 -0.003095 0.000000 -0.004357 0.000000
# 2 -0.002266 0.015341 -0.001272 0.000000 -0.002073 0.000000
# 3 -0.003095 -0.001272 0.014646 0.000000 -0.000395 0.000000
# 4 0.000000 0.000000 0.000000 0.040471 0.000000 -0.003797
# 5 -0.004357 -0.002073 -0.000395 0.000000 0.031030 0.000000
# 6 0.000000 0.000000 0.000000 -0.003797 0.000000 0.032045
#
#
# Mechanical properties :
#
#
# Convention : Reuss Voigt Hill
#
# Bulk Modulus (GPa) = 36.66443 41.97542 39.31992
# Shear Modulus (GPa) = 30.04068 31.76774 30.90421
#
# Velocity S-wave (km/s) = 3.68507 3.78952 3.73766
# Velocity P-wave (km/s) = 5.88900 6.17431 6.03334
#
# Compressibility (1/GPa) = 0.02727439
#
# Stress axis : x y z
#
# Youngs Moduli (GPa) = 94.76438 65.18523 68.27934
#
# Poissons Ratio (x) = 0.14773 0.21129
# Poissons Ratio (y) = 0.21476 0.08682
# Poissons Ratio (z) = 0.29325 0.08289
#
# Static dielectric constant tensor:
#      x y z
#    x 4.217710 0.000000 -0.002000 
#    y 0.000000 4.079700 0.000000 
#    z -0.002000 0.000000 4.219730 
# 
# 
# High freq. dielectric constant tensor:
#      x y z
#    x 1.866970 0.000000 0.005240 
#    y 0.000000 1.853090 0.000000 
#    z 0.005240 0.000000 1.871620 
# 
# From -- ./inp_files/205395.got.cif
#   From: 2010.06.25/outbox.cif.g09.slc.cpg/sg15_103_cif.got.tgz:205395.got - 2010.06.28 07:06:18.
