data_PCOD8137233
_publ_section_title
;
Structure prediction by ZEFSAII (Michael W. Deem and Ramdas Pophale) SiO2 
 PCOD8137233
Probable space group: C 2/C
;
_chemical_formula_sum "Si O2"
_cell_formula_units_Z 56
_cell_length_a 12.763738
_cell_length_b 21.968302
_cell_length_c 12.671161
_cell_angle_alpha 90.000000
_cell_angle_beta 52.940014
_cell_angle_gamma 90.000000
_cell_volume 2835.282863
_symmetry_space_group_name_H-M "C 2/C"
_symmetry_group_IT_number 15
_symmetry_cell_setting 'monoclinic'
loop_
_space_group_symop_operation_xyz
x,y,z
-x,y,1/2-z
-x,-y,-z
x,-y,1/2+z
1/2+x,1/2+y,z
1/2-x,1/2+y,1/2-z
1/2-x,1/2-y,-z
1/2+x,1/2-y,1/2+z
loop_
_atom_site_type_symbol
_atom_site_label
_atom_site_fract_x
_atom_site_fract_y
_atom_site_fract_z
Si Si1 0.844154 0.805022 0.935663
Si Si2 0.270282 0.852441 0.298022
Si Si3 0.630057 0.280839 0.802033
Si Si4 0.000000 0.424383 0.250000
Si Si5 0.651823 0.587416 0.668660
Si Si6 0.090619 0.520075 0.040801
Si Si7 0.239143 0.185662 0.449576
Si Si8 0.000000 0.619832 0.250000
O O1 0.835906 0.826618 0.817585
O O2 0.976612 0.770299 0.885613
O O3 0.750000 0.750000 0.000000
O O4 0.804550 0.857177 0.043381
O O5 0.291326 0.782818 0.249500
O O6 0.412034 0.884177 0.224135
O O7 0.179498 0.886166 0.268107
O O8 0.648255 0.312687 0.902533
O O9 0.097611 0.466119 0.121828
O O10 0.500000 0.564109 0.750000
O O11 0.758352 0.533813 0.583855
O O12 0.672601 0.639398 0.570027
O O13 0.018362 0.579049 0.134202
O O14 0.000000 0.500000 0.000000
O O15 0.250000 0.250000 0.500000
O O16 0.376931 0.164392 0.317978
#
# Coordination Sequence:
#
# PCOD8137233 Si02
#       8
#     8   8   8   4   8   8   8   4
#     4   9  19  33  52  78 121 161 199 248 290 351
#     4  11  20  36  59  94 116 162 215 248 305 375
#     4  10  20  36  52  85 130 166 199 241 302 365
#     4  11  22  38  70  88 112 158 222 267 316 356
#     4  11  23  40  63  94 126 159 205 258 313 383
#     4  10  21  44  66  88 119 157 210 272 316 363
#     4  11  22  36  58  89 130 171 198 243 306 376
#     4   9  24  38  58  96 116 156 222 247 302 376
#
# _framework density 19.751114000000001
#
# number of rings (size 3 to 8) (size 9 to 14) (size 15 to 20)
#    0.000    1.714    2.857    2.571    1.000    3.429 
#    0.000    0.714    6.286    0.000    0.000    0.000 
#    0.000    0.000    0.000    0.000    0.000    0.000 
#
# Total GULP energy -346962.468616 kJ/mol
# GULP energy per Si atom -12391.516736 kJ/mol
# Density = 1.970616 g / cm^3
# Si number density = 19.751114 Si / 1000 Ang^3
#
#
#
# Elastic Constant Matrix: (Units=GPa)
#
#
# Indices 1 2 3 4 5 6 
#
# 1 138.1679 32.0125 66.8390 0.0000 10.4202 0.0000
# 2 32.0125 59.8331 36.7583 0.0000 2.2332 0.0000
# 3 66.8390 36.7583 124.1468 0.0000 5.6103 0.0000
# 4 0.0000 0.0000 0.0000 21.5689 0.0000 -5.9022
# 5 10.4202 2.2332 5.6103 0.0000 45.4331 0.0000
# 6 0.0000 0.0000 0.0000 -5.9022 0.0000 23.3643
#
#
#
# Elastic Compliance Matrix: (Units=1/GPa)
#
#
# Indices 1 2 3 4 5 6 
#
# 1 0.010208 -0.002530 -0.004673 0.000000 -0.001640 0.000000
# 2 -0.002530 0.021059 -0.004880 0.000000 0.000148 0.000000
# 3 -0.004673 -0.004880 0.012023 0.000000 -0.000173 0.000000
# 4 0.000000 0.000000 0.000000 0.049806 0.000000 0.012582
# 5 -0.001640 0.000148 -0.000173 0.000000 0.022401 0.000000
# 6 0.000000 0.000000 0.000000 0.012582 0.000000 0.045979
#
#
# Mechanical properties :
#
#
# Convention : Reuss Voigt Hill
#
# Bulk Modulus (GPa) = 52.28590 65.92970 59.10780
# Shear Modulus (GPa) = 26.03955 30.50911 28.27433
#
# Velocity S-wave (km/s) = 3.63489 3.93450 3.78766
# Velocity P-wave (km/s) = 6.64428 7.35480 7.00855
#
# Compressibility (1/GPa) = 0.01912562
#
# Stress axis : x y z
#
# Youngs Moduli (GPa) = 97.96499 47.48525 83.17102
#
# Poissons Ratio (x) = 0.12012 0.38863
# Poissons Ratio (y) = 0.24782 0.40588
# Poissons Ratio (z) = 0.45775 0.23173
#
# Static dielectric constant tensor:
#      x y z
#    x 3.699920 0.000000 0.431120 
#    y 0.000000 7.398000 0.000000 
#    z 0.431120 0.000000 5.149070 
# 
# 
# High freq. dielectric constant tensor:
#      x y z
#    x 1.776470 0.000000 0.008320 
#    y 0.000000 1.740900 0.000000 
#    z 0.008320 0.000000 1.788790 
# 
# From -- ./inp_files/90730.got.cif
#   From: 2010.06.25/outbox.cif.g09.slc.cpg/sg15_46_cif.got.tgz:90730.got - 2010.06.28 07:06:18.
