data_PCOD8137119
_publ_section_title
;
Structure prediction by ZEFSAII (Michael W. Deem and Ramdas Pophale) SiO2 
 PCOD8137119
Probable space group: C 2/C
;
_chemical_formula_sum "Si O2"
_cell_formula_units_Z 52
_cell_length_a 9.748572
_cell_length_b 13.983908
_cell_length_c 34.505338
_cell_angle_alpha 90.000000
_cell_angle_beta 33.054443
_cell_angle_gamma 90.000000
_cell_volume 2565.661807
_symmetry_space_group_name_H-M "C 2/C"
_symmetry_group_IT_number 15
_symmetry_cell_setting 'monoclinic'
loop_
_space_group_symop_operation_xyz
x,y,z
-x,y,1/2-z
-x,-y,-z
x,-y,1/2+z
1/2+x,1/2+y,z
1/2-x,1/2+y,1/2-z
1/2-x,1/2-y,-z
1/2+x,1/2-y,1/2+z
loop_
_atom_site_type_symbol
_atom_site_label
_atom_site_fract_x
_atom_site_fract_y
_atom_site_fract_z
Si Si1 0.937593 0.065448 0.150704
Si Si2 0.415221 0.151532 0.058971
Si Si3 0.500000 0.065973 0.750000
Si Si4 0.644793 0.522615 0.526285
Si Si5 0.421327 0.160246 0.966150
Si Si6 0.207159 0.648635 0.623638
Si Si7 0.779074 0.722383 0.670421
O O1 0.835586 0.164747 0.156658
O O2 0.155721 0.092676 0.130057
O O3 0.705815 0.003788 0.222266
O O4 0.070400 0.998619 0.087933
O O5 0.385765 0.258557 0.081369
O O6 0.648647 0.106219 0.025813
O O7 0.467730 0.144317 0.000391
O O8 0.613994 0.132283 0.689617
O O9 0.772634 0.426481 0.479732
O O10 0.386673 0.559875 0.566761
O O11 0.684710 0.180258 0.881582
O O12 0.250000 0.250000 0.000000
O O13 0.970438 0.663677 0.652188
O O14 0.500000 0.699863 0.750000
#
# Coordination Sequence:
#
# PCOD8137119 Si02
#       7
#     8   8   4   8   8   8   8
#     4   9  17  33  58  83 105 150 199 231 274 349
#     4  10  20  37  60  89 116 150 199 246 283 347
#     4  10  20  36  62  80 114 160 196 232 296 358
#     4  10  20  35  61  87 113 153 196 237 289 349
#     4  11  19  37  63  88 116 152 203 244 286 340
#     4  10  22  37  58  86 120 153 198 237 294 353
#     4  11  22  37  58  89 120 150 193 250 293 345
#
# _framework density 20.267674
#
# number of rings (size 3 to 8) (size 9 to 14) (size 15 to 20)
#    0.000    1.846    5.385    2.308    0.000    4.308 
#    0.000    0.000    8.462    0.000    0.000    0.000 
#    0.000    0.000    0.000    0.000    0.000    0.000 
#
# Total GULP energy -322110.402034 kJ/mol
# GULP energy per Si atom -12388.861617 kJ/mol
# Density = 2.022154 g / cm^3
# Si number density = 20.267674 Si / 1000 Ang^3
#
#
#
# Elastic Constant Matrix: (Units=GPa)
#
#
# Indices 1 2 3 4 5 6 
#
# 1 51.9025 30.2134 29.7961 0.0035 -14.3747 0.0009
# 2 30.2134 113.0514 53.4772 0.0029 -12.8239 0.0012
# 3 29.7961 53.4772 128.1841 -0.0514 -18.7085 0.0258
# 4 0.0035 0.0029 -0.0514 32.3203 0.0147 -0.8182
# 5 -14.3747 -12.8239 -18.7085 0.0147 31.1517 -0.0015
# 6 0.0009 0.0012 0.0258 -0.8182 -0.0015 24.2043
#
#
#
# Elastic Compliance Matrix: (Units=1/GPa)
#
#
# Indices 1 2 3 4 5 6 
#
# 1 0.025916 -0.004618 -0.002882 -0.000011 0.008327 0.000002
# 2 -0.004618 0.011952 -0.003843 -0.000007 0.000481 0.000004
# 3 -0.002882 -0.003843 0.010576 0.000016 0.003440 -0.000010
# 4 -0.000011 -0.000007 0.000016 0.030967 -0.000013 0.001047
# 5 0.008327 0.000481 0.003440 -0.000013 0.038207 -0.000002
# 6 0.000002 0.000004 -0.000010 0.001047 -0.000002 0.041350
#
#
# Mechanical properties :
#
#
# Convention : Reuss Voigt Hill
#
# Bulk Modulus (GPa) = 38.82200 57.79014 48.30607
# Shear Modulus (GPa) = 26.28244 29.51200 27.89722
#
# Velocity S-wave (km/s) = 3.60497 3.82004 3.71406
# Velocity P-wave (km/s) = 6.04351 6.93054 6.50217
#
# Compressibility (1/GPa) = 0.02575859
#
# Stress axis : x y z
#
# Youngs Moduli (GPa) = 38.58622 83.66779 94.55046
#
# Poissons Ratio (x) = 0.38640 0.27251
# Poissons Ratio (y) = 0.17820 0.36331
# Poissons Ratio (z) = 0.11121 0.32149
#
# Static dielectric constant tensor:
#      x y z
#    x 6.114980 0.007060 2.860990 
#    y 0.007060 3.705720 0.008470 
#    z 2.860990 0.008470 7.673480 
# 
# 
# High freq. dielectric constant tensor:
#      x y z
#    x 1.754290 0.000000 -0.028110 
#    y 0.000000 1.805820 0.000000 
#    z -0.028110 0.000000 1.793760 
# 
# From -- ./inp_files/308190.got.cif
#   From: 2010.06.25/outbox.cif.g09.slc.cpg/sg15_155_cif.got.tgz:308190.got - 2010.06.28 07:06:18.
