data_PCOD8137763
_publ_section_title
;
Structure prediction by ZEFSAII (Michael W. Deem and Ramdas Pophale) SiO2 
 PCOD8137763
Probable space group: C 2/C
;
_chemical_formula_sum "Si O2"
_cell_formula_units_Z 44
_cell_length_a 5.074778
_cell_length_b 28.627742
_cell_length_c 14.599899
_cell_angle_alpha 90.000000
_cell_angle_beta 88.700007
_cell_angle_gamma 90.000000
_cell_volume 2120.519146
_symmetry_space_group_name_H-M "C 2/C"
_symmetry_group_IT_number 15
_symmetry_cell_setting 'monoclinic'
loop_
_space_group_symop_operation_xyz
x,y,z
-x,y,1/2-z
-x,-y,-z
x,-y,1/2+z
1/2+x,1/2+y,z
1/2-x,1/2+y,1/2-z
1/2-x,1/2-y,-z
1/2+x,1/2-y,1/2+z
loop_
_atom_site_type_symbol
_atom_site_label
_atom_site_fract_x
_atom_site_fract_y
_atom_site_fract_z
Si Si1 0.761034 0.268489 0.197752
Si Si2 0.500000 0.321938 0.750000
Si Si3 0.584726 0.452270 0.453955
Si Si4 0.584909 0.169540 0.958374
Si Si5 0.581818 0.075726 0.853694
Si Si6 0.580787 0.358464 0.559446
O O1 0.500000 0.287365 0.250000
O O2 0.800360 0.283887 0.091858
O O3 0.000000 0.292831 0.250000
O O4 0.777673 0.211996 0.205993
O O5 0.619133 0.354270 0.668827
O O6 0.500000 0.500000 0.500000
O O7 0.876646 0.456909 0.410389
O O8 0.604408 0.412494 0.531706
O O9 0.379028 0.440381 0.374090
O O10 0.559454 0.129563 0.882201
O O11 0.788855 0.157734 0.036441
O O12 0.297707 0.174742 0.007658
O O13 0.500000 0.070378 0.750000
#
# Coordination Sequence:
#
# PCOD8137763 Si02
#       6
#     8   4   8   8   8   8
#     4  10  22  37  57  86 118 153 196 252 279 351
#     4  10  26  40  56  84 124 152 212 232 298 352
#     4  10  21  40  62  87 124 151 194 244 298 357
#     4  10  21  38  61  86 115 156 194 242 309 333
#     4  10  20  36  62  91 118 149 191 246 293 354
#     4  10  23  39  61  83 117 162 192 247 295 357
#
# _framework density 20.749635000000001
#
# number of rings (size 3 to 8) (size 9 to 14) (size 15 to 20)
#    0.545    1.455    0.000    2.727    2.545    4.364 
#    3.273    0.000    0.000    0.000    0.000    0.000 
#    0.000    0.000    0.000    0.000    0.000    0.000 
#
# Total GULP energy -272653.720038 kJ/mol
# GULP energy per Si atom -12393.350911 kJ/mol
# Density = 2.070241 g / cm^3
# Si number density = 20.749635 Si / 1000 Ang^3
#
#
#
# Elastic Constant Matrix: (Units=GPa)
#
#
# Indices 1 2 3 4 5 6 
#
# 1 107.5787 22.6764 23.8687 0.0000 -20.7132 0.0000
# 2 22.6764 71.9456 59.3875 0.0000 -3.1440 0.0000
# 3 23.8687 59.3875 134.6063 0.0000 -10.8252 0.0000
# 4 0.0000 0.0000 0.0000 22.4777 0.0000 -5.6764
# 5 -20.7132 -3.1440 -10.8252 0.0000 21.1679 0.0000
# 6 0.0000 0.0000 0.0000 -5.6764 0.0000 6.3363
#
#
#
# Elastic Compliance Matrix: (Units=1/GPa)
#
#
# Indices 1 2 3 4 5 6 
#
# 1 0.012217 -0.003658 0.000381 0.000000 0.011606 0.000000
# 2 -0.003658 0.023019 -0.009928 0.000000 -0.005237 0.000000
# 3 0.000381 -0.009928 0.012153 0.000000 0.005113 0.000000
# 4 0.000000 0.000000 0.000000 0.057496 0.000000 0.051509
# 5 0.011606 -0.005237 0.005113 0.000000 0.060435 0.000000
# 6 0.000000 0.000000 0.000000 0.051509 0.000000 0.203966
#
#
# Mechanical properties :
#
#
# Convention : Reuss Voigt Hill
#
# Bulk Modulus (GPa) = 47.66911 58.44396 53.05654
# Shear Modulus (GPa) = 12.41654 23.87624 18.14639
#
# Velocity S-wave (km/s) = 2.44887 3.39585 2.96047
# Velocity P-wave (km/s) = 5.56950 6.60327 6.10829
#
# Compressibility (1/GPa) = 0.02097794
#
# Stress axis : x y z
#
# Youngs Moduli (GPa) = 81.85601 43.44294 82.28386
#
# Poissons Ratio (x) = 0.15890 -0.03134
# Poissons Ratio (y) = 0.29940 0.81694
# Poissons Ratio (z) = -0.03117 0.43132
#
# Static dielectric constant tensor:
#      x y z
#    x 3.947310 0.000000 -0.023240 
#    y 0.000000 3.488390 0.000000 
#    z -0.023240 0.000000 3.577220 
# 
# 
# High freq. dielectric constant tensor:
#      x y z
#    x 1.824240 0.000000 -0.001400 
#    y 0.000000 1.783970 0.000000 
#    z -0.001400 0.000000 1.808390 
# 
# From -- ./inp_files/73861.got.cif
#   From: 2010.06.25/outbox.cif.g09.slc.cpg/sg15_37_cif.got.tgz:73861.got - 2010.06.28 07:06:18.
