data_PCOD8137350
_publ_section_title
;
Structure prediction by ZEFSAII (Michael W. Deem and Ramdas Pophale) SiO2 
 PCOD8137350
Probable space group: C 2/C
;
_chemical_formula_sum "Si O2"
_cell_formula_units_Z 64
_cell_length_a 14.772276
_cell_length_b 25.493720
_cell_length_c 11.896656
_cell_angle_alpha 90.000000
_cell_angle_beta 40.481749
_cell_angle_gamma 90.000000
_cell_volume 2908.626234
_symmetry_space_group_name_H-M "C 2/C"
_symmetry_group_IT_number 15
_symmetry_cell_setting 'monoclinic'
loop_
_space_group_symop_operation_xyz
x,y,z
-x,y,1/2-z
-x,-y,-z
x,-y,1/2+z
1/2+x,1/2+y,z
1/2-x,1/2+y,1/2-z
1/2-x,1/2-y,-z
1/2+x,1/2-y,1/2+z
loop_
_atom_site_type_symbol
_atom_site_label
_atom_site_fract_x
_atom_site_fract_y
_atom_site_fract_z
Si Si1 0.596812 0.523658 0.253305
Si Si2 0.118473 0.063729 0.476838
Si Si3 0.792133 0.634610 0.661001
Si Si4 0.480670 0.668395 0.958968
Si Si5 0.870768 0.793923 0.794199
Si Si6 0.886309 0.270249 0.934234
Si Si7 0.657330 0.040125 0.062461
Si Si8 0.647869 0.176732 0.667252
O O1 0.500000 0.553417 0.250000
O O2 0.614631 0.559131 0.345651
O O3 0.511263 0.469734 0.354568
O O4 0.756048 0.509422 0.068135
O O5 0.109501 0.124727 0.520166
O O6 0.266482 0.050457 0.391216
O O7 0.628132 0.639959 0.824520
O O8 0.851439 0.689566 0.563277
O O9 0.839315 0.586473 0.535881
O O10 0.844112 0.632129 0.742135
O O11 0.477486 0.721967 0.894660
O O12 0.416191 0.675768 0.141650
O O13 0.814808 0.735079 0.818081
O O14 0.000000 0.782764 0.750000
O O15 0.759917 0.831652 0.961537
O O16 0.000000 0.299927 0.750000
O O17 0.750000 0.250000 0.000000
O O18 0.500000 0.026332 0.250000
O O19 0.500000 0.171078 0.750000
#
# Coordination Sequence:
#
# PCOD8137350 Si02
#       8
#     8   8   8   8   8   8   8   8
#     4   9  20  43  72 100 127 165 220 275 334 403
#     4  10  22  41  69  98 127 171 218 278 330 395
#     4  12  23  41  62  92 131 182 225 274 331 394
#     4  12  23  38  65  92 127 173 228 273 322 388
#     4  10  20  36  57  84 113 166 223 267 322 373
#     4  12  25  37  57  89 128 175 224 270 315 388
#     4  11  24  42  68 100 139 174 211 271 344 406
#     4  10  22  37  58  81 123 167 219 274 324 381
#
# _framework density 22.003515
#
# number of rings (size 3 to 8) (size 9 to 14) (size 15 to 20)
#    0.000    1.250    5.000    1.125    0.000    3.000 
#    0.000    0.000    0.000    1.500    0.000    0.000 
#    0.000    0.000    0.000    0.000    0.000    0.000 
#
# Total GULP energy -396437.050245 kJ/mol
# GULP energy per Si atom -12388.657820 kJ/mol
# Density = 2.195343 g / cm^3
# Si number density = 22.003515 Si / 1000 Ang^3
#
#
#
# Elastic Constant Matrix: (Units=GPa)
#
#
# Indices 1 2 3 4 5 6 
#
# 1 99.7358 0.4158 36.6569 0.0000 4.1308 0.0000
# 2 0.4158 28.7268 1.5686 0.0000 -0.4614 0.0000
# 3 36.6569 1.5686 145.9050 0.0000 -12.0992 0.0000
# 4 0.0000 0.0000 0.0000 22.3230 0.0000 6.6003
# 5 4.1308 -0.4614 -12.0992 0.0000 40.4439 0.0000
# 6 0.0000 0.0000 0.0000 6.6003 0.0000 31.0976
#
#
#
# Elastic Compliance Matrix: (Units=1/GPa)
#
#
# Indices 1 2 3 4 5 6 
#
# 1 0.011208 -0.000032 -0.002985 0.000000 -0.002038 0.000000
# 2 -0.000032 0.034835 -0.000342 0.000000 0.000298 0.000000
# 3 -0.002985 -0.000342 0.007826 0.000000 0.002642 0.000000
# 4 0.000000 0.000000 0.000000 0.047796 0.000000 -0.010145
# 5 -0.002038 0.000298 0.002642 0.000000 0.025728 0.000000
# 6 0.000000 0.000000 0.000000 -0.010145 0.000000 0.034310
#
#
# Mechanical properties :
#
#
# Convention : Reuss Voigt Hill
#
# Bulk Modulus (GPa) = 21.20779 39.07226 30.14003
# Shear Modulus (GPa) = 27.15374 34.48800 30.82087
#
# Velocity S-wave (km/s) = 3.51674 3.96332 3.74669
# Velocity P-wave (km/s) = 5.11363 6.22412 5.69600
#
# Compressibility (1/GPa) = 0.04715248
#
# Stress axis : x y z
#
# Youngs Moduli (GPa) = 89.22225 28.70707 127.77295
#
# Poissons Ratio (x) = 0.00092 0.38134
# Poissons Ratio (y) = 0.00286 0.04366
# Poissons Ratio (z) = 0.26629 0.00981
#
# Static dielectric constant tensor:
#      x y z
#    x 4.206860 0.000000 -0.047790 
#    y 0.000000 3.744320 0.000000 
#    z -0.047790 0.000000 4.413290 
# 
# 
# High freq. dielectric constant tensor:
#      x y z
#    x 1.868630 0.000000 0.008550 
#    y 0.000000 1.840210 0.000000 
#    z 0.008550 0.000000 1.881300 
# 
# From -- ./inp_files/101317.got.cif
#   From: 2010.06.25/outbox.cif.g09.slc.cpg/sg15_51_cif.got.tgz:101317.got - 2010.06.28 07:06:18.
