data_PCOD8137838
_publ_section_title
;
Structure prediction by ZEFSAII (Michael W. Deem and Ramdas Pophale) SiO2 
 PCOD8137838
Probable space group: C 2/C
;
_chemical_formula_sum "Si O2"
_cell_formula_units_Z 40
_cell_length_a 14.398442
_cell_length_b 24.332173
_cell_length_c 8.430067
_cell_angle_alpha 90.000000
_cell_angle_beta 35.362996
_cell_angle_gamma 90.000000
_cell_volume 1709.314139
_symmetry_space_group_name_H-M "C 2/C"
_symmetry_group_IT_number 15
_symmetry_cell_setting 'monoclinic'
loop_
_space_group_symop_operation_xyz
x,y,z
-x,y,1/2-z
-x,-y,-z
x,-y,1/2+z
1/2+x,1/2+y,z
1/2-x,1/2+y,1/2-z
1/2-x,1/2-y,-z
1/2+x,1/2-y,1/2+z
loop_
_atom_site_type_symbol
_atom_site_label
_atom_site_fract_x
_atom_site_fract_y
_atom_site_fract_z
Si Si1 0.261418 0.680162 0.272105
Si Si2 0.933110 0.783436 0.000060
Si Si3 0.828288 0.535758 0.575637
Si Si4 0.690271 0.853373 0.519736
Si Si5 0.322862 0.073195 0.946751
O O1 0.112733 0.722037 0.495502
O O2 0.428121 0.714057 0.059471
O O3 0.268747 0.630628 0.392223
O O4 0.244551 0.655717 0.121839
O O5 0.000000 0.814119 0.750000
O O6 0.770299 0.809525 0.292254
O O7 0.738464 0.586175 0.616105
O O8 0.831487 0.551896 0.754909
O O9 0.744802 0.476355 0.662328
O O10 0.000000 0.528621 0.250000
O O11 0.500000 0.851156 0.750000
O O12 0.500000 0.089011 0.750000
#
# Coordination Sequence:
#
# PCOD8137838 Si02
#       5
#     8   8   8   8   8
#     4  12  25  43  67  96 134 181 226 280 337 398
#     4  12  26  44  66  98 135 179 229 282 336 397
#     4  10  20  36  63  98 133 173 221 273 333 405
#     4  11  23  44  69  99 136 179 224 277 334 403
#     4  11  20  37  63  97 133 176 223 276 333 401
#
# _framework density 23.401198000000001
#
# number of rings (size 3 to 8) (size 9 to 14) (size 15 to 20)
#    0.000    0.800    0.000   10.800    0.000    0.000 
#    0.000    1.000    0.000    0.000    0.000    0.000 
#    0.000    0.000    0.000    0.000    0.000    0.000 
#
# Total GULP energy -247762.250546 kJ/mol
# GULP energy per Si atom -12388.112527 kJ/mol
# Density = 2.334794 g / cm^3
# Si number density = 23.401198 Si / 1000 Ang^3
#
#
#
# Elastic Constant Matrix: (Units=GPa)
#
#
# Indices 1 2 3 4 5 6 
#
# 1 125.2787 58.6254 48.2876 -0.0004 -2.0883 -0.0002
# 2 58.6254 168.0228 59.2347 0.0000 0.3423 0.0000
# 3 48.2876 59.2347 90.1055 -0.0003 20.2506 -0.0001
# 4 -0.0004 0.0000 -0.0003 18.6748 0.0003 5.8985
# 5 -2.0883 0.3423 20.2506 0.0003 34.4097 0.0001
# 6 -0.0002 0.0000 -0.0001 5.8985 0.0001 35.5355
#
#
#
# Elastic Compliance Matrix: (Units=1/GPa)
#
#
# Indices 1 2 3 4 5 6 
#
# 1 0.011095 -0.001911 -0.005584 0.000000 0.003978 0.000000
# 2 -0.001911 0.008430 -0.005154 0.000000 0.002834 0.000000
# 3 -0.005584 -0.005154 0.020218 0.000000 -0.012186 0.000000
# 4 0.000000 0.000000 0.000000 0.056511 -0.000001 -0.009380
# 5 0.003978 0.002834 -0.012186 -0.000001 0.036447 0.000000
# 6 0.000000 0.000000 0.000000 -0.009380 0.000000 0.029698
#
#
# Mechanical properties :
#
#
# Convention : Reuss Voigt Hill
#
# Bulk Modulus (GPa) = 69.23178 79.52248 74.37713
# Shear Modulus (GPa) = 25.97265 32.20796 29.09030
#
# Velocity S-wave (km/s) = 3.33511 3.71393 3.52960
# Velocity P-wave (km/s) = 6.66930 7.24203 6.96156
#
# Compressibility (1/GPa) = 0.01444423
#
# Stress axis : x y z
#
# Youngs Moduli (GPa) = 90.13151 118.62904 49.46159
#
# Poissons Ratio (x) = 0.22667 0.27618
# Poissons Ratio (y) = 0.17222 0.25495
# Poissons Ratio (z) = 0.50328 0.61147
#
# Static dielectric constant tensor:
#      x y z
#    x 4.092970 0.000000 0.233040 
#    y 0.000000 4.942150 0.000000 
#    z 0.233040 0.000000 4.161820 
# 
# 
# High freq. dielectric constant tensor:
#      x y z
#    x 1.921540 0.000000 0.026490 
#    y 0.000000 1.950880 0.000000 
#    z 0.026490 0.000000 1.906490 
# 
# From -- ./inp_files/41939.got.cif
#   From: 2010.06.25/outbox.cif.g09.slc.cpg/sg15_21_cif.got.tgz:41939.got - 2010.06.28 07:06:18.
