data_PCOD8137148
_publ_section_title
;
Structure prediction by ZEFSAII (Michael W. Deem and Ramdas Pophale) SiO2 
 PCOD8137148
Probable space group: C 2/C
;
_chemical_formula_sum "Si O2"
_cell_formula_units_Z 48
_cell_length_a 17.013360
_cell_length_b 10.094088
_cell_length_c 16.016036
_cell_angle_alpha 90.000000
_cell_angle_beta 132.411244
_cell_angle_gamma 90.000000
_cell_volume 2030.760050
_symmetry_space_group_name_H-M "C 2/C"
_symmetry_group_IT_number 15
_symmetry_cell_setting 'monoclinic'
loop_
_space_group_symop_operation_xyz
x,y,z
-x,y,1/2-z
-x,-y,-z
x,-y,1/2+z
1/2+x,1/2+y,z
1/2-x,1/2+y,1/2-z
1/2-x,1/2-y,-z
1/2+x,1/2-y,1/2+z
loop_
_atom_site_type_symbol
_atom_site_label
_atom_site_fract_x
_atom_site_fract_y
_atom_site_fract_z
Si Si1 0.699384 0.504494 0.335510
Si Si2 0.622160 0.197926 0.081642
Si Si3 0.692528 0.207699 0.323873
Si Si4 0.000000 0.421203 0.750000
Si Si5 0.550722 0.134729 0.657664
Si Si6 0.000000 0.140874 0.250000
Si Si7 0.209602 0.961997 0.159997
O O1 0.798121 0.604345 0.414258
O O2 0.736241 0.352121 0.379205
O O3 0.605015 0.547474 0.331105
O O4 0.656512 0.506859 0.209121
O O5 0.641871 0.191769 0.194601
O O6 0.639066 0.350519 0.063879
O O7 0.502999 0.150742 0.972495
O O8 0.602585 0.172920 0.326646
O O9 0.781931 0.091483 0.393337
O O10 0.002564 0.511376 0.833974
O O11 0.520743 0.268848 0.684376
O O12 0.676346 0.110124 0.737627
#
# Coordination Sequence:
#
# PCOD8137148 Si02
#       7
#     8   8   8   4   8   4   8
#     4  10  20  35  62  86 121 157 199 250 309 348
#     4  10  20  38  66  86 111 165 213 248 286 374
#     4   9  19  36  59  83 122 156 193 246 310 354
#     4   9  19  36  56  84 122 156 188 252 312 350
#     4  10  21  38  64  89 118 159 215 246 297 366
#     4  11  21  38  60  94 124 156 194 270 304 346
#     4   9  19  39  62  86 117 164 203 249 294 364
#
# _framework density 23.636469000000002
#
# number of rings (size 3 to 8) (size 9 to 14) (size 15 to 20)
#    0.000    2.333    1.667    0.500    0.000    6.667 
#    0.000    4.167    7.333    0.000    0.000    0.000 
#    0.000    0.000    0.000    0.000    0.000    0.000 
#
# Total GULP energy -297376.949460 kJ/mol
# GULP energy per Si atom -12390.706228 kJ/mol
# Density = 2.358267 g / cm^3
# Si number density = 23.636469 Si / 1000 Ang^3
#
#
#
# Elastic Constant Matrix: (Units=GPa)
#
#
# Indices 1 2 3 4 5 6 
#
# 1 82.1055 22.1094 -9.1027 0.0000 3.4578 0.0000
# 2 22.1094 152.8619 -13.8090 0.0000 -0.1436 0.0000
# 3 -9.1027 -13.8090 30.8183 0.0000 -0.2140 0.0000
# 4 0.0000 0.0000 0.0000 -0.6750 0.0000 -7.4291
# 5 3.4578 -0.1436 -0.2140 0.0000 14.7935 0.0000
# 6 0.0000 0.0000 0.0000 -7.4291 0.0000 29.8644
#
#
#
# Elastic Compliance Matrix: (Units=1/GPa)
#
#
# Indices 1 2 3 4 5 6 
#
# 1 0.013088 -0.001614 0.003122 0.000000 -0.003030 0.000000
# 2 -0.001614 0.007017 0.002671 0.000000 0.000484 0.000000
# 3 0.003122 0.002671 0.034566 0.000000 -0.000204 0.000000
# 4 0.000000 0.000000 0.000000 -0.396341 0.000000 -0.098595
# 5 -0.003030 0.000484 -0.000204 0.000000 0.068307 0.000000
# 6 0.000000 0.000000 0.000000 -0.098595 0.000000 0.008958
#
#
# Mechanical properties :
#
#
# Convention : Reuss Voigt Hill
#
# Bulk Modulus (GPa) = 15.86613 29.35345 22.60979
# Shear Modulus (GPa) = -19.86064 26.56911 3.35424
#
# Velocity S-wave (km/s) = -2.90186 3.35636 1.19255
# Velocity P-wave (km/s) = 2.12146 5.24079 3.38860
#
# Compressibility (1/GPa) = 0.06302736
#
# Stress axis : x y z
#
# Youngs Moduli (GPa) = 76.40775 142.51103 28.93052
#
# Poissons Ratio (x) = 0.22999 -0.09031
# Poissons Ratio (y) = 0.12331 -0.07727
# Poissons Ratio (z) = -0.23851 -0.38063
#
# Static dielectric constant tensor:
#      x y z
#    x 4.331020 0.000000 0.024990 
#    y 0.000000 4.917250 0.000000 
#    z 0.024990 0.000000 3.485030 
# 
# 
# High freq. dielectric constant tensor:
#      x y z
#    x 1.935300 0.000000 0.000140 
#    y 0.000000 1.966770 0.000000 
#    z 0.000140 0.000000 1.869910 
# 
# From -- ./inp_files/160487.got.cif
#   From: 2010.06.25/outbox.cif.g09.slc.cpg/sg15_81_cif.got.tgz:160487.got - 2010.06.28 07:06:18.
