data_PCOD8137007
_publ_section_title
;
Structure prediction by ZEFSAII (Michael W. Deem and Ramdas Pophale) SiO2 
 PCOD8137007
Probable space group: C 2/C
;
_chemical_formula_sum "Si O2"
_cell_formula_units_Z 48
_cell_length_a 15.786005
_cell_length_b 9.160513
_cell_length_c 19.185917
_cell_angle_alpha 90.000000
_cell_angle_beta 108.008348
_cell_angle_gamma 90.000000
_cell_volume 2638.519774
_symmetry_space_group_name_H-M "C 2/C"
_symmetry_group_IT_number 15
_symmetry_cell_setting 'monoclinic'
loop_
_space_group_symop_operation_xyz
x,y,z
-x,y,1/2-z
-x,-y,-z
x,-y,1/2+z
1/2+x,1/2+y,z
1/2-x,1/2+y,1/2-z
1/2-x,1/2-y,-z
1/2+x,1/2-y,1/2+z
loop_
_atom_site_type_symbol
_atom_site_label
_atom_site_fract_x
_atom_site_fract_y
_atom_site_fract_z
Si Si1 0.975082 0.862237 0.168011
Si Si2 0.213142 0.137677 0.934622
Si Si3 0.005192 0.205879 0.331265
Si Si4 0.342502 0.325746 0.530301
Si Si5 0.397295 0.125355 0.915384
Si Si6 0.461562 0.798974 0.943478
O O1 0.872827 0.812609 0.130642
O O2 0.000000 0.803865 0.250000
O O3 0.036694 0.780496 0.129226
O O4 0.000704 0.031613 0.166534
O O5 0.291029 0.115040 0.897471
O O6 0.179215 0.995130 0.966620
O O7 0.250000 0.250000 0.000000
O O8 0.100579 0.244505 0.391089
O O9 0.000000 0.260882 0.250000
O O10 0.924778 0.283495 0.353211
O O11 0.250000 0.250000 0.500000
O O12 0.394816 0.296326 0.472706
O O13 0.431703 0.961617 0.919320
O O14 0.441813 0.201296 0.994467
#
# Coordination Sequence:
#
# PCOD8137007 Si02
#       6
#     8   8   8   8   8   8
#     4  10  22  40  56  80 117 151 183 228 285 337
#     4  11  21  35  59  86 110 140 193 233 270 335
#     4   9  21  38  58  78 115 153 184 222 283 336
#     4  10  20  36  58  81 115 145 183 233 278 325
#     4  10  20  35  58  86 112 143 189 233 272 332
#     4  10  20  36  58  82 113 149 184 228 285 328
#
# _framework density 18.192018000000001
#
# number of rings (size 3 to 8) (size 9 to 14) (size 15 to 20)
#    0.000    2.000    3.333    0.000    2.333    2.667 
#    3.000    0.000    0.000    0.000    0.000    0.000 
#    0.000    0.000    0.000    0.000    0.000    0.000 
#
# Total GULP energy -297479.430238 kJ/mol
# GULP energy per Si atom -12394.976260 kJ/mol
# Density = 1.815061 g / cm^3
# Si number density = 18.192018 Si / 1000 Ang^3
#
#
#
# Elastic Constant Matrix: (Units=GPa)
#
#
# Indices 1 2 3 4 5 6 
#
# 1 129.0812 44.0552 71.7317 0.0000 -5.4323 0.0000
# 2 44.0552 58.2899 50.4650 0.0000 -8.1598 0.0000
# 3 71.7317 50.4650 154.2568 0.0000 -14.8270 0.0000
# 4 0.0000 0.0000 0.0000 24.8976 0.0000 -4.5556
# 5 -5.4323 -8.1598 -14.8270 0.0000 31.3691 0.0000
# 6 0.0000 0.0000 0.0000 -4.5556 0.0000 32.8959
#
#
#
# Elastic Compliance Matrix: (Units=1/GPa)
#
#
# Indices 1 2 3 4 5 6 
#
# 1 0.011729 -0.005877 -0.003649 0.000000 -0.001222 0.000000
# 2 -0.005877 0.027090 -0.005815 0.000000 0.003281 0.000000
# 3 -0.003649 -0.005815 0.010346 0.000000 0.002746 0.000000
# 4 0.000000 0.000000 0.000000 0.041209 0.000000 0.005707
# 5 -0.001222 0.003281 0.002746 0.000000 0.033818 0.000000
# 6 0.000000 0.000000 0.000000 0.005707 0.000000 0.031189
#
#
# Mechanical properties :
#
#
# Convention : Reuss Voigt Hill
#
# Bulk Modulus (GPa) = 54.09900 74.90351 64.50126
# Shear Modulus (GPa) = 26.01136 29.52425 27.76780
#
# Velocity S-wave (km/s) = 3.78540 4.03292 3.91112
# Velocity P-wave (km/s) = 6.99343 7.93405 7.47854
#
# Compressibility (1/GPa) = 0.01848463
#
# Stress axis : x y z
#
# Youngs Moduli (GPa) = 85.25720 36.91338 96.65795
#
# Poissons Ratio (x) = 0.21693 0.35272
# Poissons Ratio (y) = 0.50103 0.56202
# Poissons Ratio (z) = 0.31112 0.21463
#
# Static dielectric constant tensor:
#      x y z
#    x 3.794570 0.000000 0.251430 
#    y 0.000000 3.350890 0.000000 
#    z 0.251430 0.000000 3.523320 
# 
# 
# High freq. dielectric constant tensor:
#      x y z
#    x 1.711450 0.000000 -0.000470 
#    y 0.000000 1.705280 0.000000 
#    z -0.000470 0.000000 1.697490 
# 
# From -- ./inp_files/242339.got.cif
#   From: 2010.06.25/outbox.cif.g09.slc.cpg/sg15_122_cif.got.tgz:242339.got - 2010.06.28 07:06:18.
