data_PCOD8137052
_publ_section_title
;
Structure prediction by ZEFSAII (Michael W. Deem and Ramdas Pophale) SiO2 
 PCOD8137052
Probable space group: C 2/C
;
_chemical_formula_sum "Si O2"
_cell_formula_units_Z 48
_cell_length_a 15.202882
_cell_length_b 9.889388
_cell_length_c 31.601629
_cell_angle_alpha 90.000000
_cell_angle_beta 151.513082
_cell_angle_gamma 90.000000
_cell_volume 2266.131112
_symmetry_space_group_name_H-M "C 2/C"
_symmetry_group_IT_number 15
_symmetry_cell_setting 'monoclinic'
loop_
_space_group_symop_operation_xyz
x,y,z
-x,y,1/2-z
-x,-y,-z
x,-y,1/2+z
1/2+x,1/2+y,z
1/2-x,1/2+y,1/2-z
1/2-x,1/2-y,-z
1/2+x,1/2-y,1/2+z
loop_
_atom_site_type_symbol
_atom_site_label
_atom_site_fract_x
_atom_site_fract_y
_atom_site_fract_z
Si Si1 0.915612 0.923041 0.338569
Si Si2 0.500000 0.636130 0.250000
Si Si3 0.778507 0.026015 0.591795
Si Si4 0.748522 0.198406 0.288809
Si Si5 0.500000 0.074655 0.250000
Si Si6 0.521027 0.800934 0.037960
Si Si7 0.298513 0.354646 0.378281
O O1 0.789670 0.816674 0.260317
O O2 0.928291 0.886542 0.393388
O O3 0.125699 0.920228 0.410430
O O4 0.817635 0.068504 0.291977
O O5 0.552803 0.542248 0.311643
O O6 0.675361 0.726877 0.312077
O O7 0.693616 0.147503 0.583272
O O8 0.619110 0.922091 0.511630
O O9 0.911397 0.244305 0.389015
O O10 0.562490 0.166070 0.236805
O O11 0.672271 0.982373 0.337371
O O12 0.422106 0.679405 0.971120
#
# Coordination Sequence:
#
# PCOD8137052 Si02
#       7
#     8   4   8   8   4   8   8
#     4  11  23  38  61  90 120 154 198 251 298 346
#     4   9  16  35  60  80 116 162 200 230 288 372
#     4  10  20  35  59  88 119 160 200 242 292 351
#     4  11  23  41  64  90 120 157 201 247 295 353
#     4   9  20  39  64  84 112 162 200 234 296 372
#     4  10  22  39  59  86 122 161 199 241 297 359
#     4   9  20  38  59  86 117 153 196 246 300 350
#
# _framework density 21.181476
#
# number of rings (size 3 to 8) (size 9 to 14) (size 15 to 20)
#    0.000    2.000    0.000    3.000    0.000    8.000 
#    0.000    5.000    0.000    0.000    0.000    0.000 
#    0.000    0.000    0.000    0.000    0.000    0.000 
#
# Total GULP energy -297676.733548 kJ/mol
# GULP energy per Si atom -12403.197231 kJ/mol
# Density = 2.113327 g / cm^3
# Si number density = 21.181476 Si / 1000 Ang^3
#
#
#
# Elastic Constant Matrix: (Units=GPa)
#
#
# Indices 1 2 3 4 5 6 
#
# 1 83.4519 19.3156 21.2455 0.0004 9.6451 0.0000
# 2 19.3156 88.2230 26.5942 0.0005 -10.3071 0.0000
# 3 21.2455 26.5942 78.2608 0.0008 -7.2240 0.0006
# 4 0.0004 0.0005 0.0008 11.6762 0.0001 -4.2814
# 5 9.6451 -10.3071 -7.2240 0.0001 28.4965 0.0000
# 6 0.0000 0.0000 0.0006 -4.2814 0.0000 35.3909
#
#
#
# Elastic Compliance Matrix: (Units=1/GPa)
#
#
# Indices 1 2 3 4 5 6 
#
# 1 0.014332 -0.002862 -0.003544 0.000000 -0.006785 0.000000
# 2 -0.002862 0.013564 -0.003369 0.000000 0.005021 0.000000
# 3 -0.003544 -0.003369 0.015240 -0.000001 0.003845 0.000000
# 4 0.000000 0.000000 -0.000001 0.089620 -0.000001 0.010842
# 5 -0.006785 0.005021 0.003845 -0.000001 0.040179 0.000000
# 6 0.000000 0.000000 0.000000 0.010842 0.000000 0.029567
#
#
# Mechanical properties :
#
#
# Convention : Reuss Voigt Hill
#
# Bulk Modulus (GPa) = 42.40023 42.69404 42.54713
# Shear Modulus (GPa) = 21.74733 27.29808 24.52271
#
# Velocity S-wave (km/s) = 3.20772 3.59384 3.40625
# Velocity P-wave (km/s) = 5.81208 6.11727 5.96663
#
# Compressibility (1/GPa) = 0.02358478
#
# Stress axis : x y z
#
# Youngs Moduli (GPa) = 69.77457 73.72699 65.61849
#
# Poissons Ratio (x) = 0.21101 0.23258
# Poissons Ratio (y) = 0.19970 0.22105
# Poissons Ratio (z) = 0.24731 0.24836
#
# Static dielectric constant tensor:
#      x y z
#    x 3.830520 0.000000 0.137760 
#    y 0.000000 4.043100 0.000000 
#    z 0.137760 0.000000 3.622460 
# 
# 
# High freq. dielectric constant tensor:
#      x y z
#    x 1.828810 0.000000 0.010400 
#    y 0.000000 1.845730 0.000000 
#    z 0.010400 0.000000 1.817330 
# 
# From -- ./inp_files/313655.got.cif
#   From: 2010.06.25/outbox.cif.g09.slc.cpg/sg15_157_cif.got.tgz:313655.got - 2010.06.28 07:06:18.
