data_PCOD8137024
_publ_section_title
;
Structure prediction by ZEFSAII (Michael W. Deem and Ramdas Pophale) SiO2 
 PCOD8137024
Probable space group: C 2/C
;
_chemical_formula_sum "Si O2"
_cell_formula_units_Z 64
_cell_length_a 9.396596
_cell_length_b 19.004125
_cell_length_c 20.086622
_cell_angle_alpha 90.000000
_cell_angle_beta 57.904917
_cell_angle_gamma 90.000000
_cell_volume 3038.747664
_symmetry_space_group_name_H-M "C 2/C"
_symmetry_group_IT_number 15
_symmetry_cell_setting 'monoclinic'
loop_
_space_group_symop_operation_xyz
x,y,z
-x,y,1/2-z
-x,-y,-z
x,-y,1/2+z
1/2+x,1/2+y,z
1/2-x,1/2+y,1/2-z
1/2-x,1/2-y,-z
1/2+x,1/2-y,1/2+z
loop_
_atom_site_type_symbol
_atom_site_label
_atom_site_fract_x
_atom_site_fract_y
_atom_site_fract_z
Si Si1 0.946717 0.098719 0.015274
Si Si2 0.136788 0.100427 0.766659
Si Si3 0.268287 0.326282 0.123927
Si Si4 0.940648 0.001260 0.905044
Si Si5 0.553468 0.147831 0.871621
Si Si6 0.776242 0.241813 0.087856
Si Si7 0.102202 0.570926 0.467068
Si Si8 0.994070 0.700224 0.078312
O O1 0.849102 0.163897 0.068857
O O2 0.938727 0.040033 0.074306
O O3 0.137314 0.120833 0.949995
O O4 0.864152 0.067170 0.967187
O O5 0.187050 0.154528 0.811712
O O6 0.313228 0.086833 0.683399
O O7 0.000000 0.133817 0.750000
O O8 0.055936 0.028515 0.815566
O O9 0.333478 0.246628 0.096664
O O10 0.070161 0.330732 0.158124
O O11 0.797270 0.949746 0.913578
O O12 0.669379 0.216813 0.858790
O O13 0.437499 0.121397 0.960607
O O14 0.574107 0.228813 0.128482
O O15 0.850065 0.290414 0.010916
O O16 0.000000 0.500000 0.500000
O O17 0.058739 0.617494 0.411725
#
# Coordination Sequence:
#
# PCOD8137024 Si02
#       8
#     8   8   8   8   8   8   8   8
#     4   9  18  34  59  89 123 156 202 257 307 361
#     4  11  23  40  60  82 122 167 207 248 318 388
#     4  10  20  37  61  90 119 152 210 262 309 360
#     4  10  20  35  58  89 122 167 204 253 307 374
#     4  11  22  36  62  90 117 162 208 263 306 373
#     4   9  18  33  57  88 122 154 198 244 312 355
#     4  11  21  34  59  91 127 157 209 253 307 365
#     4   9  19  33  56  90 123 155 192 256 300 360
#
# _framework density 21.061308
#
# number of rings (size 3 to 8) (size 9 to 14) (size 15 to 20)
#    0.000    2.000    1.250    2.625    1.750    5.500 
#    0.000    0.000    5.500    0.000    3.250    0.000 
#    0.000    0.000    0.000    0.000    0.000    0.000 
#
# Total GULP energy -396482.638662 kJ/mol
# GULP energy per Si atom -12390.082458 kJ/mol
# Density = 2.101337 g / cm^3
# Si number density = 21.061308 Si / 1000 Ang^3
#
#
#
# Elastic Constant Matrix: (Units=GPa)
#
#
# Indices 1 2 3 4 5 6 
#
# 1 165.7354 55.2705 40.4292 0.0000 -2.6246 0.0000
# 2 55.2705 118.7681 24.6417 0.0000 -0.4538 0.0000
# 3 40.4292 24.6417 62.3387 0.0000 -4.8663 0.0000
# 4 0.0000 0.0000 0.0000 22.3135 0.0000 -1.5298
# 5 -2.6246 -0.4538 -4.8663 0.0000 31.7453 0.0000
# 6 0.0000 0.0000 0.0000 -1.5298 0.0000 36.3051
#
#
#
# Elastic Compliance Matrix: (Units=1/GPa)
#
#
# Indices 1 2 3 4 5 6 
#
# 1 0.007977 -0.002875 -0.004037 0.000000 0.000000 0.000000
# 2 -0.002875 0.010214 -0.002207 0.000000 -0.000430 0.000000
# 3 -0.004037 -0.002207 0.019740 0.000000 0.002661 0.000000
# 4 0.000000 0.000000 0.000000 0.044946 0.000000 0.001894
# 5 0.000000 -0.000430 0.002661 0.000000 0.031902 0.000000
# 6 0.000000 0.000000 0.000000 0.001894 0.000000 0.027624
#
#
# Mechanical properties :
#
#
# Convention : Reuss Voigt Hill
#
# Bulk Modulus (GPa) = 50.77800 65.28054 58.02927
# Shear Modulus (GPa) = 29.90354 33.17284 31.53819
#
# Velocity S-wave (km/s) = 3.77215 3.97301 3.87388
# Velocity P-wave (km/s) = 6.56766 7.21867 6.90085
#
# Compressibility (1/GPa) = 0.01969357
#
# Stress axis : x y z
#
# Youngs Moduli (GPa) = 125.35704 97.90756 50.65948
#
# Poissons Ratio (x) = 0.28145 0.20453
# Poissons Ratio (y) = 0.36036 0.11178
# Poissons Ratio (z) = 0.50610 0.21604
#
# Static dielectric constant tensor:
#      x y z
#    x 4.044810 0.000000 0.041410 
#    y 0.000000 3.824020 0.000000 
#    z 0.041410 0.000000 3.593210 
# 
# 
# High freq. dielectric constant tensor:
#      x y z
#    x 1.836500 0.000000 0.003310 
#    y 0.000000 1.818400 0.000000 
#    z 0.003310 0.000000 1.783550 
# 
# From -- ./inp_files/233854.got.cif
#   From: 2010.06.25/outbox.cif.g09.slc.cpg/sg15_117_cif.got.tgz:233854.got - 2010.06.28 07:06:18.
