data_PCOD8137040
_publ_section_title
;
Structure prediction by ZEFSAII (Michael W. Deem and Ramdas Pophale) SiO2 
 PCOD8137040
Probable space group: C 2/C
;
_chemical_formula_sum "Si O2"
_cell_formula_units_Z 64
_cell_length_a 17.919972
_cell_length_b 21.480381
_cell_length_c 11.187236
_cell_angle_alpha 90.000000
_cell_angle_beta 51.718876
_cell_angle_gamma 90.000000
_cell_volume 3380.344654
_symmetry_space_group_name_H-M "C 2/C"
_symmetry_group_IT_number 15
_symmetry_cell_setting 'monoclinic'
loop_
_space_group_symop_operation_xyz
x,y,z
-x,y,1/2-z
-x,-y,-z
x,-y,1/2+z
1/2+x,1/2+y,z
1/2-x,1/2+y,1/2-z
1/2-x,1/2-y,-z
1/2+x,1/2-y,1/2+z
loop_
_atom_site_type_symbol
_atom_site_label
_atom_site_fract_x
_atom_site_fract_y
_atom_site_fract_z
Si Si1 0.096346 0.848607 0.612061
Si Si2 0.898312 0.643477 0.825738
Si Si3 0.254599 0.648644 0.332340
Si Si4 0.750252 0.595232 0.646364
Si Si5 0.403060 0.028351 0.647681
Si Si6 0.907136 0.033969 0.541503
Si Si7 0.744806 0.440678 0.886563
Si Si8 0.251252 0.209419 0.807441
O O1 0.161795 0.866225 0.658596
O O2 0.063409 0.910658 0.575622
O O3 0.150717 0.801429 0.471666
O O4 0.000000 0.814867 0.750000
O O5 0.919283 0.580215 0.732757
O O6 0.835963 0.692059 0.813261
O O7 0.000000 0.674876 0.750000
O O8 0.844654 0.630857 0.004595
O O9 0.273241 0.606384 0.201573
O O10 0.257794 0.718016 0.274534
O O11 0.842291 0.557210 0.599416
O O12 0.747440 0.597126 0.507053
O O13 0.756801 0.666988 0.683628
O O14 0.655528 0.561517 0.788087
O O15 0.500000 0.000000 0.500000
O O16 0.345650 0.973861 0.769768
O O17 0.842662 0.988470 0.525412
O O18 0.000000 0.000000 0.500000
#
# Coordination Sequence:
#
# PCOD8137040 Si02
#       8
#     8   8   8   8   8   8   8   8
#     4  10  20  35  59  85 110 144 185 236 288 332
#     4  10  20  35  59  85 110 144 185 236 288 332
#     4  11  22  36  56  85 111 147 197 232 280 324
#     4   9  22  40  54  80 114 150 191 226 286 332
#     4  10  22  36  57  82 117 150 180 233 286 346
#     4  10  22  36  57  82 117 150 180 233 286 346
#     4  11  23  34  57  82 114 151 186 234 271 347
#     4   9  21  40  55  79 116 147 189 241 273 331
#
# _framework density 18.932980000000001
#
# number of rings (size 3 to 8) (size 9 to 14) (size 15 to 20)
#    0.000    2.000    0.000    5.250   10.500    2.500 
#    0.000    0.000    0.000    0.000    0.000    7.000 
#    0.000    0.000    0.000    0.000    0.000    0.000 
#
# Total GULP energy -396804.748079 kJ/mol
# GULP energy per Si atom -12400.148377 kJ/mol
# Density = 1.888989 g / cm^3
# Si number density = 18.932980 Si / 1000 Ang^3
#
#
#
# Elastic Constant Matrix: (Units=GPa)
#
#
# Indices 1 2 3 4 5 6 
#
# 1 54.3583 -6.7623 21.4943 0.0000 -13.2634 0.0000
# 2 -6.7623 62.0385 0.9239 0.0000 -5.7317 0.0000
# 3 21.4943 0.9239 69.5659 0.0000 -7.9187 0.0000
# 4 0.0000 0.0000 0.0000 18.4790 0.0000 0.8531
# 5 -13.2634 -5.7317 -7.9187 0.0000 46.1748 0.0000
# 6 0.0000 0.0000 0.0000 0.8531 0.0000 13.5953
#
#
#
# Elastic Compliance Matrix: (Units=1/GPa)
#
#
# Indices 1 2 3 4 5 6 
#
# 1 0.022735 0.003111 -0.006404 0.000000 0.005819 0.000000
# 2 0.003111 0.016732 -0.000862 0.000000 0.002823 0.000000
# 3 -0.006404 -0.000862 0.016465 0.000000 0.000877 0.000000
# 4 0.000000 0.000000 0.000000 0.054273 0.000000 -0.003406
# 5 0.005819 0.002823 0.000877 0.000000 0.023829 0.000000
# 6 0.000000 0.000000 0.000000 -0.003406 0.000000 0.073769
#
#
# Mechanical properties :
#
#
# Convention : Reuss Voigt Hill
#
# Bulk Modulus (GPa) = 20.99851 24.14161 22.57006
# Shear Modulus (GPa) = 21.55303 27.00359 24.27831
#
# Velocity S-wave (km/s) = 3.37766 3.78070 3.58485
# Velocity P-wave (km/s) = 5.13093 5.64243 5.39275
#
# Compressibility (1/GPa) = 0.04762242
#
# Stress axis : x y z
#
# Youngs Moduli (GPa) = 43.98431 59.76654 60.73578
#
# Poissons Ratio (x) = -0.18594 0.38893
# Poissons Ratio (y) = -0.13684 0.05236
# Poissons Ratio (z) = 0.28166 0.05153
#
# Static dielectric constant tensor:
#      x y z
#    x 3.469500 0.000000 -0.128000 
#    y 0.000000 3.418820 0.000000 
#    z -0.128000 0.000000 3.528790 
# 
# 
# High freq. dielectric constant tensor:
#      x y z
#    x 1.735310 0.000000 -0.010210 
#    y 0.000000 1.734290 0.000000 
#    z -0.010210 0.000000 1.735720 
# 
# From -- ./inp_files/107491.got.cif
#   From: 2010.06.25/outbox.cif.g09.slc.cpg/sg15_54_cif.got.tgz:107491.got - 2010.06.28 07:06:18.
