data_PCOD8137584
_publ_section_title
;
Structure prediction by ZEFSAII (Michael W. Deem and Ramdas Pophale) SiO2 
 PCOD8137584
Probable space group: C 2/C
;
_chemical_formula_sum "Si O2"
_cell_formula_units_Z 56
_cell_length_a 13.991882
_cell_length_b 11.592647
_cell_length_c 25.270504
_cell_angle_alpha 90.000000
_cell_angle_beta 135.859300
_cell_angle_gamma 90.000000
_cell_volume 2854.602183
_symmetry_space_group_name_H-M "C 2/C"
_symmetry_group_IT_number 15
_symmetry_cell_setting 'monoclinic'
loop_
_space_group_symop_operation_xyz
x,y,z
-x,y,1/2-z
-x,-y,-z
x,-y,1/2+z
1/2+x,1/2+y,z
1/2-x,1/2+y,1/2-z
1/2-x,1/2-y,-z
1/2+x,1/2-y,1/2+z
loop_
_atom_site_type_symbol
_atom_site_label
_atom_site_fract_x
_atom_site_fract_y
_atom_site_fract_z
Si Si1 0.360882 0.587733 0.227228
Si Si2 0.765636 0.766071 0.849749
Si Si3 0.847524 0.541070 0.929982
Si Si4 0.414244 0.487795 0.864825
Si Si5 0.300333 0.569067 0.526347
Si Si6 0.598757 0.199016 0.380646
Si Si7 0.186056 0.774636 0.204379
O O1 0.500000 0.597892 0.250000
O O2 0.237849 0.518831 0.150460
O O3 0.404083 0.527223 0.298247
O O4 0.303744 0.714238 0.217082
O O5 0.855999 0.679340 0.922128
O O6 0.626107 0.788530 0.828320
O O7 0.738873 0.697255 0.784701
O O8 0.841127 0.888280 0.869719
O O9 0.771210 0.505541 0.953433
O O10 0.000000 0.500000 0.000000
O O11 0.574355 0.490970 0.946016
O O12 0.347311 0.614408 0.845107
O O13 0.361245 0.688084 0.571242
O O14 0.188449 0.589965 0.435896
O O15 0.438775 0.184313 0.332103
#
# Coordination Sequence:
#
# PCOD8137584 Si02
#       7
#     8   8   8   8   8   8   8
#     4  11  21  37  61  86 117 160 199 242 297 359
#     4  10  21  35  59  87 116 155 201 248 293 354
#     4  11  21  36  60  87 118 157 204 247 290 349
#     4  10  20  37  61  85 116 158 196 244 303 355
#     4   9  18  33  55  82 114 151 197 235 292 355
#     4   9  18  33  55  85 114 146 192 251 289 337
#     4  10  20  36  60  86 115 150 200 247 297 358
#
# _framework density 19.617443999999999
#
# number of rings (size 3 to 8) (size 9 to 14) (size 15 to 20)
#    0.000    2.000    2.857    1.286    0.000    1.714 
#    0.000    3.571    3.143    0.000    0.000    0.000 
#    0.000    0.000    0.000    0.000    0.000    0.000 
#
# Total GULP energy -346919.888541 kJ/mol
# GULP energy per Si atom -12389.996019 kJ/mol
# Density = 1.957279 g / cm^3
# Si number density = 19.617444 Si / 1000 Ang^3
#
#
#
# Elastic Constant Matrix: (Units=GPa)
#
#
# Indices 1 2 3 4 5 6 
#
# 1 75.7795 31.6374 30.4720 0.0000 9.8824 0.0000
# 2 31.6374 68.2394 34.0947 0.0000 6.9559 0.0000
# 3 30.4720 34.0947 69.4871 0.0000 22.2430 0.0000
# 4 0.0000 0.0000 0.0000 25.3857 0.0000 5.5810
# 5 9.8824 6.9559 22.2430 0.0000 32.4095 0.0000
# 6 0.0000 0.0000 0.0000 5.5810 0.0000 17.5976
#
#
#
# Elastic Compliance Matrix: (Units=1/GPa)
#
#
# Indices 1 2 3 4 5 6 
#
# 1 0.017565 -0.005766 -0.004556 0.000000 -0.000991 0.000000
# 2 -0.005766 0.021543 -0.009130 0.000000 0.003401 0.000000
# 3 -0.004556 -0.009130 0.025371 0.000000 -0.014063 0.000000
# 4 0.000000 0.000000 0.000000 0.042345 0.000000 -0.013430
# 5 -0.000991 0.003401 -0.014063 0.000000 0.040079 0.000000
# 6 0.000000 0.000000 0.000000 -0.013430 0.000000 0.061085
#
#
# Mechanical properties :
#
#
# Convention : Reuss Voigt Hill
#
# Bulk Modulus (GPa) = 39.10298 45.10159 42.10228
# Shear Modulus (GPa) = 19.57586 22.89868 21.23727
#
# Velocity S-wave (km/s) = 3.16235 3.42023 3.29381
# Velocity P-wave (km/s) = 5.77148 6.21593 5.99782
#
# Compressibility (1/GPa) = 0.02557350
#
# Stress axis : x y z
#
# Youngs Moduli (GPa) = 56.93200 46.41950 39.41557
#
# Poissons Ratio (x) = 0.26765 0.17958
# Poissons Ratio (y) = 0.32827 0.35987
# Poissons Ratio (z) = 0.25939 0.42382
#
# Static dielectric constant tensor:
#      x y z
#    x 3.624470 0.000000 0.074820 
#    y 0.000000 3.396460 0.000000 
#    z 0.074820 0.000000 3.711450 
# 
# 
# High freq. dielectric constant tensor:
#      x y z
#    x 1.765350 0.000000 0.002290 
#    y 0.000000 1.739670 0.000000 
#    z 0.002290 0.000000 1.764600 
# 
# From -- ./inp_files/295954.got.cif
#   From: 2010.06.25/outbox.cif.g09.slc.cpg/sg15_148_cif.got.tgz:295954.got - 2010.06.28 07:06:18.
