data_PCOD8137334
_publ_section_title
;
Structure prediction by ZEFSAII (Michael W. Deem and Ramdas Pophale) SiO2 
 PCOD8137334
Probable space group: C 2/C
;
_chemical_formula_sum "Si O2"
_cell_formula_units_Z 40
_cell_length_a 5.127818
_cell_length_b 20.390037
_cell_length_c 18.116276
_cell_angle_alpha 90.000000
_cell_angle_beta 77.096043
_cell_angle_gamma 90.000000
_cell_volume 1846.336714
_symmetry_space_group_name_H-M "C 2/C"
_symmetry_group_IT_number 15
_symmetry_cell_setting 'monoclinic'
loop_
_space_group_symop_operation_xyz
x,y,z
-x,y,1/2-z
-x,-y,-z
x,-y,1/2+z
1/2+x,1/2+y,z
1/2-x,1/2+y,1/2-z
1/2-x,1/2-y,-z
1/2+x,1/2-y,1/2+z
loop_
_atom_site_type_symbol
_atom_site_label
_atom_site_fract_x
_atom_site_fract_y
_atom_site_fract_z
Si Si1 0.626879 0.099841 0.620592
Si Si2 0.549723 0.762534 0.403444
Si Si3 0.177317 0.440583 0.961214
Si Si4 0.420337 0.525637 0.834277
Si Si5 0.467963 0.192805 0.074809
O O1 0.497806 0.171519 0.641562
O O2 0.771126 0.095710 0.530666
O O3 0.386169 0.049242 0.647948
O O4 0.867940 0.083829 0.661736
O O5 0.526885 0.778954 0.490613
O O6 0.337035 0.710224 0.386744
O O7 0.838971 0.727315 0.376713
O O8 0.426119 0.468304 0.896603
O O9 0.006665 0.386701 0.925344
O O10 0.000000 0.500000 0.000000
O O11 0.500000 0.495761 0.750000
#
# Coordination Sequence:
#
# PCOD8137334 Si02
#       5
#     8   8   8   8   8
#     4  10  20  36  57  80 108 145 189 233 278 333
#     4   9  17  30  50  77 105 135 178 226 271 317
#     4   9  20  35  56  83 114 148 186 226 274 336
#     4  11  22  36  55  81 112 147 185 232 285 338
#     4   9  17  29  49  78 109 138 172 223 272 316
#
# _framework density 21.664521000000001
#
# number of rings (size 3 to 8) (size 9 to 14) (size 15 to 20)
#    0.000    2.400    0.000    2.400    0.000   12.800 
#    0.000    0.000    0.000    4.800    0.000    0.000 
#    0.000    0.000    0.000    0.000    0.000    0.200 
#
# Total GULP energy -247766.382082 kJ/mol
# GULP energy per Si atom -12388.319104 kJ/mol
# Density = 2.161521 g / cm^3
# Si number density = 21.664521 Si / 1000 Ang^3
#
#
#
# Elastic Constant Matrix: (Units=GPa)
#
#
# Indices 1 2 3 4 5 6 
#
# 1 129.2737 46.2137 21.0839 0.0000 -5.6051 0.0000
# 2 46.2137 137.3264 26.4209 0.0000 -2.2852 0.0000
# 3 21.0839 26.4209 90.5664 0.0000 -8.2056 0.0000
# 4 0.0000 0.0000 0.0000 6.6722 0.0000 0.0876
# 5 -5.6051 -2.2852 -8.2056 0.0000 15.5709 0.0000
# 6 0.0000 0.0000 0.0000 0.0876 0.0000 31.6756
#
#
#
# Elastic Compliance Matrix: (Units=1/GPa)
#
#
# Indices 1 2 3 4 5 6 
#
# 1 0.009005 -0.002785 -0.001079 0.000000 0.002264 0.000000
# 2 -0.002785 0.008576 -0.001922 0.000000 -0.000757 0.000000
# 3 -0.001079 -0.001922 0.012384 0.000000 0.005856 0.000000
# 4 0.000000 0.000000 0.000000 0.149881 0.000000 -0.000414
# 5 0.002264 -0.000757 0.005856 0.000000 0.068012 0.000000
# 6 0.000000 0.000000 0.000000 -0.000414 0.000000 0.031571
#
#
# Mechanical properties :
#
#
# Convention : Reuss Voigt Hill
#
# Bulk Modulus (GPa) = 54.36712 60.51149 57.43930
# Shear Modulus (GPa) = 16.82745 28.34695 22.58720
#
# Velocity S-wave (km/s) = 2.79001 3.62117 3.23242
# Velocity P-wave (km/s) = 5.96057 6.74356 6.36412
#
# Compressibility (1/GPa) = 0.01839347
#
# Stress axis : x y z
#
# Youngs Moduli (GPa) = 111.04510 116.59828 80.74906
#
# Poissons Ratio (x) = 0.32476 0.08711
# Poissons Ratio (y) = 0.30929 0.15521
# Poissons Ratio (z) = 0.11979 0.22412
#
# Static dielectric constant tensor:
#      x y z
#    x 3.888870 0.000000 -0.056910 
#    y 0.000000 4.158840 0.000000 
#    z -0.056910 0.000000 3.800110 
# 
# 
# High freq. dielectric constant tensor:
#      x y z
#    x 1.845390 0.000000 -0.003680 
#    y 0.000000 1.851770 0.000000 
#    z -0.003680 0.000000 1.796420 
# 
# From -- ./inp_files/227126.got.cif
#   From: 2010.06.25/outbox.cif.g09.slc.cpg/sg15_114_cif.got.tgz:227126.got - 2010.06.28 07:06:18.
