data_PCOD8137482
_publ_section_title
;
Structure prediction by ZEFSAII (Michael W. Deem and Ramdas Pophale) SiO2 
 PCOD8137482
Probable space group: C 2/C
;
_chemical_formula_sum "Si O2"
_cell_formula_units_Z 60
_cell_length_a 19.479728
_cell_length_b 14.797446
_cell_length_c 20.398289
_cell_angle_alpha 90.000000
_cell_angle_beta 147.909274
_cell_angle_gamma 90.000000
_cell_volume 3123.717141
_symmetry_space_group_name_H-M "C 2/C"
_symmetry_group_IT_number 15
_symmetry_cell_setting 'monoclinic'
loop_
_space_group_symop_operation_xyz
x,y,z
-x,y,1/2-z
-x,-y,-z
x,-y,1/2+z
1/2+x,1/2+y,z
1/2-x,1/2+y,1/2-z
1/2-x,1/2-y,-z
1/2+x,1/2-y,1/2+z
loop_
_atom_site_type_symbol
_atom_site_label
_atom_site_fract_x
_atom_site_fract_y
_atom_site_fract_z
Si Si1 0.607117 0.613182 0.627292
Si Si2 0.440960 0.975262 0.768606
Si Si3 0.500000 0.654423 0.750000
Si Si4 0.944889 0.703301 0.094645
Si Si5 0.936246 0.546542 0.510889
Si Si6 0.729558 0.401188 0.366298
Si Si7 0.182883 0.926400 0.623957
Si Si8 0.848137 0.695510 0.351208
O O1 0.671209 0.614880 0.749021
O O2 0.647485 0.524867 0.621349
O O3 0.449877 0.619459 0.509199
O O4 0.673842 0.700205 0.644757
O O5 0.500000 0.021513 0.750000
O O6 0.531299 0.887918 0.845888
O O7 0.290028 0.941929 0.652460
O O8 0.462696 0.045233 0.847002
O O9 0.543869 0.712865 0.848031
O O10 0.384903 0.586690 0.674405
O O11 0.041976 0.707912 0.113471
O O12 0.803696 0.691544 0.947405
O O13 0.812314 0.491648 0.434736
O O14 0.895604 0.646601 0.456204
O O15 0.000000 0.500000 0.500000
O O16 0.233425 0.862170 0.724398
#
# Coordination Sequence:
#
# PCOD8137482 Si02
#       8
#     8   8   4   8   8   8   8   8
#     4  11  23  36  58  88 117 163 191 255 314 338
#     4  10  20  36  59  82 113 160 195 248 301 348
#     4  12  22  34  48  90 130 160 184 230 316 386
#     4  10  21  33  52  84 118 153 197 234 282 370
#     4  11  19  38  61  85 113 154 213 249 285 352
#     4  11  22  35  53  79 124 161 193 234 292 370
#     4  10  23  39  55  87 127 145 207 256 291 366
#     4  11  21  37  63  86 114 159 203 254 294 353
#
# _framework density 19.207885000000001
#
# number of rings (size 3 to 8) (size 9 to 14) (size 15 to 20)
#    0.000    1.333    7.333    0.400    1.867    2.133 
#    0.000    0.000    0.000    0.800    1.733    0.000 
#    0.000    0.000    0.000    0.000    0.000    0.000 
#
# Total GULP energy -371644.507426 kJ/mol
# GULP energy per Si atom -12388.150248 kJ/mol
# Density = 1.916417 g / cm^3
# Si number density = 19.207885 Si / 1000 Ang^3
#
#
#
# Elastic Constant Matrix: (Units=GPa)
#
#
# Indices 1 2 3 4 5 6 
#
# 1 44.9648 -7.1155 -22.2258 -0.0007 -14.6066 -0.0001
# 2 -7.1155 70.0493 -13.1805 -0.0009 -6.4929 -0.0001
# 3 -22.2258 -13.1805 31.1979 -0.0012 -12.2620 -0.0005
# 4 -0.0007 -0.0009 -0.0012 -33.8321 -0.0004 40.7457
# 5 -14.6066 -6.4929 -12.2620 -0.0004 23.2628 -0.0002
# 6 -0.0001 -0.0001 -0.0005 40.7457 -0.0002 -6.5435
#
#
#
# Elastic Compliance Matrix: (Units=1/GPa)
#
#
# Indices 1 2 3 4 5 6 
#
# 1 -0.056984 -0.031220 -0.089898 -0.000003 -0.091880 -0.000008
# 2 -0.031220 0.000411 -0.037496 -0.000001 -0.039253 -0.000003
# 3 -0.089898 -0.037496 -0.093503 -0.000004 -0.116199 -0.000009
# 4 -0.000003 -0.000001 -0.000004 0.004548 -0.000004 0.028319
# 5 -0.091880 -0.039253 -0.116199 -0.000004 -0.086909 -0.000010
# 6 -0.000008 -0.000003 -0.000009 0.028319 -0.000010 0.023514
#
#
# Mechanical properties :
#
#
# Convention : Reuss Voigt Hill
#
# Bulk Modulus (GPa) = -2.13993 6.79647 2.32827
# Shear Modulus (GPa) = -105.34425 9.15969 -48.09228
#
# Velocity S-wave (km/s) = -7.41373 2.18611 -5.00921
# Velocity P-wave (km/s) = 8.62560 3.14931 5.67815
#
# Compressibility (1/GPa) = -0.46730454
#
# Stress axis : x y z
#
# Youngs Moduli (GPa) = -17.54889 2434.26997 -10.69480
#
# Poissons Ratio (x) = 75.99788 -0.96144
# Poissons Ratio (y) = -0.54788 -0.40101
# Poissons Ratio (z) = -1.57762 91.27510
#
# Static dielectric constant tensor:
#      x y z
#    x 5.432850 -0.000060 2.069360 
#    y -0.000060 4.250440 -0.000060 
#    z 2.069360 -0.000060 6.058670 
# 
# 
# High freq. dielectric constant tensor:
#      x y z
#    x 1.729030 0.000000 0.007890 
#    y 0.000000 1.727900 0.000000 
#    z 0.007890 0.000000 1.761230 
# 
# From -- ./inp_files/253060.got.cif
#   From: 2010.06.25/outbox.cif.g09.slc.cpg/sg15_127_cif.got.tgz:253060.got - 2010.06.28 07:06:18.
