data_PCOD8137300
_publ_section_title
;
Structure prediction by ZEFSAII (Michael W. Deem and Ramdas Pophale) SiO2 
 PCOD8137300
Probable space group: C 2/C
;
_chemical_formula_sum "Si O2"
_cell_formula_units_Z 56
_cell_length_a 25.017176
_cell_length_b 12.134013
_cell_length_c 13.100070
_cell_angle_alpha 90.000000
_cell_angle_beta 51.928283
_cell_angle_gamma 90.000000
_cell_volume 3130.568715
_symmetry_space_group_name_H-M "C 2/C"
_symmetry_group_IT_number 15
_symmetry_cell_setting 'monoclinic'
loop_
_space_group_symop_operation_xyz
x,y,z
-x,y,1/2-z
-x,-y,-z
x,-y,1/2+z
1/2+x,1/2+y,z
1/2-x,1/2+y,1/2-z
1/2-x,1/2-y,-z
1/2+x,1/2-y,1/2+z
loop_
_atom_site_type_symbol
_atom_site_label
_atom_site_fract_x
_atom_site_fract_y
_atom_site_fract_z
Si Si1 0.423583 0.785945 0.346784
Si Si2 0.792421 0.848086 0.000066
Si Si3 0.281172 0.163595 0.706845
Si Si4 0.082693 0.618062 0.862876
Si Si5 0.813095 0.716470 0.315390
Si Si6 0.254411 0.427139 0.452121
Si Si7 0.930378 0.629039 0.058377
O O1 0.500000 0.737002 0.250000
O O2 0.371541 0.684188 0.413236
O O3 0.408060 0.864455 0.268953
O O4 0.415053 0.862507 0.456147
O O5 0.787737 0.955796 0.935206
O O6 0.750000 0.750000 0.000000
O O7 0.762810 0.877835 0.145434
O O8 0.358979 0.187032 0.647425
O O9 0.246833 0.274449 0.700487
O O10 0.279222 0.068222 0.621565
O O11 0.091507 0.490382 0.877312
O O12 0.008989 0.657778 0.988358
O O13 0.801786 0.607048 0.396822
O O14 0.810922 0.828129 0.387040
O O15 0.885885 0.715075 0.174867
#
# Coordination Sequence:
#
# PCOD8137300 Si02
#       7
#     8   8   8   8   8   8   8
#     4  10  21  37  54  81 118 145 184 238 279 333
#     4  12  22  34  60  90 106 147 196 227 280 338
#     4  10  20  36  56  84 110 147 181 237 277 326
#     4  10  21  33  55  87 114 142 187 233 285 341
#     4   9  19  39  59  76 114 153 181 231 284 335
#     4   9  22  38  56  81 116 142 188 232 281 328
#     4  10  20  36  57  80 115 152 181 229 296 333
#
# _framework density 17.888124000000001
#
# number of rings (size 3 to 8) (size 9 to 14) (size 15 to 20)
#    0.857    1.143    2.857    0.857    2.000    1.143 
#    0.000    0.714    3.143    2.571    0.000    0.000 
#    0.000    0.000    0.000    0.000    0.000    0.000 
#
# Total GULP energy -347011.370386 kJ/mol
# GULP energy per Si atom -12393.263228 kJ/mol
# Density = 1.784741 g / cm^3
# Si number density = 17.888124 Si / 1000 Ang^3
#
#
#
# Elastic Constant Matrix: (Units=GPa)
#
#
# Indices 1 2 3 4 5 6 
#
# 1 122.9128 49.7209 71.4088 0.0000 -5.0848 0.0000
# 2 49.7209 84.2789 41.2949 0.0000 -2.7138 0.0000
# 3 71.4088 41.2949 132.9407 0.0000 -2.1719 0.0000
# 4 0.0000 0.0000 0.0000 17.5488 0.0000 0.0798
# 5 -5.0848 -2.7138 -2.1719 0.0000 31.6416 0.0000
# 6 0.0000 0.0000 0.0000 0.0798 0.0000 27.5451
#
#
#
# Elastic Compliance Matrix: (Units=1/GPa)
#
#
# Indices 1 2 3 4 5 6 
#
# 1 0.013581 -0.005196 -0.005659 0.000000 0.001348 0.000000
# 2 -0.005196 0.016009 -0.002175 0.000000 0.000389 0.000000
# 3 -0.005659 -0.002175 0.011232 0.000000 -0.000325 0.000000
# 4 0.000000 0.000000 0.000000 0.056985 0.000000 -0.000165
# 5 0.001348 0.000389 -0.000325 0.000000 0.031832 0.000000
# 6 0.000000 0.000000 0.000000 -0.000165 0.000000 0.036305
#
#
# Mechanical properties :
#
#
# Convention : Reuss Voigt Hill
#
# Bulk Modulus (GPa) = 67.74331 73.88685 70.81508
# Shear Modulus (GPa) = 25.39026 27.19430 26.29228
#
# Velocity S-wave (km/s) = 3.77157 3.90326 3.83798
# Velocity P-wave (km/s) = 7.54447 7.85548 7.70155
#
# Compressibility (1/GPa) = 0.01476161
#
# Stress axis : x y z
#
# Youngs Moduli (GPa) = 73.63027 62.46359 89.02843
#
# Poissons Ratio (x) = 0.32457 0.50382
# Poissons Ratio (y) = 0.38259 0.19368
# Poissons Ratio (z) = 0.41668 0.13589
#
# Static dielectric constant tensor:
#      x y z
#    x 3.380270 0.000000 0.016960 
#    y 0.000000 2.967930 0.000000 
#    z 0.016960 0.000000 3.537250 
# 
# 
# High freq. dielectric constant tensor:
#      x y z
#    x 1.686670 0.000000 0.004790 
#    y 0.000000 1.658490 0.000000 
#    z 0.004790 0.000000 1.712720 
# 
# From -- ./inp_files/117495.got.cif
#   From: 2010.06.25/outbox.cif.g09.slc.cpg/sg15_59_cif.got.tgz:117495.got - 2010.06.28 07:06:18.
