data_PCOD8137197
_publ_section_title
;
Structure prediction by ZEFSAII (Michael W. Deem and Ramdas Pophale) SiO2 
 PCOD8137197
Probable space group: C 2/C
;
_chemical_formula_sum "Si O2"
_cell_formula_units_Z 44
_cell_length_a 16.344581
_cell_length_b 14.173061
_cell_length_c 9.229089
_cell_angle_alpha 90.000000
_cell_angle_beta 68.754640
_cell_angle_gamma 90.000000
_cell_volume 1992.643179
_symmetry_space_group_name_H-M "C 2/C"
_symmetry_group_IT_number 15
_symmetry_cell_setting 'monoclinic'
loop_
_space_group_symop_operation_xyz
x,y,z
-x,y,1/2-z
-x,-y,-z
x,-y,1/2+z
1/2+x,1/2+y,z
1/2-x,1/2+y,1/2-z
1/2-x,1/2-y,-z
1/2+x,1/2-y,1/2+z
loop_
_atom_site_type_symbol
_atom_site_label
_atom_site_fract_x
_atom_site_fract_y
_atom_site_fract_z
Si Si1 0.500000 0.014460 0.250000
Si Si2 0.694099 0.253146 0.890290
Si Si3 0.124793 0.956577 0.475275
Si Si4 0.884138 0.439116 0.079110
Si Si5 0.766174 0.077500 0.321409
Si Si6 0.975082 0.139192 0.918252
O O1 0.447582 0.945728 0.175774
O O2 0.436772 0.078312 0.393436
O O3 0.684234 0.145401 0.845701
O O4 0.744454 0.318772 0.742494
O O5 0.750000 0.250000 0.000000
O O6 0.595557 0.293250 0.963005
O O7 0.189837 0.911429 0.550241
O O8 0.062363 0.871725 0.460112
O O9 0.178164 0.005544 0.311993
O O10 0.065182 0.036082 0.589261
O O11 0.831182 0.536668 0.096152
O O12 0.000000 0.186275 0.750000
#
# Coordination Sequence:
#
# PCOD8137197 Si02
#       6
#     4   8   8   8   8   8
#     4  10  24  44  70  90 126 188 220 272 322 388
#     4  11  25  40  65  95 132 176 223 274 333 398
#     4  10  20  35  64  94 129 169 210 267 344 401
#     4  11  23  45  67  94 133 171 230 271 327 396
#     4  11  22  42  67  97 134 172 215 281 341 396
#     4  10  20  36  60  94 131 165 214 267 333 399
#
# _framework density 22.081223999999999
#
# number of rings (size 3 to 8) (size 9 to 14) (size 15 to 20)
#    0.000    1.455    1.818    4.364    1.273    1.455 
#    0.000    3.636    0.000    0.000    0.000    0.000 
#    0.000    0.000    0.000    0.000    0.000    0.000 
#
# Total GULP energy -272809.181368 kJ/mol
# GULP energy per Si atom -12400.417335 kJ/mol
# Density = 2.203097 g / cm^3
# Si number density = 22.081224 Si / 1000 Ang^3
#
#
#
# Elastic Constant Matrix: (Units=GPa)
#
#
# Indices 1 2 3 4 5 6 
#
# 1 127.1731 35.7979 41.7619 0.0000 24.2230 0.0000
# 2 35.7979 98.5678 28.3256 0.0000 6.0709 0.0000
# 3 41.7619 28.3256 95.5103 0.0000 11.4148 0.0000
# 4 0.0000 0.0000 0.0000 27.1946 0.0000 -3.2565
# 5 24.2230 6.0709 11.4148 0.0000 42.5896 0.0000
# 6 0.0000 0.0000 0.0000 -3.2565 0.0000 30.7681
#
#
#
# Elastic Compliance Matrix: (Units=1/GPa)
#
#
# Indices 1 2 3 4 5 6 
#
# 1 0.010584 -0.002606 -0.003285 0.000000 -0.004768 0.000000
# 2 -0.002606 0.011754 -0.002400 0.000000 0.000450 0.000000
# 3 -0.003285 -0.002400 0.012763 0.000000 -0.001210 0.000000
# 4 0.000000 0.000000 0.000000 0.037244 0.000000 0.003942
# 5 -0.004768 0.000450 -0.001210 0.000000 0.026452 0.000000
# 6 0.000000 0.000000 0.000000 0.003942 0.000000 0.032918
#
#
# Mechanical properties :
#
#
# Convention : Reuss Voigt Hill
#
# Bulk Modulus (GPa) = 54.00185 59.22467 56.61326
# Shear Modulus (GPa) = 32.36878 34.46818 33.41848
#
# Velocity S-wave (km/s) = 3.83286 3.95520 3.89451
# Velocity P-wave (km/s) = 6.64054 6.90924 6.77623
#
# Compressibility (1/GPa) = 0.01851788
#
# Stress axis : x y z
#
# Youngs Moduli (GPa) = 94.48442 85.07890 78.35208
#
# Poissons Ratio (x) = 0.22173 0.25739
# Poissons Ratio (y) = 0.24624 0.18805
# Poissons Ratio (z) = 0.31039 0.20420
#
# Static dielectric constant tensor:
#      x y z
#    x 4.084920 0.000000 -0.060350 
#    y 0.000000 3.761180 0.000000 
#    z -0.060350 0.000000 3.993570 
# 
# 
# High freq. dielectric constant tensor:
#      x y z
#    x 1.883620 0.000000 0.001460 
#    y 0.000000 1.840460 0.000000 
#    z 0.001460 0.000000 1.869340 
# 
# From -- ./inp_files/47014.got.cif
#   From: 2010.06.25/outbox.cif.g09.slc.cpg/sg15_24_cif.got.tgz:47014.got - 2010.06.28 07:06:18.
