data_PCOD8137136
_publ_section_title
;
Structure prediction by ZEFSAII (Michael W. Deem and Ramdas Pophale) SiO2 
 PCOD8137136
Probable space group: C 2/C
;
_chemical_formula_sum "Si O2"
_cell_formula_units_Z 48
_cell_length_a 9.443770
_cell_length_b 21.126730
_cell_length_c 27.138762
_cell_angle_alpha 90.000000
_cell_angle_beta 153.008054
_cell_angle_gamma 90.000000
_cell_volume 2457.506334
_symmetry_space_group_name_H-M "C 2/C"
_symmetry_group_IT_number 15
_symmetry_cell_setting 'monoclinic'
loop_
_space_group_symop_operation_xyz
x,y,z
-x,y,1/2-z
-x,-y,-z
x,-y,1/2+z
1/2+x,1/2+y,z
1/2-x,1/2+y,1/2-z
1/2-x,1/2-y,-z
1/2+x,1/2-y,1/2+z
loop_
_atom_site_type_symbol
_atom_site_label
_atom_site_fract_x
_atom_site_fract_y
_atom_site_fract_z
Si Si1 0.500000 0.754201 0.750000
Si Si2 0.641058 0.552738 0.683344
Si Si3 0.428953 0.146277 0.849555
Si Si4 0.157119 0.045969 0.007999
Si Si5 0.703744 0.030694 0.629342
Si Si6 0.153331 0.856528 0.582928
Si Si7 0.000000 0.450806 0.750000
O O1 0.761973 0.713353 0.803908
O O2 0.345802 0.794575 0.657869
O O3 0.804871 0.611163 0.761970
O O4 0.598700 0.567675 0.612115
O O5 0.305423 0.532882 0.603431
O O6 0.878043 0.492628 0.758657
O O7 0.355146 0.103510 0.873985
O O8 0.795634 0.160033 0.962009
O O9 0.284052 0.109901 0.073536
O O10 0.414996 0.011888 0.054972
O O11 0.000000 0.000000 0.000000
O O12 0.000000 0.002754 0.750000
O O13 0.203318 0.908324 0.641831
#
# Coordination Sequence:
#
# PCOD8137136 Si02
#       7
#     4   8   8   8   8   8   4
#     4  11  24  42  62  84 126 171 228 258 306 377
#     4  11  21  34  65  94 131 166 200 261 319 387
#     4  11  20  41  61  87 120 169 221 256 306 372
#     4  12  21  38  61  99 133 157 205 260 333 384
#     4  10  20  35  61  92 131 162 200 260 314 383
#     4  11  23  37  62  92 124 164 208 264 315 376
#     4  11  20  36  60 104 126 157 202 260 332 375
#
# _framework density 19.531994000000001
#
# number of rings (size 3 to 8) (size 9 to 14) (size 15 to 20)
#    0.000    1.000    5.833    4.000    0.000    0.000 
#    0.000    0.833    0.000    0.000    0.000    0.000 
#    0.000    0.000    0.000    0.000    0.000    0.000 
#
# Total GULP energy -297370.368206 kJ/mol
# GULP energy per Si atom -12390.432009 kJ/mol
# Density = 1.948754 g / cm^3
# Si number density = 19.531994 Si / 1000 Ang^3
#
#
#
# Elastic Constant Matrix: (Units=GPa)
#
#
# Indices 1 2 3 4 5 6 
#
# 1 110.4035 54.4166 49.8924 -0.0079 -4.8023 0.0009
# 2 54.4166 132.0542 65.8181 0.0083 -1.4953 -0.0039
# 3 49.8924 65.8181 118.9134 0.0249 0.8622 0.0072
# 4 -0.0079 0.0083 0.0249 31.7184 -0.0074 1.0364
# 5 -4.8023 -1.4953 0.8622 -0.0074 32.7889 0.0020
# 6 0.0009 -0.0039 0.0072 1.0364 0.0020 27.3179
#
#
#
# Elastic Compliance Matrix: (Units=1/GPa)
#
#
# Indices 1 2 3 4 5 6 
#
# 1 0.012299 -0.003411 -0.003285 0.000007 0.001732 0.000000
# 2 -0.003411 0.011417 -0.004889 0.000000 0.000150 0.000003
# 3 -0.003285 -0.004889 0.012501 -0.000009 -0.001033 -0.000003
# 4 0.000007 0.000000 -0.000009 0.031567 0.000008 -0.001198
# 5 0.001732 0.000150 -0.001033 0.000008 0.030786 -0.000002
# 6 0.000000 0.000003 -0.000003 -0.001198 -0.000002 0.036652
#
#
# Mechanical properties :
#
#
# Convention : Reuss Voigt Hill
#
# Bulk Modulus (GPa) = 76.64637 77.95835 77.30236
# Shear Modulus (GPa) = 30.72398 31.11463 30.91930
#
# Velocity S-wave (km/s) = 3.97042 3.99558 3.98302
# Velocity P-wave (km/s) = 7.76824 7.82854 7.79845
#
# Compressibility (1/GPa) = 0.01304693
#
# Stress axis : x y z
#
# Youngs Moduli (GPa) = 81.30890 87.59005 79.99298
#
# Poissons Ratio (x) = 0.29880 0.26274
# Poissons Ratio (y) = 0.27737 0.39108
# Poissons Ratio (z) = 0.26707 0.42822
#
# Static dielectric constant tensor:
#      x y z
#    x 3.726120 0.000010 -0.030050 
#    y 0.000010 3.466750 -0.000050 
#    z -0.030050 -0.000050 3.928490 
# 
# 
# High freq. dielectric constant tensor:
#      x y z
#    x 1.753610 0.000000 -0.000220 
#    y 0.000000 1.731120 0.000000 
#    z -0.000220 0.000000 1.786030 
# 
# From -- ./inp_files/290160.got.cif
#   From: 2010.06.25/outbox.cif.g09.slc.cpg/sg15_146_cif.got.tgz:290160.got - 2010.06.28 07:06:18.
