data_PCOD8137564
_publ_section_title
;
Structure prediction by ZEFSAII (Michael W. Deem and Ramdas Pophale) SiO2 
 PCOD8137564
Probable space group: C 2/C
;
_chemical_formula_sum "Si O2"
_cell_formula_units_Z 52
_cell_length_a 19.790629
_cell_length_b 24.733122
_cell_length_c 9.679331
_cell_angle_alpha 90.000000
_cell_angle_beta 34.147809
_cell_angle_gamma 90.000000
_cell_volume 2659.511920
_symmetry_space_group_name_H-M "C 2/C"
_symmetry_group_IT_number 15
_symmetry_cell_setting 'monoclinic'
loop_
_space_group_symop_operation_xyz
x,y,z
-x,y,1/2-z
-x,-y,-z
x,-y,1/2+z
1/2+x,1/2+y,z
1/2-x,1/2+y,1/2-z
1/2-x,1/2-y,-z
1/2+x,1/2-y,1/2+z
loop_
_atom_site_type_symbol
_atom_site_label
_atom_site_fract_x
_atom_site_fract_y
_atom_site_fract_z
Si Si1 0.106452 0.233546 0.375325
Si Si2 0.846906 0.212242 0.900829
Si Si3 0.822553 0.123379 0.733678
Si Si4 0.643618 0.970823 0.498884
Si Si5 0.744058 0.457247 0.465538
Si Si6 0.264505 0.668679 0.559473
Si Si7 0.000000 0.941655 0.750000
O O1 0.172769 0.211229 0.401102
O O2 0.150753 0.291308 0.240378
O O3 0.968998 0.240682 0.646450
O O4 0.126733 0.189582 0.220643
O O5 0.843866 0.150694 0.846771
O O6 0.750000 0.250000 0.000000
O O7 0.799848 0.170908 0.660889
O O8 0.938581 0.091788 0.478650
O O9 0.704312 0.085413 0.945017
O O10 0.500000 0.969332 0.750000
O O11 0.668951 0.982701 0.296263
O O12 0.711687 0.018542 0.465741
O O13 0.763044 0.392648 0.438998
O O14 0.606278 0.473715 0.652235
#
# Coordination Sequence:
#
# PCOD8137564 Si02
#       7
#     8   8   8   8   8   8   4
#     4  10  21  36  56  80 120 151 186 242 279 343
#     4  11  21  34  54  86 115 144 192 236 284 338
#     4  10  20  36  60  82 112 156 189 240 291 346
#     4  10  22  39  60  83 117 155 195 240 291 352
#     4  10  21  37  61  85 113 153 196 244 289 349
#     4   9  19  39  56  80 111 156 194 227 293 341
#     4   8  18  36  58  86 112 148 192 234 294 346
#
# _framework density 19.55246
#
# number of rings (size 3 to 8) (size 9 to 14) (size 15 to 20)
#    0.000    2.462    1.538    2.308    0.000    6.154 
#    0.000    3.077    0.000    0.000    0.000    0.000 
#    0.000    0.000    0.000    0.000    0.000    0.000 
#
# Total GULP energy -322105.302906 kJ/mol
# GULP energy per Si atom -12388.665496 kJ/mol
# Density = 1.950796 g / cm^3
# Si number density = 19.552460 Si / 1000 Ang^3
#
#
#
# Elastic Constant Matrix: (Units=GPa)
#
#
# Indices 1 2 3 4 5 6 
#
# 1 83.5674 49.3168 32.0435 0.0006 -7.9628 0.0000
# 2 49.3168 68.8704 44.3548 0.0004 8.4332 -0.0001
# 3 32.0435 44.3548 84.4307 0.0008 -12.6993 -0.0004
# 4 0.0006 0.0004 0.0008 15.3907 -0.0007 -4.7827
# 5 -7.9628 8.4332 -12.6993 -0.0007 35.3170 0.0005
# 6 0.0000 -0.0001 -0.0004 -4.7827 0.0005 21.6318
#
#
#
# Elastic Compliance Matrix: (Units=1/GPa)
#
#
# Indices 1 2 3 4 5 6 
#
# 1 0.024132 -0.021120 0.003714 0.000000 0.011820 0.000000
# 2 -0.021120 0.044297 -0.018567 0.000000 -0.022016 0.000000
# 3 0.003714 -0.018567 0.022181 0.000000 0.013247 0.000000
# 4 0.000000 0.000000 0.000000 0.069768 0.000001 0.015425
# 5 0.011820 -0.022016 0.013247 0.000001 0.041000 0.000000
# 6 0.000000 0.000000 0.000000 0.015425 0.000000 0.049639
#
#
# Mechanical properties :
#
#
# Convention : Reuss Voigt Hill
#
# Bulk Modulus (GPa) = 53.57681 54.25542 53.91611
# Shear Modulus (GPa) = 15.18907 21.87812 18.53359
#
# Velocity S-wave (km/s) = 2.79020 3.34869 3.08212
# Velocity P-wave (km/s) = 6.15153 6.53915 6.34830
#
# Compressibility (1/GPa) = 0.01866479
#
# Stress axis : x y z
#
# Youngs Moduli (GPa) = 41.43818 22.57481 45.08418
#
# Poissons Ratio (x) = 0.47678 -0.16745
# Poissons Ratio (y) = 0.87518 0.83707
# Poissons Ratio (z) = -0.15391 0.41914
#
# Static dielectric constant tensor:
#      x y z
#    x 3.777460 0.000000 0.193430 
#    y 0.000000 3.420810 0.000000 
#    z 0.193430 0.000000 3.748430 
# 
# 
# High freq. dielectric constant tensor:
#      x y z
#    x 1.756530 0.000000 0.004780 
#    y 0.000000 1.744660 0.000000 
#    z 0.004780 0.000000 1.774740 
# 
# From -- ./inp_files/52137.got.cif
#   From: 2010.06.25/outbox.cif.g09.slc.cpg/sg15_27_cif.got.tgz:52137.got - 2010.06.28 07:06:18.
