data_PCOD8137978
_publ_section_title
;
Structure prediction by ZEFSAII (Michael W. Deem and Ramdas Pophale) SiO2 
 PCOD8137978
Probable space group: C 2/C
;
_chemical_formula_sum "Si O2"
_cell_formula_units_Z 40
_cell_length_a 14.131481
_cell_length_b 18.315055
_cell_length_c 14.076393
_cell_angle_alpha 90.000000
_cell_angle_beta 30.272128
_cell_angle_gamma 90.000000
_cell_volume 1836.582740
_symmetry_space_group_name_H-M "C 2/C"
_symmetry_group_IT_number 15
_symmetry_cell_setting 'monoclinic'
loop_
_space_group_symop_operation_xyz
x,y,z
-x,y,1/2-z
-x,-y,-z
x,-y,1/2+z
1/2+x,1/2+y,z
1/2-x,1/2+y,1/2-z
1/2-x,1/2-y,-z
1/2+x,1/2-y,1/2+z
loop_
_atom_site_type_symbol
_atom_site_label
_atom_site_fract_x
_atom_site_fract_y
_atom_site_fract_z
Si Si1 0.794277 0.197712 0.326818
Si Si2 0.810911 0.012859 0.037128
Si Si3 0.266059 0.527334 0.854626
Si Si4 0.410672 0.905855 0.611251
Si Si5 0.284073 0.347471 0.043174
O O1 0.658025 0.174959 0.357710
O O2 0.813797 0.285935 0.306064
O O3 0.711232 0.168947 0.499535
O O4 0.993482 0.160338 0.141115
O O5 0.783226 0.032694 0.951966
O O6 0.030661 0.025625 0.872311
O O7 0.686234 0.066327 0.207968
O O8 0.739819 0.929582 0.115804
O O9 0.151417 0.455248 0.924590
O O10 0.136865 0.594602 0.929261
#
# Coordination Sequence:
#
# PCOD8137978 Si02
#       5
#     8   8   8   8   8
#     4  10  20  37  55  84 124 158 197 232 299 370
#     4  11  20  39  59  85 126 160 195 251 307 348
#     4  10  21  35  56  88 123 149 200 250 290 355
#     4  11  21  35  59  91 120 158 203 249 294 359
#     4  10  20  37  55  81 126 163 183 243 302 356
#
# _framework density 21.779579999999999
#
# number of rings (size 3 to 8) (size 9 to 14) (size 15 to 20)
#    0.000    1.600    4.000    2.400    0.000    3.200 
#    7.200    0.000    0.000    0.000    0.000   12.600 
#    0.000    0.000    0.000    0.000    0.000    0.000 
#
# Total GULP energy -247916.988291 kJ/mol
# GULP energy per Si atom -12395.849415 kJ/mol
# Density = 2.173001 g / cm^3
# Si number density = 21.779580 Si / 1000 Ang^3
#
#
#
# Elastic Constant Matrix: (Units=GPa)
#
#
# Indices 1 2 3 4 5 6 
#
# 1 90.0655 33.5571 38.7444 -0.0500 -16.0409 0.0312
# 2 33.5571 63.8118 23.7604 -0.0872 -1.1275 0.0281
# 3 38.7444 23.7604 53.6112 0.0248 -1.6038 -0.0380
# 4 -0.0500 -0.0872 0.0248 23.8920 0.0259 0.0063
# 5 -16.0409 -1.1275 -1.6038 0.0259 36.8266 -0.0218
# 6 0.0312 0.0281 -0.0380 0.0063 -0.0218 35.1226
#
#
#
# Elastic Compliance Matrix: (Units=1/GPa)
#
#
# Indices 1 2 3 4 5 6 
#
# 1 0.019567 -0.005956 -0.011266 0.000022 0.007850 -0.000020
# 2 -0.005956 0.020583 -0.004883 0.000070 -0.002177 -0.000018
# 3 -0.011266 -0.004883 0.028845 -0.000067 -0.003801 0.000043
# 4 0.000022 0.000070 -0.000067 0.041855 -0.000021 -0.000008
# 5 0.007850 -0.002177 -0.003801 -0.000021 0.030341 0.000009
# 6 -0.000020 -0.000018 0.000043 -0.000008 0.000009 0.028472
#
#
# Mechanical properties :
#
#
# Convention : Reuss Voigt Hill
#
# Bulk Modulus (GPa) = 40.34795 44.40137 42.37466
# Shear Modulus (GPa) = 22.50873 26.59669 24.55271
#
# Velocity S-wave (km/s) = 3.21826 3.49832 3.36121
# Velocity P-wave (km/s) = 5.68994 6.06207 5.87895
#
# Compressibility (1/GPa) = 0.02478441
#
# Stress axis : x y z
#
# Youngs Moduli (GPa) = 51.10714 48.58356 34.66753
#
# Poissons Ratio (x) = 0.28936 0.39057
# Poissons Ratio (y) = 0.30439 0.16929
# Poissons Ratio (z) = 0.57579 0.23724
#
# Static dielectric constant tensor:
#      x y z
#    x 4.111470 -0.000290 -0.318880 
#    y -0.000290 3.744460 0.000330 
#    z -0.318880 0.000330 3.956320 
# 
# 
# High freq. dielectric constant tensor:
#      x y z
#    x 1.855970 -0.000010 -0.016200 
#    y -0.000010 1.815060 0.000020 
#    z -0.016200 0.000020 1.859510 
# 
# From -- ./inp_files/29089.got.cif
#   From: 2010.06.25/outbox.cif.g09.slc.cpg/sg15_15_cif.got.tgz:29089.got - 2010.06.28 07:06:18.
