data_PCOD8137987
_publ_section_title
;
Structure prediction by ZEFSAII (Michael W. Deem and Ramdas Pophale) SiO2 
 PCOD8137987
Probable space group: C 2/C
;
_chemical_formula_sum "Si O2"
_cell_formula_units_Z 60
_cell_length_a 18.157269
_cell_length_b 11.362318
_cell_length_c 23.090330
_cell_angle_alpha 90.000000
_cell_angle_beta 140.633564
_cell_angle_gamma 90.000000
_cell_volume 3021.531137
_symmetry_space_group_name_H-M "C 2/C"
_symmetry_group_IT_number 15
_symmetry_cell_setting 'monoclinic'
loop_
_space_group_symop_operation_xyz
x,y,z
-x,y,1/2-z
-x,-y,-z
x,-y,1/2+z
1/2+x,1/2+y,z
1/2-x,1/2+y,1/2-z
1/2-x,1/2-y,-z
1/2+x,1/2-y,1/2+z
loop_
_atom_site_type_symbol
_atom_site_label
_atom_site_fract_x
_atom_site_fract_y
_atom_site_fract_z
Si Si1 0.673780 0.069708 0.290533
Si Si2 0.925644 0.345226 0.984961
Si Si3 0.372992 0.692112 0.343257
Si Si4 0.118794 0.781779 0.435098
Si Si5 0.770505 0.826499 0.336944
Si Si6 0.019053 0.042692 0.577609
Si Si7 0.000000 0.715798 0.250000
Si Si8 0.992926 0.561778 0.082473
O O1 0.767646 0.158411 0.321315
O O2 0.612241 0.133799 0.306706
O O3 0.578843 0.033577 0.186243
O O4 0.729275 0.945673 0.343835
O O5 0.911817 0.445808 0.025277
O O6 0.042439 0.271795 0.067021
O O7 0.813846 0.259693 0.914799
O O8 0.929430 0.413782 0.926480
O O9 0.329418 0.763830 0.260990
O O10 0.438613 0.573070 0.361460
O O11 0.250000 0.750000 0.500000
O O12 0.086912 0.671846 0.454715
O O13 0.094192 0.899477 0.459372
O O14 0.036643 0.793701 0.327899
O O15 0.879643 0.857788 0.360956
O O16 0.000000 0.000000 0.500000
#
# Coordination Sequence:
#
# PCOD8137987 Si02
#       8
#     8   8   8   8   8   8   4   8
#     4  10  21  36  59  84 117 162 204 245 316 378
#     4  11  20  34  58  88 123 147 200 266 303 369
#     4  11  21  34  60  88 119 156 197 269 311 362
#     4  11  24  42  63  91 128 170 204 260 325 387
#     4  11  20  35  58  89 118 156 202 256 325 361
#     4  11  22  39  63  96 129 157 223 268 312 391
#     4  10  24  40  60  84 126 162 214 246 308 406
#     4  10  20  37  55  89 120 154 207 248 310 372
#
# _framework density 19.857482000000001
#
# number of rings (size 3 to 8) (size 9 to 14) (size 15 to 20)
#    0.000    1.333    5.333    0.800    5.600    0.000 
#    2.400    0.000    2.933    2.400    0.000    0.000 
#    0.000    0.000    0.000    0.000    0.000    0.000 
#
# Total GULP energy -371846.265237 kJ/mol
# GULP energy per Si atom -12394.875508 kJ/mol
# Density = 1.981229 g / cm^3
# Si number density = 19.857482 Si / 1000 Ang^3
#
#
#
# Elastic Constant Matrix: (Units=GPa)
#
#
# Indices 1 2 3 4 5 6 
#
# 1 74.9983 29.6933 12.6365 0.0000 6.0168 0.0000
# 2 29.6933 98.8938 23.4841 0.0000 -5.4244 0.0000
# 3 12.6365 23.4841 67.7310 0.0000 -9.3197 0.0000
# 4 0.0000 0.0000 0.0000 43.2639 0.0000 2.1186
# 5 6.0168 -5.4244 -9.3197 0.0000 26.9054 0.0000
# 6 0.0000 0.0000 0.0000 2.1186 0.0000 28.1970
#
#
#
# Elastic Compliance Matrix: (Units=1/GPa)
#
#
# Indices 1 2 3 4 5 6 
#
# 1 0.015913 -0.004564 -0.002103 0.000000 -0.005207 0.000000
# 2 -0.004564 0.012351 -0.003095 0.000000 0.002439 0.000000
# 3 -0.002103 -0.003095 0.017020 0.000000 0.005742 0.000000
# 4 0.000000 0.000000 0.000000 0.023199 0.000000 -0.001743
# 5 -0.005207 0.002439 0.005742 0.000000 0.040812 0.000000
# 6 0.000000 0.000000 0.000000 -0.001743 0.000000 0.035596
#
#
# Mechanical properties :
#
#
# Convention : Reuss Voigt Hill
#
# Bulk Modulus (GPa) = 38.82125 41.47230 40.14678
# Shear Modulus (GPa) = 28.90139 31.39385 30.14762
#
# Velocity S-wave (km/s) = 3.81916 3.98044 3.90064
# Velocity P-wave (km/s) = 6.24823 6.48502 6.36773
#
# Compressibility (1/GPa) = 0.02575909
#
# Stress axis : x y z
#
# Youngs Moduli (GPa) = 62.84282 80.96471 58.75473
#
# Poissons Ratio (x) = 0.36953 0.12355
# Poissons Ratio (y) = 0.28682 0.18187
# Poissons Ratio (z) = 0.13215 0.25061
#
# Static dielectric constant tensor:
#      x y z
#    x 3.561090 0.000000 0.121410 
#    y 0.000000 4.039610 0.000000 
#    z 0.121410 0.000000 3.860510 
# 
# 
# High freq. dielectric constant tensor:
#      x y z
#    x 1.721020 0.000000 0.002630 
#    y 0.000000 1.789170 0.000000 
#    z 0.002630 0.000000 1.790300 
# 
# From -- ./inp_files/277286.got.cif
#   From: 2010.06.25/outbox.cif.g09.slc.cpg/sg15_139_cif.got.tgz:277286.got - 2010.06.28 07:06:18.
