data_PCOD8137955
_publ_section_title
;
Structure prediction by ZEFSAII (Michael W. Deem and Ramdas Pophale) SiO2 
 PCOD8137955
Probable space group: C 2/C
;
_chemical_formula_sum "Si O2"
_cell_formula_units_Z 40
_cell_length_a 8.364067
_cell_length_b 13.511092
_cell_length_c 14.276270
_cell_angle_alpha 90.000000
_cell_angle_beta 96.650439
_cell_angle_gamma 90.000000
_cell_volume 1602.472369
_symmetry_space_group_name_H-M "C 2/C"
_symmetry_group_IT_number 15
_symmetry_cell_setting 'monoclinic'
loop_
_space_group_symop_operation_xyz
x,y,z
-x,y,1/2-z
-x,-y,-z
x,-y,1/2+z
1/2+x,1/2+y,z
1/2-x,1/2+y,1/2-z
1/2-x,1/2-y,-z
1/2+x,1/2-y,1/2+z
loop_
_atom_site_type_symbol
_atom_site_label
_atom_site_fract_x
_atom_site_fract_y
_atom_site_fract_z
Si Si1 0.767225 0.662690 0.377277
Si Si2 0.264919 0.431800 0.088496
Si Si3 0.425796 0.829695 0.076111
Si Si4 0.500000 0.869514 0.750000
Si Si5 0.500000 0.542597 0.750000
Si Si6 0.750250 0.980787 0.879734
O O1 0.738214 0.545596 0.378225
O O2 0.601365 0.726209 0.370199
O O3 0.857802 0.693734 0.287474
O O4 0.892917 0.694444 0.466003
O O5 0.103447 0.372640 0.101875
O O6 0.402283 0.388598 0.168048
O O7 0.307997 0.426261 0.980662
O O8 0.287473 0.905101 0.100732
O O9 0.579979 0.935901 0.837036
O O10 0.383515 0.472880 0.806763
#
# Coordination Sequence:
#
# PCOD8137955 Si02
#       6
#     8   8   8   4   4   8
#     4  10  20  36  71 103 138 185 240 308 377 443
#     4  11  21  42  65 100 141 193 244 302 361 447
#     4  10  20  39  68 101 140 186 240 307 380 436
#     4  12  18  39  71 104 136 192 244 298 383 445
#     4  12  24  37  65  96 136 198 250 282 363 435
#     4  11  21  38  65  95 142 187 239 305 365 441
#
# _framework density 24.961428000000002
#
# number of rings (size 3 to 8) (size 9 to 14) (size 15 to 20)
#    0.000    1.200    6.000    1.800    0.000    0.800 
#    0.000    3.000    4.400    4.800    0.000    0.000 
#    0.000    0.000    0.000    0.000    0.000    0.000 
#
# Total GULP energy -247804.976032 kJ/mol
# GULP energy per Si atom -12390.248802 kJ/mol
# Density = 2.490461 g / cm^3
# Si number density = 24.961428 Si / 1000 Ang^3
#
#
#
# Elastic Constant Matrix: (Units=GPa)
#
#
# Indices 1 2 3 4 5 6 
#
# 1 139.7002 45.6306 69.3661 0.0000 -10.5111 0.0000
# 2 45.6306 83.8273 26.1553 0.0000 -3.2146 0.0000
# 3 69.3661 26.1553 183.1554 0.0000 1.6176 0.0000
# 4 0.0000 0.0000 0.0000 13.2580 0.0000 -4.1149
# 5 -10.5111 -3.2146 1.6176 0.0000 59.3994 0.0000
# 6 0.0000 0.0000 0.0000 -4.1149 0.0000 43.7528
#
#
#
# Elastic Compliance Matrix: (Units=1/GPa)
#
#
# Indices 1 2 3 4 5 6 
#
# 1 0.010423 -0.004577 -0.003309 0.000000 0.001687 0.000000
# 2 -0.004577 0.014526 -0.000341 0.000000 -0.000014 0.000000
# 3 -0.003309 -0.000341 0.006769 0.000000 -0.000788 0.000000
# 4 0.000000 0.000000 0.000000 0.077694 0.000000 0.007307
# 5 0.001687 -0.000014 -0.000788 0.000000 0.017154 0.000000
# 6 0.000000 0.000000 0.000000 0.007307 0.000000 0.023543
#
#
# Mechanical properties :
#
#
# Convention : Reuss Voigt Hill
#
# Bulk Modulus (GPa) = 65.50864 76.55410 71.03137
# Shear Modulus (GPa) = 29.12899 40.98410 35.05654
#
# Velocity S-wave (km/s) = 3.41979 4.05643 3.75164
# Velocity P-wave (km/s) = 6.47257 7.25776 6.87638
#
# Compressibility (1/GPa) = 0.01526516
#
# Stress axis : x y z
#
# Youngs Moduli (GPa) = 95.94280 68.84050 147.74013
#
# Poissons Ratio (x) = 0.31505 0.48884
# Poissons Ratio (y) = 0.43908 0.05038
# Poissons Ratio (z) = 0.31745 0.02348
#
# Static dielectric constant tensor:
#      x y z
#    x 4.385240 0.000000 0.066860 
#    y 0.000000 4.079230 0.000000 
#    z 0.066860 0.000000 5.086410 
# 
# 
# High freq. dielectric constant tensor:
#      x y z
#    x 1.994100 0.000000 -0.008000 
#    y 0.000000 1.952930 0.000000 
#    z -0.008000 0.000000 2.014640 
# 
# From -- ./inp_files/133306.got.cif
#   From: 2010.06.25/outbox.cif.g09.slc.cpg/sg15_67_cif.got.tgz:133306.got - 2010.06.28 07:06:18.
