data_PCOD8137743
_publ_section_title
;
Structure prediction by ZEFSAII (Michael W. Deem and Ramdas Pophale) SiO2 
 PCOD8137743
Probable space group: C 2/C
;
_chemical_formula_sum "Si O2"
_cell_formula_units_Z 64
_cell_length_a 18.364496
_cell_length_b 19.224763
_cell_length_c 19.862681
_cell_angle_alpha 90.000000
_cell_angle_beta 24.999608
_cell_angle_gamma 90.000000
_cell_volume 2963.601212
_symmetry_space_group_name_H-M "C 2/C"
_symmetry_group_IT_number 15
_symmetry_cell_setting 'monoclinic'
loop_
_space_group_symop_operation_xyz
x,y,z
-x,y,1/2-z
-x,-y,-z
x,-y,1/2+z
1/2+x,1/2+y,z
1/2-x,1/2+y,1/2-z
1/2-x,1/2-y,-z
1/2+x,1/2-y,1/2+z
loop_
_atom_site_type_symbol
_atom_site_label
_atom_site_fract_x
_atom_site_fract_y
_atom_site_fract_z
Si Si1 0.395237 0.472369 0.525875
Si Si2 0.897423 0.554577 0.934906
Si Si3 0.104065 0.279477 0.727524
Si Si4 0.469812 0.848032 0.488987
Si Si5 0.256510 0.406597 0.068242
Si Si6 0.518998 0.328810 0.075919
Si Si7 0.812683 0.795919 0.127162
Si Si8 0.522738 0.912542 0.871679
O O1 0.500000 0.500000 0.500000
O O2 0.392280 0.535657 0.476583
O O3 0.492005 0.411426 0.403364
O O4 0.213985 0.443958 0.705999
O O5 0.753460 0.586912 0.004654
O O6 0.879217 0.593049 0.020659
O O7 0.078044 0.570928 0.749912
O O8 0.886889 0.471430 0.959677
O O9 0.299576 0.299632 0.549856
O O10 0.000199 0.345636 0.843222
O O11 0.000000 0.253657 0.750000
O O12 0.120509 0.214367 0.764926
O O13 0.643733 0.818612 0.309836
O O14 0.325483 0.787441 0.612383
O O15 0.514377 0.884936 0.522078
O O16 0.311062 0.331094 0.053479
O O17 0.483121 0.318967 0.026030
#
# Coordination Sequence:
#
# PCOD8137743 Si02
#       8
#     8   8   8   8   8   8   8   8
#     4  10  20  36  62  88 116 160 201 245 304 366
#     4   9  20  38  59  88 120 157 206 253 307 361
#     4  11  24  39  59  89 120 161 202 249 306 370
#     4  11  23  39  62  94 121 163 208 257 312 368
#     4   9  19  37  61  87 119 157 205 251 303 370
#     4  11  22  39  59  87 119 157 200 247 303 365
#     4  11  22  38  63  90 122 160 204 257 304 373
#     4  10  22  36  64  89 120 160 205 252 299 374
#
# _framework density 21.595348000000001
#
# number of rings (size 3 to 8) (size 9 to 14) (size 15 to 20)
#    0.000    1.750    2.500    1.500    7.000    0.500 
#    0.000    0.000    0.000    1.500    0.000    0.000 
#    0.000    0.000    0.000    0.000    0.000    0.000 
#
# Total GULP energy -396560.745584 kJ/mol
# GULP energy per Si atom -12392.523299 kJ/mol
# Density = 2.154620 g / cm^3
# Si number density = 21.595348 Si / 1000 Ang^3
#
#
#
# Elastic Constant Matrix: (Units=GPa)
#
#
# Indices 1 2 3 4 5 6 
#
# 1 132.4063 42.3847 12.0917 0.0088 -1.8244 -0.0039
# 2 42.3847 108.2190 15.4248 0.0056 5.8567 0.0002
# 3 12.0917 15.4248 21.9732 0.0319 2.4731 -0.0145
# 4 0.0088 0.0056 0.0319 22.1320 0.0229 -2.1763
# 5 -1.8244 5.8567 2.4731 0.0229 25.4899 -0.0033
# 6 -0.0039 0.0002 -0.0145 -2.1763 -0.0033 41.1521
#
#
#
# Elastic Compliance Matrix: (Units=1/GPa)
#
#
# Indices 1 2 3 4 5 6 
#
# 1 0.008842 -0.003146 -0.002840 0.000000 0.001631 0.000000
# 2 -0.003146 0.011459 -0.006057 0.000009 -0.002270 -0.000002
# 3 -0.002840 -0.006057 0.051757 -0.000067 -0.003833 0.000014
# 4 0.000000 0.000009 -0.000067 0.045420 -0.000036 0.002402
# 5 0.001631 -0.002270 -0.003833 -0.000036 0.040242 0.000000
# 6 0.000000 -0.000002 0.000014 0.002402 0.000000 0.024427
#
#
# Mechanical properties :
#
#
# Convention : Reuss Voigt Hill
#
# Bulk Modulus (GPa) = 20.84661 44.71123 32.77892
# Shear Modulus (GPa) = 22.49992 30.60127 26.55059
#
# Velocity S-wave (km/s) = 3.23133 3.76843 3.51017
# Velocity P-wave (km/s) = 4.85760 6.29951 5.62495
#
# Compressibility (1/GPa) = 0.04796944
#
# Stress axis : x y z
#
# Youngs Moduli (GPa) = 113.10243 87.26769 19.32124
#
# Poissons Ratio (x) = 0.27457 0.05488
# Poissons Ratio (y) = 0.35585 0.11703
# Poissons Ratio (z) = 0.32126 0.52859
#
# Static dielectric constant tensor:
#      x y z
#    x 4.224080 -0.000100 -0.004900 
#    y -0.000100 4.273720 0.000150 
#    z -0.004900 0.000150 3.503120 
# 
# 
# High freq. dielectric constant tensor:
#      x y z
#    x 1.853180 0.000000 -0.007900 
#    y 0.000000 1.863040 0.000020 
#    z -0.007900 0.000020 1.809130 
# 
# From -- ./inp_files/249624.got.cif
#   From: 2010.06.25/outbox.cif.g09.slc.cpg/sg15_125_cif.got.tgz:249624.got - 2010.06.28 07:06:18.
