data_PCOD8137274
_publ_section_title
;
Structure prediction by ZEFSAII (Michael W. Deem and Ramdas Pophale) SiO2 
 PCOD8137274
Probable space group: C 2/C
;
_chemical_formula_sum "Si O2"
_cell_formula_units_Z 60
_cell_length_a 26.150350
_cell_length_b 10.699450
_cell_length_c 14.852271
_cell_angle_alpha 90.000000
_cell_angle_beta 50.524386
_cell_angle_gamma 90.000000
_cell_volume 3207.673722
_symmetry_space_group_name_H-M "C 2/C"
_symmetry_group_IT_number 15
_symmetry_cell_setting 'monoclinic'
loop_
_space_group_symop_operation_xyz
x,y,z
-x,y,1/2-z
-x,-y,-z
x,-y,1/2+z
1/2+x,1/2+y,z
1/2-x,1/2+y,1/2-z
1/2-x,1/2-y,-z
1/2+x,1/2-y,1/2+z
loop_
_atom_site_type_symbol
_atom_site_label
_atom_site_fract_x
_atom_site_fract_y
_atom_site_fract_z
Si Si1 0.000000 0.556998 0.750000
Si Si2 0.235529 0.054643 0.029324
Si Si3 0.362019 0.899602 0.142664
Si Si4 0.001806 0.632310 0.946996
Si Si5 0.743583 0.266221 0.358638
Si Si6 0.819899 0.200239 0.889108
Si Si7 0.137137 0.682454 0.340267
Si Si8 0.370984 0.919350 0.923122
O O1 0.990450 0.635705 0.851964
O O2 0.064301 0.473970 0.696081
O O3 0.223789 0.153270 0.122175
O O4 0.178424 0.949248 0.101202
O O5 0.225213 0.120339 0.945140
O O6 0.308409 0.994660 0.954136
O O7 0.423801 0.819399 0.114576
O O8 0.296784 0.815699 0.226528
O O9 0.353195 0.036489 0.198311
O O10 0.375621 0.931042 0.024183
O O11 0.000000 0.500000 0.000000
O O12 0.940905 0.713208 0.055609
O O13 0.677842 0.216431 0.384378
O O14 0.834006 0.230840 0.769756
O O15 0.871920 0.272918 0.894156
O O16 0.750000 0.250000 0.000000
#
# Coordination Sequence:
#
# PCOD8137274 Si02
#       8
#     4   8   8   8   8   8   8   8
#     4  12  18  32  60  82 122 152 184 250 308 344
#     4  10  21  39  52  85 113 148 202 231 300 345
#     4  11  21  36  57  92 118 146 200 239 308 349
#     4  10  20  36  55  89 120 151 193 253 299 350
#     4  11  21  34  61  81 117 152 188 255 281 358
#     4  10  21  36  55  80 113 154 191 241 293 352
#     4  11  21  37  58  86 121 148 193 245 303 350
#     4  11  20  35  56  85 116 147 190 244 297 360
#
# _framework density 18.705145000000002
#
# number of rings (size 3 to 8) (size 9 to 14) (size 15 to 20)
#    0.000    1.333    4.000    5.600    0.000    1.067 
#    0.000    0.000    0.000    2.400    0.000    0.000 
#    0.000    0.000    0.000    0.000    0.000    0.000 
#
# Total GULP energy -371861.471295 kJ/mol
# GULP energy per Si atom -12395.382377 kJ/mol
# Density = 1.866257 g / cm^3
# Si number density = 18.705145 Si / 1000 Ang^3
#
#
#
# Elastic Constant Matrix: (Units=GPa)
#
#
# Indices 1 2 3 4 5 6 
#
# 1 82.6968 18.9517 29.9464 0.0000 -10.9557 0.0000
# 2 18.9517 84.3837 32.4976 0.0000 -6.3301 0.0000
# 3 29.9464 32.4976 102.2675 0.0000 1.4199 0.0000
# 4 0.0000 0.0000 0.0000 26.9344 0.0000 -0.7339
# 5 -10.9557 -6.3301 1.4199 0.0000 33.5547 0.0000
# 6 0.0000 0.0000 0.0000 -0.7339 0.0000 22.7374
#
#
#
# Elastic Compliance Matrix: (Units=1/GPa)
#
#
# Indices 1 2 3 4 5 6 
#
# 1 0.014415 -0.001415 -0.003835 0.000000 0.004602 0.000000
# 2 -0.001415 0.013897 -0.004034 0.000000 0.002330 0.000000
# 3 -0.003835 -0.004034 0.012218 0.000000 -0.002530 0.000000
# 4 0.000000 0.000000 0.000000 0.037160 0.000000 0.001199
# 5 0.004602 0.002330 -0.002530 0.000000 0.031851 0.000000
# 6 0.000000 0.000000 0.000000 0.001199 0.000000 0.044019
#
#
# Mechanical properties :
#
#
# Convention : Reuss Voigt Hill
#
# Bulk Modulus (GPa) = 45.53440 48.01550 46.77495
# Shear Modulus (GPa) = 27.86289 29.17545 28.51917
#
# Velocity S-wave (km/s) = 3.86370 3.95366 3.90894
# Velocity P-wave (km/s) = 6.65585 6.82402 6.74046
#
# Compressibility (1/GPa) = 0.02196142
#
# Stress axis : x y z
#
# Youngs Moduli (GPa) = 69.37116 71.95888 81.84423
#
# Poissons Ratio (x) = 0.10184 0.31390
# Poissons Ratio (y) = 0.09818 0.33015
# Poissons Ratio (z) = 0.26606 0.29028
#
# Static dielectric constant tensor:
#      x y z
#    x 3.668870 0.000000 -0.114800 
#    y 0.000000 3.554520 0.000000 
#    z -0.114800 0.000000 3.556930 
# 
# 
# High freq. dielectric constant tensor:
#      x y z
#    x 1.727390 0.000000 0.009630 
#    y 0.000000 1.692130 0.000000 
#    z 0.009630 0.000000 1.739610 
# 
# From -- ./inp_files/177353.got.cif
#   From: 2010.06.25/outbox.cif.g09.slc.cpg/sg15_89_cif.got.tgz:177353.got - 2010.06.28 07:06:18.
