data_PCOD8137885
_publ_section_title
;
Structure prediction by ZEFSAII (Michael W. Deem and Ramdas Pophale) SiO2 
 PCOD8137885
Probable space group: C 2/C
;
_chemical_formula_sum "Si O2"
_cell_formula_units_Z 64
_cell_length_a 16.371297
_cell_length_b 5.908302
_cell_length_c 32.456354
_cell_angle_alpha 90.000000
_cell_angle_beta 87.255490
_cell_angle_gamma 90.000000
_cell_volume 3135.790746
_symmetry_space_group_name_H-M "C 2/C"
_symmetry_group_IT_number 15
_symmetry_cell_setting 'monoclinic'
loop_
_space_group_symop_operation_xyz
x,y,z
-x,y,1/2-z
-x,-y,-z
x,-y,1/2+z
1/2+x,1/2+y,z
1/2-x,1/2+y,1/2-z
1/2-x,1/2-y,-z
1/2+x,1/2-y,1/2+z
loop_
_atom_site_type_symbol
_atom_site_label
_atom_site_fract_x
_atom_site_fract_y
_atom_site_fract_z
Si Si1 0.602715 0.077257 0.591410
Si Si2 0.323100 0.082913 0.611175
Si Si3 0.039875 0.963887 0.543322
Si Si4 0.536702 0.244241 0.387842
Si Si5 0.795390 0.781325 0.840655
Si Si6 0.706989 0.269013 0.044302
Si Si7 0.357187 0.473616 0.666878
Si Si8 0.704731 0.366142 0.748419
O O1 0.549459 0.203923 0.557573
O O2 0.635879 0.241757 0.626375
O O3 0.546670 0.895447 0.616785
O O4 0.678159 0.967101 0.565009
O O5 0.278183 0.135858 0.570451
O O6 0.371322 0.285118 0.631924
O O7 0.389853 0.902222 0.595725
O O8 0.257346 0.998367 0.645946
O O9 0.129894 0.067605 0.542377
O O10 0.978068 0.068819 0.577423
O O11 0.000000 0.000000 0.500000
O O12 0.568985 0.348423 0.343427
O O13 0.734386 0.568639 0.838034
O O14 0.837106 0.839863 0.795586
O O15 0.750000 0.250000 0.000000
O O16 0.362754 0.378695 0.713476
O O17 0.747672 0.620903 0.747049
#
# Coordination Sequence:
#
# PCOD8137885 Si02
#       8
#     8   8   8   8   8   8   8   8
#     4  11  23  44  62  92 130 175 215 267 338 401
#     4  11  20  40  63  93 124 164 213 266 320 383
#     4  11  26  43  60  87 127 174 215 264 332 400
#     4  10  25  39  65  89 127 173 211 262 328 403
#     4  10  20  37  65  98 125 168 213 273 328 394
#     4  11  26  38  64  97 124 162 218 280 325 385
#     4  10  20  38  64  99 128 163 218 264 334 390
#     4  10  20  36  65 108 137 167 219 287 339 402
#
# _framework density 20.409523
#
# number of rings (size 3 to 8) (size 9 to 14) (size 15 to 20)
#    0.000    1.500    3.750    0.750    5.250    1.500 
#    0.000    0.000    0.000    4.500    0.000    0.000 
#    0.000    0.000    0.000    0.000    0.000    0.000 
#
# Total GULP energy -396438.862310 kJ/mol
# GULP energy per Si atom -12388.714447 kJ/mol
# Density = 2.036307 g / cm^3
# Si number density = 20.409523 Si / 1000 Ang^3
#
#
#
# Elastic Constant Matrix: (Units=GPa)
#
#
# Indices 1 2 3 4 5 6 
#
# 1 79.4723 31.8106 57.4704 0.0000 -18.2665 0.0000
# 2 31.8106 92.5172 35.3136 0.0000 -5.9969 0.0000
# 3 57.4704 35.3136 147.9154 0.0000 -12.1855 0.0000
# 4 0.0000 0.0000 0.0000 27.9517 0.0000 3.2377
# 5 -18.2665 -5.9969 -12.1855 0.0000 28.6778 0.0000
# 6 0.0000 0.0000 0.0000 3.2377 0.0000 23.9285
#
#
#
# Elastic Compliance Matrix: (Units=1/GPa)
#
#
# Indices 1 2 3 4 5 6 
#
# 1 0.021167 -0.004191 -0.006409 0.000000 0.009883 0.000000
# 2 -0.004191 0.012771 -0.001472 0.000000 -0.000624 0.000000
# 3 -0.006409 -0.001472 0.009576 0.000000 -0.000321 0.000000
# 4 0.000000 0.000000 0.000000 0.036346 0.000000 -0.004918
# 5 0.009883 -0.000624 -0.000321 0.000000 0.040898 0.000000
# 6 0.000000 0.000000 0.000000 -0.004918 0.000000 0.042457
#
#
# Mechanical properties :
#
#
# Convention : Reuss Voigt Hill
#
# Bulk Modulus (GPa) = 51.62852 63.23268 57.43060
# Shear Modulus (GPa) = 25.79774 29.13228 27.46501
#
# Velocity S-wave (km/s) = 3.55914 3.78218 3.67235
# Velocity P-wave (km/s) = 6.49932 7.07971 6.79572
#
# Compressibility (1/GPa) = 0.01936914
#
# Stress axis : x y z
#
# Youngs Moduli (GPa) = 47.24340 78.30103 104.42882
#
# Poissons Ratio (x) = 0.32815 0.66933
# Poissons Ratio (y) = 0.19799 0.15374
# Poissons Ratio (z) = 0.30280 0.11527
#
# Static dielectric constant tensor:
#      x y z
#    x 3.519540 0.000000 -0.169910 
#    y 0.000000 4.107700 0.000000 
#    z -0.169910 0.000000 3.877350 
# 
# 
# High freq. dielectric constant tensor:
#      x y z
#    x 1.775910 0.000000 -0.016620 
#    y 0.000000 1.812470 0.000000 
#    z -0.016620 0.000000 1.802840 
# 
# From -- ./inp_files/315086.got.cif
#   From: 2010.06.25/outbox.cif.g09.slc.cpg/sg15_158_cif.got.tgz:315086.got - 2010.06.28 07:06:18.
