data_PCOD8137002
_publ_section_title
;
Structure prediction by ZEFSAII (Michael W. Deem and Ramdas Pophale) SiO2 
 PCOD8137002
Probable space group: C 2/C
;
_chemical_formula_sum "Si O2"
_cell_formula_units_Z 64
_cell_length_a 10.721287
_cell_length_b 19.389112
_cell_length_c 18.048104
_cell_angle_alpha 90.000000
_cell_angle_beta 59.899813
_cell_angle_gamma 90.000000
_cell_volume 3245.844646
_symmetry_space_group_name_H-M "C 2/C"
_symmetry_group_IT_number 15
_symmetry_cell_setting 'monoclinic'
loop_
_space_group_symop_operation_xyz
x,y,z
-x,y,1/2-z
-x,-y,-z
x,-y,1/2+z
1/2+x,1/2+y,z
1/2-x,1/2+y,1/2-z
1/2-x,1/2-y,-z
1/2+x,1/2-y,1/2+z
loop_
_atom_site_type_symbol
_atom_site_label
_atom_site_fract_x
_atom_site_fract_y
_atom_site_fract_z
Si Si1 0.849196 0.936680 0.513925
Si Si2 0.709956 0.671733 0.129867
Si Si3 0.638645 0.047802 0.951784
Si Si4 0.723993 0.174919 0.626592
Si Si5 0.996052 0.824841 0.939702
Si Si6 0.851564 0.956406 0.135900
Si Si7 0.835018 0.964184 0.785501
Si Si8 0.980525 0.671939 0.941072
O O1 0.700981 0.926681 0.512825
O O2 0.881848 0.877184 0.565962
O O3 0.977488 0.939625 0.414494
O O4 0.826730 0.009189 0.562755
O O5 0.708848 0.748499 0.166655
O O6 0.564119 0.656913 0.124717
O O7 0.710178 0.616428 0.196280
O O8 0.852362 0.662918 0.038310
O O9 0.604073 0.116664 0.917189
O O10 0.757180 0.005149 0.873389
O O11 0.500000 0.000000 0.000000
O O12 0.857096 0.173607 0.531911
O O13 0.754908 0.113189 0.675248
O O14 0.578875 0.160263 0.624057
O O15 0.056243 0.746912 0.923678
O O16 0.796905 0.007902 0.215613
O O17 0.000000 0.977298 0.750000
#
# Coordination Sequence:
#
# PCOD8137002 Si02
#       8
#     8   8   8   8   8   8   8   8
#     4  10  20  35  58  84 114 156 195 236 291 346
#     4   9  17  34  60  85 112 146 196 246 292 335
#     4  12  23  36  57  84 121 156 190 236 294 358
#     4   8  16  33  59  85 112 150 191 244 292 339
#     4   8  16  31  59  88 111 146 200 244 279 344
#     4  10  20  36  58  84 116 150 198 243 283 345
#     4  12  23  37  56  88 117 150 198 243 287 341
#     4   9  17  34  57  87 116 150 192 238 291 350
#
# _framework density 19.717517999999998
#
# number of rings (size 3 to 8) (size 9 to 14) (size 15 to 20)
#    0.000    2.250    2.500    3.000    3.500    0.500 
#    0.000    6.250    0.000    0.000    0.000    0.000 
#    0.000    0.000    0.000    0.000    0.000    0.000 
#
# Total GULP energy -396583.618404 kJ/mol
# GULP energy per Si atom -12393.238075 kJ/mol
# Density = 1.967264 g / cm^3
# Si number density = 19.717518 Si / 1000 Ang^3
#
#
#
# Elastic Constant Matrix: (Units=GPa)
#
#
# Indices 1 2 3 4 5 6 
#
# 1 93.7864 64.8866 14.2765 0.0000 5.7638 0.0000
# 2 64.8866 172.1831 39.9235 0.0000 13.1231 0.0000
# 3 14.2765 39.9235 48.7800 0.0000 4.5983 0.0000
# 4 0.0000 0.0000 0.0000 31.1346 0.0000 9.2274
# 5 5.7638 13.1231 4.5983 0.0000 21.9212 0.0000
# 6 0.0000 0.0000 0.0000 9.2274 0.0000 32.2152
#
#
#
# Elastic Compliance Matrix: (Units=1/GPa)
#
#
# Indices 1 2 3 4 5 6 
#
# 1 0.014433 -0.005465 0.000304 0.000000 -0.000587 0.000000
# 2 -0.005465 0.009453 -0.005855 0.000000 -0.002994 0.000000
# 3 0.000304 -0.005855 0.025382 0.000000 -0.001899 0.000000
# 4 0.000000 0.000000 0.000000 0.035098 0.000000 -0.010053
# 5 -0.000587 -0.002994 -0.001899 0.000000 0.047963 0.000000
# 6 0.000000 0.000000 0.000000 -0.010053 0.000000 0.033921
#
#
# Mechanical properties :
#
#
# Convention : Reuss Voigt Hill
#
# Bulk Modulus (GPa) = 36.71566 61.43585 49.07576
# Shear Modulus (GPa) = 25.33428 30.09842 27.71635
#
# Velocity S-wave (km/s) = 3.58839 3.91126 3.75330
# Velocity P-wave (km/s) = 5.98581 7.18491 6.61260
#
# Compressibility (1/GPa) = 0.02723633
#
# Stress axis : x y z
#
# Youngs Moduli (GPa) = 69.28467 105.78730 39.39751
#
# Poissons Ratio (x) = 0.57810 -0.01197
# Poissons Ratio (y) = 0.37863 0.23067
# Poissons Ratio (z) = -0.02105 0.61939
#
# Static dielectric constant tensor:
#      x y z
#    x 3.547370 0.000000 0.048590 
#    y 0.000000 4.192620 0.000000 
#    z 0.048590 0.000000 3.636040 
# 
# 
# High freq. dielectric constant tensor:
#      x y z
#    x 1.742270 0.000000 0.001090 
#    y 0.000000 1.785830 0.000000 
#    z 0.001090 0.000000 1.741950 
# 
# From -- ./inp_files/200162.got.cif
#   From: 2010.06.25/outbox.cif.g09.slc.cpg/sg15_101_cif.got.tgz:200162.got - 2010.06.28 07:06:18.
