data_PCOD8137519
_publ_section_title
;
Structure prediction by ZEFSAII (Michael W. Deem and Ramdas Pophale) SiO2 
 PCOD8137519
Probable space group: C 2/C
;
_chemical_formula_sum "Si O2"
_cell_formula_units_Z 48
_cell_length_a 13.589849
_cell_length_b 13.147175
_cell_length_c 20.892220
_cell_angle_alpha 90.000000
_cell_angle_beta 38.414392
_cell_angle_gamma 90.000000
_cell_volume 2319.338858
_symmetry_space_group_name_H-M "C 2/C"
_symmetry_group_IT_number 15
_symmetry_cell_setting 'monoclinic'
loop_
_space_group_symop_operation_xyz
x,y,z
-x,y,1/2-z
-x,-y,-z
x,-y,1/2+z
1/2+x,1/2+y,z
1/2-x,1/2+y,1/2-z
1/2-x,1/2-y,-z
1/2+x,1/2-y,1/2+z
loop_
_atom_site_type_symbol
_atom_site_label
_atom_site_fract_x
_atom_site_fract_y
_atom_site_fract_z
Si Si1 0.619101 0.549866 0.633081
Si Si2 0.854946 0.171105 0.407395
Si Si3 0.651698 0.592413 0.817940
Si Si4 0.181266 0.862878 0.807647
Si Si5 0.159889 0.673961 0.892056
Si Si6 0.672021 0.785673 0.884595
O O1 0.500000 0.512611 0.750000
O O2 0.697489 0.448628 0.562147
O O3 0.515191 0.608772 0.633216
O O4 0.749583 0.628004 0.592919
O O5 0.750000 0.250000 0.500000
O O6 0.832581 0.202057 0.344236
O O7 0.030276 0.180622 0.345882
O O8 0.666822 0.478467 0.837653
O O9 0.797038 0.613079 0.694891
O O10 0.651985 0.666260 0.878762
O O11 0.210934 0.792207 0.854717
O O12 0.322389 0.849721 0.684261
O O13 0.972991 0.669278 0.000281
#
# Coordination Sequence:
#
# PCOD8137519 Si02
#       6
#     8   8   8   8   8   8
#     4   9  19  38  60  79 112 153 187 226 285 346
#     4  11  20  36  56  84 110 150 188 232 279 342
#     4   9  21  38  59  81 111 155 186 228 290 338
#     4  10  21  40  57  82 117 148 190 232 286 344
#     4  10  20  36  59  87 109 145 195 231 276 343
#     4  11  21  35  61  84 115 147 190 244 277 329
#
# _framework density 20.695553
#
# number of rings (size 3 to 8) (size 9 to 14) (size 15 to 20)
#    0.000    2.000    1.667    3.500    0.000    4.000 
#    0.000    0.000    0.000   10.000    0.000    0.000 
#    0.000    0.000    0.000    0.000    0.000    0.000 
#
# Total GULP energy -297437.379116 kJ/mol
# GULP energy per Si atom -12393.224130 kJ/mol
# Density = 2.064845 g / cm^3
# Si number density = 20.695553 Si / 1000 Ang^3
#
#
#
# Elastic Constant Matrix: (Units=GPa)
#
#
# Indices 1 2 3 4 5 6 
#
# 1 74.8901 66.9338 17.5956 -0.0002 0.1701 0.0000
# 2 66.9338 137.9486 22.3015 -0.0001 -8.4672 0.0001
# 3 17.5956 22.3015 65.5302 -0.0008 -13.3771 0.0003
# 4 -0.0002 -0.0001 -0.0008 29.0695 0.0004 3.5733
# 5 0.1701 -8.4672 -13.3771 0.0004 17.3808 -0.0001
# 6 0.0000 0.0001 0.0003 3.5733 -0.0001 42.1240
#
#
#
# Elastic Compliance Matrix: (Units=1/GPa)
#
#
# Indices 1 2 3 4 5 6 
#
# 1 0.025304 -0.012122 -0.004656 0.000000 -0.009737 0.000000
# 2 -0.012122 0.013541 0.000021 0.000000 0.006731 0.000000
# 3 -0.004656 0.000021 0.019593 0.000000 0.015136 0.000000
# 4 0.000000 0.000000 0.000000 0.034763 -0.000001 -0.002949
# 5 -0.009737 0.006731 0.015136 -0.000001 0.072558 0.000000
# 6 0.000000 0.000000 0.000000 -0.002949 0.000000 0.023990
#
#
# Mechanical properties :
#
#
# Convention : Reuss Voigt Hill
#
# Bulk Modulus (GPa) = 40.12612 54.67008 47.39810
# Shear Modulus (GPa) = 21.59166 29.15074 25.37120
#
# Velocity S-wave (km/s) = 3.23352 3.75714 3.50512
# Velocity P-wave (km/s) = 5.77683 6.73017 6.27164
#
# Compressibility (1/GPa) = 0.02492143
#
# Stress axis : x y z
#
# Youngs Moduli (GPa) = 39.52021 73.85134 51.03847
#
# Poissons Ratio (x) = 0.89525 0.23766
# Poissons Ratio (y) = 0.47908 -0.00106
# Poissons Ratio (z) = 0.18402 -0.00154
#
# Static dielectric constant tensor:
#      x y z
#    x 3.771480 0.000000 0.026470 
#    y 0.000000 3.822230 0.000000 
#    z 0.026470 0.000000 3.619750 
# 
# 
# High freq. dielectric constant tensor:
#      x y z
#    x 1.795320 0.000000 0.000210 
#    y 0.000000 1.814360 0.000000 
#    z 0.000210 0.000000 1.793760 
# 
# From -- ./inp_files/243898.got.cif
#   From: 2010.06.25/outbox.cif.g09.slc.cpg/sg15_122_cif.got.tgz:243898.got - 2010.06.28 07:06:18.
