data_PCOD8137884
_publ_section_title
;
Structure prediction by ZEFSAII (Michael W. Deem and Ramdas Pophale) SiO2 
 PCOD8137884
Probable space group: C 2/C
;
_chemical_formula_sum "Si O2"
_cell_formula_units_Z 48
_cell_length_a 26.804199
_cell_length_b 11.074815
_cell_length_c 9.762825
_cell_angle_alpha 90.000000
_cell_angle_beta 39.602938
_cell_angle_gamma 90.000000
_cell_volume 1847.439141
_symmetry_space_group_name_H-M "C 2/C"
_symmetry_group_IT_number 15
_symmetry_cell_setting 'monoclinic'
loop_
_space_group_symop_operation_xyz
x,y,z
-x,y,1/2-z
-x,-y,-z
x,-y,1/2+z
1/2+x,1/2+y,z
1/2-x,1/2+y,1/2-z
1/2-x,1/2-y,-z
1/2+x,1/2-y,1/2+z
loop_
_atom_site_type_symbol
_atom_site_label
_atom_site_fract_x
_atom_site_fract_y
_atom_site_fract_z
Si Si1 0.648249 0.019237 0.089760
Si Si2 0.000000 0.975455 0.250000
Si Si3 0.535838 0.275362 0.983719
Si Si4 0.628295 0.334540 0.546328
Si Si5 0.358439 0.283586 0.290878
Si Si6 0.000000 0.570243 0.250000
Si Si7 0.255407 0.004664 0.366207
O O1 0.661964 0.163310 0.082031
O O2 0.560187 0.992424 0.217387
O O3 0.671759 0.967435 0.188764
O O4 0.709064 0.959627 0.855737
O O5 0.944293 0.893201 0.467103
O O6 0.934818 0.057647 0.318347
O O7 0.590372 0.243803 0.737740
O O8 0.447833 0.313414 0.129944
O O9 0.548069 0.154740 0.045231
O O10 0.646076 0.268186 0.365253
O O11 0.706904 0.383282 0.447727
O O12 0.297769 0.386667 0.463813
#
# Coordination Sequence:
#
# PCOD8137884 Si02
#       7
#     8   4   8   8   8   4   8
#     4  11  27  49  72  96 133 184 234 294 345 395
#     4  11  18  30  56 101 152 174 208 269 332 427
#     4  10  20  36  65 102 136 181 225 269 343 414
#     4  12  21  34  65 109 144 181 211 269 353 427
#     4  11  22  44  67  99 149 176 222 285 336 413
#     4   9  24  48  68  91 128 180 248 295 314 389
#     4  12  25  42  70 102 141 180 218 277 359 406
#
# _framework density 25.981911
#
# number of rings (size 3 to 8) (size 9 to 14) (size 15 to 20)
#    0.000    1.000    5.000    2.000    0.000    0.667 
#    3.000    1.667    0.000    0.000    0.000    0.000 
#    0.000    0.000    0.000    0.000    0.000    0.000 
#
# Total GULP energy -297345.946118 kJ/mol
# GULP energy per Si atom -12389.414422 kJ/mol
# Density = 2.592278 g / cm^3
# Si number density = 25.981911 Si / 1000 Ang^3
#
#
#
# Elastic Constant Matrix: (Units=GPa)
#
#
# Indices 1 2 3 4 5 6 
#
# 1 145.4295 9.9729 -6.9830 0.0000 -3.7212 0.0000
# 2 9.9729 16.5318 -5.4026 0.0000 2.3230 0.0000
# 3 -6.9830 -5.4026 95.5319 0.0000 31.8218 0.0000
# 4 0.0000 0.0000 0.0000 14.8686 0.0000 6.9120
# 5 -3.7212 2.3230 31.8218 0.0000 47.8100 0.0000
# 6 0.0000 0.0000 0.0000 6.9120 0.0000 34.6458
#
#
#
# Elastic Compliance Matrix: (Units=1/GPa)
#
#
# Indices 1 2 3 4 5 6 
#
# 1 0.007201 -0.004445 0.000021 0.000000 0.000762 0.000000
# 2 -0.004445 0.066157 0.005914 0.000000 -0.007496 0.000000
# 3 0.000021 0.005914 0.014004 0.000000 -0.009606 0.000000
# 4 0.000000 0.000000 0.000000 0.074131 0.000000 -0.014789
# 5 0.000762 -0.007496 -0.009606 0.000000 0.027733 0.000000
# 6 0.000000 0.000000 0.000000 -0.014789 0.000000 0.031814
#
#
# Mechanical properties :
#
#
# Convention : Reuss Voigt Hill
#
# Bulk Modulus (GPa) = 11.06909 28.07420 19.57165
# Shear Modulus (GPa) = 20.14716 36.79196 28.46956
#
# Velocity S-wave (km/s) = 2.78768 3.76714 3.31380
# Velocity P-wave (km/s) = 3.82506 5.45441 4.71071
#
# Compressibility (1/GPa) = 0.09034165
#
# Stress axis : x y z
#
# Youngs Moduli (GPa) = 138.86002 15.11563 71.41057
#
# Poissons Ratio (x) = 0.06718 -0.00151
# Poissons Ratio (y) = 0.61718 -0.42229
# Poissons Ratio (z) = -0.00293 -0.08939
#
# Static dielectric constant tensor:
#      x y z
#    x 5.226860 0.000000 0.078860 
#    y 0.000000 4.285270 0.000000 
#    z 0.078860 0.000000 4.913440 
# 
# 
# High freq. dielectric constant tensor:
#      x y z
#    x 2.056780 0.000000 0.007360 
#    y 0.000000 2.021800 0.000000 
#    z 0.007360 0.000000 2.043940 
# 
# From -- ./inp_files/66447.got.cif
#   From: 2010.06.25/outbox.cif.g09.slc.cpg/sg15_34_cif.got.tgz:66447.got - 2010.06.28 07:06:18.
