data_PCOD8137970
_publ_section_title
;
Structure prediction by ZEFSAII (Michael W. Deem and Ramdas Pophale) SiO2 
 PCOD8137970
Probable space group: C 2/C
;
_chemical_formula_sum "Si O2"
_cell_formula_units_Z 60
_cell_length_a 11.783339
_cell_length_b 28.769959
_cell_length_c 9.270853
_cell_angle_alpha 90.000000
_cell_angle_beta 107.061759
_cell_angle_gamma 90.000000
_cell_volume 3004.555493
_symmetry_space_group_name_H-M "C 2/C"
_symmetry_group_IT_number 15
_symmetry_cell_setting 'monoclinic'
loop_
_space_group_symop_operation_xyz
x,y,z
-x,y,1/2-z
-x,-y,-z
x,-y,1/2+z
1/2+x,1/2+y,z
1/2-x,1/2+y,1/2-z
1/2-x,1/2-y,-z
1/2+x,1/2-y,1/2+z
loop_
_atom_site_type_symbol
_atom_site_label
_atom_site_fract_x
_atom_site_fract_y
_atom_site_fract_z
Si Si1 0.178979 0.638447 0.290048
Si Si2 0.624300 0.966975 0.742396
Si Si3 0.795287 0.190202 0.902266
Si Si4 0.799392 0.538854 0.535458
Si Si5 0.872484 0.114540 0.141955
Si Si6 0.910888 0.713340 0.455744
Si Si7 0.000000 0.400387 0.250000
Si Si8 0.634365 0.165393 0.592977
O O1 0.119703 0.588141 0.257897
O O2 0.304219 0.635680 0.254475
O O3 0.099673 0.677329 0.181246
O O4 0.190477 0.650855 0.461482
O O5 0.500000 0.988390 0.750000
O O6 0.637645 0.981302 0.582407
O O7 0.727164 0.993412 0.874756
O O8 0.876634 0.234616 0.898829
O O9 0.751441 0.171997 0.732083
O O10 0.876075 0.152856 0.016433
O O11 0.674400 0.199516 0.944413
O O12 0.682868 0.567231 0.443703
O O13 0.884921 0.572137 0.657147
O O14 0.000000 0.101459 0.250000
O O15 0.050747 0.711714 0.551110
O O16 0.957487 0.371675 0.373908
#
# Coordination Sequence:
#
# PCOD8137970 Si02
#       8
#     8   8   8   8   8   8   4   8
#     4  10  23  38  60  90 125 162 201 254 321 359
#     4  11  21  35  57  94 128 158 195 250 309 373
#     4  10  21  35  62  85 113 159 215 236 300 376
#     4  11  23  35  60  93 120 161 202 246 313 364
#     4  10  22  46  63  83 121 167 208 257 307 368
#     4  10  20  37  54  88 123 161 195 249 310 366
#     4  12  20  36  62  90 130 158 196 248 312 368
#     4  12  20  37  62  89 124 159 203 256 303 367
#
# _framework density 19.969676
#
# number of rings (size 3 to 8) (size 9 to 14) (size 15 to 20)
#    0.000    1.333    3.333    4.000    1.867    3.733 
#    0.000    4.667    0.000    0.000    0.000    0.000 
#    0.000    0.000    0.000    0.000    0.000    0.000 
#
# Total GULP energy -371878.271837 kJ/mol
# GULP energy per Si atom -12395.942395 kJ/mol
# Density = 1.992422 g / cm^3
# Si number density = 19.969676 Si / 1000 Ang^3
#
#
#
# Elastic Constant Matrix: (Units=GPa)
#
#
# Indices 1 2 3 4 5 6 
#
# 1 64.8700 29.1862 45.0102 0.0000 16.9287 0.0000
# 2 29.1862 101.1848 49.3942 0.0000 -1.5543 0.0000
# 3 45.0102 49.3942 138.7241 0.0000 -2.6279 0.0000
# 4 0.0000 0.0000 0.0000 23.9212 0.0000 1.7615
# 5 16.9287 -1.5543 -2.6279 0.0000 37.6123 0.0000
# 6 0.0000 0.0000 0.0000 1.7615 0.0000 16.1619
#
#
#
# Elastic Compliance Matrix: (Units=1/GPa)
#
#
# Indices 1 2 3 4 5 6 
#
# 1 0.025199 -0.004056 -0.006959 0.000000 -0.011996 0.000000
# 2 -0.004056 0.012616 -0.003136 0.000000 0.002128 0.000000
# 3 -0.006959 -0.003136 0.010654 0.000000 0.003747 0.000000
# 4 0.000000 0.000000 0.000000 0.042142 0.000000 -0.004593
# 5 -0.011996 0.002128 0.003747 0.000000 0.032336 0.000000
# 6 0.000000 0.000000 0.000000 -0.004593 0.000000 0.062375
#
#
# Mechanical properties :
#
#
# Convention : Reuss Voigt Hill
#
# Bulk Modulus (GPa) = 49.58377 61.32891 55.45634
# Shear Modulus (GPa) = 22.69150 27.61829 25.15490
#
# Velocity S-wave (km/s) = 3.37456 3.72292 3.55301
# Velocity P-wave (km/s) = 6.32985 7.01840 6.68299
#
# Compressibility (1/GPa) = 0.02016789
#
# Stress axis : x y z
#
# Youngs Moduli (GPa) = 39.68361 79.26277 93.86015
#
# Poissons Ratio (x) = 0.32146 0.65320
# Poissons Ratio (y) = 0.16094 0.29434
# Poissons Ratio (z) = 0.27617 0.24857
#
# Static dielectric constant tensor:
#      x y z
#    x 3.327160 0.000000 -0.116860 
#    y 0.000000 3.719850 0.000000 
#    z -0.116860 0.000000 3.843430 
# 
# 
# High freq. dielectric constant tensor:
#      x y z
#    x 1.743680 0.000000 -0.006610 
#    y 0.000000 1.779190 0.000000 
#    z -0.006610 0.000000 1.795410 
# 
# From -- ./inp_files/35194.got.cif
#   From: 2010.06.25/outbox.cif.g09.slc.cpg/sg15_18_cif.got.tgz:35194.got - 2010.06.28 07:06:18.
