data_PCOD8137616
_publ_section_title
;
Structure prediction by ZEFSAII (Michael W. Deem and Ramdas Pophale) SiO2 
 PCOD8137616
Probable space group: C 2/C
;
_chemical_formula_sum "Si O2"
_cell_formula_units_Z 56
_cell_length_a 12.599461
_cell_length_b 13.567927
_cell_length_c 16.456417
_cell_angle_alpha 90.000000
_cell_angle_beta 102.035559
_cell_angle_gamma 90.000000
_cell_volume 2751.362186
_symmetry_space_group_name_H-M "C 2/C"
_symmetry_group_IT_number 15
_symmetry_cell_setting 'monoclinic'
loop_
_space_group_symop_operation_xyz
x,y,z
-x,y,1/2-z
-x,-y,-z
x,-y,1/2+z
1/2+x,1/2+y,z
1/2-x,1/2+y,1/2-z
1/2-x,1/2-y,-z
1/2+x,1/2-y,1/2+z
loop_
_atom_site_type_symbol
_atom_site_label
_atom_site_fract_x
_atom_site_fract_y
_atom_site_fract_z
Si Si1 0.202584 0.835721 0.882942
Si Si2 0.376378 0.695547 0.723930
Si Si3 0.600281 0.278480 0.024278
Si Si4 0.358169 0.295393 0.976710
Si Si5 0.123103 0.047625 0.636421
Si Si6 0.377253 0.460038 0.089425
Si Si7 0.797509 0.154396 0.300874
O O1 0.325842 0.797055 0.912601
O O2 0.156914 0.828585 0.783227
O O3 0.204074 0.951053 0.906388
O O4 0.125510 0.772869 0.931609
O O5 0.500000 0.721570 0.750000
O O6 0.340542 0.631806 0.795143
O O7 0.345621 0.635153 0.638337
O O8 0.323288 0.803229 0.715676
O O9 0.627704 0.394169 0.050805
O O10 0.474606 0.251266 0.025770
O O11 0.362574 0.283214 0.879726
O O12 0.250000 0.250000 0.000000
O O13 0.362456 0.414707 0.996044
O O14 0.000430 0.006886 0.630540
O O15 0.204964 0.958628 0.669106
#
# Coordination Sequence:
#
# PCOD8137616 Si02
#       7
#     8   8   8   8   8   8   8
#     4  11  22  37  61  91 123 161 195 246 308 361
#     4  10  20  36  60  89 123 153 197 253 299 348
#     4  10  23  41  59  88 128 160 195 248 309 359
#     4  11  23  39  62  90 120 158 205 254 295 348
#     4  10  20  37  63  89 114 155 206 252 293 351
#     4  10  20  39  61  87 119 157 202 249 296 357
#     4  12  22  34  63  94 117 153 206 251 295 354
#
# _framework density 20.353556000000001
#
# number of rings (size 3 to 8) (size 9 to 14) (size 15 to 20)
#    0.000    1.429    4.286    1.714    0.000    4.000 
#    0.000    0.714    0.000    8.571    0.000    0.000 
#    0.000    0.000    0.000    0.000    0.000    0.000 
#
# Total GULP energy -346884.008373 kJ/mol
# GULP energy per Si atom -12388.714585 kJ/mol
# Density = 2.030723 g / cm^3
# Si number density = 20.353556 Si / 1000 Ang^3
#
#
#
# Elastic Constant Matrix: (Units=GPa)
#
#
# Indices 1 2 3 4 5 6 
#
# 1 105.2818 63.8504 36.8344 0.0000 11.3157 0.0000
# 2 63.8504 110.5737 29.3481 0.0000 19.2655 0.0000
# 3 36.8344 29.3481 127.7034 0.0000 -5.8857 0.0000
# 4 0.0000 0.0000 0.0000 60.2524 0.0000 -1.5236
# 5 11.3157 19.2655 -5.8857 0.0000 27.3773 0.0000
# 6 0.0000 0.0000 0.0000 -1.5236 0.0000 36.6173
#
#
#
# Elastic Compliance Matrix: (Units=1/GPa)
#
#
# Indices 1 2 3 4 5 6 
#
# 1 0.015400 -0.007947 -0.002678 0.000000 -0.001349 0.000000
# 2 -0.007947 0.015446 -0.001623 0.000000 -0.007933 0.000000
# 3 -0.002678 -0.001623 0.009171 0.000000 0.004220 0.000000
# 4 0.000000 0.000000 0.000000 0.016614 0.000000 0.000691
# 5 -0.001349 -0.007933 0.004220 0.000000 0.043574 0.000000
# 6 0.000000 0.000000 0.000000 0.000691 0.000000 0.027338
#
#
# Mechanical properties :
#
#
# Convention : Reuss Voigt Hill
#
# Bulk Modulus (GPa) = 64.43061 67.06943 65.75002
# Shear Modulus (GPa) = 31.80435 39.08446 35.44441
#
# Velocity S-wave (km/s) = 3.95725 4.38685 4.17758
# Velocity P-wave (km/s) = 7.25288 7.66048 7.45947
#
# Compressibility (1/GPa) = 0.01552057
#
# Stress axis : x y z
#
# Youngs Moduli (GPa) = 64.93687 64.74319 109.04495
#
# Poissons Ratio (x) = 0.51450 0.29199
# Poissons Ratio (y) = 0.51604 0.17700
# Poissons Ratio (z) = 0.17388 0.10509
#
# Static dielectric constant tensor:
#      x y z
#    x 3.483600 0.000000 -0.150080 
#    y 0.000000 3.573640 0.000000 
#    z -0.150080 0.000000 4.212500 
# 
# 
# High freq. dielectric constant tensor:
#      x y z
#    x 1.765440 0.000000 -0.012590 
#    y 0.000000 1.775980 0.000000 
#    z -0.012590 0.000000 1.827640 
# 
# From -- ./inp_files/197960.got.cif
#   From: 2010.06.25/outbox.cif.g09.slc.cpg/sg15_99_cif.got.tgz:197960.got - 2010.06.28 07:06:18.
