data_PCOD8137924
_publ_section_title
;
Structure prediction by ZEFSAII (Michael W. Deem and Ramdas Pophale) SiO2 
 PCOD8137924
Probable space group: C 2/C
;
_chemical_formula_sum "Si O2"
_cell_formula_units_Z 44
_cell_length_a 19.571976
_cell_length_b 9.772691
_cell_length_c 13.902747
_cell_angle_alpha 90.000000
_cell_angle_beta 52.822552
_cell_angle_gamma 90.000000
_cell_volume 2118.757498
_symmetry_space_group_name_H-M "C 2/C"
_symmetry_group_IT_number 15
_symmetry_cell_setting 'monoclinic'
loop_
_space_group_symop_operation_xyz
x,y,z
-x,y,1/2-z
-x,-y,-z
x,-y,1/2+z
1/2+x,1/2+y,z
1/2-x,1/2+y,1/2-z
1/2-x,1/2-y,-z
1/2+x,1/2-y,1/2+z
loop_
_atom_site_type_symbol
_atom_site_label
_atom_site_fract_x
_atom_site_fract_y
_atom_site_fract_z
Si Si1 0.218698 0.842992 0.940319
Si Si2 0.737962 0.661750 0.914728
Si Si3 0.000000 0.526189 0.250000
Si Si4 0.460007 0.769767 0.939428
Si Si5 0.643844 0.212010 0.330461
Si Si6 0.605021 0.908734 0.324767
O O1 0.271106 0.777592 0.807103
O O2 0.236498 0.002199 0.944732
O O3 0.250000 0.750000 0.000000
O O4 0.115780 0.839569 0.009622
O O5 0.655688 0.714893 0.924143
O O6 0.813643 0.683459 0.772663
O O7 0.750000 0.750000 0.000000
O O8 0.056585 0.618884 0.129776
O O9 0.061413 0.430669 0.258902
O O10 0.559715 0.718205 0.849284
O O11 0.455653 0.829769 0.050551
O O12 0.627342 0.050842 0.358629
#
# Coordination Sequence:
#
# PCOD8137924 Si02
#       6
#     8   8   4   8   8   8
#     4  11  24  42  66  94 127 171 213 263 322 382
#     4  11  25  40  64  96 129 170 212 262 324 382
#     4  10  20  36  66  98 118 170 222 260 314 376
#     4  11  21  40  65  92 127 168 213 264 316 376
#     4  10  22  40  63  93 126 164 212 265 312 380
#     4  10  22  38  65  94 126 165 210 267 313 377
#
# _framework density 20.766888000000002
#
# number of rings (size 3 to 8) (size 9 to 14) (size 15 to 20)
#    0.000    1.455    1.818    5.455    7.636    0.727 
#    0.000    0.000    8.000    0.000    0.000    0.000 
#    0.000    0.000    0.000    0.000    0.000    0.000 
#
# Total GULP energy -272577.186546 kJ/mol
# GULP energy per Si atom -12389.872116 kJ/mol
# Density = 2.071962 g / cm^3
# Si number density = 20.766888 Si / 1000 Ang^3
#
#
#
# Elastic Constant Matrix: (Units=GPa)
#
#
# Indices 1 2 3 4 5 6 
#
# 1 135.0831 52.2577 50.3796 0.0000 10.0591 0.0000
# 2 52.2577 79.4485 43.1895 0.0000 16.0960 0.0000
# 3 50.3796 43.1895 85.9600 0.0000 4.2597 0.0000
# 4 0.0000 0.0000 0.0000 30.3557 0.0000 9.7831
# 5 10.0591 16.0960 4.2597 0.0000 46.8016 0.0000
# 6 0.0000 0.0000 0.0000 9.7831 0.0000 28.9545
#
#
#
# Elastic Compliance Matrix: (Units=1/GPa)
#
#
# Indices 1 2 3 4 5 6 
#
# 1 0.010757 -0.004956 -0.003802 0.000000 -0.000262 0.000000
# 2 -0.004956 0.020951 -0.007351 0.000000 -0.005471 0.000000
# 3 -0.003802 -0.007351 0.017468 0.000000 0.001755 0.000000
# 4 0.000000 0.000000 0.000000 0.036968 0.000000 -0.012491
# 5 -0.000262 -0.005471 0.001755 0.000000 0.023145 0.000000
# 6 0.000000 0.000000 0.000000 -0.012491 0.000000 0.038757
#
#
# Mechanical properties :
#
#
# Convention : Reuss Voigt Hill
#
# Bulk Modulus (GPa) = 58.96518 65.79391 62.37954
# Shear Modulus (GPa) = 26.89372 31.53337 29.21354
#
# Velocity S-wave (km/s) = 3.60255 3.90095 3.75472
# Velocity P-wave (km/s) = 6.76462 7.21393 6.99288
#
# Compressibility (1/GPa) = 0.01695916
#
# Stress axis : x y z
#
# Youngs Moduli (GPa) = 92.95849 47.73006 57.24846
#
# Poissons Ratio (x) = 0.23656 0.21764
# Poissons Ratio (y) = 0.46072 0.42082
# Poissons Ratio (z) = 0.35340 0.35085
#
# Static dielectric constant tensor:
#      x y z
#    x 4.007230 0.000000 -0.210320 
#    y 0.000000 3.438600 0.000000 
#    z -0.210320 0.000000 4.034030 
# 
# 
# High freq. dielectric constant tensor:
#      x y z
#    x 1.828800 0.000000 -0.000900 
#    y 0.000000 1.773860 0.000000 
#    z -0.000900 0.000000 1.826400 
# 
# From -- ./inp_files/110715.got.cif
#   From: 2010.06.25/outbox.cif.g09.slc.cpg/sg15_56_cif.got.tgz:110715.got - 2010.06.28 07:06:18.
