data_PCOD8137829
_publ_section_title
;
Structure prediction by ZEFSAII (Michael W. Deem and Ramdas Pophale) SiO2 
 PCOD8137829
Probable space group: C 2/C
;
_chemical_formula_sum "Si O2"
_cell_formula_units_Z 56
_cell_length_a 13.210324
_cell_length_b 25.916424
_cell_length_c 10.512166
_cell_angle_alpha 90.000000
_cell_angle_beta 129.935447
_cell_angle_gamma 90.000000
_cell_volume 2759.591684
_symmetry_space_group_name_H-M "C 2/C"
_symmetry_group_IT_number 15
_symmetry_cell_setting 'monoclinic'
loop_
_space_group_symop_operation_xyz
x,y,z
-x,y,1/2-z
-x,-y,-z
x,-y,1/2+z
1/2+x,1/2+y,z
1/2-x,1/2+y,1/2-z
1/2-x,1/2-y,-z
1/2+x,1/2-y,1/2+z
loop_
_atom_site_type_symbol
_atom_site_label
_atom_site_fract_x
_atom_site_fract_y
_atom_site_fract_z
Si Si1 0.854127 0.867080 0.678778
Si Si2 0.205990 0.548143 0.181051
Si Si3 0.298721 0.256685 0.748590
Si Si4 0.488362 0.225778 0.382414
Si Si5 0.551866 0.888958 0.980280
Si Si6 0.643884 0.149809 0.808628
Si Si7 0.355764 0.978507 0.600875
O O1 0.818589 0.908199 0.759608
O O2 0.840034 0.809470 0.716845
O O3 0.751526 0.878232 0.482031
O O4 0.000000 0.878110 0.750000
O O5 0.229034 0.520146 0.336383
O O6 0.060833 0.572786 0.060722
O O7 0.216488 0.508770 0.071014
O O8 0.325458 0.210816 0.670679
O O9 0.145249 0.255068 0.660121
O O10 0.386771 0.249032 0.944328
O O11 0.500000 0.247745 0.250000
O O12 0.487767 0.163794 0.378895
O O13 0.629951 0.918208 0.930558
O O14 0.651797 0.876006 0.176090
O O15 0.500000 0.141602 0.750000
O O16 0.500000 0.002341 0.750000
#
# Coordination Sequence:
#
# PCOD8137829 Si02
#       7
#     8   8   8   8   8   8   8
#     4  12  24  39  61  86 130 162 204 250 316 367
#     4  11  22  39  62  94 122 163 198 260 316 366
#     4  11  22  38  57  90 125 162 210 251 303 360
#     4  11  21  37  59  89 127 167 203 248 305 372
#     4  10  20  36  63  95 121 152 203 260 308 357
#     4  11  21  37  65  91 120 163 212 254 298 362
#     4  10  22  36  65  96 127 148 207 262 318 359
#
# _framework density 20.292856
#
# number of rings (size 3 to 8) (size 9 to 14) (size 15 to 20)
#    0.000    1.143    2.857    6.000    4.000    0.000 
#    0.000    0.714    0.000    0.000    0.000    0.000 
#    0.000    0.000    0.000    0.000    0.000    0.000 
#
# Total GULP energy -347258.775223 kJ/mol
# GULP energy per Si atom -12402.099115 kJ/mol
# Density = 2.024667 g / cm^3
# Si number density = 20.292856 Si / 1000 Ang^3
#
#
#
# Elastic Constant Matrix: (Units=GPa)
#
#
# Indices 1 2 3 4 5 6 
#
# 1 93.9517 29.9992 41.6187 0.0000 -11.2232 0.0000
# 2 29.9992 61.8528 26.3800 0.0000 -6.8708 0.0000
# 3 41.6187 26.3800 81.4172 0.0000 -11.8266 0.0000
# 4 0.0000 0.0000 0.0000 25.8579 0.0000 -19.9758
# 5 -11.2232 -6.8708 -11.8266 0.0000 36.4376 0.0000
# 6 0.0000 0.0000 0.0000 -19.9758 0.0000 -42.5662
#
#
#
# Elastic Compliance Matrix: (Units=1/GPa)
#
#
# Indices 1 2 3 4 5 6 
#
# 1 0.014916 -0.004517 -0.005896 0.000000 0.001829 0.000000
# 2 -0.004517 0.020222 -0.004084 0.000000 0.001096 0.000000
# 3 -0.005896 -0.004084 0.017047 0.000000 0.002947 0.000000
# 4 0.000000 0.000000 0.000000 0.028383 0.000000 -0.013320
# 5 0.001829 0.001096 0.002947 0.000000 0.029171 0.000000
# 6 0.000000 0.000000 0.000000 -0.013320 0.000000 -0.017242
#
#
# Mechanical properties :
#
#
# Convention : Reuss Voigt Hill
#
# Bulk Modulus (GPa) = 43.11721 48.13529 45.62625
# Shear Modulus (GPa) = 38.69352 13.22746 25.96049
#
# Velocity S-wave (km/s) = 4.37138 2.55586 3.58060
# Velocity P-wave (km/s) = 6.83902 5.69927 6.29500
#
# Compressibility (1/GPa) = 0.02319260
#
# Stress axis : x y z
#
# Youngs Moduli (GPa) = 67.04136 49.45193 58.65988
#
# Poissons Ratio (x) = 0.22337 0.34584
# Poissons Ratio (y) = 0.30282 0.23956
# Poissons Ratio (z) = 0.39525 0.20195
#
# Static dielectric constant tensor:
#      x y z
#    x 3.663450 0.000000 -0.301850 
#    y 0.000000 3.734690 0.000000 
#    z -0.301850 0.000000 3.858210 
# 
# 
# High freq. dielectric constant tensor:
#      x y z
#    x 1.776430 0.000000 -0.026490 
#    y 0.000000 1.795330 0.000000 
#    z -0.026490 0.000000 1.790450 
# 
# From -- ./inp_files/90908.got.cif
#   From: 2010.06.25/outbox.cif.g09.slc.cpg/sg15_46_cif.got.tgz:90908.got - 2010.06.28 07:06:18.
