data_PCOD8137629
_publ_section_title
;
Structure prediction by ZEFSAII (Michael W. Deem and Ramdas Pophale) SiO2 
 PCOD8137629
Probable space group: C 2/C
;
_chemical_formula_sum "Si O2"
_cell_formula_units_Z 64
_cell_length_a 12.094415
_cell_length_b 12.462898
_cell_length_c 24.156975
_cell_angle_alpha 90.000000
_cell_angle_beta 59.864997
_cell_angle_gamma 90.000000
_cell_volume 3149.087112
_symmetry_space_group_name_H-M "C 2/C"
_symmetry_group_IT_number 15
_symmetry_cell_setting 'monoclinic'
loop_
_space_group_symop_operation_xyz
x,y,z
-x,y,1/2-z
-x,-y,-z
x,-y,1/2+z
1/2+x,1/2+y,z
1/2-x,1/2+y,1/2-z
1/2-x,1/2-y,-z
1/2+x,1/2-y,1/2+z
loop_
_atom_site_type_symbol
_atom_site_label
_atom_site_fract_x
_atom_site_fract_y
_atom_site_fract_z
Si Si1 0.408118 0.281498 0.073255
Si Si2 0.175525 0.566713 0.925228
Si Si3 0.110741 0.748262 0.648465
Si Si4 0.412809 0.984588 0.319890
Si Si5 0.119790 0.007141 0.379357
Si Si6 0.448148 0.482030 0.819368
Si Si7 0.536457 0.917831 0.572538
Si Si8 0.029012 0.766958 0.930171
O O1 0.260244 0.263620 0.119362
O O2 0.442355 0.406192 0.073179
O O3 0.495393 0.206785 0.091413
O O4 0.438091 0.243134 0.004229
O O5 0.322939 0.539276 0.876016
O O6 0.143011 0.679524 0.903200
O O7 0.088520 0.476378 0.919405
O O8 0.151268 0.570452 0.998218
O O9 0.044701 0.640444 0.688057
O O10 0.067126 0.758048 0.596326
O O11 0.074098 0.856633 0.689394
O O12 0.500000 0.039252 0.250000
O O13 0.270079 0.996212 0.334555
O O14 0.423095 0.037530 0.378010
O O15 0.089926 0.115559 0.419934
O O16 0.064301 0.009001 0.332176
O O17 0.500000 0.537443 0.750000
#
# Coordination Sequence:
#
# PCOD8137629 Si02
#       8
#     8   8   8   8   8   8   8   8
#     4  10  20  37  62  91 126 163 206 259 316 371
#     4  10  21  39  65  94 121 162 212 257 303 369
#     4  10  20  36  60  92 119 162 211 264 309 368
#     4  11  24  41  63  89 128 167 211 257 316 378
#     4  10  25  40  56  92 127 164 206 258 320 372
#     4  11  24  41  63  89 128 167 211 257 316 378
#     4  10  21  39  65  94 121 162 212 257 303 369
#     4  10  20  37  62  91 126 163 206 259 316 371
#
# _framework density 20.323350999999999
#
# number of rings (size 3 to 8) (size 9 to 14) (size 15 to 20)
#    0.000    1.750    2.500    1.125    1.750    6.000 
#    0.000    5.000    0.000    0.000    0.000    0.000 
#    0.000    0.000    0.000    0.000    0.000    0.000 
#
# Total GULP energy -396653.400343 kJ/mol
# GULP energy per Si atom -12395.418761 kJ/mol
# Density = 2.027709 g / cm^3
# Si number density = 20.323351 Si / 1000 Ang^3
#
#
#
# Elastic Constant Matrix: (Units=GPa)
#
#
# Indices 1 2 3 4 5 6 
#
# 1 69.1469 28.9686 39.1183 0.0000 -6.0113 0.0000
# 2 28.9686 84.5418 35.7008 0.0000 1.3341 0.0000
# 3 39.1183 35.7008 110.7639 0.0000 -8.1392 0.0000
# 4 0.0000 0.0000 0.0000 7.7695 0.0000 3.7936
# 5 -6.0113 1.3341 -8.1392 0.0000 17.0220 0.0000
# 6 0.0000 0.0000 0.0000 3.7936 0.0000 27.3333
#
#
#
# Elastic Compliance Matrix: (Units=1/GPa)
#
#
# Indices 1 2 3 4 5 6 
#
# 1 0.019736 -0.004686 -0.005100 0.000000 0.004899 0.000000
# 2 -0.004686 0.014986 -0.003506 0.000000 -0.004506 0.000000
# 3 -0.005100 -0.003506 0.012279 0.000000 0.004345 0.000000
# 4 0.000000 0.000000 0.000000 0.138065 0.000000 -0.019162
# 5 0.004899 -0.004506 0.004345 0.000000 0.062908 0.000000
# 6 0.000000 0.000000 0.000000 -0.019162 0.000000 0.039245
#
#
# Mechanical properties :
#
#
# Convention : Reuss Voigt Hill
#
# Bulk Modulus (GPa) = 48.98094 52.44755 50.71424
# Shear Modulus (GPa) = 15.59528 21.13595 18.36562
#
# Velocity S-wave (km/s) = 2.77313 3.22838 3.00937
# Velocity P-wave (km/s) = 5.86573 6.30548 6.08958
#
# Compressibility (1/GPa) = 0.02041610
#
# Stress axis : x y z
#
# Youngs Moduli (GPa) = 50.66815 66.72878 81.44213
#
# Poissons Ratio (x) = 0.31272 0.41533
# Poissons Ratio (y) = 0.23746 0.28555
# Poissons Ratio (z) = 0.25839 0.23397
#
# Static dielectric constant tensor:
#      x y z
#    x 3.526520 0.000000 0.044390 
#    y 0.000000 4.250190 0.000000 
#    z 0.044390 0.000000 3.485010 
# 
# 
# High freq. dielectric constant tensor:
#      x y z
#    x 1.790630 0.000000 0.001820 
#    y 0.000000 1.806120 0.000000 
#    z 0.001820 0.000000 1.784950 
# 
# From -- ./inp_files/269263.got.cif
#   From: 2010.06.25/outbox.cif.g09.slc.cpg/sg15_135_cif.got.tgz:269263.got - 2010.06.28 07:06:18.
