data_PCOD8137900
_publ_section_title
;
Structure prediction by ZEFSAII (Michael W. Deem and Ramdas Pophale) SiO2 
 PCOD8137900
Probable space group: C 2/C
;
_chemical_formula_sum "Si O2"
_cell_formula_units_Z 44
_cell_length_a 11.221588
_cell_length_b 20.010735
_cell_length_c 9.551890
_cell_angle_alpha 90.000000
_cell_angle_beta 81.959891
_cell_angle_gamma 90.000000
_cell_volume 2123.814650
_symmetry_space_group_name_H-M "C 2/C"
_symmetry_group_IT_number 15
_symmetry_cell_setting 'monoclinic'
loop_
_space_group_symop_operation_xyz
x,y,z
-x,y,1/2-z
-x,-y,-z
x,-y,1/2+z
1/2+x,1/2+y,z
1/2-x,1/2+y,1/2-z
1/2-x,1/2-y,-z
1/2+x,1/2-y,1/2+z
loop_
_atom_site_type_symbol
_atom_site_label
_atom_site_fract_x
_atom_site_fract_y
_atom_site_fract_z
Si Si1 0.500000 0.203543 0.750000
Si Si2 0.000000 0.135693 0.750000
Si Si3 0.304328 0.868342 0.441896
Si Si4 0.693009 0.467482 0.265313
Si Si5 0.423322 0.039341 0.123513
Si Si6 0.000000 0.926094 0.750000
Si Si7 0.935859 0.813803 0.970870
O O1 0.615854 0.156476 0.705095
O O2 0.502106 0.250986 0.887211
O O3 0.882477 0.090276 0.801816
O O4 0.985944 0.183576 0.619278
O O5 0.232542 0.935383 0.407225
O O6 0.384496 0.889012 0.563381
O O7 0.210617 0.809573 0.499786
O O8 0.810752 0.490959 0.165557
O O9 0.607279 0.530967 0.300053
O O10 0.500000 0.054245 0.250000
O O11 0.500000 0.000000 0.000000
O O12 0.041215 0.882205 0.613632
#
# Coordination Sequence:
#
# PCOD8137900 Si02
#       7
#     4   4   8   8   8   4   8
#     4  11  24  45  64  82 123 175 224 250 306 363
#     4   9  22  37  64  98 121 154 207 272 314 353
#     4  11  22  41  64  91 125 169 206 261 312 369
#     4  10  21  37  64  95 134 154 204 253 324 382
#     4  12  23  37  59  94 133 166 196 244 317 394
#     4  10  20  36  66 100 122 165 201 260 314 376
#     4  10  22  41  66  90 123 165 216 260 306 361
#
# _framework density 20.717441000000001
#
# number of rings (size 3 to 8) (size 9 to 14) (size 15 to 20)
#    0.000    1.455    3.636    1.636    2.545    2.182 
#    1.636    3.636    0.000    0.000    0.000    0.000 
#    0.000    0.000    0.000    0.000    0.000    0.000 
#
# Total GULP energy -272629.583799 kJ/mol
# GULP energy per Si atom -12392.253809 kJ/mol
# Density = 2.067029 g / cm^3
# Si number density = 20.717441 Si / 1000 Ang^3
#
#
#
# Elastic Constant Matrix: (Units=GPa)
#
#
# Indices 1 2 3 4 5 6 
#
# 1 132.6461 42.0757 67.7303 0.0000 -1.0775 0.0000
# 2 42.0757 82.5547 47.1686 0.0000 10.5574 0.0000
# 3 67.7303 47.1686 130.4219 0.0000 7.1195 0.0000
# 4 0.0000 0.0000 0.0000 33.7118 0.0000 -7.7208
# 5 -1.0775 10.5574 7.1195 0.0000 41.1784 0.0000
# 6 0.0000 0.0000 0.0000 -7.7208 0.0000 5.5345
#
#
#
# Elastic Compliance Matrix: (Units=1/GPa)
#
#
# Indices 1 2 3 4 5 6 
#
# 1 0.010923 -0.003163 -0.004632 0.000000 0.001898 0.000000
# 2 -0.003163 0.016557 -0.004148 0.000000 -0.003611 0.000000
# 3 -0.004632 -0.004148 0.011632 0.000000 -0.001069 0.000000
# 4 0.000000 0.000000 0.000000 0.043590 0.000000 0.060810
# 5 0.001898 -0.003611 -0.001069 0.000000 0.025445 0.000000
# 6 0.000000 0.000000 0.000000 0.060810 0.000000 0.265518
#
#
# Mechanical properties :
#
#
# Convention : Reuss Voigt Hill
#
# Bulk Modulus (GPa) = 65.68320 73.28577 69.48448
# Shear Modulus (GPa) = 12.41847 28.66148 20.53997
#
# Velocity S-wave (km/s) = 2.45096 3.72351 3.15212
# Velocity P-wave (km/s) = 6.30736 7.34416 6.84542
#
# Compressibility (1/GPa) = 0.01522459
#
# Stress axis : x y z
#
# Youngs Moduli (GPa) = 91.55202 60.39639 85.97320
#
# Poissons Ratio (x) = 0.19104 0.39823
# Poissons Ratio (y) = 0.28959 0.35665
# Poissons Ratio (z) = 0.42407 0.25055
#
# Static dielectric constant tensor:
#      x y z
#    x 4.407190 0.000000 -0.344440 
#    y 0.000000 3.737870 0.000000 
#    z -0.344440 0.000000 3.726440 
# 
# 
# High freq. dielectric constant tensor:
#      x y z
#    x 1.819990 0.000000 -0.014730 
#    y 0.000000 1.804740 0.000000 
#    z -0.014730 0.000000 1.806040 
# 
# From -- ./inp_files/30885.got.cif
#   From: 2010.06.25/outbox.cif.g09.slc.cpg/sg15_16_cif.got.tgz:30885.got - 2010.06.28 07:06:18.
