data_PCOD8137688
_publ_section_title
;
Structure prediction by ZEFSAII (Michael W. Deem and Ramdas Pophale) SiO2 
 PCOD8137688
Probable space group: C 2/C
;
_chemical_formula_sum "Si O2"
_cell_formula_units_Z 56
_cell_length_a 33.266265
_cell_length_b 11.998464
_cell_length_c 8.901560
_cell_angle_alpha 90.000000
_cell_angle_beta 126.249057
_cell_angle_gamma 90.000000
_cell_volume 2865.336292
_symmetry_space_group_name_H-M "C 2/C"
_symmetry_group_IT_number 15
_symmetry_cell_setting 'monoclinic'
loop_
_space_group_symop_operation_xyz
x,y,z
-x,y,1/2-z
-x,-y,-z
x,-y,1/2+z
1/2+x,1/2+y,z
1/2-x,1/2+y,1/2-z
1/2-x,1/2-y,-z
1/2+x,1/2-y,1/2+z
loop_
_atom_site_type_symbol
_atom_site_label
_atom_site_fract_x
_atom_site_fract_y
_atom_site_fract_z
Si Si1 0.290588 0.494695 0.242431
Si Si2 0.447005 0.840519 0.104126
Si Si3 0.156469 0.226402 0.586972
Si Si4 0.353952 0.094568 0.912811
Si Si5 0.307107 0.280799 0.650648
Si Si6 0.275153 0.087445 0.149635
Si Si7 0.916008 0.500157 0.298227
O O1 0.333701 0.405691 0.375781
O O2 0.313655 0.586447 0.180674
O O3 0.271735 0.567013 0.342726
O O4 0.244410 0.428567 0.063697
O O5 0.500000 0.777485 0.250000
O O6 0.442869 0.929916 0.229216
O O7 0.400352 0.755571 0.993848
O O8 0.450651 0.906127 0.953327
O O9 0.162833 0.262103 0.428098
O O10 0.198220 0.292404 0.776364
O O11 0.329672 0.217278 0.845527
O O12 0.314862 0.004364 0.775191
O O13 0.398753 0.082733 0.892202
O O14 0.370786 0.070315 0.120186
O O15 0.250000 0.250000 0.500000
#
# Coordination Sequence:
#
# PCOD8137688 Si02
#       7
#     8   8   8   8   8   8   8
#     4  12  25  36  55  88 121 164 207 234 289 368
#     4  11  23  40  64  91 121 159 202 256 310 355
#     4  12  23  40  58  86 122 159 203 251 301 353
#     4  11  19  35  58  87 122 160 186 234 304 354
#     4  12  21  37  57  83 123 162 197 245 294 351
#     4  12  21  36  58  85 127 157 194 238 293 371
#     4  10  20  36  61  91 119 149 193 248 305 365
#
# _framework density 19.543952999999998
#
# number of rings (size 3 to 8) (size 9 to 14) (size 15 to 20)
#    0.000    0.571    8.571    1.714    0.000    1.143 
#    0.000    0.000    0.000    0.857    0.000    0.000 
#    0.000    0.000    0.000    0.000    0.000    0.000 
#
# Total GULP energy -347069.959983 kJ/mol
# GULP energy per Si atom -12395.355714 kJ/mol
# Density = 1.949947 g / cm^3
# Si number density = 19.543953 Si / 1000 Ang^3
#
#
#
# Elastic Constant Matrix: (Units=GPa)
#
#
# Indices 1 2 3 4 5 6 
#
# 1 43.0530 18.3660 23.9832 0.0000 8.1545 0.0000
# 2 18.3660 97.5835 20.6807 0.0000 15.6144 0.0000
# 3 23.9832 20.6807 62.2554 0.0000 11.9264 0.0000
# 4 0.0000 0.0000 0.0000 37.8255 0.0000 -4.9811
# 5 8.1545 15.6144 11.9264 0.0000 29.7126 0.0000
# 6 0.0000 0.0000 0.0000 -4.9811 0.0000 19.1962
#
#
#
# Elastic Compliance Matrix: (Units=1/GPa)
#
#
# Indices 1 2 3 4 5 6 
#
# 1 0.030835 -0.003195 -0.010311 0.000000 -0.002645 0.000000
# 2 -0.003195 0.011991 -0.001856 0.000000 -0.004680 0.000000
# 3 -0.010311 -0.001856 0.021582 0.000000 -0.004858 0.000000
# 4 0.000000 0.000000 0.000000 0.027372 0.000000 0.007103
# 5 -0.002645 -0.004680 -0.004858 0.000000 0.038791 0.000000
# 6 0.000000 0.000000 0.000000 0.007103 0.000000 0.053937
#
#
# Mechanical properties :
#
#
# Convention : Reuss Voigt Hill
#
# Bulk Modulus (GPa) = 29.68723 36.55019 33.11871
# Shear Modulus (GPa) = 22.07902 26.67101 24.37501
#
# Velocity S-wave (km/s) = 3.36476 3.69815 3.53539
# Velocity P-wave (km/s) = 5.50622 6.08089 5.80068
#
# Compressibility (1/GPa) = 0.03368452
#
# Stress axis : x y z
#
# Youngs Moduli (GPa) = 32.43091 83.39522 46.33471
#
# Poissons Ratio (x) = 0.26645 0.47774
# Poissons Ratio (y) = 0.10362 0.08600
# Poissons Ratio (z) = 0.33439 0.15478
#
# Static dielectric constant tensor:
#      x y z
#    x 4.203660 0.000000 -0.251180 
#    y 0.000000 3.267240 0.000000 
#    z -0.251180 0.000000 3.910810 
# 
# 
# High freq. dielectric constant tensor:
#      x y z
#    x 1.742670 0.000000 -0.021800 
#    y 0.000000 1.740380 0.000000 
#    z -0.021800 0.000000 1.764440 
# 
# From -- ./inp_files/66159.got.cif
#   From: 2010.06.25/outbox.cif.g09.slc.cpg/sg15_34_cif.got.tgz:66159.got - 2010.06.28 07:06:18.
