data_PCOD8137929
_publ_section_title
;
Structure prediction by ZEFSAII (Michael W. Deem and Ramdas Pophale) SiO2 
 PCOD8137929
Probable space group: C 2/C
;
_chemical_formula_sum "Si O2"
_cell_formula_units_Z 56
_cell_length_a 20.481631
_cell_length_b 8.213582
_cell_length_c 20.451880
_cell_angle_alpha 90.000000
_cell_angle_beta 128.234320
_cell_angle_gamma 90.000000
_cell_volume 2702.520522
_symmetry_space_group_name_H-M "C 2/C"
_symmetry_group_IT_number 15
_symmetry_cell_setting 'monoclinic'
loop_
_space_group_symop_operation_xyz
x,y,z
-x,y,1/2-z
-x,-y,-z
x,-y,1/2+z
1/2+x,1/2+y,z
1/2-x,1/2+y,1/2-z
1/2-x,1/2-y,-z
1/2+x,1/2-y,1/2+z
loop_
_atom_site_type_symbol
_atom_site_label
_atom_site_fract_x
_atom_site_fract_y
_atom_site_fract_z
Si Si1 0.872042 0.649430 0.165117
Si Si2 0.710106 0.455576 0.056096
Si Si3 0.990700 0.404373 0.845645
Si Si4 0.860771 0.601491 0.830247
Si Si5 0.257959 0.821515 0.830871
Si Si6 0.275629 0.541285 0.577406
Si Si7 0.885499 0.734543 0.984576
O O1 0.794331 0.537212 0.136871
O O2 0.932021 0.549488 0.153366
O O3 0.922171 0.697863 0.261974
O O4 0.843273 0.815329 0.112088
O O5 0.692051 0.292051 0.086019
O O6 0.632966 0.575099 0.019417
O O7 0.719765 0.426525 0.983874
O O8 0.944504 0.567956 0.841042
O O9 0.024544 0.301033 0.927980
O O10 0.798463 0.714113 0.751102
O O11 0.819672 0.427991 0.824553
O O12 0.890089 0.699336 0.911135
O O13 0.204022 0.941113 0.844015
O O14 0.184499 0.622430 0.524233
#
# Coordination Sequence:
#
# PCOD8137929 Si02
#       7
#     8   8   8   8   8   8   8
#     4  10  20  36  67  89 119 157 204 249 308 357
#     4  11  18  40  63  94 117 157 203 256 295 355
#     4  11  20  37  64  88 124 158 200 247 307 362
#     4  11  24  39  60  89 123 169 205 245 300 364
#     4  11  24  38  63  87 120 160 212 250 291 363
#     4  10  20  38  66  91 117 157 208 255 294 358
#     4  10  20  37  65  91 122 157 206 247 299 367
#
# _framework density 20.721397
#
# number of rings (size 3 to 8) (size 9 to 14) (size 15 to 20)
#    0.000    1.429    4.286    2.571    4.000    0.000 
#    0.000    0.714   12.571    0.000    0.000    0.000 
#    0.000    0.000    0.000    0.000    0.000    0.000 
#
# Total GULP energy -347112.094687 kJ/mol
# GULP energy per Si atom -12396.860525 kJ/mol
# Density = 2.067423 g / cm^3
# Si number density = 20.721397 Si / 1000 Ang^3
#
#
#
# Elastic Constant Matrix: (Units=GPa)
#
#
# Indices 1 2 3 4 5 6 
#
# 1 70.4874 35.9400 37.4348 0.0000 -11.3117 0.0000
# 2 35.9400 74.4933 14.3656 0.0000 -11.9471 0.0000
# 3 37.4348 14.3656 115.5550 0.0000 -17.3941 0.0000
# 4 0.0000 0.0000 0.0000 32.7070 0.0000 -14.3712
# 5 -11.3117 -11.9471 -17.3941 0.0000 28.6805 0.0000
# 6 0.0000 0.0000 0.0000 -14.3712 0.0000 26.9577
#
#
#
# Elastic Compliance Matrix: (Units=1/GPa)
#
#
# Indices 1 2 3 4 5 6 
#
# 1 0.022316 -0.009425 -0.005859 0.000000 0.001322 0.000000
# 2 -0.009425 0.018466 0.001492 0.000000 0.004880 0.000000
# 3 -0.005859 0.001492 0.011128 0.000000 0.005060 0.000000
# 4 0.000000 0.000000 0.000000 0.039927 0.000000 0.021285
# 5 0.001322 0.004880 0.005060 0.000000 0.040490 0.000000
# 6 0.000000 0.000000 0.000000 0.021285 0.000000 0.048442
#
#
# Mechanical properties :
#
#
# Convention : Reuss Voigt Hill
#
# Bulk Modulus (GPa) = 41.10594 48.44628 44.77611
# Shear Modulus (GPa) = 23.09884 29.18870 26.14377
#
# Velocity S-wave (km/s) = 3.34239 3.75724 3.55587
# Velocity P-wave (km/s) = 5.89711 6.50023 6.20600
#
# Compressibility (1/GPa) = 0.02432738
#
# Stress axis : x y z
#
# Youngs Moduli (GPa) = 44.81070 54.15372 89.86357
#
# Poissons Ratio (x) = 0.51038 0.52648
# Poissons Ratio (y) = 0.42233 -0.13408
# Poissons Ratio (z) = 0.26253 -0.08080
#
# Static dielectric constant tensor:
#      x y z
#    x 3.673630 0.000000 -0.222500 
#    y 0.000000 3.615570 0.000000 
#    z -0.222500 0.000000 3.992140 
# 
# 
# High freq. dielectric constant tensor:
#      x y z
#    x 1.800290 0.000000 -0.024260 
#    y 0.000000 1.782750 0.000000 
#    z -0.024260 0.000000 1.829770 
# 
# From -- ./inp_files/251959.got.cif
#   From: 2010.06.25/outbox.cif.g09.slc.cpg/sg15_126_cif.got.tgz:251959.got - 2010.06.28 07:06:18.
