data_PCOD8137471
_publ_section_title
;
Structure prediction by ZEFSAII (Michael W. Deem and Ramdas Pophale) SiO2 
 PCOD8137471
Probable space group: C 2/C
;
_chemical_formula_sum "Si O2"
_cell_formula_units_Z 52
_cell_length_a 17.020782
_cell_length_b 16.963825
_cell_length_c 10.381158
_cell_angle_alpha 90.000000
_cell_angle_beta 60.581793
_cell_angle_gamma 90.000000
_cell_volume 2610.934963
_symmetry_space_group_name_H-M "C 2/C"
_symmetry_group_IT_number 15
_symmetry_cell_setting 'monoclinic'
loop_
_space_group_symop_operation_xyz
x,y,z
-x,y,1/2-z
-x,-y,-z
x,-y,1/2+z
1/2+x,1/2+y,z
1/2-x,1/2+y,1/2-z
1/2-x,1/2-y,-z
1/2+x,1/2-y,1/2+z
loop_
_atom_site_type_symbol
_atom_site_label
_atom_site_fract_x
_atom_site_fract_y
_atom_site_fract_z
Si Si1 0.787501 0.736015 0.263417
Si Si2 0.697759 0.140232 0.997482
Si Si3 0.662947 0.527099 0.710135
Si Si4 0.000000 0.924840 0.750000
Si Si5 0.634050 0.633963 0.956571
Si Si6 0.777108 0.610889 0.060973
Si Si7 0.561526 0.998913 0.076372
O O1 0.704726 0.789146 0.385607
O O2 0.824107 0.678303 0.345920
O O3 0.865767 0.792401 0.142051
O O4 0.758111 0.686151 0.164205
O O5 0.795806 0.096256 0.915060
O O6 0.621142 0.078405 0.022133
O O7 0.579523 0.484419 0.714070
O O8 0.634580 0.554757 0.873422
O O9 0.739082 0.462395 0.671442
O O10 0.038980 0.865775 0.609724
O O11 0.724445 0.630456 0.971303
O O12 0.880944 0.583109 0.956008
O O13 0.500000 0.003946 0.250000
O O14 0.500000 0.000000 0.000000
#
# Coordination Sequence:
#
# PCOD8137471 Si02
#       7
#     8   8   8   4   8   8   8
#     4  10  20  39  65  86 121 159 200 250 299 382
#     4   9  21  40  66  89 115 162 209 245 310 362
#     4   9  20  36  64  85 118 150 204 247 288 365
#     4  10  20  36  58  94 118 154 190 252 306 364
#     4  10  21  38  58  90 121 156 198 246 305 373
#     4  10  22  36  63  87 119 161 203 248 309 362
#     4  11  24  40  64  94 127 165 216 266 307 369
#
# _framework density 19.916238
#
# number of rings (size 3 to 8) (size 9 to 14) (size 15 to 20)
#    0.000    2.154    0.000    1.846   12.923    0.000 
#    1.385    4.615   28.769    0.000    0.000    0.000 
#    0.000    0.000    0.000    0.000    0.000    0.000 
#
# Total GULP energy -322101.296147 kJ/mol
# GULP energy per Si atom -12388.511390 kJ/mol
# Density = 1.987091 g / cm^3
# Si number density = 19.916238 Si / 1000 Ang^3
#
#
#
# Elastic Constant Matrix: (Units=GPa)
#
#
# Indices 1 2 3 4 5 6 
#
# 1 68.8311 25.1175 40.4654 0.0000 -13.3876 0.0000
# 2 25.1175 96.6370 51.7069 0.0000 -5.8280 0.0000
# 3 40.4654 51.7069 142.2088 0.0000 -8.5789 0.0000
# 4 0.0000 0.0000 0.0000 34.8083 0.0000 1.0451
# 5 -13.3876 -5.8280 -8.5789 0.0000 22.9374 0.0000
# 6 0.0000 0.0000 0.0000 1.0451 0.0000 19.3530
#
#
#
# Elastic Compliance Matrix: (Units=1/GPa)
#
#
# Indices 1 2 3 4 5 6 
#
# 1 0.019643 -0.002302 -0.004191 0.000000 0.009313 0.000000
# 2 -0.002302 0.013171 -0.004106 0.000000 0.000468 0.000000
# 3 -0.004191 -0.004106 0.009726 0.000000 0.000149 0.000000
# 4 0.000000 0.000000 0.000000 0.028775 0.000000 -0.001554
# 5 0.009313 0.000468 0.000149 0.000000 0.049207 0.000000
# 6 0.000000 0.000000 0.000000 -0.001554 0.000000 0.051755
#
#
# Mechanical properties :
#
#
# Convention : Reuss Voigt Hill
#
# Bulk Modulus (GPa) = 46.85123 60.25072 53.55098
# Shear Modulus (GPa) = 24.92647 28.11222 26.51935
#
# Velocity S-wave (km/s) = 3.54158 3.76110 3.65299
# Velocity P-wave (km/s) = 6.34815 7.01277 6.68872
#
# Compressibility (1/GPa) = 0.02134416
#
# Stress axis : x y z
#
# Youngs Moduli (GPa) = 50.90803 75.92216 102.81424
#
# Poissons Ratio (x) = 0.17474 0.43087
# Poissons Ratio (y) = 0.11717 0.42215
# Poissons Ratio (z) = 0.21335 0.31173
#
# Static dielectric constant tensor:
#      x y z
#    x 3.985560 0.000000 -1.136950 
#    y 0.000000 3.975640 0.000000 
#    z -1.136950 0.000000 5.390430 
# 
# 
# High freq. dielectric constant tensor:
#      x y z
#    x 1.742630 0.000000 -0.001040 
#    y 0.000000 1.789890 0.000000 
#    z -0.001040 0.000000 1.796930 
# 
# From -- ./inp_files/48950.got.cif
#   From: 2010.06.25/outbox.cif.g09.slc.cpg/sg15_25_cif.got.tgz:48950.got - 2010.06.28 07:06:18.
