data_PCOD8137150
_publ_section_title
;
Structure prediction by ZEFSAII (Michael W. Deem and Ramdas Pophale) SiO2 
 PCOD8137150
Probable space group: C 2/C
;
_chemical_formula_sum "Si O2"
_cell_formula_units_Z 48
_cell_length_a 9.323745
_cell_length_b 15.199375
_cell_length_c 28.462905
_cell_angle_alpha 90.000000
_cell_angle_beta 142.877291
_cell_angle_gamma 90.000000
_cell_volume 2434.388731
_symmetry_space_group_name_H-M "C 2/C"
_symmetry_group_IT_number 15
_symmetry_cell_setting 'monoclinic'
loop_
_space_group_symop_operation_xyz
x,y,z
-x,y,1/2-z
-x,-y,-z
x,-y,1/2+z
1/2+x,1/2+y,z
1/2-x,1/2+y,1/2-z
1/2-x,1/2-y,-z
1/2+x,1/2-y,1/2+z
loop_
_atom_site_type_symbol
_atom_site_label
_atom_site_fract_x
_atom_site_fract_y
_atom_site_fract_z
Si Si1 0.798418 0.286387 0.736100
Si Si2 0.388828 0.022486 0.272568
Si Si3 0.776446 0.246391 0.062465
Si Si4 0.508284 0.611634 0.696497
Si Si5 0.265653 0.559078 0.941876
Si Si6 0.487535 0.913874 0.026515
O O1 0.817450 0.378078 0.769301
O O2 0.545391 0.274271 0.645970
O O3 0.853214 0.201268 0.782621
O O4 0.000000 0.286849 0.750000
O O5 0.500000 0.020491 0.250000
O O6 0.144654 0.968341 0.207473
O O7 0.567100 0.983559 0.357210
O O8 0.689032 0.339116 0.062555
O O9 0.750000 0.250000 0.000000
O O10 0.616210 0.162630 0.034952
O O11 0.500000 0.597038 0.750000
O O12 0.243097 0.618638 0.609170
O O13 0.177248 0.563763 0.972088
O O14 0.500000 0.500000 0.000000
O O15 0.500000 0.000000 0.000000
#
# Coordination Sequence:
#
# PCOD8137150 Si02
#       6
#     8   8   8   8   8   8
#     4  10  20  35  62  87 117 162 208 245 297 365
#     4  11  24  39  64  91 123 159 205 254 305 366
#     4  10  20  39  61  90 121 161 206 248 300 371
#     4  11  20  42  62  87 119 161 208 250 297 361
#     4  11  24  40  62  91 126 160 202 255 308 361
#     4  11  24  40  65  91 122 163 206 253 303 365
#
# _framework density 19.717473999999999
#
# number of rings (size 3 to 8) (size 9 to 14) (size 15 to 20)
#    0.000    1.333    3.333    4.000   14.000    0.000 
#    0.000    3.333    0.000    0.000    0.000    0.000 
#    0.000    0.000    0.000    0.000    0.000    0.000 
#
# Total GULP energy -297480.319072 kJ/mol
# GULP energy per Si atom -12395.013295 kJ/mol
# Density = 1.967260 g / cm^3
# Si number density = 19.717474 Si / 1000 Ang^3
#
#
#
# Elastic Constant Matrix: (Units=GPa)
#
#
# Indices 1 2 3 4 5 6 
#
# 1 61.3168 46.9917 30.9312 0.0000 16.3494 0.0000
# 2 46.9917 190.9821 67.2242 0.0000 13.9971 0.0000
# 3 30.9312 67.2242 137.5581 0.0000 32.9573 -0.0001
# 4 0.0000 0.0000 0.0000 44.0396 -0.0001 8.3540
# 5 16.3494 13.9971 32.9573 -0.0001 35.9648 0.0000
# 6 0.0000 0.0000 -0.0001 8.3540 0.0000 34.6467
#
#
#
# Elastic Compliance Matrix: (Units=1/GPa)
#
#
# Indices 1 2 3 4 5 6 
#
# 1 0.022317 -0.004598 -0.000986 0.000000 -0.007452 0.000000
# 2 -0.004598 0.007278 -0.003004 0.000000 0.002011 0.000000
# 3 -0.000986 -0.003004 0.010984 0.000000 -0.008448 0.000000
# 4 0.000000 0.000000 0.000000 0.023795 0.000000 -0.005737
# 5 -0.007452 0.002011 -0.008448 0.000000 0.038151 0.000000
# 6 0.000000 0.000000 0.000000 -0.005737 0.000000 0.030246
#
#
# Mechanical properties :
#
#
# Convention : Reuss Voigt Hill
#
# Bulk Modulus (GPa) = 42.73176 75.57235 59.15206
# Shear Modulus (GPa) = 31.69623 39.24422 35.47023
#
# Velocity S-wave (km/s) = 4.01374 4.46615 4.24597
# Velocity P-wave (km/s) = 6.57261 8.06264 7.35545
#
# Compressibility (1/GPa) = 0.02340180
#
# Stress axis : x y z
#
# Youngs Moduli (GPa) = 44.80919 137.40793 91.04563
#
# Poissons Ratio (x) = 0.63180 0.08974
# Poissons Ratio (y) = 0.20603 0.27354
# Poissons Ratio (z) = 0.04416 0.41284
#
# Static dielectric constant tensor:
#      x y z
#    x 3.228890 0.000000 0.603060 
#    y 0.000000 4.989890 0.000000 
#    z 0.603060 0.000000 2.788890 
# 
# 
# High freq. dielectric constant tensor:
#      x y z
#    x 1.730680 0.000000 0.023820 
#    y 0.000000 1.802900 0.000000 
#    z 0.023820 0.000000 1.780200 
# 
# From -- ./inp_files/289073.got.cif
#   From: 2010.06.25/outbox.cif.g09.slc.cpg/sg15_145_cif.got.tgz:289073.got - 2010.06.28 07:06:18.
