data_PCOD8137252
_publ_section_title
;
Structure prediction by ZEFSAII (Michael W. Deem and Ramdas Pophale) SiO2 
 PCOD8137252
Probable space group: C 2/C
;
_chemical_formula_sum "Si O2"
_cell_formula_units_Z 52
_cell_length_a 11.396528
_cell_length_b 25.073203
_cell_length_c 12.311691
_cell_angle_alpha 90.000000
_cell_angle_beta 129.796940
_cell_angle_gamma 90.000000
_cell_volume 2702.968155
_symmetry_space_group_name_H-M "C 2/C"
_symmetry_group_IT_number 15
_symmetry_cell_setting 'monoclinic'
loop_
_space_group_symop_operation_xyz
x,y,z
-x,y,1/2-z
-x,-y,-z
x,-y,1/2+z
1/2+x,1/2+y,z
1/2-x,1/2+y,1/2-z
1/2-x,1/2-y,-z
1/2+x,1/2-y,1/2+z
loop_
_atom_site_type_symbol
_atom_site_label
_atom_site_fract_x
_atom_site_fract_y
_atom_site_fract_z
Si Si1 0.500000 0.029942 0.250000
Si Si2 0.679069 0.681979 0.866079
Si Si3 0.675677 0.203591 0.322661
Si Si4 0.344777 0.574305 0.725497
Si Si5 0.221688 0.402294 0.743174
Si Si6 0.300314 0.026826 0.461619
Si Si7 0.048198 0.943882 0.982953
O O1 0.360717 0.067696 0.205118
O O2 0.557440 0.991649 0.380862
O O3 0.500000 0.673204 0.750000
O O4 0.728615 0.735252 0.827682
O O5 0.752915 0.626914 0.866506
O O6 0.721684 0.684867 0.016926
O O7 0.500000 0.206084 0.250000
O O8 0.696679 0.161816 0.236521
O O9 0.500000 0.567159 0.750000
O O10 0.246495 0.521482 0.645938
O O11 0.372541 0.585444 0.869266
O O12 0.151273 0.424198 0.588438
O O13 0.402470 0.411838 0.853681
O O14 0.162184 0.048438 0.451405
O O15 0.000000 0.000000 0.000000
#
# Coordination Sequence:
#
# PCOD8137252 Si02
#       7
#     4   8   8   8   8   8   8
#     4  12  22  36  50  78 116 150 184 228 278 336
#     4   9  19  33  56  82 112 145 182 233 286 328
#     4  10  20  36  54  84 115 142 186 235 284 332
#     4  11  18  32  56  81 109 142 180 230 281 329
#     4  12  22  35  57  79 115 151 183 230 286 334
#     4  12  23  36  53  82 116 152 187 225 278 338
#     4  12  21  36  55  82 113 146 190 228 271 344
#
# _framework density 19.238111
#
# number of rings (size 3 to 8) (size 9 to 14) (size 15 to 20)
#    0.000    0.923    5.385    3.692    0.000    0.000 
#    0.000    0.000    0.000    0.923    0.000    0.000 
#    0.000    0.000    0.000    0.000    0.000    0.000 
#
# Total GULP energy -322285.460733 kJ/mol
# GULP energy per Si atom -12395.594644 kJ/mol
# Density = 1.919432 g / cm^3
# Si number density = 19.238111 Si / 1000 Ang^3
#
#
#
# Elastic Constant Matrix: (Units=GPa)
#
#
# Indices 1 2 3 4 5 6 
#
# 1 57.8061 25.9446 9.4424 0.0000 -5.6207 0.0000
# 2 25.9446 126.2312 17.6877 0.0000 -17.1772 0.0000
# 3 9.4424 17.6877 90.9128 0.0000 -2.4639 0.0000
# 4 0.0000 0.0000 0.0000 30.0666 0.0000 -9.5352
# 5 -5.6207 -17.1772 -2.4639 0.0000 28.6159 0.0000
# 6 0.0000 0.0000 0.0000 -9.5352 0.0000 16.3917
#
#
#
# Elastic Compliance Matrix: (Units=1/GPa)
#
#
# Indices 1 2 3 4 5 6 
#
# 1 0.019258 -0.003573 -0.001264 0.000000 0.001529 0.000000
# 2 -0.003573 0.009511 -0.001347 0.000000 0.004891 0.000000
# 3 -0.001264 -0.001347 0.011391 0.000000 -0.000076 0.000000
# 4 0.000000 0.000000 0.000000 0.040783 0.000000 0.023724
# 5 0.001529 0.004891 -0.000076 0.000000 0.038175 0.000000
# 6 0.000000 0.000000 0.000000 0.023724 0.000000 0.074807
#
#
# Mechanical properties :
#
#
# Convention : Reuss Voigt Hill
#
# Bulk Modulus (GPa) = 35.98065 42.34440 39.16252
# Shear Modulus (GPa) = 23.19589 29.80655 26.50122
#
# Velocity S-wave (km/s) = 3.47612 3.94045 3.71555
# Velocity P-wave (km/s) = 5.90378 6.53921 6.22960
#
# Compressibility (1/GPa) = 0.02779272
#
# Stress axis : x y z
#
# Youngs Moduli (GPa) = 51.92671 105.14563 87.79062
#
# Poissons Ratio (x) = 0.37569 0.11093
# Poissons Ratio (y) = 0.18553 0.11823
# Poissons Ratio (z) = 0.06561 0.14160
#
# Static dielectric constant tensor:
#      x y z
#    x 3.248260 0.000000 0.146410 
#    y 0.000000 3.963910 0.000000 
#    z 0.146410 0.000000 3.780190 
# 
# 
# High freq. dielectric constant tensor:
#      x y z
#    x 1.711030 0.000000 0.010770 
#    y 0.000000 1.747630 0.000000 
#    z 0.010770 0.000000 1.761820 
# 
# From -- ./inp_files/91309.got.cif
#   From: 2010.06.25/outbox.cif.g09.slc.cpg/sg15_46_cif.got.tgz:91309.got - 2010.06.28 07:06:18.
