data_PCOD8137678
_publ_section_title
;
Structure prediction by ZEFSAII (Michael W. Deem and Ramdas Pophale) SiO2 
 PCOD8137678
Probable space group: C 2/C
;
_chemical_formula_sum "Si O2"
_cell_formula_units_Z 36
_cell_length_a 28.250676
_cell_length_b 9.351560
_cell_length_c 23.431492
_cell_angle_alpha 90.000000
_cell_angle_beta 17.287659
_cell_angle_gamma 90.000000
_cell_volume 1839.571518
_symmetry_space_group_name_H-M "C 2/C"
_symmetry_group_IT_number 15
_symmetry_cell_setting 'monoclinic'
loop_
_space_group_symop_operation_xyz
x,y,z
-x,y,1/2-z
-x,-y,-z
x,-y,1/2+z
1/2+x,1/2+y,z
1/2-x,1/2+y,1/2-z
1/2-x,1/2-y,-z
1/2+x,1/2-y,1/2+z
loop_
_atom_site_type_symbol
_atom_site_label
_atom_site_fract_x
_atom_site_fract_y
_atom_site_fract_z
Si Si1 0.000000 0.749868 0.250000
Si Si2 0.771823 0.602631 0.786336
Si Si3 0.704735 0.116609 0.926431
Si Si4 0.388153 0.897170 0.553712
Si Si5 0.532901 0.616797 0.598280
O O1 0.859592 0.645918 0.434999
O O2 0.051266 0.853828 0.243316
O O3 0.706292 0.749838 0.837281
O O4 0.807712 0.499858 0.692311
O O5 0.926386 0.629598 0.647200
O O6 0.635462 0.528318 0.981963
O O7 0.896354 0.106942 0.707291
O O8 0.629866 0.971423 0.987515
O O9 0.651005 0.249876 0.947911
#
# Coordination Sequence:
#
# PCOD8137678 Si02
#       5
#     4   8   8   8   8
#     4   8  22  36  64  92 122 160 204 246 302 356
#     4  11  24  40  60  88 122 160 202 250 304 360
#     4  10  20  36  61  89 120 157 200 246 296 356
#     4  11  24  40  60  88 122 160 202 250 304 360
#     4  10  20  36  61  89 120 157 200 246 296 356
#
# _framework density 19.569773999999999
#
# number of rings (size 3 to 8) (size 9 to 14) (size 15 to 20)
#    1.333    0.444    0.000    4.667    0.000    7.111 
#    0.000    1.111    0.000    5.333    0.000    0.000 
#    0.000    0.000    0.000    0.000    0.000    0.000 
#
# Total GULP energy -223070.923072 kJ/mol
# GULP energy per Si atom -12392.829060 kJ/mol
# Density = 1.952523 g / cm^3
# Si number density = 19.569774 Si / 1000 Ang^3
#
#
#
# Elastic Constant Matrix: (Units=GPa)
#
#
# Indices 1 2 3 4 5 6 
#
# 1 82.8042 53.3798 70.4538 0.0004 -18.4996 0.0001
# 2 53.3798 131.9958 68.1123 -0.0011 -21.0517 0.0004
# 3 70.4538 68.1123 123.7719 0.0004 -41.0065 -0.0007
# 4 0.0004 -0.0011 0.0004 37.1571 -0.0011 0.3107
# 5 -18.4996 -21.0517 -41.0065 -0.0011 45.5487 0.0004
# 6 0.0001 0.0004 -0.0007 0.3107 0.0004 37.4067
#
#
#
# Elastic Compliance Matrix: (Units=1/GPa)
#
#
# Indices 1 2 3 4 5 6 
#
# 1 0.025140 -0.003828 -0.013406 0.000000 -0.003627 0.000000
# 2 -0.003828 0.011171 -0.003952 0.000000 0.000051 0.000000
# 3 -0.013406 -0.003952 0.022054 0.000000 0.012583 0.000000
# 4 0.000000 0.000000 0.000000 0.026915 0.000001 -0.000224
# 5 -0.003627 0.000051 0.012583 0.000001 0.031833 0.000000
# 6 0.000000 0.000000 0.000000 -0.000224 0.000000 0.026735
#
#
# Mechanical properties :
#
#
# Convention : Reuss Voigt Hill
#
# Bulk Modulus (GPa) = 62.52119 80.27376 71.39748
# Shear Modulus (GPa) = 26.10282 33.79758 29.95020
#
# Velocity S-wave (km/s) = 3.65613 4.16026 3.91632
# Velocity P-wave (km/s) = 7.05976 8.01158 7.55068
#
# Compressibility (1/GPa) = 0.01599458
#
# Stress axis : x y z
#
# Youngs Moduli (GPa) = 39.77742 89.51460 45.34340
#
# Poissons Ratio (x) = 0.34264 0.60785
# Poissons Ratio (y) = 0.15226 0.17920
# Poissons Ratio (z) = 0.53324 0.35377
#
# Static dielectric constant tensor:
#      x y z
#    x 3.394000 0.000000 -0.117670 
#    y 0.000000 3.501410 0.000000 
#    z -0.117670 0.000000 3.474460 
# 
# 
# High freq. dielectric constant tensor:
#      x y z
#    x 1.752230 0.000000 -0.016200 
#    y 0.000000 1.752750 0.000000 
#    z -0.016200 0.000000 1.763230 
# 
# From -- ./inp_files/64407.got.cif
#   From: 2010.06.25/outbox.cif.g09.slc.cpg/sg15_33_cif.got.tgz:64407.got - 2010.06.28 07:06:18.
