data_PCOD8137310
_publ_section_title
;
Structure prediction by ZEFSAII (Michael W. Deem and Ramdas Pophale) SiO2 
 PCOD8137310
Probable space group: C 2/C
;
_chemical_formula_sum "Si O2"
_cell_formula_units_Z 52
_cell_length_a 24.778374
_cell_length_b 21.583617
_cell_length_c 9.015890
_cell_angle_alpha 90.000000
_cell_angle_beta 151.097004
_cell_angle_gamma 90.000000
_cell_volume 2330.492629
_symmetry_space_group_name_H-M "C 2/C"
_symmetry_group_IT_number 15
_symmetry_cell_setting 'monoclinic'
loop_
_space_group_symop_operation_xyz
x,y,z
-x,y,1/2-z
-x,-y,-z
x,-y,1/2+z
1/2+x,1/2+y,z
1/2-x,1/2+y,1/2-z
1/2-x,1/2-y,-z
1/2+x,1/2-y,1/2+z
loop_
_atom_site_type_symbol
_atom_site_label
_atom_site_fract_x
_atom_site_fract_y
_atom_site_fract_z
Si Si1 0.000000 0.284926 0.250000
Si Si2 0.819230 0.173139 0.295144
Si Si3 0.775621 0.567068 0.926660
Si Si4 0.734408 0.180745 0.405567
Si Si5 0.751103 0.943750 0.490435
Si Si6 0.512629 0.904901 0.944773
Si Si7 0.581739 0.771871 0.147725
O O1 0.105724 0.329380 0.543164
O O2 0.036492 0.243437 0.195920
O O3 0.819213 0.169959 0.472842
O O4 0.919098 0.218333 0.478849
O O5 0.839128 0.105333 0.270222
O O6 0.704839 0.200624 0.957329
O O7 0.730997 0.632754 0.881898
O O8 0.715959 0.512556 0.876585
O O9 0.908840 0.565262 0.283519
O O10 0.749710 0.562190 0.689506
O O11 0.750000 0.250000 0.500000
O O12 0.633280 0.927977 0.290146
O O13 0.500000 0.930216 0.750000
O O14 0.500628 0.829668 0.914929
#
# Coordination Sequence:
#
# PCOD8137310 Si02
#       7
#     4   8   8   8   8   8   8
#     4  10  20  36  56  86 120 152 198 246 310 354
#     4   9  20  34  54  78 118 155 199 248 297 348
#     4  11  21  36  53  82 119 158 207 240 302 369
#     4  11  24  37  59  89 121 159 206 257 306 365
#     4  10  21  35  54  79 117 163 201 244 298 365
#     4   9  18  30  50  76 109 155 195 235 284 357
#     4   9  17  31  52  77 113 152 193 241 297 344
#
# _framework density 22.312878000000001
#
# number of rings (size 3 to 8) (size 9 to 14) (size 15 to 20)
#    0.000    2.154    1.538    1.385   10.769    0.000 
#    4.154    0.000    0.000    0.000    0.000    1.077 
#    2.308    0.000    0.000    0.000    0.000    0.000 
#
# Total GULP energy -322162.062049 kJ/mol
# GULP energy per Si atom -12390.848540 kJ/mol
# Density = 2.226209 g / cm^3
# Si number density = 22.312878 Si / 1000 Ang^3
#
#
#
# Elastic Constant Matrix: (Units=GPa)
#
#
# Indices 1 2 3 4 5 6 
#
# 1 143.9278 65.9645 17.2271 0.0000 -33.1743 0.0000
# 2 65.9645 161.9907 19.0877 0.0000 -21.9712 0.0000
# 3 17.2271 19.0877 28.8599 0.0000 -16.1278 0.0000
# 4 0.0000 0.0000 0.0000 23.5554 0.0000 -6.1954
# 5 -33.1743 -21.9712 -16.1278 0.0000 28.2706 0.0000
# 6 0.0000 0.0000 0.0000 -6.1954 0.0000 43.5271
#
#
#
# Elastic Compliance Matrix: (Units=1/GPa)
#
#
# Indices 1 2 3 4 5 6 
#
# 1 0.010727 -0.003063 0.001948 0.000000 0.011319 0.000000
# 2 -0.003063 0.007881 -0.002892 0.000000 0.000881 0.000000
# 3 0.001948 -0.002892 0.051999 0.000000 0.029702 0.000000
# 4 0.000000 0.000000 0.000000 0.044104 0.000000 0.006278
# 5 0.011319 0.000881 0.029702 0.000000 0.066284 0.000000
# 6 0.000000 0.000000 0.000000 0.006278 0.000000 0.023868
#
#
# Mechanical properties :
#
#
# Convention : Reuss Voigt Hill
#
# Bulk Modulus (GPa) = 15.97616 59.92634 37.95125
# Shear Modulus (GPa) = 21.39128 34.57056 27.98092
#
# Velocity S-wave (km/s) = 3.09964 3.94045 3.54506
# Velocity P-wave (km/s) = 4.47057 6.90062 5.81397
#
# Compressibility (1/GPa) = 0.06259328
#
# Stress axis : x y z
#
# Youngs Moduli (GPa) = 93.21922 126.89472 19.23130
#
# Poissons Ratio (x) = 0.38863 -0.03745
# Poissons Ratio (y) = 0.28549 0.05561
# Poissons Ratio (z) = -0.18155 0.36693
#
# Static dielectric constant tensor:
#      x y z
#    x 4.193670 0.000000 -0.062950 
#    y 0.000000 4.022540 0.000000 
#    z -0.062950 0.000000 3.656590 
# 
# 
# High freq. dielectric constant tensor:
#      x y z
#    x 1.883340 0.000000 -0.020200 
#    y 0.000000 1.861810 0.000000 
#    z -0.020200 0.000000 1.833840 
# 
# From -- ./inp_files/63454.got.cif
#   From: 2010.06.25/outbox.cif.g09.slc.cpg/sg15_32_cif.got.tgz:63454.got - 2010.06.28 07:06:18.
