data_PCOD8137704
_publ_section_title
;
Structure prediction by ZEFSAII (Michael W. Deem and Ramdas Pophale) SiO2 
 PCOD8137704
Probable space group: C 2/C
;
_chemical_formula_sum "Si O2"
_cell_formula_units_Z 44
_cell_length_a 14.474332
_cell_length_b 19.076881
_cell_length_c 8.656104
_cell_angle_alpha 90.000000
_cell_angle_beta 69.052426
_cell_angle_gamma 90.000000
_cell_volume 2232.196568
_symmetry_space_group_name_H-M "C 2/C"
_symmetry_group_IT_number 15
_symmetry_cell_setting 'monoclinic'
loop_
_space_group_symop_operation_xyz
x,y,z
-x,y,1/2-z
-x,-y,-z
x,-y,1/2+z
1/2+x,1/2+y,z
1/2-x,1/2+y,1/2-z
1/2-x,1/2-y,-z
1/2+x,1/2-y,1/2+z
loop_
_atom_site_type_symbol
_atom_site_label
_atom_site_fract_x
_atom_site_fract_y
_atom_site_fract_z
Si Si1 0.853263 0.068772 0.176907
Si Si2 0.182514 0.922712 0.445094
Si Si3 0.984532 0.153736 0.590980
Si Si4 0.363340 0.090052 0.259655
Si Si5 0.399998 0.947289 0.386108
Si Si6 0.000000 0.287566 0.750000
O O1 0.850763 0.069264 0.360838
O O2 0.753640 0.100835 0.164874
O O3 0.862282 0.988849 0.118647
O O4 0.943753 0.117079 0.073177
O O5 0.301892 0.914968 0.361876
O O6 0.129013 0.855744 0.399182
O O7 0.000000 0.117930 0.750000
O O8 0.006944 0.237336 0.593723
O O9 0.404205 0.164011 0.292619
O O10 0.397313 0.031164 0.362027
O O11 0.401632 0.067937 0.067026
O O12 0.500000 0.915391 0.250000
#
# Coordination Sequence:
#
# PCOD8137704 Si02
#       6
#     8   8   8   8   8   4
#     4  10  20  36  64  89 120 154 202 254 301 340
#     4  10  20  36  61  94 118 152 202 255 298 348
#     4  10  22  39  56  82 125 165 197 238 294 361
#     4  10  21  39  61  94 118 157 199 250 300 360
#     4  10  20  36  64  93 120 148 199 257 299 342
#     4  10  24  40  58  82 132 160 208 226 304 370
#
# _framework density 19.711525999999999
#
# number of rings (size 3 to 8) (size 9 to 14) (size 15 to 20)
#    0.545    1.455    0.909    2.727    0.000    2.182 
#    0.000    5.455    0.000    0.000    0.000    0.000 
#    0.000    0.000    0.000    0.000    0.000    0.000 
#
# Total GULP energy -272710.288485 kJ/mol
# GULP energy per Si atom -12395.922204 kJ/mol
# Density = 1.966666 g / cm^3
# Si number density = 19.711526 Si / 1000 Ang^3
#
#
#
# Elastic Constant Matrix: (Units=GPa)
#
#
# Indices 1 2 3 4 5 6 
#
# 1 134.7196 61.9714 44.6678 0.0000 -2.8392 0.0000
# 2 61.9714 101.4689 34.6714 0.0000 7.6224 0.0000
# 3 44.6678 34.6714 63.4272 0.0000 -3.3316 0.0000
# 4 0.0000 0.0000 0.0000 23.2235 0.0000 6.9927
# 5 -2.8392 7.6224 -3.3316 0.0000 35.4314 0.0000
# 6 0.0000 0.0000 0.0000 6.9927 0.0000 38.0707
#
#
#
# Elastic Compliance Matrix: (Units=1/GPa)
#
#
# Indices 1 2 3 4 5 6 
#
# 1 0.011696 -0.005511 -0.005138 0.000000 0.001640 0.000000
# 2 -0.005511 0.015098 -0.004589 0.000000 -0.004121 0.000000
# 3 -0.005138 -0.004589 0.022032 0.000000 0.002647 0.000000
# 4 0.000000 0.000000 0.000000 0.045581 0.000000 -0.008372
# 5 0.001640 -0.004121 0.002647 0.000000 0.029490 0.000000
# 6 0.000000 0.000000 0.000000 -0.008372 0.000000 0.027805
#
#
# Mechanical properties :
#
#
# Convention : Reuss Voigt Hill
#
# Bulk Modulus (GPa) = 54.49363 64.69298 59.59330
# Shear Modulus (GPa) = 26.55404 29.89879 28.22641
#
# Velocity S-wave (km/s) = 3.67431 3.89886 3.78825
# Velocity P-wave (km/s) = 6.76065 7.29104 7.03085
#
# Compressibility (1/GPa) = 0.01835077
#
# Stress axis : x y z
#
# Youngs Moduli (GPa) = 85.49959 66.23199 45.38811
#
# Poissons Ratio (x) = 0.36498 0.23322
# Poissons Ratio (y) = 0.47116 0.20828
# Poissons Ratio (z) = 0.43932 0.30394
#
# Static dielectric constant tensor:
#      x y z
#    x 3.983810 0.000000 -0.024490 
#    y 0.000000 3.279660 0.000000 
#    z -0.024490 0.000000 3.510800 
# 
# 
# High freq. dielectric constant tensor:
#      x y z
#    x 1.791720 0.000000 0.006630 
#    y 0.000000 1.733440 0.000000 
#    z 0.006630 0.000000 1.765540 
# 
# From -- ./inp_files/39157.got.cif
#   From: 2010.06.25/outbox.cif.g09.slc.cpg/sg15_20_cif.got.tgz:39157.got - 2010.06.28 07:06:18.
