data_PCOD8137417
_publ_section_title
;
Structure prediction by ZEFSAII (Michael W. Deem and Ramdas Pophale) SiO2 
 PCOD8137417
Probable space group: C 2/C
;
_chemical_formula_sum "Si O2"
_cell_formula_units_Z 48
_cell_length_a 14.843180
_cell_length_b 25.027597
_cell_length_c 11.158743
_cell_angle_alpha 90.000000
_cell_angle_beta 34.774049
_cell_angle_gamma 90.000000
_cell_volume 2364.266461
_symmetry_space_group_name_H-M "C 2/C"
_symmetry_group_IT_number 15
_symmetry_cell_setting 'monoclinic'
loop_
_space_group_symop_operation_xyz
x,y,z
-x,y,1/2-z
-x,-y,-z
x,-y,1/2+z
1/2+x,1/2+y,z
1/2-x,1/2+y,1/2-z
1/2-x,1/2-y,-z
1/2+x,1/2-y,1/2+z
loop_
_atom_site_type_symbol
_atom_site_label
_atom_site_fract_x
_atom_site_fract_y
_atom_site_fract_z
Si Si1 0.000000 0.455239 0.250000
Si Si2 0.224760 0.995277 0.176021
Si Si3 0.500000 0.439671 0.250000
Si Si4 0.153338 0.808072 0.737473
Si Si5 0.212000 0.191894 0.901373
Si Si6 0.753289 0.901544 0.692215
Si Si7 0.907633 0.404494 0.107746
O O1 0.851025 0.493491 0.433896
O O2 0.968158 0.417012 0.174003
O O3 0.064582 0.977077 0.286302
O O4 0.288807 0.949635 0.193550
O O5 0.192551 0.048268 0.286990
O O6 0.360794 0.402011 0.454896
O O7 0.214653 0.824579 0.538492
O O8 0.214528 0.749489 0.701461
O O9 0.223289 0.847868 0.758345
O O10 0.965364 0.808977 0.952612
O O11 0.315386 0.151255 0.709645
O O12 0.568919 0.903153 0.852736
#
# Coordination Sequence:
#
# PCOD8137417 Si02
#       7
#     4   8   4   8   8   8   8
#     4  10  20  36  58  84 118 150 188 236 296 356
#     4  11  22  37  57  84 116 154 195 239 291 348
#     4  12  24  38  56  80 118 158 200 246 288 342
#     4  10  21  36  58  89 117 150 187 236 294 348
#     4  10  20  36  60  87 119 148 186 237 293 349
#     4  11  23  37  58  84 116 154 197 242 292 346
#     4  11  21  37  60  86 117 154 192 238 291 350
#
# _framework density 20.302278000000001
#
# number of rings (size 3 to 8) (size 9 to 14) (size 15 to 20)
#    0.000    1.333    0.000    8.500    0.000    5.333 
#    0.000    0.000    0.000   10.000    0.000    0.000 
#    0.000    0.000    0.000    0.000    0.000    0.000 
#
# Total GULP energy -297678.524814 kJ/mol
# GULP energy per Si atom -12403.271867 kJ/mol
# Density = 2.025607 g / cm^3
# Si number density = 20.302278 Si / 1000 Ang^3
#
#
#
# Elastic Constant Matrix: (Units=GPa)
#
#
# Indices 1 2 3 4 5 6 
#
# 1 60.0728 21.9640 17.7434 0.0002 -16.8702 -0.0008
# 2 21.9640 98.2575 43.7405 0.0001 -3.0502 -0.0004
# 3 17.7434 43.7405 128.8858 0.0013 -3.4191 -0.0036
# 4 0.0002 0.0001 0.0013 33.5042 -0.0004 -3.9072
# 5 -16.8702 -3.0502 -3.4191 -0.0004 26.8116 0.0013
# 6 -0.0008 -0.0004 -0.0036 -3.9072 0.0013 -17.2473
#
#
#
# Elastic Compliance Matrix: (Units=1/GPa)
#
#
# Indices 1 2 3 4 5 6 
#
# 1 0.022251 -0.003950 -0.001368 0.000000 0.013377 0.000000
# 2 -0.003950 0.012709 -0.003810 0.000000 -0.001525 0.000001
# 3 -0.001368 -0.003810 0.009237 -0.000001 -0.000116 -0.000002
# 4 0.000000 0.000000 -0.000001 0.029079 0.000001 -0.006587
# 5 0.013377 -0.001525 -0.000116 0.000001 0.045526 0.000003
# 6 0.000000 0.000001 -0.000002 -0.006587 0.000003 -0.056488
#
#
# Mechanical properties :
#
#
# Convention : Reuss Voigt Hill
#
# Bulk Modulus (GPa) = 38.54728 50.45689 44.50209
# Shear Modulus (GPa) = 56.04367 22.19826 39.12096
#
# Velocity S-wave (km/s) = 5.25971 3.31023 4.39444
# Velocity P-wave (km/s) = 7.47756 6.28625 6.90764
#
# Compressibility (1/GPa) = 0.02594217
#
# Stress axis : x y z
#
# Youngs Moduli (GPa) = 44.94133 78.68527 108.26037
#
# Poissons Ratio (x) = 0.31078 0.14810
# Poissons Ratio (y) = 0.17750 0.41245
# Poissons Ratio (z) = 0.06148 0.29977
#
# Static dielectric constant tensor:
#      x y z
#    x 3.478660 0.000000 -0.139920 
#    y 0.000000 3.591160 0.000000 
#    z -0.139920 0.000000 4.056560 
# 
# 
# High freq. dielectric constant tensor:
#      x y z
#    x 1.776630 0.000000 -0.017340 
#    y 0.000000 1.788010 0.000000 
#    z -0.017340 0.000000 1.811740 
# 
# From -- ./inp_files/101267.got.cif
#   From: 2010.06.25/outbox.cif.g09.slc.cpg/sg15_51_cif.got.tgz:101267.got - 2010.06.28 07:06:18.
