data_PCOD8137096
_publ_section_title
;
Structure prediction by ZEFSAII (Michael W. Deem and Ramdas Pophale) SiO2 
 PCOD8137096
Probable space group: C 2/C
;
_chemical_formula_sum "Si O2"
_cell_formula_units_Z 56
_cell_length_a 18.087742
_cell_length_b 12.995345
_cell_length_c 12.520997
_cell_angle_alpha 90.000000
_cell_angle_beta 100.543515
_cell_angle_gamma 90.000000
_cell_volume 2893.449728
_symmetry_space_group_name_H-M "C 2/C"
_symmetry_group_IT_number 15
_symmetry_cell_setting 'monoclinic'
loop_
_space_group_symop_operation_xyz
x,y,z
-x,y,1/2-z
-x,-y,-z
x,-y,1/2+z
1/2+x,1/2+y,z
1/2-x,1/2+y,1/2-z
1/2-x,1/2-y,-z
1/2+x,1/2-y,1/2+z
loop_
_atom_site_type_symbol
_atom_site_label
_atom_site_fract_x
_atom_site_fract_y
_atom_site_fract_z
Si Si1 0.419028 0.251180 0.865326
Si Si2 0.305909 0.465964 0.597214
Si Si3 0.678488 0.885865 0.440845
Si Si4 0.581470 0.704156 0.376456
Si Si5 0.219910 0.845746 0.559357
Si Si6 0.302741 0.019587 0.241489
Si Si7 0.915600 0.523052 0.943475
O O1 0.420171 0.239853 0.738471
O O2 0.500865 0.300406 0.914428
O O3 0.351619 0.322453 0.885834
O O4 0.407819 0.143493 0.921765
O O5 0.256596 0.378445 0.524817
O O6 0.387675 0.412305 0.627926
O O7 0.310350 0.569047 0.530148
O O8 0.269827 0.492269 0.701652
O O9 0.634342 0.781656 0.457194
O O10 0.691951 0.910126 0.319172
O O11 0.635028 0.988507 0.470696
O O12 0.250000 0.750000 0.500000
O O13 0.286614 0.887166 0.654372
O O14 0.380745 0.036357 0.329295
O O15 0.000000 0.500000 0.000000
#
# Coordination Sequence:
#
# PCOD8137096 Si02
#       7
#     8   8   8   8   8   8   8
#     4  11  22  38  62  88 126 166 202 258 317 377
#     4  10  22  37  61  88 118 164 213 255 307 372
#     4  10  20  35  60  90 119 159 209 258 317 369
#     4  11  21  37  60  88 121 167 204 254 319 366
#     4  11  23  42  64  92 124 166 214 261 319 381
#     4  10  20  37  59  90 123 158 205 265 308 373
#     4  11  21  37  61  93 126 160 208 259 329 374
#
# _framework density 19.354058999999999
#
# number of rings (size 3 to 8) (size 9 to 14) (size 15 to 20)
#    0.000    1.429    4.286    3.000    0.000    1.143 
#    0.000    0.000    0.000    0.000    0.000    0.000 
#    0.000    0.000    0.000    0.000    0.000    0.000 
#
# Total GULP energy -346962.662044 kJ/mol
# GULP energy per Si atom -12391.523644 kJ/mol
# Density = 1.931001 g / cm^3
# Si number density = 19.354059 Si / 1000 Ang^3
#
#
#
# Elastic Constant Matrix: (Units=GPa)
#
#
# Indices 1 2 3 4 5 6 
#
# 1 104.4772 39.1860 26.2963 0.0000 1.5906 0.0000
# 2 39.1860 87.5098 25.8279 0.0000 7.1168 0.0000
# 3 26.2963 25.8279 74.0881 0.0000 -2.2012 0.0000
# 4 0.0000 0.0000 0.0000 25.8923 0.0000 1.5386
# 5 1.5906 7.1168 -2.2012 0.0000 26.1803 0.0000
# 6 0.0000 0.0000 0.0000 1.5386 0.0000 32.1286
#
#
#
# Elastic Compliance Matrix: (Units=1/GPa)
#
#
# Indices 1 2 3 4 5 6 
#
# 1 0.011955 -0.004602 -0.002630 0.000000 0.000303 0.000000
# 2 -0.004602 0.014907 -0.003685 0.000000 -0.004083 0.000000
# 3 -0.002630 -0.003685 0.015789 0.000000 0.002489 0.000000
# 4 0.000000 0.000000 0.000000 0.038732 0.000000 -0.001855
# 5 0.000303 -0.004083 0.002489 0.000000 0.039497 0.000000
# 6 0.000000 0.000000 0.000000 -0.001855 0.000000 0.031214
#
#
# Mechanical properties :
#
#
# Convention : Reuss Voigt Hill
#
# Bulk Modulus (GPa) = 48.03394 49.85507 48.94451
# Shear Modulus (GPa) = 27.64462 28.49123 28.06793
#
# Velocity S-wave (km/s) = 3.78347 3.84097 3.81233
# Velocity P-wave (km/s) = 6.63013 6.74434 6.68748
#
# Compressibility (1/GPa) = 0.02081861
#
# Stress axis : x y z
#
# Youngs Moduli (GPa) = 83.64897 67.08043 63.33345
#
# Poissons Ratio (x) = 0.30868 0.16656
# Poissons Ratio (y) = 0.38493 0.23338
# Poissons Ratio (z) = 0.21999 0.24719
#
# Static dielectric constant tensor:
#      x y z
#    x 3.909500 0.000000 0.047830 
#    y 0.000000 3.395600 0.000000 
#    z 0.047830 0.000000 3.634720 
# 
# 
# High freq. dielectric constant tensor:
#      x y z
#    x 1.755380 0.000000 -0.000160 
#    y 0.000000 1.740030 0.000000 
#    z -0.000160 0.000000 1.754560 
# 
# From -- ./inp_files/111133.got.cif
#   From: 2010.06.25/outbox.cif.g09.slc.cpg/sg15_56_cif.got.tgz:111133.got - 2010.06.28 07:06:18.
