data_PCOD8137445
_publ_section_title
;
Structure prediction by ZEFSAII (Michael W. Deem and Ramdas Pophale) SiO2 
 PCOD8137445
Probable space group: C 2/C
;
_chemical_formula_sum "Si O2"
_cell_formula_units_Z 64
_cell_length_a 15.020933
_cell_length_b 16.273931
_cell_length_c 18.953717
_cell_angle_alpha 90.000000
_cell_angle_beta 40.140765
_cell_angle_gamma 90.000000
_cell_volume 2986.893098
_symmetry_space_group_name_H-M "C 2/C"
_symmetry_group_IT_number 15
_symmetry_cell_setting 'monoclinic'
loop_
_space_group_symop_operation_xyz
x,y,z
-x,y,1/2-z
-x,-y,-z
x,-y,1/2+z
1/2+x,1/2+y,z
1/2-x,1/2+y,1/2-z
1/2-x,1/2-y,-z
1/2+x,1/2-y,1/2+z
loop_
_atom_site_type_symbol
_atom_site_label
_atom_site_fract_x
_atom_site_fract_y
_atom_site_fract_z
Si Si1 0.605466 0.957216 0.533110
Si Si2 0.335139 0.476261 0.990374
Si Si3 0.394966 0.804698 0.870729
Si Si4 0.630841 0.209562 0.488772
Si Si5 0.316622 0.642249 0.631836
Si Si6 0.092121 0.840279 0.041480
Si Si7 0.606800 0.084100 0.878678
Si Si8 0.584918 0.669428 0.130735
O O1 0.593273 0.865379 0.570254
O O2 0.671156 0.945369 0.414566
O O3 0.695044 0.013688 0.530834
O O4 0.457497 0.003192 0.619326
O O5 0.304594 0.435961 0.086193
O O6 0.409075 0.563036 0.945772
O O7 0.448747 0.419109 0.882717
O O8 0.500000 0.837961 0.750000
O O9 0.438503 0.712845 0.869119
O O10 0.243210 0.807125 0.925972
O O11 0.719627 0.271395 0.384039
O O12 0.518075 0.147280 0.524813
O O13 0.546579 0.260731 0.598105
O O14 0.751312 0.159835 0.454570
O O15 0.474085 0.668223 0.555076
O O16 0.222959 0.624332 0.757538
O O17 0.500000 0.689847 0.250000
#
# Coordination Sequence:
#
# PCOD8137445 Si02
#       8
#     8   8   8   8   8   8   8   8
#     4  10  23  42  64  94 131 162 230 274 314 398
#     4  10  22  42  62  92 130 168 219 271 320 406
#     4  10  23  43  70  95 125 183 216 269 330 390
#     4  10  21  40  58  93 127 160 222 265 313 409
#     4  11  24  39  68  97 130 179 214 273 340 388
#     4  10  23  42  61  97 133 158 224 273 315 394
#     4  11  23  41  66  95 132 176 214 282 332 386
#     4  10  20  36  58  87 123 168 205 263 332 381
#
# _framework density 21.426946000000001
#
# number of rings (size 3 to 8) (size 9 to 14) (size 15 to 20)
#    0.000    1.750    1.250    1.875    3.500    5.500 
#    0.000    1.250    0.000    0.000    0.000    0.000 
#    0.000    0.000    0.000    0.000    0.000    0.000 
#
# Total GULP energy -396418.256532 kJ/mol
# GULP energy per Si atom -12388.070517 kJ/mol
# Density = 2.137818 g / cm^3
# Si number density = 21.426946 Si / 1000 Ang^3
#
#
#
# Elastic Constant Matrix: (Units=GPa)
#
#
# Indices 1 2 3 4 5 6 
#
# 1 97.7494 11.9201 32.0942 0.0000 1.1362 0.0003
# 2 11.9201 108.1207 25.8091 -0.0001 1.2112 0.0001
# 3 32.0942 25.8091 93.8748 -0.0005 19.1790 0.0004
# 4 0.0000 -0.0001 -0.0005 16.9991 0.0002 -7.3651
# 5 1.1362 1.2112 19.1790 0.0002 22.7098 -0.0002
# 6 0.0003 0.0001 0.0004 -7.3651 -0.0002 -1.2170
#
#
#
# Elastic Compliance Matrix: (Units=1/GPa)
#
#
# Indices 1 2 3 4 5 6 
#
# 1 0.011740 -0.000226 -0.004634 0.000000 0.003338 0.000000
# 2 -0.000226 0.009990 -0.003097 0.000000 0.002094 0.000000
# 3 -0.004634 -0.003097 0.015719 0.000001 -0.012878 0.000001
# 4 0.000000 0.000000 0.000001 0.016241 -0.000002 -0.098289
# 5 0.003338 0.002094 -0.012878 -0.000002 0.054631 -0.000002
# 6 0.000000 0.000000 0.000001 -0.098289 -0.000002 -0.226858
#
#
# Mechanical properties :
#
#
# Convention : Reuss Voigt Hill
#
# Bulk Modulus (GPa) = 46.43345 48.82128 47.62736
# Shear Modulus (GPa) = -52.38684 23.02648 -14.68018
#
# Velocity S-wave (km/s) = -4.94996 3.28174 -2.62033
# Velocity P-wave (km/s) = 3.30936 6.09871 3.62232
#
# Compressibility (1/GPa) = 0.02153620
#
# Stress axis : x y z
#
# Youngs Moduli (GPa) = 85.17621 100.10356 63.61612
#
# Poissons Ratio (x) = 0.02259 0.29478
# Poissons Ratio (y) = 0.01922 0.19703
# Poissons Ratio (z) = 0.39469 0.31004
#
# Static dielectric constant tensor:
#      x y z
#    x 4.045150 0.000000 0.084680 
#    y 0.000000 4.052140 0.000000 
#    z 0.084680 0.000000 3.487220 
# 
# 
# High freq. dielectric constant tensor:
#      x y z
#    x 1.845090 0.000000 0.006710 
#    y 0.000000 1.864530 0.000000 
#    z 0.006710 0.000000 1.809980 
# 
# From -- ./inp_files/206442.got.cif
#   From: 2010.06.25/outbox.cif.g09.slc.cpg/sg15_104_cif.got.tgz:206442.got - 2010.06.28 07:06:18.
