data_PCOD8137810
_publ_section_title
;
Structure prediction by ZEFSAII (Michael W. Deem and Ramdas Pophale) SiO2 
 PCOD8137810
Probable space group: C 2/C
;
_chemical_formula_sum "Si O2"
_cell_formula_units_Z 36
_cell_length_a 14.852158
_cell_length_b 15.245337
_cell_length_c 9.017568
_cell_angle_alpha 90.000000
_cell_angle_beta 120.333010
_cell_angle_gamma 90.000000
_cell_volume 1762.298669
_symmetry_space_group_name_H-M "C 2/C"
_symmetry_group_IT_number 15
_symmetry_cell_setting 'monoclinic'
loop_
_space_group_symop_operation_xyz
x,y,z
-x,y,1/2-z
-x,-y,-z
x,-y,1/2+z
1/2+x,1/2+y,z
1/2-x,1/2+y,1/2-z
1/2-x,1/2-y,-z
1/2+x,1/2-y,1/2+z
loop_
_atom_site_type_symbol
_atom_site_label
_atom_site_fract_x
_atom_site_fract_y
_atom_site_fract_z
Si Si1 0.015946 0.908969 0.090826
Si Si2 0.241360 0.136645 0.833480
Si Si3 0.500000 0.995399 0.250000
Si Si4 0.192554 0.827839 0.631648
Si Si5 0.144566 0.544475 0.119076
O O1 0.000000 0.923945 0.250000
O O2 0.131241 0.872326 0.157001
O O3 0.930937 0.842520 0.952170
O O4 0.000000 0.000000 0.000000
O O5 0.291210 0.226484 0.816647
O O6 0.315172 0.055756 0.853033
O O7 0.228282 0.142538 0.998598
O O8 0.571395 0.056845 0.203252
O O9 0.575197 0.935601 0.415288
O O10 0.259303 0.887901 0.800287
#
# Coordination Sequence:
#
# PCOD8137810 Si02
#       5
#     8   8   4   8   8
#     4  10  20  36  63  88 118 156 196 241 300 353
#     4  10  21  38  64  91 118 157 205 247 295 361
#     4  10  24  34  62  86 120 164 196 244 318 348
#     4  10  21  38  64  91 118 157 205 247 295 361
#     4  11  20  41  60  86 122 161 200 255 296 362
#
# _framework density 20.427864
#
# number of rings (size 3 to 8) (size 9 to 14) (size 15 to 20)
#    0.000    1.778    4.444    0.000    0.000    3.556 
#    4.000    1.111    4.889    0.000    0.000    0.000 
#    0.000    0.000    0.000    0.000    0.000    0.000 
#
# Total GULP energy -223186.012640 kJ/mol
# GULP energy per Si atom -12399.222924 kJ/mol
# Density = 2.038137 g / cm^3
# Si number density = 20.427864 Si / 1000 Ang^3
#
#
#
# Elastic Constant Matrix: (Units=GPa)
#
#
# Indices 1 2 3 4 5 6 
#
# 1 83.8012 42.3868 44.7902 0.0000 28.7832 0.0000
# 2 42.3868 153.7527 52.1056 0.0000 30.7783 0.0000
# 3 44.7902 52.1056 137.7668 0.0000 40.5085 0.0000
# 4 0.0000 0.0000 0.0000 30.0553 0.0000 7.6296
# 5 28.7832 30.7783 40.5085 0.0000 39.3914 0.0000
# 6 0.0000 0.0000 0.0000 7.6296 0.0000 29.9991
#
#
#
# Elastic Compliance Matrix: (Units=1/GPa)
#
#
# Indices 1 2 3 4 5 6 
#
# 1 0.017196 -0.002286 -0.002231 0.000000 -0.008484 0.000000
# 2 -0.002286 0.008282 -0.001401 0.000000 -0.003359 0.000000
# 3 -0.002231 -0.001401 0.011056 0.000000 -0.008644 0.000000
# 4 0.000000 0.000000 0.000000 0.035568 0.000000 -0.009046
# 5 -0.008484 -0.003359 -0.008644 0.000000 0.043099 0.000000
# 6 0.000000 0.000000 0.000000 -0.009046 0.000000 0.035635
#
#
# Mechanical properties :
#
#
# Convention : Reuss Voigt Hill
#
# Bulk Modulus (GPa) = 40.49253 72.65399 56.57326
# Shear Modulus (GPa) = 29.25597 35.62505 32.44051
#
# Velocity S-wave (km/s) = 3.78849 4.18059 3.98936
# Velocity P-wave (km/s) = 6.24517 7.67766 6.99816
#
# Compressibility (1/GPa) = 0.02469591
#
# Stress axis : x y z
#
# Youngs Moduli (GPa) = 58.15303 120.75104 90.45120
#
# Poissons Ratio (x) = 0.27604 0.20183
# Poissons Ratio (y) = 0.13294 0.12674
# Poissons Ratio (z) = 0.12976 0.16919
#
# Static dielectric constant tensor:
#      x y z
#    x 3.657960 0.000000 0.300510 
#    y 0.000000 3.413060 0.000000 
#    z 0.300510 0.000000 3.971610 
# 
# 
# High freq. dielectric constant tensor:
#      x y z
#    x 1.794120 0.000000 0.028130 
#    y 0.000000 1.776020 0.000000 
#    z 0.028130 0.000000 1.809630 
# 
# From -- ./inp_files/37423.got.cif
#   From: 2010.06.25/outbox.cif.g09.slc.cpg/sg15_19_cif.got.tgz:37423.got - 2010.06.28 07:06:18.
