data_PCOD8137944
_publ_section_title
;
Structure prediction by ZEFSAII (Michael W. Deem and Ramdas Pophale) SiO2 
 PCOD8137944
Probable space group: C 2/C
;
_chemical_formula_sum "Si O2"
_cell_formula_units_Z 60
_cell_length_a 16.708976
_cell_length_b 25.061802
_cell_length_c 11.220257
_cell_angle_alpha 90.000000
_cell_angle_beta 146.847008
_cell_angle_gamma 90.000000
_cell_volume 2569.533075
_symmetry_space_group_name_H-M "C 2/C"
_symmetry_group_IT_number 15
_symmetry_cell_setting 'monoclinic'
loop_
_space_group_symop_operation_xyz
x,y,z
-x,y,1/2-z
-x,-y,-z
x,-y,1/2+z
1/2+x,1/2+y,z
1/2-x,1/2+y,1/2-z
1/2-x,1/2-y,-z
1/2+x,1/2-y,1/2+z
loop_
_atom_site_type_symbol
_atom_site_label
_atom_site_fract_x
_atom_site_fract_y
_atom_site_fract_z
Si Si1 0.263382 0.616596 0.889912
Si Si2 0.727088 0.361316 0.705264
Si Si3 0.509832 0.802394 0.018223
Si Si4 0.644290 0.536000 0.697935
Si Si5 0.831876 0.442430 0.003284
Si Si6 0.319597 0.635257 0.617351
Si Si7 0.025762 0.814146 0.983695
Si Si8 0.000000 0.332324 0.750000
O O1 0.111608 0.648546 0.684678
O O2 0.289712 0.565925 0.835809
O O3 0.262861 0.592025 0.020604
O O4 0.389471 0.661318 0.025117
O O5 0.638311 0.360824 0.469385
O O6 0.614879 0.350577 0.671555
O O7 0.808514 0.416385 0.842722
O O8 0.844340 0.314564 0.847315
O O9 0.535103 0.745674 0.114355
O O10 0.525491 0.794472 0.895639
O O11 0.500000 0.500000 0.500000
O O12 0.601308 0.581904 0.737196
O O13 0.772604 0.502052 0.918825
O O14 0.000000 0.444106 0.250000
O O15 0.371245 0.683911 0.768004
O O16 0.142241 0.630440 0.405186
#
# Coordination Sequence:
#
# PCOD8137944 Si02
#       8
#     8   8   8   8   8   8   8   4
#     4  11  25  51  68 104 154 183 250 305 355 456
#     4  11  25  41  66 104 143 182 244 299 355 442
#     4  11  22  42  71 107 145 191 238 303 371 441
#     4  11  26  46  75 109 139 191 240 303 380 425
#     4  12  27  47  74 100 144 200 250 301 373 436
#     4  10  23  42  67 105 150 177 237 303 360 445
#     4  11  23  42  72 107 142 192 234 304 383 420
#     4  10  20  36  68  98 146 180 222 292 372 424
#
# _framework density 23.350548
#
# number of rings (size 3 to 8) (size 9 to 14) (size 15 to 20)
#    0.000    1.067    4.000    2.800    4.667    3.733 
#    2.400    4.000    0.000    0.000    0.000    0.000 
#    0.000    0.000    0.000    0.000    0.000    0.000 
#
# Total GULP energy -371803.654431 kJ/mol
# GULP energy per Si atom -12393.455148 kJ/mol
# Density = 2.329740 g / cm^3
# Si number density = 23.350548 Si / 1000 Ang^3
#
#
#
# Elastic Constant Matrix: (Units=GPa)
#
#
# Indices 1 2 3 4 5 6 
#
# 1 86.8940 31.3888 11.8842 0.0000 10.5207 0.0000
# 2 31.3888 125.6214 34.3349 0.0000 -1.4074 0.0000
# 3 11.8842 34.3349 77.2403 0.0000 7.7628 0.0000
# 4 0.0000 0.0000 0.0000 34.7089 0.0000 9.7033
# 5 10.5207 -1.4074 7.7628 0.0000 25.8515 0.0000
# 6 0.0000 0.0000 0.0000 9.7033 0.0000 29.6137
#
#
#
# Elastic Compliance Matrix: (Units=1/GPa)
#
#
# Indices 1 2 3 4 5 6 
#
# 1 0.013427 -0.003425 0.000025 0.000000 -0.005659 0.000000
# 2 -0.003425 0.010013 -0.004247 0.000000 0.003214 0.000000
# 3 0.000025 -0.004247 0.015317 0.000000 -0.004841 0.000000
# 4 0.000000 0.000000 0.000000 0.031716 0.000000 -0.010392
# 5 -0.005659 0.003214 -0.004841 0.000000 0.042614 0.000000
# 6 0.000000 0.000000 0.000000 -0.010392 0.000000 0.037173
#
#
# Mechanical properties :
#
#
# Convention : Reuss Voigt Hill
#
# Bulk Modulus (GPa) = 42.61938 49.44126 46.03032
# Shear Modulus (GPa) = 28.83896 32.17799 30.50848
#
# Velocity S-wave (km/s) = 3.51813 3.71622 3.61853
# Velocity P-wave (km/s) = 5.89870 6.29549 6.10032
#
# Compressibility (1/GPa) = 0.02346350
#
# Stress axis : x y z
#
# Youngs Moduli (GPa) = 74.47527 99.86866 65.28630
#
# Poissons Ratio (x) = 0.34209 -0.00166
# Poissons Ratio (y) = 0.25511 0.27728
# Poissons Ratio (z) = -0.00190 0.42415
#
# Static dielectric constant tensor:
#      x y z
#    x 4.308050 0.000000 0.047810 
#    y 0.000000 4.010200 0.000000 
#    z 0.047810 0.000000 4.275550 
# 
# 
# High freq. dielectric constant tensor:
#      x y z
#    x 1.929210 0.000000 0.013530 
#    y 0.000000 1.912780 0.000000 
#    z 0.013530 0.000000 1.931000 
# 
# From -- ./inp_files/108465.got.cif
#   From: 2010.06.25/outbox.cif.g09.slc.cpg/sg15_55_cif.got.tgz:108465.got - 2010.06.28 07:06:18.
