data_PCOD8137819
_publ_section_title
;
Structure prediction by ZEFSAII (Michael W. Deem and Ramdas Pophale) SiO2 
 PCOD8137819
Probable space group: C 2/C
;
_chemical_formula_sum "Si O2"
_cell_formula_units_Z 60
_cell_length_a 19.894604
_cell_length_b 8.657479
_cell_length_c 19.849616
_cell_angle_alpha 90.000000
_cell_angle_beta 124.067986
_cell_angle_gamma 90.000000
_cell_volume 2832.076841
_symmetry_space_group_name_H-M "C 2/C"
_symmetry_group_IT_number 15
_symmetry_cell_setting 'monoclinic'
loop_
_space_group_symop_operation_xyz
x,y,z
-x,y,1/2-z
-x,-y,-z
x,-y,1/2+z
1/2+x,1/2+y,z
1/2-x,1/2+y,1/2-z
1/2-x,1/2-y,-z
1/2+x,1/2-y,1/2+z
loop_
_atom_site_type_symbol
_atom_site_label
_atom_site_fract_x
_atom_site_fract_y
_atom_site_fract_z
Si Si1 0.786688 0.188312 0.920058
Si Si2 0.380935 0.762190 0.107458
Si Si3 0.069934 0.194640 0.682194
Si Si4 0.794158 0.390789 0.795707
Si Si5 0.000000 0.028184 0.250000
Si Si6 0.957485 0.536057 0.080938
Si Si7 0.359026 0.543893 0.369573
Si Si8 0.601797 0.125031 0.585717
O O1 0.691855 0.208352 0.881804
O O2 0.809807 0.309300 0.875689
O O3 0.803699 0.017930 0.899944
O O4 0.844971 0.205840 0.016566
O O5 0.443960 0.635778 0.171189
O O6 0.424577 0.927658 0.122238
O O7 0.151547 0.301488 0.730623
O O8 0.059363 0.083493 0.740666
O O9 0.992193 0.305955 0.632174
O O10 0.077284 0.083330 0.621045
O O11 0.700904 0.401384 0.723781
O O12 0.823120 0.566977 0.826116
O O13 0.022921 0.444164 0.075157
O O14 0.887916 0.577234 0.987184
O O15 0.409210 0.691487 0.420459
#
# Coordination Sequence:
#
# PCOD8137819 Si02
#       8
#     8   8   8   8   4   8   8   8
#     4  10  23  42  64  92 128 166 217 258 314 381
#     4  11  24  44  64  89 128 177 209 260 317 380
#     4  10  24  40  61  96 124 160 209 262 306 379
#     4  10  20  42  64  93 128 161 206 259 315 383
#     4  12  26  42  66  94 128 166 214 266 316 374
#     4  10  22  40  62  86 124 163 204 251 314 377
#     4  11  22  37  66  96 123 162 207 265 314 368
#     4  10  20  36  63  92 121 158 203 254 313 371
#
# _framework density 21.185865
#
# number of rings (size 3 to 8) (size 9 to 14) (size 15 to 20)
#    0.000    1.600    1.333    3.200    3.733    4.267 
#    0.000    0.667    0.000    0.000    0.000    0.000 
#    0.000    0.000    0.000    0.000    0.000    0.000 
#
# Total GULP energy -371876.786831 kJ/mol
# GULP energy per Si atom -12395.892894 kJ/mol
# Density = 2.113764 g / cm^3
# Si number density = 21.185865 Si / 1000 Ang^3
#
#
#
# Elastic Constant Matrix: (Units=GPa)
#
#
# Indices 1 2 3 4 5 6 
#
# 1 73.2712 32.1268 28.7132 0.0000 -14.1098 0.0000
# 2 32.1268 139.7238 37.7184 0.0000 -7.6636 0.0000
# 3 28.7132 37.7184 84.1053 0.0000 2.4801 0.0000
# 4 0.0000 0.0000 0.0000 21.3691 0.0000 -13.0853
# 5 -14.1098 -7.6636 2.4801 0.0000 22.1517 0.0000
# 6 0.0000 0.0000 0.0000 -13.0853 0.0000 34.4470
#
#
#
# Elastic Compliance Matrix: (Units=1/GPa)
#
#
# Indices 1 2 3 4 5 6 
#
# 1 0.019285 -0.002150 -0.005980 0.000000 0.012209 0.000000
# 2 -0.002150 0.008621 -0.003190 0.000000 0.001970 0.000000
# 3 -0.005980 -0.003190 0.015558 0.000000 -0.006654 0.000000
# 4 0.000000 0.000000 0.000000 0.060981 0.000000 0.023165
# 5 0.012209 0.001970 -0.006654 0.000000 0.054347 0.000000
# 6 0.000000 0.000000 0.000000 0.023165 0.000000 0.037830
#
#
# Mechanical properties :
#
#
# Convention : Reuss Voigt Hill
#
# Bulk Modulus (GPa) = 48.02151 54.91299 51.46725
# Shear Modulus (GPa) = 22.10406 28.82970 25.46688
#
# Velocity S-wave (km/s) = 3.23358 3.69290 3.47085
# Velocity P-wave (km/s) = 6.05453 6.64524 6.35675
#
# Compressibility (1/GPa) = 0.02082400
#
# Stress axis : x y z
#
# Youngs Moduli (GPa) = 51.85317 116.00124 64.27532
#
# Poissons Ratio (x) = 0.24945 0.38434
# Poissons Ratio (y) = 0.11151 0.20504
# Poissons Ratio (z) = 0.31006 0.37004
#
# Static dielectric constant tensor:
#      x y z
#    x 3.834080 0.000000 -0.067350 
#    y 0.000000 4.090630 0.000000 
#    z -0.067350 0.000000 3.714310 
# 
# 
# High freq. dielectric constant tensor:
#      x y z
#    x 1.820640 0.000000 0.000410 
#    y 0.000000 1.846540 0.000000 
#    z 0.000410 0.000000 1.821500 
# 
# From -- ./inp_files/252135.got.cif
#   From: 2010.06.25/outbox.cif.g09.slc.cpg/sg15_127_cif.got.tgz:252135.got - 2010.06.28 07:06:18.
