data_PCOD8137383
_publ_section_title
;
Structure prediction by ZEFSAII (Michael W. Deem and Ramdas Pophale) SiO2 
 PCOD8137383
Probable space group: C 2/C
;
_chemical_formula_sum "Si O2"
_cell_formula_units_Z 56
_cell_length_a 15.855224
_cell_length_b 17.221100
_cell_length_c 12.350534
_cell_angle_alpha 90.000000
_cell_angle_beta 119.336757
_cell_angle_gamma 90.000000
_cell_volume 2939.771143
_symmetry_space_group_name_H-M "C 2/C"
_symmetry_group_IT_number 15
_symmetry_cell_setting 'monoclinic'
loop_
_space_group_symop_operation_xyz
x,y,z
-x,y,1/2-z
-x,-y,-z
x,-y,1/2+z
1/2+x,1/2+y,z
1/2-x,1/2+y,1/2-z
1/2-x,1/2-y,-z
1/2+x,1/2-y,1/2+z
loop_
_atom_site_type_symbol
_atom_site_label
_atom_site_fract_x
_atom_site_fract_y
_atom_site_fract_z
Si Si1 0.630190 0.697822 0.624786
Si Si2 0.591179 0.295961 0.549389
Si Si3 0.847393 0.363481 0.949421
Si Si4 0.762761 0.405042 0.675606
Si Si5 0.888791 0.275429 0.665906
Si Si6 0.777191 0.421384 0.129088
Si Si7 0.046174 0.658935 0.668497
O O1 0.519500 0.677347 0.527666
O O2 0.668020 0.771495 0.579673
O O3 0.642133 0.715710 0.759418
O O4 0.691440 0.622666 0.635555
O O5 0.656296 0.368572 0.626110
O O6 0.631444 0.264529 0.460932
O O7 0.603040 0.228488 0.645870
O O8 0.815388 0.412272 0.824766
O O9 0.783677 0.391087 0.010330
O O10 0.962264 0.377641 0.040271
O O11 0.826033 0.353321 0.633744
O O12 0.751654 0.488325 0.613534
O O13 0.000000 0.300086 0.750000
O O14 0.878013 0.408556 0.255391
O O15 0.000000 0.692923 0.750000
#
# Coordination Sequence:
#
# PCOD8137383 Si02
#       7
#     8   8   8   8   8   8   8
#     4   9  19  37  59  79 104 142 186 222 255 309
#     4  10  20  36  58  79 106 144 185 219 256 315
#     4   9  20  38  55  78 107 140 182 221 260 316
#     4  11  23  34  53  84 113 141 172 217 274 322
#     4   9  19  36  57  79 105 142 183 222 260 310
#     4  11  22  35  55  81 112 141 171 222 277 317
#     4   9  19  36  59  80 101 141 185 221 263 313
#
# _framework density 19.049102999999999
#
# number of rings (size 3 to 8) (size 9 to 14) (size 15 to 20)
#    0.000    2.286    0.000    3.429    0.000    7.429 
#    0.000    0.000    0.000    2.571    0.000    0.000 
#    0.000    0.000    0.000    0.000    0.000    0.000 
#
# Total GULP energy -347289.544955 kJ/mol
# GULP energy per Si atom -12403.198034 kJ/mol
# Density = 1.900575 g / cm^3
# Si number density = 19.049103 Si / 1000 Ang^3
#
#
#
# Elastic Constant Matrix: (Units=GPa)
#
#
# Indices 1 2 3 4 5 6 
#
# 1 108.4004 63.4452 40.2469 0.0000 -11.0585 0.0000
# 2 63.4452 99.8935 40.3428 0.0000 1.5754 0.0000
# 3 40.2469 40.3428 100.6620 0.0000 -11.5453 0.0000
# 4 0.0000 0.0000 0.0000 16.4478 0.0000 1.5788
# 5 -11.0585 1.5754 -11.5453 0.0000 19.4837 0.0000
# 6 0.0000 0.0000 0.0000 1.5788 0.0000 14.9768
#
#
#
# Elastic Compliance Matrix: (Units=1/GPa)
#
#
# Indices 1 2 3 4 5 6 
#
# 1 0.016672 -0.010116 -0.001537 0.000000 0.009370 0.000000
# 2 -0.010116 0.018392 -0.004458 0.000000 -0.009871 0.000000
# 3 -0.001537 -0.004458 0.013172 0.000000 0.007293 0.000000
# 4 0.000000 0.000000 0.000000 0.061420 0.000000 -0.006475
# 5 0.009370 -0.009871 0.007293 0.000000 0.061763 0.000000
# 6 0.000000 0.000000 0.000000 -0.006475 0.000000 0.067452
#
#
# Mechanical properties :
#
#
# Convention : Reuss Voigt Hill
#
# Bulk Modulus (GPa) = 62.44844 66.33616 64.39230
# Shear Modulus (GPa) = 18.08755 21.17640 19.63198
#
# Velocity S-wave (km/s) = 3.08478 3.33780 3.21378
# Velocity P-wave (km/s) = 6.74847 7.05364 6.90274
#
# Compressibility (1/GPa) = 0.01601321
#
# Stress axis : x y z
#
# Youngs Moduli (GPa) = 59.97908 54.37140 75.91787
#
# Poissons Ratio (x) = 0.55003 0.11669
# Poissons Ratio (y) = 0.60676 0.33848
# Poissons Ratio (z) = 0.09219 0.24241
#
# Static dielectric constant tensor:
#      x y z
#    x 3.559500 0.000000 -0.014900 
#    y 0.000000 3.107490 0.000000 
#    z -0.014900 0.000000 3.678640 
# 
# 
# High freq. dielectric constant tensor:
#      x y z
#    x 1.750860 0.000000 0.001440 
#    y 0.000000 1.707610 0.000000 
#    z 0.001440 0.000000 1.751740 
# 
# From -- ./inp_files/98693.got.cif
#   From: 2010.06.25/outbox.cif.g09.slc.cpg/sg15_50_cif.got.tgz:98693.got - 2010.06.28 07:06:18.
