data_PCOD8137281
_publ_section_title
;
Structure prediction by ZEFSAII (Michael W. Deem and Ramdas Pophale) SiO2 
 PCOD8137281
Probable space group: C 2/C
;
_chemical_formula_sum "Si O2"
_cell_formula_units_Z 44
_cell_length_a 13.219513
_cell_length_b 21.107567
_cell_length_c 12.461469
_cell_angle_alpha 90.000000
_cell_angle_beta 142.926769
_cell_angle_gamma 90.000000
_cell_volume 2096.146048
_symmetry_space_group_name_H-M "C 2/C"
_symmetry_group_IT_number 15
_symmetry_cell_setting 'monoclinic'
loop_
_space_group_symop_operation_xyz
x,y,z
-x,y,1/2-z
-x,-y,-z
x,-y,1/2+z
1/2+x,1/2+y,z
1/2-x,1/2+y,1/2-z
1/2-x,1/2-y,-z
1/2+x,1/2-y,1/2+z
loop_
_atom_site_type_symbol
_atom_site_label
_atom_site_fract_x
_atom_site_fract_y
_atom_site_fract_z
Si Si1 0.245889 0.668291 0.095281
Si Si2 0.773257 0.885855 0.232843
Si Si3 0.500000 0.450184 0.250000
Si Si4 0.567926 0.069968 0.077590
Si Si5 0.173421 0.000267 0.583802
Si Si6 0.091094 0.799538 0.983165
O O1 0.159657 0.601615 0.052507
O O2 0.108200 0.724036 0.988547
O O3 0.396279 0.682892 0.305897
O O4 0.307586 0.664749 0.025452
O O5 0.836933 0.820769 0.339748
O O6 0.909442 0.906519 0.260717
O O7 0.744164 0.933861 0.309423
O O8 0.588068 0.883935 0.020243
O O9 0.634377 0.495783 0.423585
O O10 0.709077 0.060693 0.289150
O O11 0.500000 0.000000 0.000000
O O12 0.000000 0.000000 0.500000
#
# Coordination Sequence:
#
# PCOD8137281 Si02
#       6
#     8   8   4   8   8   8
#     4  10  20  37  60  89 123 152 198 250 307 366
#     4  10  21  35  55  83 114 151 197 241 297 357
#     4  10  20  36  56  78 114 154 196 244 292 352
#     4  10  21  37  57  86 119 157 201 248 297 361
#     4   9  19  35  54  78 109 150 195 241 294 349
#     4  10  21  36  61  91 119 158 194 250 311 364
#
# _framework density 20.990902999999999
#
# number of rings (size 3 to 8) (size 9 to 14) (size 15 to 20)
#    0.000    2.182    0.000    3.273    0.000    8.727 
#    0.000    7.273    0.000    9.818    0.000    0.000 
#    0.000    0.000    0.000    0.000    0.000    0.000 
#
# Total GULP energy -272570.287469 kJ/mol
# GULP energy per Si atom -12389.558521 kJ/mol
# Density = 2.094313 g / cm^3
# Si number density = 20.990903 Si / 1000 Ang^3
#
#
#
# Elastic Constant Matrix: (Units=GPa)
#
#
# Indices 1 2 3 4 5 6 
#
# 1 72.4782 37.9763 40.5710 0.0000 -1.9022 0.0000
# 2 37.9763 75.8731 27.2537 0.0000 -1.1651 0.0000
# 3 40.5710 27.2537 121.2898 0.0000 2.5964 0.0000
# 4 0.0000 0.0000 0.0000 32.6302 0.0000 1.2909
# 5 -1.9022 -1.1651 2.5964 0.0000 37.5324 0.0000
# 6 0.0000 0.0000 0.0000 1.2909 0.0000 36.5294
#
#
#
# Elastic Compliance Matrix: (Units=1/GPa)
#
#
# Indices 1 2 3 4 5 6 
#
# 1 0.021343 -0.008802 -0.005186 0.000000 0.001167 0.000000
# 2 -0.008802 0.017984 -0.001101 0.000000 0.000188 0.000000
# 3 -0.005186 -0.001101 0.010248 0.000000 -0.001006 0.000000
# 4 0.000000 0.000000 0.000000 0.030689 0.000000 -0.001085
# 5 0.001167 0.000188 -0.001006 0.000000 0.026778 0.000000
# 6 0.000000 0.000000 0.000000 -0.001085 0.000000 0.027414
#
#
# Mechanical properties :
#
#
# Convention : Reuss Voigt Hill
#
# Bulk Modulus (GPa) = 51.55389 53.47144 52.51267
# Shear Modulus (GPa) = 29.22273 32.26108 30.74191
#
# Velocity S-wave (km/s) = 3.73522 3.92459 3.83108
# Velocity P-wave (km/s) = 6.57388 6.78716 6.68137
#
# Compressibility (1/GPa) = 0.01939718
#
# Stress axis : x y z
#
# Youngs Moduli (GPa) = 46.85402 55.60598 97.57601
#
# Poissons Ratio (x) = 0.48943 0.50606
# Poissons Ratio (y) = 0.41240 0.10741
# Poissons Ratio (z) = 0.24300 0.06121
#
# Static dielectric constant tensor:
#      x y z
#    x 3.517660 0.000000 0.080430 
#    y 0.000000 3.680500 0.000000 
#    z 0.080430 0.000000 4.775120 
# 
# 
# High freq. dielectric constant tensor:
#      x y z
#    x 1.791150 0.000000 0.020840 
#    y 0.000000 1.798660 0.000000 
#    z 0.020840 0.000000 1.843060 
# 
# From -- ./inp_files/91362.got.cif
#   From: 2010.06.25/outbox.cif.g09.slc.cpg/sg15_46_cif.got.tgz:91362.got - 2010.06.28 07:06:18.
