data_PCOD8137266
_publ_section_title
;
Structure prediction by ZEFSAII (Michael W. Deem and Ramdas Pophale) SiO2 
 PCOD8137266
Probable space group: C 2/C
;
_chemical_formula_sum "Si O2"
_cell_formula_units_Z 60
_cell_length_a 12.816329
_cell_length_b 21.013964
_cell_length_c 14.529273
_cell_angle_alpha 90.000000
_cell_angle_beta 128.246885
_cell_angle_gamma 90.000000
_cell_volume 3073.116954
_symmetry_space_group_name_H-M "C 2/C"
_symmetry_group_IT_number 15
_symmetry_cell_setting 'monoclinic'
loop_
_space_group_symop_operation_xyz
x,y,z
-x,y,1/2-z
-x,-y,-z
x,-y,1/2+z
1/2+x,1/2+y,z
1/2-x,1/2+y,1/2-z
1/2-x,1/2-y,-z
1/2+x,1/2-y,1/2+z
loop_
_atom_site_type_symbol
_atom_site_label
_atom_site_fract_x
_atom_site_fract_y
_atom_site_fract_z
Si Si1 0.618126 0.287460 0.033444
Si Si2 0.140989 0.212904 0.334602
Si Si3 0.500000 0.747762 0.750000
Si Si4 0.497212 0.824946 0.565713
Si Si5 0.093024 0.022185 0.719799
Si Si6 0.063274 0.892100 0.484245
Si Si7 0.730606 0.396215 0.757108
Si Si8 0.797883 0.143675 0.626333
O O1 0.757472 0.264017 0.153183
O O2 0.525243 0.225139 0.998249
O O3 0.560077 0.348393 0.052059
O O4 0.658174 0.304655 0.950985
O O5 0.142530 0.148587 0.274779
O O6 0.000000 0.246790 0.250000
O O7 0.469131 0.790345 0.645670
O O8 0.366905 0.707647 0.703023
O O9 0.614659 0.877118 0.645453
O O10 0.360748 0.858438 0.462955
O O11 0.162954 0.087283 0.785167
O O12 0.000000 0.995662 0.750000
O O13 0.001286 0.039132 0.579474
O O14 0.207623 0.970149 0.768002
O O15 0.176181 0.891873 0.623604
O O16 0.136918 0.862816 0.437740
#
# Coordination Sequence:
#
# PCOD8137266 Si02
#       8
#     8   8   4   8   8   8   8   8
#     4  10  21  34  55  88 115 145 195 236 297 357
#     4  10  20  36  55  81 115 152 189 242 288 353
#     4  12  20  38  60  92 128 150 194 244 306 364
#     4  11  24  35  61  92 121 158 190 244 310 364
#     4  10  22  40  59  86 117 158 209 249 287 355
#     4  11  20  38  61  90 113 155 203 243 298 354
#     4  11  23  38  59  87 116 160 201 245 299 347
#     4  11  22  40  61  89 123 155 194 251 302 360
#
# _framework density 19.524151
#
# number of rings (size 3 to 8) (size 9 to 14) (size 15 to 20)
#    0.000    1.333    4.667    2.000    1.867    1.600 
#    0.000    0.000    0.000    0.000    0.000    0.000 
#    0.000    0.000    0.000    0.000    0.000    0.000 
#
# Total GULP energy -371706.759251 kJ/mol
# GULP energy per Si atom -12390.225308 kJ/mol
# Density = 1.947971 g / cm^3
# Si number density = 19.524151 Si / 1000 Ang^3
#
#
#
# Elastic Constant Matrix: (Units=GPa)
#
#
# Indices 1 2 3 4 5 6 
#
# 1 77.0223 17.9989 22.4127 0.0000 24.8276 0.0000
# 2 17.9989 55.8958 15.2900 0.0000 8.5466 0.0000
# 3 22.4127 15.2900 80.0401 0.0000 7.8237 0.0000
# 4 0.0000 0.0000 0.0000 19.1442 0.0000 0.7501
# 5 24.8276 8.5466 7.8237 0.0000 41.4836 0.0000
# 6 0.0000 0.0000 0.0000 0.7501 0.0000 18.5941
#
#
#
# Elastic Compliance Matrix: (Units=1/GPa)
#
#
# Indices 1 2 3 4 5 6 
#
# 1 0.017760 -0.003362 -0.003423 0.000000 -0.009291 0.000000
# 2 -0.003362 0.019959 -0.002716 0.000000 -0.001588 0.000000
# 3 -0.003423 -0.002716 0.013974 0.000000 -0.000027 0.000000
# 4 0.000000 0.000000 0.000000 0.052318 0.000000 -0.002111
# 5 -0.009291 -0.001588 -0.000027 0.000000 0.029999 0.000000
# 6 0.000000 0.000000 0.000000 -0.002111 0.000000 0.053866
#
#
# Mechanical properties :
#
#
# Convention : Reuss Voigt Hill
#
# Bulk Modulus (GPa) = 30.58973 36.04017 33.31495
# Shear Modulus (GPa) = 22.95971 26.32814 24.64392
#
# Velocity S-wave (km/s) = 3.43295 3.67616 3.55664
# Velocity P-wave (km/s) = 5.60493 6.04303 5.82810
#
# Compressibility (1/GPa) = 0.03269071
#
# Stress axis : x y z
#
# Youngs Moduli (GPa) = 56.30721 50.10341 71.56314
#
# Poissons Ratio (x) = 0.16844 0.24494
# Poissons Ratio (y) = 0.18930 0.19437
# Poissons Ratio (z) = 0.19272 0.13609
#
# Static dielectric constant tensor:
#      x y z
#    x 3.727610 0.000000 -0.024410 
#    y 0.000000 3.410230 0.000000 
#    z -0.024410 0.000000 3.795300 
# 
# 
# High freq. dielectric constant tensor:
#      x y z
#    x 1.765980 0.000000 -0.005530 
#    y 0.000000 1.740660 0.000000 
#    z -0.005530 0.000000 1.769810 
# 
# From -- ./inp_files/147198.got.cif
#   From: 2010.06.25/outbox.cif.g09.slc.cpg/sg15_74_cif.got.tgz:147198.got - 2010.06.28 07:06:18.
