data_PCOD8137654
_publ_section_title
;
Structure prediction by ZEFSAII (Michael W. Deem and Ramdas Pophale) SiO2 
 PCOD8137654
Probable space group: C 2/C
;
_chemical_formula_sum "Si O2"
_cell_formula_units_Z 52
_cell_length_a 11.107082
_cell_length_b 16.266849
_cell_length_c 19.530401
_cell_angle_alpha 90.000000
_cell_angle_beta 131.724247
_cell_angle_gamma 90.000000
_cell_volume 2633.667530
_symmetry_space_group_name_H-M "C 2/C"
_symmetry_group_IT_number 15
_symmetry_cell_setting 'monoclinic'
loop_
_space_group_symop_operation_xyz
x,y,z
-x,y,1/2-z
-x,-y,-z
x,-y,1/2+z
1/2+x,1/2+y,z
1/2-x,1/2+y,1/2-z
1/2-x,1/2-y,-z
1/2+x,1/2-y,1/2+z
loop_
_atom_site_type_symbol
_atom_site_label
_atom_site_fract_x
_atom_site_fract_y
_atom_site_fract_z
Si Si1 0.171202 0.043767 0.295985
Si Si2 0.942583 0.464087 0.321490
Si Si3 0.184788 0.818952 0.684884
Si Si4 0.405755 0.079054 0.493649
Si Si5 0.113078 0.759737 0.005783
Si Si6 0.833108 0.307611 0.211069
Si Si7 0.000000 0.390315 0.750000
O O1 0.158504 0.113191 0.233285
O O2 0.231504 0.080627 0.391668
O O3 0.000000 0.003991 0.250000
O O4 0.291085 0.973456 0.315476
O O5 0.877885 0.403921 0.237883
O O6 0.092639 0.427915 0.422682
O O7 0.005850 0.551257 0.318559
O O8 0.216193 0.732354 0.735138
O O9 0.339468 0.835487 0.694916
O O10 0.029233 0.817283 0.576802
O O11 0.469059 0.172169 0.503643
O O12 0.500000 0.000000 0.500000
O O13 0.250000 0.750000 0.000000
O O14 0.190028 0.801428 0.102161
O O15 0.000000 0.263163 0.250000
#
# Coordination Sequence:
#
# PCOD8137654 Si02
#       7
#     8   8   8   8   8   8   4
#     4  10  20  38  61  87 117 155 200 255 299 355
#     4  10  21  40  61  84 120 165 201 239 307 373
#     4  11  22  40  62  88 125 159 205 250 307 364
#     4  10  20  36  61  84 117 158 197 234 307 365
#     4  12  22  36  64  98 118 150 209 265 304 352
#     4  12  21  38  64  91 120 156 204 256 308 361
#     4  10  24  44  60  82 128 178 194 242 314 378
#
# _framework density 19.744330000000001
#
# number of rings (size 3 to 8) (size 9 to 14) (size 15 to 20)
#    0.000    1.231    5.385    1.385    0.000    0.000 
#    4.154    2.308    0.000    0.000    0.000    0.000 
#    0.000    0.000    0.000    0.000    0.000    0.000 
#
# Total GULP energy -322114.283436 kJ/mol
# GULP energy per Si atom -12389.010901 kJ/mol
# Density = 1.969939 g / cm^3
# Si number density = 19.744330 Si / 1000 Ang^3
#
#
#
# Elastic Constant Matrix: (Units=GPa)
#
#
# Indices 1 2 3 4 5 6 
#
# 1 106.1758 30.2739 49.3565 0.0000 18.2563 0.0000
# 2 30.2739 86.1783 41.3066 0.0000 3.4955 0.0000
# 3 49.3565 41.3066 196.0770 0.0000 -2.9722 0.0000
# 4 0.0000 0.0000 0.0000 29.7994 0.0000 -4.3946
# 5 18.2563 3.4955 -2.9722 0.0000 21.0898 0.0000
# 6 0.0000 0.0000 0.0000 -4.3946 0.0000 23.2269
#
#
#
# Elastic Compliance Matrix: (Units=1/GPa)
#
#
# Indices 1 2 3 4 5 6 
#
# 1 0.013664 -0.002879 -0.003011 0.000000 -0.011775 0.000000
# 2 -0.002879 0.013650 -0.002152 0.000000 -0.000073 0.000000
# 3 -0.003011 -0.002152 0.006370 0.000000 0.003861 0.000000
# 4 0.000000 0.000000 0.000000 0.034521 0.000000 0.006531
# 5 -0.011775 -0.000073 0.003861 0.000000 0.058166 0.000000
# 6 0.000000 0.000000 0.000000 0.006531 0.000000 0.044289
#
#
# Mechanical properties :
#
#
# Convention : Reuss Voigt Hill
#
# Bulk Modulus (GPa) = 56.82233 70.03390 63.42812
# Shear Modulus (GPa) = 25.95914 32.65615 29.30765
#
# Velocity S-wave (km/s) = 3.62990 4.07129 3.85692
# Velocity P-wave (km/s) = 6.81247 7.59262 7.21310
#
# Compressibility (1/GPa) = 0.01759872
#
# Stress axis : x y z
#
# Youngs Moduli (GPa) = 73.18611 73.26195 156.98712
#
# Poissons Ratio (x) = 0.21092 0.47276
# Poissons Ratio (y) = 0.21070 0.33783
# Poissons Ratio (z) = 0.22040 0.15765
#
# Static dielectric constant tensor:
#      x y z
#    x 3.568110 0.000000 -0.143270 
#    y 0.000000 3.597730 0.000000 
#    z -0.143270 0.000000 3.972330 
# 
# 
# High freq. dielectric constant tensor:
#      x y z
#    x 1.743900 0.000000 -0.013620 
#    y 0.000000 1.766560 0.000000 
#    z -0.013620 0.000000 1.786660 
# 
# From -- ./inp_files/182852.got.cif
#   From: 2010.06.25/outbox.cif.g09.slc.cpg/sg15_92_cif.got.tgz:182852.got - 2010.06.28 07:06:18.
