data_PCOD8137818
_publ_section_title
;
Structure prediction by ZEFSAII (Michael W. Deem and Ramdas Pophale) SiO2 
 PCOD8137818
Probable space group: C 2/C
;
_chemical_formula_sum "Si O2"
_cell_formula_units_Z 48
_cell_length_a 16.929894
_cell_length_b 29.719075
_cell_length_c 9.076212
_cell_angle_alpha 90.000000
_cell_angle_beta 29.725441
_cell_angle_gamma 90.000000
_cell_volume 2264.328844
_symmetry_space_group_name_H-M "C 2/C"
_symmetry_group_IT_number 15
_symmetry_cell_setting 'monoclinic'
loop_
_space_group_symop_operation_xyz
x,y,z
-x,y,1/2-z
-x,-y,-z
x,-y,1/2+z
1/2+x,1/2+y,z
1/2-x,1/2+y,1/2-z
1/2-x,1/2-y,-z
1/2+x,1/2-y,1/2+z
loop_
_atom_site_type_symbol
_atom_site_label
_atom_site_fract_x
_atom_site_fract_y
_atom_site_fract_z
Si Si1 0.882788 0.713219 0.820651
Si Si2 0.334652 0.046278 0.435013
Si Si3 0.672109 0.637267 0.657247
Si Si4 0.115269 0.714846 0.181994
Si Si5 0.185493 0.863538 0.791092
Si Si6 0.669817 0.042526 0.405717
O O1 0.000000 0.735621 0.750000
O O2 0.997708 0.699727 0.501712
O O3 0.750000 0.750000 0.000000
O O4 0.808404 0.666662 0.000801
O O5 0.500000 0.057701 0.250000
O O6 0.214040 0.087671 0.645556
O O7 0.355881 0.036478 0.227289
O O8 0.257241 0.003072 0.641792
O O9 0.794019 0.671917 0.536939
O O10 0.697473 0.647723 0.443567
O O11 0.488734 0.646536 0.994110
O O12 0.000000 0.737977 0.250000
O O13 0.250000 0.750000 0.000000
O O14 0.216720 0.916841 0.728599
O O15 0.500000 0.052597 0.750000
#
# Coordination Sequence:
#
# PCOD8137818 Si02
#       6
#     8   8   8   8   8   8
#     4  12  24  43  69  96 127 166 217 266 317 388
#     4  10  20  37  63  92 126 167 212 262 315 380
#     4  10  22  41  63  92 130 169 212 261 324 380
#     4  12  26  43  68  96 130 168 210 266 326 385
#     4  10  22  40  65  92 127 171 212 263 320 380
#     4  10  20  36  63  91 125 166 213 260 318 377
#
# _framework density 21.198335
#
# number of rings (size 3 to 8) (size 9 to 14) (size 15 to 20)
#    0.000    1.333    1.667    5.000    4.667    0.667 
#    3.000    0.000    0.000    0.000    0.000    0.000 
#    0.000    0.000    0.000    0.000    0.000    0.000 
#
# Total GULP energy -297491.088623 kJ/mol
# GULP energy per Si atom -12395.462026 kJ/mol
# Density = 2.115009 g / cm^3
# Si number density = 21.198335 Si / 1000 Ang^3
#
#
#
# Elastic Constant Matrix: (Units=GPa)
#
#
# Indices 1 2 3 4 5 6 
#
# 1 133.5391 57.0246 53.9972 -0.0001 -14.1258 0.0000
# 2 57.0246 129.0052 53.7830 0.0000 -14.9018 0.0000
# 3 53.9972 53.7830 112.2143 0.0000 -13.0233 0.0000
# 4 -0.0001 0.0000 0.0000 -40.3177 0.0001 19.4514
# 5 -14.1258 -14.9018 -13.0233 0.0001 35.9947 0.0000
# 6 0.0000 0.0000 0.0000 19.4514 0.0000 27.2195
#
#
#
# Elastic Compliance Matrix: (Units=1/GPa)
#
#
# Indices 1 2 3 4 5 6 
#
# 1 0.010273 -0.002965 -0.003337 0.000000 0.001597 0.000000
# 2 -0.002965 0.010752 -0.003491 0.000000 0.002024 0.000000
# 3 -0.003337 -0.003491 0.012391 0.000000 0.001728 0.000000
# 4 0.000000 0.000000 0.000000 -0.018444 0.000000 0.013180
# 5 0.001597 0.002024 0.001728 0.000000 0.029872 0.000000
# 6 0.000000 0.000000 0.000000 0.013180 0.000000 0.027320
#
#
# Mechanical properties :
#
#
# Convention : Reuss Voigt Hill
#
# Bulk Modulus (GPa) = 72.31255 78.26313 75.28784
# Shear Modulus (GPa) = 51.88898 18.57621 35.23259
#
# Velocity S-wave (km/s) = 4.95288 2.96346 4.08124
# Velocity P-wave (km/s) = 8.17890 6.97919 7.60275
#
# Compressibility (1/GPa) = 0.01382886
#
# Stress axis : x y z
#
# Youngs Moduli (GPa) = 97.34394 93.00737 80.70327
#
# Poissons Ratio (x) = 0.27581 0.26928
# Poissons Ratio (y) = 0.28867 0.28176
# Poissons Ratio (z) = 0.32481 0.32472
#
# Static dielectric constant tensor:
#      x y z
#    x 4.698070 0.000000 0.040590 
#    y 0.000000 3.999680 0.000000 
#    z 0.040590 0.000000 3.858130 
# 
# 
# High freq. dielectric constant tensor:
#      x y z
#    x 1.833610 0.000000 -0.011380 
#    y 0.000000 1.841070 0.000000 
#    z -0.011380 0.000000 1.828040 
# 
# From -- ./inp_files/52742.got.cif
#   From: 2010.06.25/outbox.cif.g09.slc.cpg/sg15_27_cif.got.tgz:52742.got - 2010.06.28 07:06:18.
