data_PCOD8137045
_publ_section_title
;
Structure prediction by ZEFSAII (Michael W. Deem and Ramdas Pophale) SiO2 
 PCOD8137045
Probable space group: C 2/C
;
_chemical_formula_sum "Si O2"
_cell_formula_units_Z 60
_cell_length_a 18.976636
_cell_length_b 17.095519
_cell_length_c 9.234599
_cell_angle_alpha 90.000000
_cell_angle_beta 96.900601
_cell_angle_gamma 90.000000
_cell_volume 2974.144842
_symmetry_space_group_name_H-M "C 2/C"
_symmetry_group_IT_number 15
_symmetry_cell_setting 'monoclinic'
loop_
_space_group_symop_operation_xyz
x,y,z
-x,y,1/2-z
-x,-y,-z
x,-y,1/2+z
1/2+x,1/2+y,z
1/2-x,1/2+y,1/2-z
1/2-x,1/2-y,-z
1/2+x,1/2-y,1/2+z
loop_
_atom_site_type_symbol
_atom_site_label
_atom_site_fract_x
_atom_site_fract_y
_atom_site_fract_z
Si Si1 0.788731 0.994586 0.502933
Si Si2 0.080750 0.085352 0.025667
Si Si3 0.338018 0.833257 0.943408
Si Si4 0.000000 0.004865 0.750000
Si Si5 0.423716 0.724816 0.302189
Si Si6 0.311046 0.022417 0.266397
Si Si7 0.918700 0.394097 0.237658
Si Si8 0.825178 0.171191 0.024747
O O1 0.836844 0.068570 0.481605
O O2 0.760967 0.992503 0.660228
O O3 0.714211 0.005351 0.401849
O O4 0.839848 0.918503 0.478310
O O5 0.075650 0.178820 0.045124
O O6 0.054348 0.048268 0.171915
O O7 0.038314 0.060484 0.873935
O O8 0.260097 0.831326 0.993655
O O9 0.338777 0.888253 0.800549
O O10 0.392423 0.872189 0.069726
O O11 0.354253 0.739840 0.921660
O O12 0.500000 0.713645 0.250000
O O13 0.410263 0.815898 0.332602
O O14 0.360875 0.688646 0.187967
O O15 0.375050 0.961790 0.308718
O O16 0.000000 0.422268 0.250000
#
# Coordination Sequence:
#
# PCOD8137045 Si02
#       8
#     8   8   8   4   8   8   8   8
#     4  11  22  35  61  85 120 148 195 238 291 338
#     4  11  20  37  54  89 117 166 191 238 282 344
#     4   9  18  35  59  85 108 145 197 236 280 340
#     4  10  22  32  58  82 126 156 204 228 284 346
#     4  10  20  35  59  86 115 154 204 237 276 348
#     4  11  20  39  58  89 114 145 192 250 285 353
#     4  10  21  38  61  86 113 151 195 244 293 353
#     4   9  17  33  57  85 108 152 194 237 266 342
#
# _framework density 20.173866
#
# number of rings (size 3 to 8) (size 9 to 14) (size 15 to 20)
#    0.000    1.867    3.333    3.200    1.867    0.533 
#    0.000    0.667    2.933    0.000    1.733    0.000 
#    0.000    0.000    0.000    0.000    0.000    0.000 
#
# Total GULP energy -371643.555577 kJ/mol
# GULP energy per Si atom -12388.118519 kJ/mol
# Density = 2.012795 g / cm^3
# Si number density = 20.173866 Si / 1000 Ang^3
#
#
#
# Elastic Constant Matrix: (Units=GPa)
#
#
# Indices 1 2 3 4 5 6 
#
# 1 90.8689 26.0294 10.8915 0.0000 14.5457 0.0000
# 2 26.0294 128.5890 21.2650 0.0000 -1.4948 0.0000
# 3 10.8915 21.2650 48.6510 0.0000 8.2872 0.0000
# 4 0.0000 0.0000 0.0000 27.4742 0.0000 -2.1769
# 5 14.5457 -1.4948 8.2872 0.0000 21.3293 0.0000
# 6 0.0000 0.0000 0.0000 -2.1769 0.0000 23.6074
#
#
#
# Elastic Compliance Matrix: (Units=1/GPa)
#
#
# Indices 1 2 3 4 5 6 
#
# 1 0.013290 -0.002763 -0.000204 0.000000 -0.009177 0.000000
# 2 -0.002763 0.009051 -0.004033 0.000000 0.004086 0.000000
# 3 -0.000204 -0.004033 0.023974 0.000000 -0.009458 0.000000
# 4 0.000000 0.000000 0.000000 0.036666 0.000000 0.003381
# 5 -0.009177 0.004086 -0.009458 0.000000 0.057104 0.000000
# 6 0.000000 0.000000 0.000000 0.003381 0.000000 0.042671
#
#
# Mechanical properties :
#
#
# Convention : Reuss Voigt Hill
#
# Bulk Modulus (GPa) = 30.94674 42.72009 36.83342
# Shear Modulus (GPa) = 24.09313 28.47705 26.28509
#
# Velocity S-wave (km/s) = 3.45958 3.76118 3.61353
# Velocity P-wave (km/s) = 5.59746 6.33118 5.97559
#
# Compressibility (1/GPa) = 0.03231358
#
# Stress axis : x y z
#
# Youngs Moduli (GPa) = 75.24504 110.49087 41.71126
#
# Poissons Ratio (x) = 0.30530 0.00852
# Poissons Ratio (y) = 0.20791 0.16823
# Poissons Ratio (z) = 0.01536 0.44564
#
# Static dielectric constant tensor:
#      x y z
#    x 3.597350 0.000000 0.318500 
#    y 0.000000 4.358250 0.000000 
#    z 0.318500 0.000000 3.337610 
# 
# 
# High freq. dielectric constant tensor:
#      x y z
#    x 1.782890 0.000000 0.036600 
#    y 0.000000 1.798280 0.000000 
#    z 0.036600 0.000000 1.752470 
# 
# From -- ./inp_files/56660.got.cif
#   From: 2010.06.25/outbox.cif.g09.slc.cpg/sg15_29_cif.got.tgz:56660.got - 2010.06.28 07:06:18.
