data_PCOD8137521
_publ_section_title
;
Structure prediction by ZEFSAII (Michael W. Deem and Ramdas Pophale) SiO2 
 PCOD8137521
Probable space group: C 2/C
;
_chemical_formula_sum "Si O2"
_cell_formula_units_Z 60
_cell_length_a 29.275848
_cell_length_b 19.534133
_cell_length_c 9.387499
_cell_angle_alpha 90.000000
_cell_angle_beta 35.221028
_cell_angle_gamma 90.000000
_cell_volume 3096.190752
_symmetry_space_group_name_H-M "C 2/C"
_symmetry_group_IT_number 15
_symmetry_cell_setting 'monoclinic'
loop_
_space_group_symop_operation_xyz
x,y,z
-x,y,1/2-z
-x,-y,-z
x,-y,1/2+z
1/2+x,1/2+y,z
1/2-x,1/2+y,1/2-z
1/2-x,1/2-y,-z
1/2+x,1/2-y,1/2+z
loop_
_atom_site_type_symbol
_atom_site_label
_atom_site_fract_x
_atom_site_fract_y
_atom_site_fract_z
Si Si1 0.000000 0.040445 0.250000
Si Si2 0.653659 0.169478 0.907794
Si Si3 0.724125 0.581248 0.005679
Si Si4 0.894478 0.867394 0.197535
Si Si5 0.722025 0.704839 0.699918
Si Si6 0.155802 0.769330 0.654358
Si Si7 0.519098 0.256932 0.347848
Si Si8 0.341764 0.524659 0.044866
O O1 0.969355 0.087826 0.457332
O O2 0.069417 0.992221 0.130987
O O3 0.681052 0.099577 0.756358
O O4 0.702016 0.165599 0.932092
O O5 0.688064 0.228632 0.711609
O O6 0.562508 0.185597 0.182111
O O7 0.669431 0.649632 0.143774
O O8 0.713082 0.539872 0.179162
O O9 0.696172 0.537812 0.942237
O O10 0.842709 0.849849 0.190078
O O11 0.921490 0.797053 0.201990
O O12 0.842403 0.908758 0.443303
O O13 0.750000 0.750000 0.500000
O O14 0.689941 0.751606 0.912317
O O15 0.064319 0.745391 0.864291
O O16 0.500000 0.299067 0.250000
#
# Coordination Sequence:
#
# PCOD8137521 Si02
#       8
#     4   8   8   8   8   8   8   8
#     4  12  24  38  50  82 118 164 198 236 268 350
#     4  10  21  40  60  83 115 153 198 247 296 344
#     4  11  23  39  56  83 120 155 197 239 278 353
#     4  12  23  35  56  80 123 160 196 233 287 336
#     4  11  21  35  55  85 119 156 194 241 292 347
#     4  10  22  38  63  85 118 152 196 243 301 350
#     4  10  20  36  59  88 110 154 196 243 301 350
#     4  12  25  37  55  81 117 163 204 227 283 344
#
# _framework density 19.378651000000001
#
# number of rings (size 3 to 8) (size 9 to 14) (size 15 to 20)
#    0.000    1.067    2.667    6.800    4.667    0.000 
#    0.000    0.000    0.000    0.000    0.000    8.400 
#    0.000    0.000    0.000    0.133    0.000    0.000 
#
# Total GULP energy -371655.534503 kJ/mol
# GULP energy per Si atom -12388.517817 kJ/mol
# Density = 1.933454 g / cm^3
# Si number density = 19.378651 Si / 1000 Ang^3
#
#
#
# Elastic Constant Matrix: (Units=GPa)
#
#
# Indices 1 2 3 4 5 6 
#
# 1 114.3749 40.0457 32.7296 0.0000 16.2046 0.0000
# 2 40.0457 65.5937 31.6598 0.0000 5.5200 0.0000
# 3 32.7296 31.6598 100.8626 0.0000 17.3146 0.0000
# 4 0.0000 0.0000 0.0000 38.3442 0.0000 4.0745
# 5 16.2046 5.5200 17.3146 0.0000 30.8172 0.0000
# 6 0.0000 0.0000 0.0000 4.0745 0.0000 26.8219
#
#
#
# Elastic Compliance Matrix: (Units=1/GPa)
#
#
# Indices 1 2 3 4 5 6 
#
# 1 0.011928 -0.006374 -0.001095 0.000000 -0.004515 0.000000
# 2 -0.006374 0.021373 -0.005045 0.000000 0.002358 0.000000
# 3 -0.001095 -0.005045 0.012838 0.000000 -0.005733 0.000000
# 4 0.000000 0.000000 0.000000 0.026507 0.000000 -0.004027
# 5 -0.004515 0.002358 -0.005733 0.000000 0.037623 0.000000
# 6 0.000000 0.000000 0.000000 -0.004027 0.000000 0.037895
#
#
# Mechanical properties :
#
#
# Convention : Reuss Voigt Hill
#
# Bulk Modulus (GPa) = 47.36847 54.41127 50.88987
# Shear Modulus (GPa) = 27.74261 30.95641 29.34951
#
# Velocity S-wave (km/s) = 3.78776 4.00115 3.89592
# Velocity P-wave (km/s) = 6.60502 7.03452 6.82315
#
# Compressibility (1/GPa) = 0.02111109
#
# Stress axis : x y z
#
# Youngs Moduli (GPa) = 83.83809 46.78720 77.89581
#
# Poissons Ratio (x) = 0.29821 0.08528
# Poissons Ratio (y) = 0.53435 0.39302
# Poissons Ratio (z) = 0.09178 0.23606
#
# Static dielectric constant tensor:
#      x y z
#    x 3.813600 0.000000 0.118980 
#    y 0.000000 3.383390 0.000000 
#    z 0.118980 0.000000 3.797100 
# 
# 
# High freq. dielectric constant tensor:
#      x y z
#    x 1.767170 0.000000 0.016240 
#    y 0.000000 1.715590 0.000000 
#    z 0.016240 0.000000 1.759360 
# 
# From -- ./inp_files/67517.got.cif
#   From: 2010.06.25/outbox.cif.g09.slc.cpg/sg15_34_cif.got.tgz:67517.got - 2010.06.28 07:06:18.
