data_PCOD8137726
_publ_section_title
;
Structure prediction by ZEFSAII (Michael W. Deem and Ramdas Pophale) SiO2 
 PCOD8137726
Probable space group: C 2/C
;
_chemical_formula_sum "Si O2"
_cell_formula_units_Z 36
_cell_length_a 16.320114
_cell_length_b 15.336794
_cell_length_c 8.877846
_cell_angle_alpha 90.000000
_cell_angle_beta 123.833925
_cell_angle_gamma 90.000000
_cell_volume 1845.805907
_symmetry_space_group_name_H-M "C 2/C"
_symmetry_group_IT_number 15
_symmetry_cell_setting 'monoclinic'
loop_
_space_group_symop_operation_xyz
x,y,z
-x,y,1/2-z
-x,-y,-z
x,-y,1/2+z
1/2+x,1/2+y,z
1/2-x,1/2+y,1/2-z
1/2-x,1/2-y,-z
1/2+x,1/2-y,1/2+z
loop_
_atom_site_type_symbol
_atom_site_label
_atom_site_fract_x
_atom_site_fract_y
_atom_site_fract_z
Si Si1 0.820400 0.606578 0.280125
Si Si2 0.500000 0.502845 0.750000
Si Si3 0.597081 0.386757 0.607132
Si Si4 0.497314 0.214696 0.072789
Si Si5 0.899836 0.452224 0.563459
O O1 0.712292 0.635758 0.218334
O O2 0.856716 0.528027 0.420210
O O3 0.819276 0.575441 0.105380
O O4 0.893312 0.689234 0.373321
O O5 0.574793 0.443274 0.731676
O O6 0.433923 0.561944 0.574237
O O7 0.539865 0.295260 0.564057
O O8 0.500000 0.243267 0.250000
O O9 0.425472 0.130658 0.982956
O O10 0.000000 0.482357 0.750000
#
# Coordination Sequence:
#
# PCOD8137726 Si02
#       5
#     8   4   8   8   8
#     4  10  20  36  62  85 112 152 187 225 288 333
#     4  10  24  40  60  76 120 150 182 240 280 328
#     4  11  21  42  58  83 113 150 192 229 281 338
#     4   9  19  36  58  86 115 145 188 236 273 330
#     4   9  18  35  59  88 114 144 183 239 282 323
#
# _framework density 19.503675000000001
#
# number of rings (size 3 to 8) (size 9 to 14) (size 15 to 20)
#    0.000    2.667    1.111    4.000    0.000    3.556 
#   14.000    1.111    0.000    0.000    0.000    0.000 
#    0.000    0.000    0.000    0.000    0.000    0.000 
#
# Total GULP energy -223173.165229 kJ/mol
# GULP energy per Si atom -12398.509179 kJ/mol
# Density = 1.945928 g / cm^3
# Si number density = 19.503675 Si / 1000 Ang^3
#
#
#
# Elastic Constant Matrix: (Units=GPa)
#
#
# Indices 1 2 3 4 5 6 
#
# 1 143.8569 60.7173 42.2693 0.0000 18.9787 0.0000
# 2 60.7173 125.9549 58.3131 0.0000 15.6756 0.0000
# 3 42.2693 58.3131 55.7720 0.0000 4.4553 0.0000
# 4 0.0000 0.0000 0.0000 17.6116 0.0000 4.0330
# 5 18.9787 15.6756 4.4553 0.0000 24.7667 0.0000
# 6 0.0000 0.0000 0.0000 4.0330 0.0000 7.8816
#
#
#
# Elastic Compliance Matrix: (Units=1/GPa)
#
#
# Indices 1 2 3 4 5 6 
#
# 1 0.009965 -0.001574 -0.005454 0.000000 -0.005659 0.000000
# 2 -0.001574 0.016912 -0.015960 0.000000 -0.006627 0.000000
# 3 -0.005454 -0.015960 0.038159 0.000000 0.007417 0.000000
# 4 0.000000 0.000000 0.000000 0.064318 0.000000 -0.032911
# 5 -0.005659 -0.006627 0.007417 0.000000 0.047573 0.000000
# 6 0.000000 0.000000 0.000000 -0.032911 0.000000 0.143718
#
#
# Mechanical properties :
#
#
# Convention : Reuss Voigt Hill
#
# Bulk Modulus (GPa) = 52.47058 72.02035 62.24547
# Shear Modulus (GPa) = 13.40576 21.00426 17.20501
#
# Velocity S-wave (km/s) = 2.62457 3.28523 2.97331
# Velocity P-wave (km/s) = 6.01214 7.16917 6.61600
#
# Compressibility (1/GPa) = 0.01905830
#
# Stress axis : x y z
#
# Youngs Moduli (GPa) = 100.35170 59.12986 26.20634
#
# Poissons Ratio (x) = 0.09308 0.14294
# Poissons Ratio (y) = 0.15797 0.41825
# Poissons Ratio (z) = 0.54736 0.94371
#
# Static dielectric constant tensor:
#      x y z
#    x 3.655350 0.000000 -0.061380 
#    y 0.000000 3.556870 0.000000 
#    z -0.061380 0.000000 3.335240 
# 
# 
# High freq. dielectric constant tensor:
#      x y z
#    x 1.763920 0.000000 -0.002670 
#    y 0.000000 1.759730 0.000000 
#    z -0.002670 0.000000 1.736990 
# 
# From -- ./inp_files/38505.got.cif
#   From: 2010.06.25/outbox.cif.g09.slc.cpg/sg15_20_cif.got.tgz:38505.got - 2010.06.28 07:06:18.
