data_PCOD8137641
_publ_section_title
;
Structure prediction by ZEFSAII (Michael W. Deem and Ramdas Pophale) SiO2 
 PCOD8137641
Probable space group: C 2/C
;
_chemical_formula_sum "Si O2"
_cell_formula_units_Z 60
_cell_length_a 22.217205
_cell_length_b 13.653575
_cell_length_c 9.101533
_cell_angle_alpha 90.000000
_cell_angle_beta 103.854617
_cell_angle_gamma 90.000000
_cell_volume 2680.573626
_symmetry_space_group_name_H-M "C 2/C"
_symmetry_group_IT_number 15
_symmetry_cell_setting 'monoclinic'
loop_
_space_group_symop_operation_xyz
x,y,z
-x,y,1/2-z
-x,-y,-z
x,-y,1/2+z
1/2+x,1/2+y,z
1/2-x,1/2+y,1/2-z
1/2-x,1/2-y,-z
1/2+x,1/2-y,1/2+z
loop_
_atom_site_type_symbol
_atom_site_label
_atom_site_fract_x
_atom_site_fract_y
_atom_site_fract_z
Si Si1 0.000000 0.551425 0.250000
Si Si2 0.961718 0.781657 0.592444
Si Si3 0.867384 0.943487 0.505492
Si Si4 0.281443 0.495682 0.705676
Si Si5 0.097363 0.393327 0.279164
Si Si6 0.547240 0.628545 0.902389
Si Si7 0.406615 0.821750 0.542752
Si Si8 0.304226 0.047094 0.099131
O O1 0.946604 0.484041 0.290788
O O2 0.971461 0.621361 0.107671
O O3 0.937384 0.671533 0.615015
O O4 0.000000 0.826491 0.750000
O O5 0.010182 0.797069 0.489733
O O6 0.902274 0.842772 0.514988
O O7 0.833362 0.938717 0.642846
O O8 0.916646 0.033739 0.515172
O O9 0.818355 0.938596 0.344940
O O10 0.241010 0.557143 0.567175
O O11 0.234851 0.429140 0.775525
O O12 0.162968 0.438818 0.373526
O O13 0.108603 0.327294 0.140672
O O14 0.500000 0.591070 0.750000
O O15 0.597158 0.711376 0.888755
O O16 0.354663 0.870224 0.612814
#
# Coordination Sequence:
#
# PCOD8137641 Si02
#       8
#     4   8   8   8   8   8   8   8
#     4  10  20  36  60  94 136 174 194 254 318 402
#     4  12  23  40  65  97 131 166 210 262 326 392
#     4  11  24  43  67  87 126 173 221 271 317 362
#     4  10  22  45  65  91 120 175 224 270 313 363
#     4  11  21  38  64 100 132 164 211 256 328 386
#     4  12  24  41  62  98 133 164 212 261 325 392
#     4  11  21  37  63  98 133 167 205 258 327 388
#     4  10  22  41  68  91 133 166 213 266 320 379
#
# _framework density 22.383268000000001
#
# number of rings (size 3 to 8) (size 9 to 14) (size 15 to 20)
#    0.000    1.067    4.000    2.800    0.000    2.133 
#    0.000    8.000    0.000    0.000    0.000    0.000 
#    0.000    0.000    0.000    0.000    0.000    0.000 
#
# Total GULP energy -371654.500018 kJ/mol
# GULP energy per Si atom -12388.483334 kJ/mol
# Density = 2.233232 g / cm^3
# Si number density = 22.383268 Si / 1000 Ang^3
#
#
#
# Elastic Constant Matrix: (Units=GPa)
#
#
# Indices 1 2 3 4 5 6 
#
# 1 104.3017 28.4878 33.3937 0.0000 -4.7223 0.0000
# 2 28.4878 75.6741 14.0635 0.0000 9.7831 0.0000
# 3 33.3937 14.0635 98.1797 0.0000 0.0774 0.0000
# 4 0.0000 0.0000 0.0000 8.3014 0.0000 19.9321
# 5 -4.7223 9.7831 0.0774 0.0000 42.9634 0.0000
# 6 0.0000 0.0000 0.0000 19.9321 0.0000 -19.7057
#
#
#
# Elastic Compliance Matrix: (Units=1/GPa)
#
#
# Indices 1 2 3 4 5 6 
#
# 1 0.011930 -0.004139 -0.003467 0.000000 0.002260 0.000000
# 2 -0.004139 0.015434 -0.000800 0.000000 -0.003968 0.000000
# 3 -0.003467 -0.000800 0.011479 0.000000 -0.000220 0.000000
# 4 0.000000 0.000000 0.000000 0.035134 0.000000 0.035538
# 5 0.002260 -0.003968 -0.000220 0.000000 0.024428 0.000000
# 6 0.000000 0.000000 0.000000 0.035538 0.000000 -0.014801
#
#
# Mechanical properties :
#
#
# Convention : Reuss Voigt Hill
#
# Bulk Modulus (GPa) = 45.38747 47.78282 46.58514
# Shear Modulus (GPa) = 46.39905 19.79251 33.09578
#
# Velocity S-wave (km/s) = 4.55789 2.97687 3.84942
# Velocity P-wave (km/s) = 6.92969 5.76277 6.37299
#
# Compressibility (1/GPa) = 0.02203251
#
# Stress axis : x y z
#
# Youngs Moduli (GPa) = 83.81994 64.79037 87.11337
#
# Poissons Ratio (x) = 0.26818 0.30200
# Poissons Ratio (y) = 0.34694 0.06968
# Poissons Ratio (z) = 0.29058 0.05183
#
# Static dielectric constant tensor:
#      x y z
#    x 4.575490 0.000000 -0.057040 
#    y 0.000000 3.724000 0.000000 
#    z -0.057040 0.000000 4.164760 
# 
# 
# High freq. dielectric constant tensor:
#      x y z
#    x 1.896060 0.000000 0.003790 
#    y 0.000000 1.855800 0.000000 
#    z 0.003790 0.000000 1.885590 
# 
# From -- ./inp_files/61603.got.cif
#   From: 2010.06.25/outbox.cif.g09.slc.cpg/sg15_31_cif.got.tgz:61603.got - 2010.06.28 07:06:18.
