data_PCOD8137297
_publ_section_title
;
Structure prediction by ZEFSAII (Michael W. Deem and Ramdas Pophale) SiO2 
 PCOD8137297
Probable space group: C 2/C
;
_chemical_formula_sum "Si O2"
_cell_formula_units_Z 52
_cell_length_a 18.044853
_cell_length_b 26.125135
_cell_length_c 5.394572
_cell_angle_alpha 90.000000
_cell_angle_beta 108.443513
_cell_angle_gamma 90.000000
_cell_volume 2412.506525
_symmetry_space_group_name_H-M "C 2/C"
_symmetry_group_IT_number 15
_symmetry_cell_setting 'monoclinic'
loop_
_space_group_symop_operation_xyz
x,y,z
-x,y,1/2-z
-x,-y,-z
x,-y,1/2+z
1/2+x,1/2+y,z
1/2-x,1/2+y,1/2-z
1/2-x,1/2-y,-z
1/2+x,1/2-y,1/2+z
loop_
_atom_site_type_symbol
_atom_site_label
_atom_site_fract_x
_atom_site_fract_y
_atom_site_fract_z
Si Si1 0.602765 0.366735 0.981518
Si Si2 0.000000 0.917062 0.250000
Si Si3 0.168796 0.722551 0.381271
Si Si4 0.849404 0.052315 0.341847
Si Si5 0.249125 0.122590 0.932538
Si Si6 0.086988 0.757134 0.793479
Si Si7 0.287776 0.979910 0.312510
O O1 0.524166 0.378286 0.054863
O O2 0.675143 0.348916 0.231101
O O3 0.621753 0.420868 0.876838
O O4 0.589217 0.319068 0.784362
O O5 0.074012 0.953287 0.399435
O O6 0.250000 0.750000 0.500000
O O7 0.184693 0.661782 0.409947
O O8 0.112843 0.737655 0.550370
O O9 0.136914 0.735037 0.074721
O O10 0.782090 0.089934 0.370340
O O11 0.803940 0.998954 0.239512
O O12 0.288024 0.081431 0.784308
O O13 0.000000 0.737364 0.750000
O O14 0.330354 0.997162 0.614285
#
# Coordination Sequence:
#
# PCOD8137297 Si02
#       7
#     8   4   8   8   8   8   8
#     4  11  21  37  59  81 122 165 213 259 300 362
#     4  10  22  34  54  82 116 174 216 246 302 368
#     4  12  25  42  66  95 126 166 220 269 320 379
#     4  10  20  36  56  82 121 162 207 256 310 365
#     4  10  22  37  60  86 117 156 207 260 311 354
#     4  12  27  42  65  93 132 170 217 263 327 383
#     4  10  20  36  57  81 116 154 193 254 309 359
#
# _framework density 21.554347
#
# number of rings (size 3 to 8) (size 9 to 14) (size 15 to 20)
#    0.000    1.231    3.077    3.231    6.462    0.000 
#    0.000    6.923    0.000    0.000    0.000    0.000 
#    0.000   49.231    0.000    0.000    0.000    0.000 
#
# Total GULP energy -322246.001988 kJ/mol
# GULP energy per Si atom -12394.077000 kJ/mol
# Density = 2.150529 g / cm^3
# Si number density = 21.554347 Si / 1000 Ang^3
#
#
#
# Elastic Constant Matrix: (Units=GPa)
#
#
# Indices 1 2 3 4 5 6 
#
# 1 43.7769 1.9514 -1.0117 0.0000 -6.5737 0.0000
# 2 1.9514 97.4844 5.0563 0.0000 7.6298 0.0000
# 3 -1.0117 5.0563 74.5734 0.0000 -10.7592 0.0000
# 4 0.0000 0.0000 0.0000 30.4110 0.0000 2.7737
# 5 -6.5737 7.6298 -10.7592 0.0000 34.3129 0.0000
# 6 0.0000 0.0000 0.0000 2.7737 0.0000 24.7304
#
#
#
# Elastic Compliance Matrix: (Units=1/GPa)
#
#
# Indices 1 2 3 4 5 6 
#
# 1 0.023675 -0.000931 0.001119 0.000000 0.005094 0.000000
# 2 -0.000931 0.010562 -0.001145 0.000000 -0.002886 0.000000
# 3 0.001119 -0.001145 0.014213 0.000000 0.004926 0.000000
# 4 0.000000 0.000000 0.000000 0.033223 0.000000 -0.003726
# 5 0.005094 -0.002886 0.004926 0.000000 0.032306 0.000000
# 6 0.000000 0.000000 0.000000 -0.003726 0.000000 0.040854
#
#
# Mechanical properties :
#
#
# Convention : Reuss Voigt Hill
#
# Bulk Modulus (GPa) = 21.48820 25.31409 23.40114
# Shear Modulus (GPa) = 29.02619 31.88011 30.45315
#
# Velocity S-wave (km/s) = 3.67366 3.85002 3.76287
# Velocity P-wave (km/s) = 5.29011 5.61546 5.45521
#
# Compressibility (1/GPa) = 0.04653717
#
# Stress axis : x y z
#
# Youngs Moduli (GPa) = 42.23812 94.67952 70.35757
#
# Poissons Ratio (x) = 0.08811 -0.07874
# Poissons Ratio (y) = 0.03931 0.08057
# Poissons Ratio (z) = -0.04727 0.10842
#
# Static dielectric constant tensor:
#      x y z
#    x 17.922250 0.000000 -10.247810 
#    y 0.000000 4.032830 0.000000 
#    z -10.247810 0.000000 11.394020 
# 
# 
# High freq. dielectric constant tensor:
#      x y z
#    x 1.798120 0.000000 -0.023500 
#    y 0.000000 1.844550 0.000000 
#    z -0.023500 0.000000 1.862780 
# 
# From -- ./inp_files/11342.got.cif
#   From: 2010.06.25/outbox.cif.g09.slc.cpg/sg15_6_cif.got.tgz:11342.got - 2010.06.28 07:06:18.
