data_PCOD8137347
_publ_section_title
;
Structure prediction by ZEFSAII (Michael W. Deem and Ramdas Pophale) SiO2 
 PCOD8137347
Probable space group: C 2/C
;
_chemical_formula_sum "Si O2"
_cell_formula_units_Z 40
_cell_length_a 14.233807
_cell_length_b 11.060894
_cell_length_c 23.000344
_cell_angle_alpha 90.000000
_cell_angle_beta 146.659337
_cell_angle_gamma 90.000000
_cell_volume 1990.237418
_symmetry_space_group_name_H-M "C 2/C"
_symmetry_group_IT_number 15
_symmetry_cell_setting 'monoclinic'
loop_
_space_group_symop_operation_xyz
x,y,z
-x,y,1/2-z
-x,-y,-z
x,-y,1/2+z
1/2+x,1/2+y,z
1/2-x,1/2+y,1/2-z
1/2-x,1/2-y,-z
1/2+x,1/2-y,1/2+z
loop_
_atom_site_type_symbol
_atom_site_label
_atom_site_fract_x
_atom_site_fract_y
_atom_site_fract_z
Si Si1 0.174214 0.739081 0.785539
Si Si2 0.000000 0.619736 0.250000
Si Si3 0.012114 0.272239 0.634555
Si Si4 0.833548 0.597480 0.611194
Si Si5 0.280689 0.558448 0.541453
Si Si6 0.500000 0.546275 0.250000
O O1 0.312274 0.744450 0.806922
O O2 0.253259 0.692977 0.888868
O O3 0.022674 0.645369 0.691224
O O4 0.098305 0.873001 0.753388
O O5 0.057233 0.703418 0.225503
O O6 0.154625 0.533990 0.351411
O O7 0.911048 0.385506 0.553159
O O8 0.898187 0.153108 0.567797
O O9 0.724844 0.570446 0.496616
O O10 0.358603 0.536085 0.645225
#
# Coordination Sequence:
#
# PCOD8137347 Si02
#       6
#     8   4   8   8   8   4
#     4   9  20  36  58  83 107 141 191 229 275 331
#     4   8  16  34  56  74 108 142 176 224 270 320
#     4  10  20  36  57  84 109 144 187 228 275 331
#     4   8  18  38  56  78 111 146 182 226 275 336
#     4  10  21  36  54  78 117 150 181 225 277 325
#     4  10  22  38  54  82 116 146 182 234 274 318
#
# _framework density 20.098105
#
# number of rings (size 3 to 8) (size 9 to 14) (size 15 to 20)
#    0.000    3.200    0.000    0.600    0.000    9.600 
#    0.000   12.000    0.000    0.000    0.000    0.000 
#    0.000    0.000    0.000    0.000    0.000    0.000 
#
# Total GULP energy -247835.828196 kJ/mol
# GULP energy per Si atom -12391.791410 kJ/mol
# Density = 2.005236 g / cm^3
# Si number density = 20.098105 Si / 1000 Ang^3
#
#
#
# Elastic Constant Matrix: (Units=GPa)
#
#
# Indices 1 2 3 4 5 6 
#
# 1 145.0321 41.5643 53.6147 0.0000 10.9374 0.0000
# 2 41.5643 71.3220 38.6118 0.0000 -2.5207 0.0000
# 3 53.6147 38.6118 104.2666 0.0002 -22.5605 0.0000
# 4 0.0000 0.0000 0.0002 17.8724 0.0000 -5.8599
# 5 10.9374 -2.5207 -22.5605 0.0000 28.2213 0.0000
# 6 0.0000 0.0000 0.0000 -5.8599 0.0000 20.8874
#
#
#
# Elastic Compliance Matrix: (Units=1/GPa)
#
#
# Indices 1 2 3 4 5 6 
#
# 1 0.010983 -0.003178 -0.006594 0.000000 -0.009812 0.000000
# 2 -0.003178 0.018916 -0.005730 0.000000 -0.001660 0.000000
# 3 -0.006594 -0.005730 0.018797 0.000000 0.017070 0.000000
# 4 0.000000 0.000000 0.000000 0.061621 0.000000 0.017288
# 5 -0.009812 -0.001660 0.017070 0.000000 0.052735 0.000000
# 6 0.000000 0.000000 0.000000 0.017288 0.000000 0.052726
#
#
# Mechanical properties :
#
#
# Convention : Reuss Voigt Hill
#
# Bulk Modulus (GPa) = 56.51957 65.35581 60.93769
# Shear Modulus (GPa) = 19.78796 25.85152 22.81974
#
# Velocity S-wave (km/s) = 3.14119 3.59035 3.37325
# Velocity P-wave (km/s) = 6.42954 7.05524 6.74964
#
# Compressibility (1/GPa) = 0.01769299
#
# Stress axis : x y z
#
# Youngs Moduli (GPa) = 91.04769 52.86449 53.20012
#
# Poissons Ratio (x) = 0.16799 0.35080
# Poissons Ratio (y) = 0.28932 0.30484
# Poissons Ratio (z) = 0.60036 0.30292
#
# Static dielectric constant tensor:
#      x y z
#    x 3.283460 0.000000 -0.231790 
#    y 0.000000 3.811930 0.000000 
#    z -0.231790 0.000000 3.692130 
# 
# 
# High freq. dielectric constant tensor:
#      x y z
#    x 1.749430 0.000000 -0.019410 
#    y 0.000000 1.796060 0.000000 
#    z -0.019410 0.000000 1.772690 
# 
# From -- ./inp_files/173109.got.cif
#   From: 2010.06.25/outbox.cif.g09.slc.cpg/sg15_87_cif.got.tgz:173109.got - 2010.06.28 07:06:18.
