data_PCOD8137311
_publ_section_title
;
Structure prediction by ZEFSAII (Michael W. Deem and Ramdas Pophale) SiO2 
 PCOD8137311
Probable space group: C 2/C
;
_chemical_formula_sum "Si O2"
_cell_formula_units_Z 56
_cell_length_a 8.215055
_cell_length_b 12.280641
_cell_length_c 26.147523
_cell_angle_alpha 90.000000
_cell_angle_beta 107.815087
_cell_angle_gamma 90.000000
_cell_volume 2511.431311
_symmetry_space_group_name_H-M "C 2/C"
_symmetry_group_IT_number 15
_symmetry_cell_setting 'monoclinic'
loop_
_space_group_symop_operation_xyz
x,y,z
-x,y,1/2-z
-x,-y,-z
x,-y,1/2+z
1/2+x,1/2+y,z
1/2-x,1/2+y,1/2-z
1/2-x,1/2-y,-z
1/2+x,1/2-y,1/2+z
loop_
_atom_site_type_symbol
_atom_site_label
_atom_site_fract_x
_atom_site_fract_y
_atom_site_fract_z
Si Si1 0.143359 0.647862 0.537908
Si Si2 0.231859 0.374879 0.689941
Si Si3 0.235866 0.865353 0.188091
Si Si4 0.500000 0.973516 0.750000
Si Si5 0.469768 0.406110 0.432142
Si Si6 0.935482 0.145228 0.040957
Si Si7 0.895422 0.407673 0.931210
Si Si8 0.000000 0.963255 0.250000
O O1 0.346791 0.654628 0.551662
O O2 0.100769 0.537975 0.564207
O O3 0.061231 0.750715 0.560539
O O4 0.067173 0.640660 0.472978
O O5 0.312120 0.255068 0.703100
O O6 0.119982 0.395946 0.729102
O O7 0.109950 0.381386 0.628966
O O8 0.384966 0.461834 0.701565
O O9 0.139200 0.864098 0.125247
O O10 0.390397 0.950550 0.201390
O O11 0.110828 0.888538 0.223574
O O12 0.472203 0.536901 0.429322
O O13 0.381267 0.370544 0.476584
O O14 0.760206 0.155353 0.055527
#
# Coordination Sequence:
#
# PCOD8137311 Si02
#       8
#     8   8   8   4   8   8   8   4
#     4  10  20  36  56  86 125 162 197 244 295 353
#     4  11  23  43  65  89 121 159 200 254 308 355
#     4  11  23  43  65  89 121 159 200 254 308 355
#     4  10  26  42  64  94 116 154 210 254 304 370
#     4  10  22  36  57  88 120 158 205 242 294 368
#     4  10  20  36  56  86 125 162 197 244 295 353
#     4  10  22  36  57  88 120 158 205 242 294 368
#     4  10  22  42  64  90 120 150 206 258 300 362
#
# _framework density 22.298041999999999
#
# number of rings (size 3 to 8) (size 9 to 14) (size 15 to 20)
#    0.000    1.714    0.000    4.286    0.000    6.857 
#    0.000    7.143    0.000    0.000    0.000    0.000 
#    0.000    0.000    0.000    0.000    0.000    0.000 
#
# Total GULP energy -347222.805182 kJ/mol
# GULP energy per Si atom -12400.814471 kJ/mol
# Density = 2.224729 g / cm^3
# Si number density = 22.298042 Si / 1000 Ang^3
#
#
#
# Elastic Constant Matrix: (Units=GPa)
#
#
# Indices 1 2 3 4 5 6 
#
# 1 41.5133 20.1875 13.2106 0.0000 8.4335 0.0000
# 2 20.1875 128.5566 19.6461 0.0000 0.5712 0.0000
# 3 13.2106 19.6461 96.0853 0.0000 10.0386 0.0000
# 4 0.0000 0.0000 0.0000 13.2588 0.0000 -5.2848
# 5 8.4335 0.5712 10.0386 0.0000 28.7402 0.0000
# 6 0.0000 0.0000 0.0000 -5.2848 0.0000 20.8594
#
#
#
# Elastic Compliance Matrix: (Units=1/GPa)
#
#
# Indices 1 2 3 4 5 6 
#
# 1 0.028299 -0.004062 -0.002285 0.000000 -0.007425 0.000000
# 2 -0.004062 0.008618 -0.001360 0.000000 0.001496 0.000000
# 3 -0.002285 -0.001360 0.011341 0.000000 -0.003264 0.000000
# 4 0.000000 0.000000 0.000000 0.083894 0.000000 0.021255
# 5 -0.007425 0.001496 -0.003264 0.000000 0.038084 0.000000
# 6 0.000000 0.000000 0.000000 0.021255 0.000000 0.053325
#
#
# Mechanical properties :
#
#
# Convention : Reuss Voigt Hill
#
# Bulk Modulus (GPa) = 30.44586 41.36041 35.90314
# Shear Modulus (GPa) = 20.00637 26.77907 23.39272
#
# Velocity S-wave (km/s) = 2.99862 3.46925 3.24248
# Velocity P-wave (km/s) = 5.06682 5.88530 5.49133
#
# Compressibility (1/GPa) = 0.03284519
#
# Stress axis : x y z
#
# Youngs Moduli (GPa) = 35.33652 116.04065 88.17926
#
# Poissons Ratio (x) = 0.47133 0.20145
# Poissons Ratio (y) = 0.14353 0.11991
# Poissons Ratio (z) = 0.08073 0.15779
#
# Static dielectric constant tensor:
#      x y z
#    x 3.902830 0.000000 0.078630 
#    y 0.000000 4.335510 0.000000 
#    z 0.078630 0.000000 3.845670 
# 
# 
# High freq. dielectric constant tensor:
#      x y z
#    x 1.868280 0.000000 0.001150 
#    y 0.000000 1.904040 0.000000 
#    z 0.001150 0.000000 1.866650 
# 
# From -- ./inp_files/288096.got.cif
#   From: 2010.06.25/outbox.cif.g09.slc.cpg/sg15_145_cif.got.tgz:288096.got - 2010.06.28 07:06:18.
