data_PCOD8137400
_publ_section_title
;
Structure prediction by ZEFSAII (Michael W. Deem and Ramdas Pophale) SiO2 
 PCOD8137400
Probable space group: C 2/C
;
_chemical_formula_sum "Si O2"
_cell_formula_units_Z 40
_cell_length_a 11.012924
_cell_length_b 8.403036
_cell_length_c 20.502573
_cell_angle_alpha 90.000000
_cell_angle_beta 91.369950
_cell_angle_gamma 90.000000
_cell_volume 1896.806719
_symmetry_space_group_name_H-M "C 2/C"
_symmetry_group_IT_number 15
_symmetry_cell_setting 'monoclinic'
loop_
_space_group_symop_operation_xyz
x,y,z
-x,y,1/2-z
-x,-y,-z
x,-y,1/2+z
1/2+x,1/2+y,z
1/2-x,1/2+y,1/2-z
1/2-x,1/2-y,-z
1/2+x,1/2-y,1/2+z
loop_
_atom_site_type_symbol
_atom_site_label
_atom_site_fract_x
_atom_site_fract_y
_atom_site_fract_z
Si Si1 0.363397 0.065095 0.432204
Si Si2 0.126759 0.000104 0.268701
Si Si3 0.382627 0.836729 0.787955
Si Si4 0.105746 0.015222 0.916609
Si Si5 0.462281 0.252878 0.978855
O O1 0.411876 0.124493 0.363205
O O2 0.420178 0.160686 0.492696
O O3 0.220601 0.094539 0.435321
O O4 0.383188 0.874262 0.438227
O O5 0.252442 0.095046 0.261393
O O6 0.000000 0.097036 0.250000
O O7 0.112275 0.933115 0.341702
O O8 0.870675 0.852159 0.280557
O O9 0.500000 0.904025 0.750000
O O10 0.107275 0.175638 0.959446
O O11 0.992056 0.899923 0.930956
#
# Coordination Sequence:
#
# PCOD8137400 Si02
#       5
#     8   8   8   8   8
#     4  10  21  37  57  83 112 145 185 230 281 335
#     4  10  22  39  58  83 114 149 190 234 281 334
#     4  10  22  39  58  83 114 149 190 234 281 334
#     4  10  21  37  57  83 112 145 185 230 281 335
#     4  10  20  36  58  82 112 144 182 228 282 338
#
# _framework density 21.088073000000001
#
# number of rings (size 3 to 8) (size 9 to 14) (size 15 to 20)
#    0.000    2.000    0.000    3.600    0.000    7.200 
#    0.000   10.000    0.000    0.000    0.000    0.000 
#    0.000    0.000    0.000    0.000    0.000    0.000 
#
# Total GULP energy -247879.895690 kJ/mol
# GULP energy per Si atom -12393.994785 kJ/mol
# Density = 2.104008 g / cm^3
# Si number density = 21.088073 Si / 1000 Ang^3
#
#
#
# Elastic Constant Matrix: (Units=GPa)
#
#
# Indices 1 2 3 4 5 6 
#
# 1 117.2108 2.9592 11.0927 0.0000 -0.0195 0.0000
# 2 2.9592 65.0305 12.5094 0.0000 -3.8262 0.0000
# 3 11.0927 12.5094 30.9605 0.0000 5.5938 0.0000
# 4 0.0000 0.0000 0.0000 28.5236 0.0000 3.9709
# 5 -0.0195 -3.8262 5.5938 0.0000 26.2354 0.0000
# 6 0.0000 0.0000 0.0000 3.9709 0.0000 24.3171
#
#
#
# Elastic Compliance Matrix: (Units=1/GPa)
#
#
# Indices 1 2 3 4 5 6 
#
# 1 0.008849 0.000304 -0.003435 0.000000 0.000783 0.000000
# 2 0.000304 0.017102 -0.007769 0.000000 0.004151 0.000000
# 3 -0.003435 -0.007769 0.038351 0.000000 -0.009313 0.000000
# 4 0.000000 0.000000 0.000000 0.035874 0.000000 -0.005858
# 5 0.000783 0.004151 -0.009313 0.000000 0.040708 0.000000
# 6 0.000000 0.000000 0.000000 -0.005858 0.000000 0.042080
#
#
# Mechanical properties :
#
#
# Convention : Reuss Voigt Hill
#
# Bulk Modulus (GPa) = 23.52755 29.59158 26.55956
# Shear Modulus (GPa) = 22.83809 28.25790 25.54799
#
# Velocity S-wave (km/s) = 3.29445 3.66456 3.48442
# Velocity P-wave (km/s) = 5.06480 5.65404 5.36751
#
# Compressibility (1/GPa) = 0.04250337
#
# Stress axis : x y z
#
# Youngs Moduli (GPa) = 113.00496 58.47185 26.07461
#
# Poissons Ratio (x) = -0.01779 0.08957
# Poissons Ratio (y) = -0.03437 0.20257
# Poissons Ratio (z) = 0.38817 0.45427
#
# Static dielectric constant tensor:
#      x y z
#    x 4.097150 0.000000 0.055250 
#    y 0.000000 3.582400 0.000000 
#    z 0.055250 0.000000 3.706700 
# 
# 
# High freq. dielectric constant tensor:
#      x y z
#    x 1.839010 0.000000 0.001560 
#    y 0.000000 1.810800 0.000000 
#    z 0.001560 0.000000 1.826300 
# 
# From -- ./inp_files/262514.got.cif
#   From: 2010.06.25/outbox.cif.g09.slc.cpg/sg15_132_cif.got.tgz:262514.got - 2010.06.28 07:06:18.
