data_PCOD8137996
_publ_section_title
;
Structure prediction by ZEFSAII (Michael W. Deem and Ramdas Pophale) SiO2 
 PCOD8137996
Probable space group: C 2/C
;
_chemical_formula_sum "Si O2"
_cell_formula_units_Z 60
_cell_length_a 15.281257
_cell_length_b 28.658257
_cell_length_c 14.332846
_cell_angle_alpha 90.000000
_cell_angle_beta 149.301132
_cell_angle_gamma 90.000000
_cell_volume 3204.491265
_symmetry_space_group_name_H-M "C 2/C"
_symmetry_group_IT_number 15
_symmetry_cell_setting 'monoclinic'
loop_
_space_group_symop_operation_xyz
x,y,z
-x,y,1/2-z
-x,-y,-z
x,-y,1/2+z
1/2+x,1/2+y,z
1/2-x,1/2+y,1/2-z
1/2-x,1/2-y,-z
1/2+x,1/2-y,1/2+z
loop_
_atom_site_type_symbol
_atom_site_label
_atom_site_fract_x
_atom_site_fract_y
_atom_site_fract_z
Si Si1 0.456311 0.937235 0.806928
Si Si2 0.430098 0.703460 0.288676
Si Si3 0.569360 0.103543 0.606148
Si Si4 0.000000 0.935381 0.750000
Si Si5 0.934811 0.886309 0.508415
Si Si6 0.347122 0.463443 0.869983
Si Si7 0.035891 0.694054 0.892107
Si Si8 0.658863 0.027185 0.025335
O O1 0.500000 0.909580 0.750000
O O2 0.254287 0.954045 0.625778
O O3 0.507322 0.905575 0.943001
O O4 0.570906 0.983266 0.898841
O O5 0.500000 0.696925 0.250000
O O6 0.524975 0.669021 0.449576
O O7 0.458772 0.755947 0.349813
O O8 0.232666 0.691476 0.099561
O O9 0.552283 0.156966 0.621427
O O10 0.467439 0.072238 0.589520
O O11 0.773959 0.096513 0.799608
O O12 0.090975 0.903051 0.909460
O O13 0.154444 0.966011 0.850099
O O14 0.098717 0.912344 0.615448
O O15 0.193838 0.484379 0.666131
O O16 0.500000 0.500000 0.000000
O O17 0.000000 0.683398 0.750000
#
# Coordination Sequence:
#
# PCOD8137996 Si02
#       8
#     8   8   8   4   8   8   8   8
#     4  11  24  39  57  80 110 154 200 254 297 338
#     4  11  20  35  52  87 120 151 190 224 282 359
#     4  11  23  39  54  82 113 157 196 242 289 345
#     4  10  22  32  52  88 108 160 184 232 276 358
#     4  11  21  35  58  78 122 152 192 233 284 345
#     4  10  20  37  56  80 112 150 194 249 289 342
#     4  11  22  34  57  85 120 156 184 232 284 353
#     4  10  22  35  53  79 113 143 199 232 293 344
#
# _framework density 18.72372
#
# number of rings (size 3 to 8) (size 9 to 14) (size 15 to 20)
#    0.000    1.333    0.667    8.800    7.467    0.000 
#    0.000    0.000    0.000    0.000    0.000    8.400 
#    0.000    0.000    0.000    0.000    0.000    0.000 
#
# Total GULP energy -371715.952402 kJ/mol
# GULP energy per Si atom -12390.531747 kJ/mol
# Density = 1.868110 g / cm^3
# Si number density = 18.723720 Si / 1000 Ang^3
#
#
#
# Elastic Constant Matrix: (Units=GPa)
#
#
# Indices 1 2 3 4 5 6 
#
# 1 99.1769 35.4397 29.1904 0.0000 0.5192 0.0000
# 2 35.4397 102.5388 22.2417 0.0000 -7.9876 0.0000
# 3 29.1904 22.2417 93.7225 0.0000 5.8063 0.0000
# 4 0.0000 0.0000 0.0000 29.9450 0.0000 -1.5829
# 5 0.5192 -7.9876 5.8063 0.0000 23.0841 0.0000
# 6 0.0000 0.0000 0.0000 -1.5829 0.0000 18.9110
#
#
#
# Elastic Compliance Matrix: (Units=1/GPa)
#
#
# Indices 1 2 3 4 5 6 
#
# 1 0.012250 -0.003670 -0.002894 0.000000 -0.000818 0.000000
# 2 -0.003670 0.011806 -0.001947 0.000000 0.004657 0.000000
# 3 -0.002894 -0.001947 0.012262 0.000000 -0.003693 0.000000
# 4 0.000000 0.000000 0.000000 0.033543 0.000000 0.002808
# 5 -0.000818 0.004657 -0.003693 0.000000 0.045879 0.000000
# 6 0.000000 0.000000 0.000000 0.002808 0.000000 0.053114
#
#
# Mechanical properties :
#
#
# Convention : Reuss Voigt Hill
#
# Bulk Modulus (GPa) = 51.82355 52.13129 51.97742
# Shear Modulus (GPa) = 25.99984 28.29244 27.14614
#
# Velocity S-wave (km/s) = 3.73044 3.89144 3.81179
# Velocity P-wave (km/s) = 6.80390 6.93497 6.86975
#
# Compressibility (1/GPa) = 0.01929625
#
# Stress axis : x y z
#
# Youngs Moduli (GPa) = 81.62960 84.70252 81.55270
#
# Poissons Ratio (x) = 0.31086 0.23600
# Poissons Ratio (y) = 0.29958 0.15880
# Poissons Ratio (z) = 0.23623 0.16494
#
# Static dielectric constant tensor:
#      x y z
#    x 3.392180 0.000000 0.136190 
#    y 0.000000 3.507470 0.000000 
#    z 0.136190 0.000000 3.560180 
# 
# 
# High freq. dielectric constant tensor:
#      x y z
#    x 1.704370 0.000000 0.023260 
#    y 0.000000 1.715510 0.000000 
#    z 0.023260 0.000000 1.742260 
# 
# From -- ./inp_files/157551.got.cif
#   From: 2010.06.25/outbox.cif.g09.slc.cpg/sg15_79_cif.got.tgz:157551.got - 2010.06.28 07:06:18.
