data_PCOD8137880
_publ_section_title
;
Structure prediction by ZEFSAII (Michael W. Deem and Ramdas Pophale) SiO2 
 PCOD8137880
Probable space group: C 2/C
;
_chemical_formula_sum "Si O2"
_cell_formula_units_Z 36
_cell_length_a 5.602446
_cell_length_b 19.562815
_cell_length_c 16.023190
_cell_angle_alpha 90.000000
_cell_angle_beta 115.682168
_cell_angle_gamma 90.000000
_cell_volume 1582.650243
_symmetry_space_group_name_H-M "C 2/C"
_symmetry_group_IT_number 15
_symmetry_cell_setting 'monoclinic'
loop_
_space_group_symop_operation_xyz
x,y,z
-x,y,1/2-z
-x,-y,-z
x,-y,1/2+z
1/2+x,1/2+y,z
1/2-x,1/2+y,1/2-z
1/2-x,1/2-y,-z
1/2+x,1/2-y,1/2+z
loop_
_atom_site_type_symbol
_atom_site_label
_atom_site_fract_x
_atom_site_fract_y
_atom_site_fract_z
Si Si1 0.875448 0.091388 0.554004
Si Si2 0.180160 0.201958 0.693571
Si Si3 0.000000 0.582166 0.250000
Si Si4 0.423956 0.841052 0.900111
Si Si5 0.475349 0.448102 0.608368
O O1 0.615809 0.139729 0.506992
O O2 0.096756 0.130287 0.640909
O O3 0.990385 0.072211 0.482128
O O4 0.805069 0.018687 0.588050
O O5 0.500000 0.201379 0.750000
O O6 0.119493 0.260309 0.614968
O O7 0.000000 0.213647 0.750000
O O8 0.949196 0.632483 0.165451
O O9 0.260980 0.535167 0.296342
O O10 0.153357 0.882711 0.867595
#
# Coordination Sequence:
#
# PCOD8137880 Si02
#       5
#     8   8   4   8   8
#     4  10  25  43  66 102 137 183 235 295 356 421
#     4  12  28  46  72 105 146 186 242 294 360 421
#     4  10  20  36  64  98 128 176 226 284 342 420
#     4  11  22  43  69  96 136 184 235 285 353 427
#     4  10  22  41  69  98 138 182 237 287 357 423
#
# _framework density 22.746655000000001
#
# number of rings (size 3 to 8) (size 9 to 14) (size 15 to 20)
#    0.000    1.333    1.111    3.333    7.778    2.667 
#    0.000    0.000    0.000    0.000    0.000    0.000 
#    0.000    0.000    0.000    0.000    0.000    0.000 
#
# Total GULP energy -222992.849153 kJ/mol
# GULP energy per Si atom -12388.491620 kJ/mol
# Density = 2.269488 g / cm^3
# Si number density = 22.746655 Si / 1000 Ang^3
#
#
#
# Elastic Constant Matrix: (Units=GPa)
#
#
# Indices 1 2 3 4 5 6 
#
# 1 98.0298 25.5224 27.7949 0.0000 24.6206 0.0000
# 2 25.5224 130.7150 36.2068 0.0000 5.9761 0.0000
# 3 27.7949 36.2068 75.1443 0.0000 25.3275 0.0000
# 4 0.0000 0.0000 0.0000 24.3325 0.0000 11.8708
# 5 24.6206 5.9761 25.3275 0.0000 29.2688 0.0000
# 6 0.0000 0.0000 0.0000 11.8708 0.0000 21.3198
#
#
#
# Elastic Compliance Matrix: (Units=1/GPa)
#
#
# Indices 1 2 3 4 5 6 
#
# 1 0.013510 -0.002027 -0.000465 0.000000 -0.010548 0.000000
# 2 -0.002027 0.009281 -0.005164 0.000000 0.004279 0.000000
# 3 -0.000465 -0.005164 0.021855 0.000000 -0.017466 0.000000
# 4 0.000000 0.000000 0.000000 0.056424 0.000000 -0.031417
# 5 -0.010548 0.004279 -0.017466 0.000000 0.057279 0.000000
# 6 0.000000 0.000000 0.000000 -0.031417 0.000000 0.064398
#
#
# Mechanical properties :
#
#
# Convention : Reuss Voigt Hill
#
# Bulk Modulus (GPa) = 34.09143 53.65968 43.87556
# Shear Modulus (GPa) = 20.17455 29.27524 24.72490
#
# Velocity S-wave (km/s) = 2.98136 3.59139 3.30050
# Velocity P-wave (km/s) = 5.18375 6.39052 5.81851
#
# Compressibility (1/GPa) = 0.02933288
#
# Stress axis : x y z
#
# Youngs Moduli (GPa) = 74.02106 107.74966 45.75568
#
# Poissons Ratio (x) = 0.21837 0.02130
# Poissons Ratio (y) = 0.15001 0.23629
# Poissons Ratio (z) = 0.03446 0.55645
#
# Static dielectric constant tensor:
#      x y z
#    x 4.025140 0.000000 0.162280 
#    y 0.000000 4.146580 0.000000 
#    z 0.162280 0.000000 4.534420 
# 
# 
# High freq. dielectric constant tensor:
#      x y z
#    x 1.882790 0.000000 0.012260 
#    y 0.000000 1.900610 0.000000 
#    z 0.012260 0.000000 1.906750 
# 
# From -- ./inp_files/128665.got.cif
#   From: 2010.06.25/outbox.cif.g09.slc.cpg/sg15_65_cif.got.tgz:128665.got - 2010.06.28 07:06:18.
