data_PCOD8137947
_publ_section_title
;
Structure prediction by ZEFSAII (Michael W. Deem and Ramdas Pophale) SiO2 
 PCOD8137947
Probable space group: C 2/C
;
_chemical_formula_sum "Si O2"
_cell_formula_units_Z 56
_cell_length_a 8.774739
_cell_length_b 28.148050
_cell_length_c 9.230669
_cell_angle_alpha 90.000000
_cell_angle_beta 107.250659
_cell_angle_gamma 90.000000
_cell_volume 2177.341697
_symmetry_space_group_name_H-M "C 2/C"
_symmetry_group_IT_number 15
_symmetry_cell_setting 'monoclinic'
loop_
_space_group_symop_operation_xyz
x,y,z
-x,y,1/2-z
-x,-y,-z
x,-y,1/2+z
1/2+x,1/2+y,z
1/2-x,1/2+y,1/2-z
1/2-x,1/2-y,-z
1/2+x,1/2-y,1/2+z
loop_
_atom_site_type_symbol
_atom_site_label
_atom_site_fract_x
_atom_site_fract_y
_atom_site_fract_z
Si Si1 0.500618 0.599679 0.089386
Si Si2 0.656096 0.102842 0.050602
Si Si3 0.653787 0.643786 0.870710
Si Si4 0.881911 0.709353 0.355182
Si Si5 0.772330 0.466291 0.675543
Si Si6 0.345384 0.056377 0.879161
Si Si7 0.343844 0.767111 0.390553
O O1 0.500000 0.621443 0.250000
O O2 0.313962 0.593333 0.995173
O O3 0.583805 0.547183 0.109250
O O4 0.603516 0.637730 0.025256
O O5 0.654838 0.157566 0.095439
O O6 0.652995 0.074010 0.200329
O O7 0.510052 0.086035 0.907368
O O8 0.500000 0.665836 0.750000
O O9 0.695019 0.591641 0.824037
O O10 0.803752 0.676674 0.875359
O O11 0.718088 0.737939 0.267677
O O12 0.000000 0.706566 0.250000
O O13 0.968226 0.737258 0.515495
O O14 0.812983 0.517611 0.748832
O O15 0.853188 0.467314 0.540806
O O16 0.250000 0.750000 0.500000
#
# Coordination Sequence:
#
# PCOD8137947 Si02
#       7
#     8   8   8   8   8   8   8
#     4   9  23  41  66  96 142 182 232 281 364 428
#     4  11  21  41  68 101 134 187 234 291 359 427
#     4  11  23  43  67 101 136 186 236 293 352 429
#     4  10  20  36  69 103 137 181 237 297 350 434
#     4  10  23  42  65 101 134 188 235 292 350 436
#     4  11  23  42  70  97 140 182 245 287 354 420
#     4  10  21  37  67 106 134 174 245 294 352 421
#
# _framework density 25.719435000000001
#
# number of rings (size 3 to 8) (size 9 to 14) (size 15 to 20)
#    0.000    1.714    1.429    3.000   10.000    4.000 
#    0.000   15.714    0.000   11.143    0.000    0.000 
#    0.000    0.000    0.000    0.000    0.000    0.000 
#
# Total GULP energy -346925.483783 kJ/mol
# GULP energy per Si atom -12390.195849 kJ/mol
# Density = 2.566090 g / cm^3
# Si number density = 25.719435 Si / 1000 Ang^3
#
#
#
# Elastic Constant Matrix: (Units=GPa)
#
#
# Indices 1 2 3 4 5 6 
#
# 1 99.7381 26.3561 39.9153 0.0000 24.5718 0.0000
# 2 26.3561 139.3683 60.8827 0.0000 11.1443 0.0000
# 3 39.9153 60.8827 96.8461 0.0000 28.3336 0.0000
# 4 0.0000 0.0000 0.0000 45.8106 0.0000 8.6617
# 5 24.5718 11.1443 28.3336 0.0000 37.0231 0.0000
# 6 0.0000 0.0000 0.0000 8.6617 0.0000 25.3267
#
#
#
# Elastic Compliance Matrix: (Units=1/GPa)
#
#
# Indices 1 2 3 4 5 6 
#
# 1 0.012933 -0.000553 -0.003247 0.000000 -0.005932 0.000000
# 2 -0.000553 0.010069 -0.006858 0.000000 0.002585 0.000000
# 3 -0.003247 -0.006858 0.018994 0.000000 -0.010316 0.000000
# 4 0.000000 0.000000 0.000000 0.023338 0.000000 -0.007982
# 5 -0.005932 0.002585 -0.010316 0.000000 0.038064 0.000000
# 6 0.000000 0.000000 0.000000 -0.007982 0.000000 0.042214
#
#
# Mechanical properties :
#
#
# Convention : Reuss Voigt Hill
#
# Bulk Modulus (GPa) = 48.35826 65.58454 56.97140
# Shear Modulus (GPa) = 28.76495 35.55198 32.15846
#
# Velocity S-wave (km/s) = 3.34790 3.72196 3.53987
# Velocity P-wave (km/s) = 5.81271 6.63521 6.23753
#
# Compressibility (1/GPa) = 0.02067899
#
# Stress axis : x y z
#
# Youngs Moduli (GPa) = 77.31895 99.31324 52.64891
#
# Poissons Ratio (x) = 0.05491 0.17098
# Poissons Ratio (y) = 0.04275 0.36108
# Poissons Ratio (z) = 0.25109 0.68112
#
# Static dielectric constant tensor:
#      x y z
#    x 4.907570 0.000000 0.625860 
#    y 0.000000 4.354240 0.000000 
#    z 0.625860 0.000000 5.195750 
# 
# 
# High freq. dielectric constant tensor:
#      x y z
#    x 2.022420 0.000000 0.018160 
#    y 0.000000 2.019950 0.000000 
#    z 0.018160 0.000000 2.031880 
# 
# From -- ./inp_files/81427.got.cif
#   From: 2010.06.25/outbox.cif.g09.slc.cpg/sg15_41_cif.got.tgz:81427.got - 2010.06.28 07:06:18.
