data_PCOD8137196
_publ_section_title
;
Structure prediction by ZEFSAII (Michael W. Deem and Ramdas Pophale) SiO2 
 PCOD8137196
Probable space group: C 2/C
;
_chemical_formula_sum "Si O2"
_cell_formula_units_Z 48
_cell_length_a 23.468265
_cell_length_b 13.376418
_cell_length_c 18.618172
_cell_angle_alpha 90.000000
_cell_angle_beta 23.768613
_cell_angle_gamma 90.000000
_cell_volume 2355.647645
_symmetry_space_group_name_H-M "C 2/C"
_symmetry_group_IT_number 15
_symmetry_cell_setting 'monoclinic'
loop_
_space_group_symop_operation_xyz
x,y,z
-x,y,1/2-z
-x,-y,-z
x,-y,1/2+z
1/2+x,1/2+y,z
1/2-x,1/2+y,1/2-z
1/2-x,1/2-y,-z
1/2+x,1/2-y,1/2+z
loop_
_atom_site_type_symbol
_atom_site_label
_atom_site_fract_x
_atom_site_fract_y
_atom_site_fract_z
Si Si1 0.844539 0.955827 0.338332
Si Si2 0.639956 0.394027 0.015598
Si Si3 0.404793 0.838178 0.926237
Si Si4 0.421287 0.831321 0.237492
Si Si5 0.216788 0.332225 0.950527
Si Si6 0.428711 0.964429 0.654656
O O1 0.829835 0.938589 0.440419
O O2 0.757571 0.868961 0.398701
O O3 0.784063 0.059003 0.378427
O O4 0.010700 0.952556 0.126602
O O5 0.782809 0.406242 0.804712
O O6 0.588980 0.280280 0.076515
O O7 0.500000 0.876988 0.750000
O O8 0.464378 0.889601 0.929056
O O9 0.339458 0.746297 0.285816
O O10 0.362978 0.809340 0.383671
O O11 0.381597 0.941459 0.257120
O O12 0.592203 0.823451 0.034672
O O13 0.500000 0.000000 0.500000
#
# Coordination Sequence:
#
# PCOD8137196 Si02
#       6
#     8   8   8   8   8   8
#     4  11  20  35  64 102 126 153 211 288 322 370
#     4  11  23  36  66 101 130 162 217 273 328 382
#     4  12  20  41  69  98 129 169 222 275 329 381
#     4  10  21  38  60  88 122 169 211 259 321 371
#     4  10  20  35  64  92 118 157 215 272 313 370
#     4  12  26  45  62  92 140 179 213 260 334 404
#
# _framework density 20.376563000000001
#
# number of rings (size 3 to 8) (size 9 to 14) (size 15 to 20)
#    0.000    1.000    6.667    1.500    2.333    1.333 
#    3.000    0.833    0.000    0.000    0.000    0.000 
#    0.000    0.000    0.000    0.000    0.000    0.000 
#
# Total GULP energy -297512.287506 kJ/mol
# GULP energy per Si atom -12396.345313 kJ/mol
# Density = 2.033018 g / cm^3
# Si number density = 20.376563 Si / 1000 Ang^3
#
#
#
# Elastic Constant Matrix: (Units=GPa)
#
#
# Indices 1 2 3 4 5 6 
#
# 1 68.2163 29.9270 66.0588 -0.0001 -28.9776 0.0000
# 2 29.9270 107.6208 36.5847 -0.0001 -23.7299 0.0000
# 3 66.0588 36.5847 125.8590 -0.0002 -37.0503 0.0001
# 4 -0.0001 -0.0001 -0.0002 34.0796 0.0001 -15.1929
# 5 -28.9776 -23.7299 -37.0503 0.0001 41.0776 0.0000
# 6 0.0000 0.0000 0.0001 -15.1929 0.0000 23.9439
#
#
#
# Elastic Compliance Matrix: (Units=1/GPa)
#
#
# Indices 1 2 3 4 5 6 
#
# 1 0.033275 -0.002413 -0.013974 0.000000 0.009475 0.000000
# 2 -0.002413 0.011114 -0.000783 0.000000 0.004012 0.000000
# 3 -0.013974 -0.000783 0.016981 0.000000 0.005006 0.000000
# 4 0.000000 0.000000 0.000000 0.040918 0.000000 0.025963
# 5 0.009475 0.004012 0.005006 0.000000 0.037861 0.000000
# 6 0.000000 0.000000 0.000000 0.025963 0.000000 0.058238
#
#
# Mechanical properties :
#
#
# Convention : Reuss Voigt Hill
#
# Bulk Modulus (GPa) = 36.99703 62.98190 49.98946
# Shear Modulus (GPa) = 20.68359 31.09526 25.88943
#
# Velocity S-wave (km/s) = 3.18947 3.91068 3.56834
# Velocity P-wave (km/s) = 5.63557 7.16710 6.44698
#
# Compressibility (1/GPa) = 0.02702920
#
# Stress axis : x y z
#
# Youngs Moduli (GPa) = 30.05252 89.97921 58.88886
#
# Poissons Ratio (x) = 0.21716 0.82291
# Poissons Ratio (y) = 0.07253 0.04610
# Poissons Ratio (z) = 0.41995 0.07044
#
# Static dielectric constant tensor:
#      x y z
#    x 3.610320 0.000000 -0.571700 
#    y 0.000000 3.740920 0.000000 
#    z -0.571700 0.000000 3.834700 
# 
# 
# High freq. dielectric constant tensor:
#      x y z
#    x 1.765910 0.000000 -0.047330 
#    y 0.000000 1.806320 0.000000 
#    z -0.047330 0.000000 1.789700 
# 
# From -- ./inp_files/257592.got.cif
#   From: 2010.06.25/outbox.cif.g09.slc.cpg/sg15_129_cif.got.tgz:257592.got - 2010.06.28 07:06:18.
