data_PCOD8137588
_publ_section_title
;
Structure prediction by ZEFSAII (Michael W. Deem and Ramdas Pophale) SiO2 
 PCOD8137588
Probable space group: C 2/C
;
_chemical_formula_sum "Si O2"
_cell_formula_units_Z 48
_cell_length_a 28.541081
_cell_length_b 14.427644
_cell_length_c 11.151548
_cell_angle_alpha 90.000000
_cell_angle_beta 30.046935
_cell_angle_gamma 90.000000
_cell_volume 2299.252208
_symmetry_space_group_name_H-M "C 2/C"
_symmetry_group_IT_number 15
_symmetry_cell_setting 'monoclinic'
loop_
_space_group_symop_operation_xyz
x,y,z
-x,y,1/2-z
-x,-y,-z
x,-y,1/2+z
1/2+x,1/2+y,z
1/2-x,1/2+y,1/2-z
1/2-x,1/2-y,-z
1/2+x,1/2-y,1/2+z
loop_
_atom_site_type_symbol
_atom_site_label
_atom_site_fract_x
_atom_site_fract_y
_atom_site_fract_z
Si Si1 0.670919 0.249587 0.021569
Si Si2 0.353957 0.961478 0.350590
Si Si3 0.054735 0.029285 0.501620
Si Si4 0.520168 0.888156 0.837118
Si Si5 0.209335 0.893542 0.119088
Si Si6 0.202770 0.818967 0.698761
O O1 0.762281 0.191637 0.858042
O O2 0.668792 0.256855 0.883776
O O3 0.578271 0.194738 0.271371
O O4 0.672399 0.352176 0.074988
O O5 0.281501 0.891173 0.573243
O O6 0.418122 0.017074 0.303363
O O7 0.295495 0.036478 0.401618
O O8 0.421197 0.900846 0.118978
O O9 0.113374 0.124076 0.344162
O O10 0.126308 0.946250 0.370520
O O11 0.000000 0.000000 0.500000
O O12 0.000000 0.042098 0.750000
O O13 0.500000 0.854978 0.750000
O O14 0.250000 0.750000 0.500000
#
# Coordination Sequence:
#
# PCOD8137588 Si02
#       6
#     8   8   8   8   8   8
#     4  10  21  39  63  90 125 161 206 256 313 364
#     4   9  21  38  57  87 117 155 204 239 306 363
#     4  11  25  43  66  94 130 171 215 263 322 386
#     4  10  20  36  60  86 118 155 197 252 298 358
#     4   9  21  41  63  87 123 168 202 254 313 376
#     4  11  24  39  62  92 122 163 209 257 308 374
#
# _framework density 20.876352000000001
#
# number of rings (size 3 to 8) (size 9 to 14) (size 15 to 20)
#    0.000    2.000    0.000    2.000    4.667    4.667 
#    0.000    0.000    0.000    0.000    0.000    0.000 
#    0.000    0.000    0.000    0.000    0.000    0.000 
#
# Total GULP energy -297406.385862 kJ/mol
# GULP energy per Si atom -12391.932744 kJ/mol
# Density = 2.082884 g / cm^3
# Si number density = 20.876352 Si / 1000 Ang^3
#
#
#
# Elastic Constant Matrix: (Units=GPa)
#
#
# Indices 1 2 3 4 5 6 
#
# 1 88.1494 32.1112 40.1539 0.0000 2.5569 0.0000
# 2 32.1112 101.7203 57.5162 0.0000 0.2352 0.0000
# 3 40.1539 57.5162 119.5734 0.0000 -5.5759 0.0000
# 4 0.0000 0.0000 0.0000 38.1527 0.0000 -3.6948
# 5 2.5569 0.2352 -5.5759 0.0000 27.7006 0.0000
# 6 0.0000 0.0000 0.0000 -3.6948 0.0000 23.1668
#
#
#
# Elastic Compliance Matrix: (Units=1/GPa)
#
#
# Indices 1 2 3 4 5 6 
#
# 1 0.013910 -0.002325 -0.003646 0.000000 -0.001998 0.000000
# 2 -0.002325 0.013949 -0.005981 0.000000 -0.001108 0.000000
# 3 -0.003646 -0.005981 0.012600 0.000000 0.002924 0.000000
# 4 0.000000 0.000000 0.000000 0.026622 0.000000 0.004246
# 5 -0.001998 -0.001108 0.002924 0.000000 0.036883 0.000000
# 6 0.000000 0.000000 0.000000 0.004246 0.000000 0.043842
#
#
# Mechanical properties :
#
#
# Convention : Reuss Voigt Hill
#
# Bulk Modulus (GPa) = 60.39897 63.22288 61.81092
# Shear Modulus (GPa) = 28.21223 29.78147 28.99685
#
# Velocity S-wave (km/s) = 3.68012 3.78109 3.73095
# Velocity P-wave (km/s) = 6.85947 7.02939 6.94495
#
# Compressibility (1/GPa) = 0.01655657
#
# Stress axis : x y z
#
# Youngs Moduli (GPa) = 71.89019 71.68973 79.36217
#
# Poissons Ratio (x) = 0.16668 0.28935
# Poissons Ratio (y) = 0.16714 0.47463
# Poissons Ratio (z) = 0.26211 0.42874
#
# Static dielectric constant tensor:
#      x y z
#    x 3.706620 0.000000 -0.341550 
#    y 0.000000 4.017660 0.000000 
#    z -0.341550 0.000000 3.940500 
# 
# 
# High freq. dielectric constant tensor:
#      x y z
#    x 1.803180 0.000000 -0.027730 
#    y 0.000000 1.834930 0.000000 
#    z -0.027730 0.000000 1.813800 
# 
# From -- ./inp_files/96535.got.cif
#   From: 2010.06.25/outbox.cif.g09.slc.cpg/sg15_49_cif.got.tgz:96535.got - 2010.06.28 07:06:18.
