data_PCOD8137837
_publ_section_title
;
Structure prediction by ZEFSAII (Michael W. Deem and Ramdas Pophale) SiO2 
 PCOD8137837
Probable space group: C 2/C
;
_chemical_formula_sum "Si O2"
_cell_formula_units_Z 48
_cell_length_a 19.129773
_cell_length_b 14.071589
_cell_length_c 11.343337
_cell_angle_alpha 90.000000
_cell_angle_beta 133.535630
_cell_angle_gamma 90.000000
_cell_volume 2213.602074
_symmetry_space_group_name_H-M "C 2/C"
_symmetry_group_IT_number 15
_symmetry_cell_setting 'monoclinic'
loop_
_space_group_symop_operation_xyz
x,y,z
-x,y,1/2-z
-x,-y,-z
x,-y,1/2+z
1/2+x,1/2+y,z
1/2-x,1/2+y,1/2-z
1/2-x,1/2-y,-z
1/2+x,1/2-y,1/2+z
loop_
_atom_site_type_symbol
_atom_site_label
_atom_site_fract_x
_atom_site_fract_y
_atom_site_fract_z
Si Si1 0.828559 0.846905 0.482192
Si Si2 0.052749 0.512734 0.688340
Si Si3 0.384970 0.427069 0.309908
Si Si4 0.119791 0.724402 0.753945
Si Si5 0.411560 0.622152 0.460706
Si Si6 0.237295 0.055004 0.039054
O O1 0.881512 0.858868 0.419383
O O2 0.897911 0.788660 0.650395
O O3 0.732226 0.786090 0.355584
O O4 0.807320 0.950554 0.507792
O O5 0.071240 0.623854 0.720343
O O6 0.149638 0.448285 0.798550
O O7 0.000000 0.481724 0.750000
O O8 0.000000 0.500000 0.500000
O O9 0.387746 0.538607 0.341085
O O10 0.484505 0.399815 0.357389
O O11 0.287740 0.407898 0.121408
O O12 0.076603 0.777050 0.590327
O O13 0.321214 0.626435 0.444444
#
# Coordination Sequence:
#
# PCOD8137837 Si02
#       6
#     8   8   8   8   8   8
#     4   9  20  35  64  93 127 173 224 282 335 401
#     4  11  28  46  74 101 136 190 238 287 343 412
#     4  10  20  36  63  97 132 176 216 275 350 411
#     4  10  21  41  64  99 132 175 234 283 334 414
#     4  10  21  36  63  96 136 171 222 277 348 410
#     4  10  21  41  67  90 138 171 227 274 354 404
#
# _framework density 21.684114000000001
#
# number of rings (size 3 to 8) (size 9 to 14) (size 15 to 20)
#    0.000    2.000    1.667    0.500    9.333    0.000 
#    0.000    2.500    0.000    0.000    0.000    0.000 
#    0.000    0.000    0.000    0.000    0.000    0.000 
#
# Total GULP energy -297385.970377 kJ/mol
# GULP energy per Si atom -12391.082099 kJ/mol
# Density = 2.163476 g / cm^3
# Si number density = 21.684114 Si / 1000 Ang^3
#
#
#
# Elastic Constant Matrix: (Units=GPa)
#
#
# Indices 1 2 3 4 5 6 
#
# 1 122.2896 19.8835 50.0999 0.0000 -0.5564 0.0000
# 2 19.8835 38.8826 14.2600 0.0000 -7.9430 0.0000
# 3 50.0999 14.2600 134.5811 0.0000 -0.7626 0.0000
# 4 0.0000 0.0000 0.0000 27.0656 0.0000 -6.1420
# 5 -0.5564 -7.9430 -0.7626 0.0000 28.2378 0.0000
# 6 0.0000 0.0000 0.0000 -6.1420 0.0000 26.8854
#
#
#
# Elastic Compliance Matrix: (Units=1/GPa)
#
#
# Indices 1 2 3 4 5 6 
#
# 1 0.010239 -0.004220 -0.003371 0.000000 -0.001076 0.000000
# 2 -0.004220 0.030162 -0.001578 0.000000 0.008359 0.000000
# 3 -0.003371 -0.001578 0.008851 0.000000 -0.000271 0.000000
# 4 0.000000 0.000000 0.000000 0.038967 0.000000 0.008902
# 5 -0.001076 0.008359 -0.000271 0.000000 0.037736 0.000000
# 6 0.000000 0.000000 0.000000 0.008902 0.000000 0.039229
#
#
# Mechanical properties :
#
#
# Convention : Reuss Voigt Hill
#
# Bulk Modulus (GPa) = 32.34543 51.58221 41.96382
# Shear Modulus (GPa) = 25.79620 30.53843 28.16731
#
# Velocity S-wave (km/s) = 3.45285 3.75685 3.60805
# Velocity P-wave (km/s) = 5.55385 6.53132 6.06232
#
# Compressibility (1/GPa) = 0.03091627
#
# Stress axis : x y z
#
# Youngs Moduli (GPa) = 97.66129 33.15378 112.98257
#
# Poissons Ratio (x) = 0.13990 0.38084
# Poissons Ratio (y) = 0.41211 0.17825
# Poissons Ratio (z) = 0.32919 0.05231
#
# Static dielectric constant tensor:
#      x y z
#    x 3.942740 0.000000 0.026050 
#    y 0.000000 3.671690 0.000000 
#    z 0.026050 0.000000 3.875520 
# 
# 
# High freq. dielectric constant tensor:
#      x y z
#    x 1.852250 0.000000 0.001950 
#    y 0.000000 1.830210 0.000000 
#    z 0.001950 0.000000 1.851520 
# 
# From -- ./inp_files/112990.got.cif
#   From: 2010.06.25/outbox.cif.g09.slc.cpg/sg15_57_cif.got.tgz:112990.got - 2010.06.28 07:06:18.
