data_PCOD8137115
_publ_section_title
;
Structure prediction by ZEFSAII (Michael W. Deem and Ramdas Pophale) SiO2 
 PCOD8137115
Probable space group: C 2/C
;
_chemical_formula_sum "Si O2"
_cell_formula_units_Z 60
_cell_length_a 25.652397
_cell_length_b 8.633164
_cell_length_c 15.892366
_cell_angle_alpha 90.000000
_cell_angle_beta 114.572593
_cell_angle_gamma 90.000000
_cell_volume 3200.797713
_symmetry_space_group_name_H-M "C 2/C"
_symmetry_group_IT_number 15
_symmetry_cell_setting 'monoclinic'
loop_
_space_group_symop_operation_xyz
x,y,z
-x,y,1/2-z
-x,-y,-z
x,-y,1/2+z
1/2+x,1/2+y,z
1/2-x,1/2+y,1/2-z
1/2-x,1/2-y,-z
1/2+x,1/2-y,1/2+z
loop_
_atom_site_type_symbol
_atom_site_label
_atom_site_fract_x
_atom_site_fract_y
_atom_site_fract_z
Si Si1 0.000000 0.461412 0.250000
Si Si2 0.210757 0.599637 0.475578
Si Si3 0.792511 0.598129 0.696535
Si Si4 0.582520 0.846461 0.180182
Si Si5 0.579702 0.856358 0.915302
Si Si6 0.211753 0.393344 0.638019
Si Si7 0.916747 0.605723 0.442635
Si Si8 0.978795 0.829575 0.998059
O O1 0.029545 0.338713 0.208063
O O2 0.049843 0.577134 0.313080
O O3 0.250000 0.750000 0.500000
O O4 0.217392 0.504087 0.393564
O O5 0.146594 0.664921 0.443284
O O6 0.228785 0.494740 0.567559
O O7 0.855267 0.678391 0.736395
O O8 0.782229 0.496573 0.773590
O O9 0.749409 0.740967 0.669083
O O10 0.570779 0.715542 0.102213
O O11 0.582431 0.022629 0.146667
O O12 0.549666 0.697492 0.928485
O O13 0.564944 0.978567 0.977731
O O14 0.146969 0.331160 0.582126
O O15 0.962611 0.738794 0.476444
O O16 0.000000 0.000000 0.000000
#
# Coordination Sequence:
#
# PCOD8137115 Si02
#       8
#     4   8   8   8   8   8   8   8
#     4  12  16  34  64  80 106 144 204 234 266 352
#     4  11  23  40  61  90 120 160 207 254 308 362
#     4  11  22  40  61  90 118 162 203 252 306 358
#     4  10  20  35  61  83 108 154 200 233 281 365
#     4  10  20  36  61  82 109 157 198 235 284 366
#     4  10  23  38  61  86 120 157 204 248 300 369
#     4   9  18  37  57  79 107 153 200 223 275 361
#     4  11  21  36  57  87 119 146 189 252 308 338
#
# _framework density 18.745329000000002
#
# number of rings (size 3 to 8) (size 9 to 14) (size 15 to 20)
#    0.000    1.600    4.000    2.800    0.000    2.133 
#    0.000    3.333    0.000    0.000    0.000    0.000 
#    0.000    0.000    0.000    0.000    0.000    0.000 
#
# Total GULP energy -371859.019682 kJ/mol
# GULP energy per Si atom -12395.300656 kJ/mol
# Density = 1.870266 g / cm^3
# Si number density = 18.745329 Si / 1000 Ang^3
#
#
#
# Elastic Constant Matrix: (Units=GPa)
#
#
# Indices 1 2 3 4 5 6 
#
# 1 99.4582 55.4562 29.1010 0.0000 3.5396 0.0000
# 2 55.4562 97.7027 34.2803 0.0000 7.7178 0.0000
# 3 29.1010 34.2803 97.1252 0.0000 -5.2612 0.0000
# 4 0.0000 0.0000 0.0000 26.0931 0.0000 2.4363
# 5 3.5396 7.7178 -5.2612 0.0000 35.3133 0.0000
# 6 0.0000 0.0000 0.0000 2.4363 0.0000 31.9678
#
#
#
# Elastic Compliance Matrix: (Units=1/GPa)
#
#
# Indices 1 2 3 4 5 6 
#
# 1 0.014950 -0.007888 -0.001697 0.000000 -0.000027 0.000000
# 2 -0.007888 0.016212 -0.003536 0.000000 -0.003279 0.000000
# 3 -0.001697 -0.003536 0.012202 0.000000 0.002761 0.000000
# 4 0.000000 0.000000 0.000000 0.038599 0.000000 -0.002942
# 5 -0.000027 -0.003279 0.002761 0.000000 0.029449 0.000000
# 6 0.000000 0.000000 0.000000 -0.002942 0.000000 0.031506
#
#
# Mechanical properties :
#
#
# Convention : Reuss Voigt Hill
#
# Bulk Modulus (GPa) = 58.40433 59.10679 58.75556
# Shear Modulus (GPa) = 28.59299 30.37144 29.48222
#
# Velocity S-wave (km/s) = 3.90980 4.02955 3.97013
# Velocity P-wave (km/s) = 7.18376 7.29724 7.24072
#
# Compressibility (1/GPa) = 0.01712202
#
# Stress axis : x y z
#
# Youngs Moduli (GPa) = 66.88827 61.68135 81.95340
#
# Poissons Ratio (x) = 0.48656 0.13906
# Poissons Ratio (y) = 0.52764 0.28981
# Poissons Ratio (z) = 0.11349 0.21812
#
# Static dielectric constant tensor:
#      x y z
#    x 3.665560 0.000000 0.004160 
#    y 0.000000 3.272170 0.000000 
#    z 0.004160 0.000000 3.719520 
# 
# 
# High freq. dielectric constant tensor:
#      x y z
#    x 1.746880 0.000000 0.001900 
#    y 0.000000 1.698420 0.000000 
#    z 0.001900 0.000000 1.738060 
# 
# From -- ./inp_files/171870.got.cif
#   From: 2010.06.25/outbox.cif.g09.slc.cpg/sg15_86_cif.got.tgz:171870.got - 2010.06.28 07:06:18.
