data_PCOD8137840
_publ_section_title
;
Structure prediction by ZEFSAII (Michael W. Deem and Ramdas Pophale) SiO2 
 PCOD8137840
Probable space group: C 2/C
;
_chemical_formula_sum "Si O2"
_cell_formula_units_Z 60
_cell_length_a 11.519769
_cell_length_b 30.262088
_cell_length_c 8.440131
_cell_angle_alpha 90.000000
_cell_angle_beta 108.313205
_cell_angle_gamma 90.000000
_cell_volume 2793.313076
_symmetry_space_group_name_H-M "C 2/C"
_symmetry_group_IT_number 15
_symmetry_cell_setting 'monoclinic'
loop_
_space_group_symop_operation_xyz
x,y,z
-x,y,1/2-z
-x,-y,-z
x,-y,1/2+z
1/2+x,1/2+y,z
1/2-x,1/2+y,1/2-z
1/2-x,1/2-y,-z
1/2+x,1/2-y,1/2+z
loop_
_atom_site_type_symbol
_atom_site_label
_atom_site_fract_x
_atom_site_fract_y
_atom_site_fract_z
Si Si1 0.003331 0.692408 0.574423
Si Si2 0.763941 0.796918 0.085508
Si Si3 0.000000 0.158477 0.250000
Si Si4 0.136589 0.773595 0.038126
Si Si5 0.680357 0.059118 0.524898
Si Si6 0.700125 0.374053 0.616818
Si Si7 0.915532 0.602783 0.433948
Si Si8 0.358786 0.031974 0.650841
O O1 0.135027 0.680135 0.565303
O O2 0.000000 0.711428 0.750000
O O3 0.953324 0.733564 0.451159
O O4 0.926423 0.647488 0.540708
O O5 0.833888 0.796278 0.282106
O O6 0.750000 0.750000 0.000000
O O7 0.825385 0.827138 0.978566
O O8 0.909046 0.124573 0.302435
O O9 0.079180 0.189268 0.400496
O O10 0.250000 0.750000 0.000000
O O11 0.796572 0.088617 0.518397
O O12 0.547118 0.082274 0.443785
O O13 0.708998 0.047903 0.719670
O O14 0.689009 0.015312 0.423002
O O15 0.834821 0.382104 0.750094
O O16 0.838388 0.567726 0.503593
O O17 0.500000 0.027517 0.750000
#
# Coordination Sequence:
#
# PCOD8137840 Si02
#       8
#     8   8   4   8   8   8   8   8
#     4  12  22  37  63  94 128 169 219 274 331 395
#     4  12  26  41  62  94 127 173 227 277 331 393
#     4  12  28  48  64  94 128 182 232 284 338 388
#     4  12  23  45  67  89 131 179 225 273 336 392
#     4  11  21  39  65 101 136 174 216 273 341 412
#     4  12  26  42  63  93 131 175 229 273 334 397
#     4  11  22  38  64 100 138 173 214 275 334 403
#     4  10  20  36  64 101 143 172 210 267 349 405
#
# _framework density 21.479869000000001
#
# number of rings (size 3 to 8) (size 9 to 14) (size 15 to 20)
#    0.000    0.533    3.333    8.000    0.000    3.200 
#    0.000    0.000    0.000    3.200    0.000    0.000 
#    0.000    0.000    0.000    0.000    0.000    0.000 
#
# Total GULP energy -371882.055536 kJ/mol
# GULP energy per Si atom -12396.068518 kJ/mol
# Density = 2.143098 g / cm^3
# Si number density = 21.479869 Si / 1000 Ang^3
#
#
#
# Elastic Constant Matrix: (Units=GPa)
#
#
# Indices 1 2 3 4 5 6 
#
# 1 95.6918 41.3920 38.8196 0.0000 -24.2711 0.0000
# 2 41.3920 141.2542 55.1118 0.0000 -16.0781 0.0000
# 3 38.8196 55.1118 127.0174 0.0000 -15.1167 0.0000
# 4 0.0000 0.0000 0.0000 41.0899 0.0000 -10.0675
# 5 -24.2711 -16.0781 -15.1167 0.0000 30.7115 0.0000
# 6 0.0000 0.0000 0.0000 -10.0675 0.0000 33.3466
#
#
#
# Elastic Compliance Matrix: (Units=1/GPa)
#
#
# Indices 1 2 3 4 5 6 
#
# 1 0.014791 -0.002341 -0.002400 0.000000 0.009282 0.000000
# 2 -0.002341 0.009127 -0.003076 0.000000 0.001413 0.000000
# 3 -0.002400 -0.003076 0.010116 0.000000 0.001472 0.000000
# 4 0.000000 0.000000 0.000000 0.026281 0.000000 0.007934
# 5 0.009282 0.001413 0.001472 0.000000 0.041361 0.000000
# 6 0.000000 0.000000 0.000000 0.007934 0.000000 0.032383
#
#
# Mechanical properties :
#
#
# Convention : Reuss Voigt Hill
#
# Bulk Modulus (GPa) = 54.35059 70.51223 62.43141
# Shear Modulus (GPa) = 32.08682 36.27228 34.17955
#
# Velocity S-wave (km/s) = 3.86918 4.11379 3.99336
# Velocity P-wave (km/s) = 6.73191 7.44733 7.09864
#
# Compressibility (1/GPa) = 0.01839906
#
# Stress axis : x y z
#
# Youngs Moduli (GPa) = 67.60949 109.56979 98.84985
#
# Poissons Ratio (x) = 0.25654 0.23723
# Poissons Ratio (y) = 0.15830 0.30408
# Poissons Ratio (z) = 0.16225 0.33706
#
# Static dielectric constant tensor:
#      x y z
#    x 3.777980 0.000000 -0.234180 
#    y 0.000000 4.000810 0.000000 
#    z -0.234180 0.000000 4.120590 
# 
# 
# High freq. dielectric constant tensor:
#      x y z
#    x 1.812920 0.000000 -0.026580 
#    y 0.000000 1.850610 0.000000 
#    z -0.026580 0.000000 1.852620 
# 
# From -- ./inp_files/35727.got.cif
#   From: 2010.06.25/outbox.cif.g09.slc.cpg/sg15_18_cif.got.tgz:35727.got - 2010.06.28 07:06:18.
