data_PCOD8137695
_publ_section_title
;
Structure prediction by ZEFSAII (Michael W. Deem and Ramdas Pophale) SiO2 
 PCOD8137695
Probable space group: C 2/C
;
_chemical_formula_sum "Si O2"
_cell_formula_units_Z 48
_cell_length_a 9.680064
_cell_length_b 21.569280
_cell_length_c 11.053023
_cell_angle_alpha 90.000000
_cell_angle_beta 97.512167
_cell_angle_gamma 90.000000
_cell_volume 2287.975477
_symmetry_space_group_name_H-M "C 2/C"
_symmetry_group_IT_number 15
_symmetry_cell_setting 'monoclinic'
loop_
_space_group_symop_operation_xyz
x,y,z
-x,y,1/2-z
-x,-y,-z
x,-y,1/2+z
1/2+x,1/2+y,z
1/2-x,1/2+y,1/2-z
1/2-x,1/2-y,-z
1/2+x,1/2-y,1/2+z
loop_
_atom_site_type_symbol
_atom_site_label
_atom_site_fract_x
_atom_site_fract_y
_atom_site_fract_z
Si Si1 0.681991 0.834510 0.571203
Si Si2 0.148226 0.729034 0.822659
Si Si3 0.484835 0.049967 0.110771
Si Si4 0.348184 0.628950 0.747388
Si Si5 0.110339 0.074589 0.501114
Si Si6 0.306586 0.556984 0.504275
O O1 0.739529 0.785426 0.675950
O O2 0.614379 0.794550 0.454928
O O3 0.580641 0.888674 0.607447
O O4 0.827889 0.862908 0.543839
O O5 0.221327 0.674285 0.758500
O O6 0.000000 0.747983 0.750000
O O7 0.500000 0.021554 0.250000
O O8 0.326212 0.074032 0.091734
O O9 0.500000 0.000000 0.000000
O O10 0.500000 0.662605 0.750000
O O11 0.370405 0.576049 0.851441
O O12 0.295400 0.595953 0.622823
O O13 0.947688 0.070984 0.445615
O O14 0.194433 0.015769 0.459350
#
# Coordination Sequence:
#
# PCOD8137695 Si02
#       6
#     8   8   8   8   8   8
#     4  10  22  42  61  93 130 165 221 270 323 390
#     4  10  21  39  67  91 123 177 221 268 321 390
#     4  12  27  42  63  96 135 176 217 277 337 399
#     4   9  19  36  61  91 126 166 216 264 322 386
#     4   9  19  36  59  91 125 164 208 265 318 391
#     4  10  20  36  61  91 126 166 206 259 327 389
#
# _framework density 20.979244000000001
#
# number of rings (size 3 to 8) (size 9 to 14) (size 15 to 20)
#    0.000    2.000    1.667    1.000    2.333    2.667 
#    0.000    2.500    0.000   10.000    0.000    0.000 
#    0.000    0.000    0.000    0.000    0.000    0.000 
#
# Total GULP energy -297338.428470 kJ/mol
# GULP energy per Si atom -12389.101186 kJ/mol
# Density = 2.093149 g / cm^3
# Si number density = 20.979244 Si / 1000 Ang^3
#
#
#
# Elastic Constant Matrix: (Units=GPa)
#
#
# Indices 1 2 3 4 5 6 
#
# 1 124.2643 43.9548 52.5006 0.0000 30.6636 0.0000
# 2 43.9548 92.7851 35.5511 0.0000 12.6412 0.0000
# 3 52.5006 35.5511 101.7409 0.0000 16.5135 0.0000
# 4 0.0000 0.0000 0.0000 19.4768 0.0000 0.6995
# 5 30.6636 12.6412 16.5135 0.0000 30.5288 0.0000
# 6 0.0000 0.0000 0.0000 0.6995 0.0000 36.8328
#
#
#
# Elastic Compliance Matrix: (Units=1/GPa)
#
#
# Indices 1 2 3 4 5 6 
#
# 1 0.013439 -0.003442 -0.004136 0.000000 -0.009836 0.000000
# 2 -0.003442 0.013593 -0.002874 0.000000 -0.000617 0.000000
# 3 -0.004136 -0.002874 0.013264 0.000000 -0.001831 0.000000
# 4 0.000000 0.000000 0.000000 0.051378 0.000000 -0.000976
# 5 -0.009836 -0.000617 -0.001831 0.000000 0.043882 0.000000
# 6 0.000000 0.000000 0.000000 -0.000976 0.000000 0.027168
#
#
# Mechanical properties :
#
#
# Convention : Reuss Voigt Hill
#
# Bulk Modulus (GPa) = 51.56113 64.75593 58.15853
# Shear Modulus (GPa) = 26.30298 29.81994 28.06146
#
# Velocity S-wave (km/s) = 3.54469 3.77424 3.66126
# Velocity P-wave (km/s) = 6.43302 7.06589 6.75687
#
# Compressibility (1/GPa) = 0.01939446
#
# Stress axis : x y z
#
# Youngs Moduli (GPa) = 74.40810 73.56619 75.38997
#
# Poissons Ratio (x) = 0.25320 0.31180
# Poissons Ratio (y) = 0.25610 0.21664
# Poissons Ratio (z) = 0.30774 0.21140
#
# Static dielectric constant tensor:
#      x y z
#    x 4.000280 0.000000 0.050260 
#    y 0.000000 3.708070 0.000000 
#    z 0.050260 0.000000 3.726170 
# 
# 
# High freq. dielectric constant tensor:
#      x y z
#    x 1.836380 0.000000 0.010040 
#    y 0.000000 1.813960 0.000000 
#    z 0.010040 0.000000 1.804790 
# 
# From -- ./inp_files/79377.got.cif
#   From: 2010.06.25/outbox.cif.g09.slc.cpg/sg15_40_cif.got.tgz:79377.got - 2010.06.28 07:06:18.
