data_PCOD8137856
_publ_section_title
;
Structure prediction by ZEFSAII (Michael W. Deem and Ramdas Pophale) SiO2 
 PCOD8137856
Probable space group: C 2/C
;
_chemical_formula_sum "Si O2"
_cell_formula_units_Z 40
_cell_length_a 17.897512
_cell_length_b 9.264726
_cell_length_c 25.425731
_cell_angle_alpha 90.000000
_cell_angle_beta 28.371695
_cell_angle_gamma 90.000000
_cell_volume 2003.390495
_symmetry_space_group_name_H-M "C 2/C"
_symmetry_group_IT_number 15
_symmetry_cell_setting 'monoclinic'
loop_
_space_group_symop_operation_xyz
x,y,z
-x,y,1/2-z
-x,-y,-z
x,-y,1/2+z
1/2+x,1/2+y,z
1/2-x,1/2+y,1/2-z
1/2-x,1/2-y,-z
1/2+x,1/2-y,1/2+z
loop_
_atom_site_type_symbol
_atom_site_label
_atom_site_fract_x
_atom_site_fract_y
_atom_site_fract_z
Si Si1 0.759046 0.104984 0.594880
Si Si2 0.079375 0.188045 0.348108
Si Si3 0.652132 0.002816 0.773236
Si Si4 0.637013 0.339879 0.607744
Si Si5 0.188917 0.410908 0.539986
O O1 0.644947 0.247520 0.656921
O O2 0.941470 0.147220 0.474340
O O3 0.736090 0.048673 0.667397
O O4 0.713675 0.977762 0.582501
O O5 0.234895 0.098884 0.263505
O O6 0.115262 0.357629 0.331450
O O7 0.031517 0.154297 0.316863
O O8 0.494619 0.913136 0.859783
O O9 0.750000 0.250000 0.500000
O O10 0.710696 0.500125 0.566342
O O11 0.250000 0.250000 0.500000
#
# Coordination Sequence:
#
# PCOD8137856 Si02
#       5
#     8   8   8   8   8
#     4  10  20  42  65  84 117 173 218 245 304 397
#     4  10  22  37  57  94 123 159 203 265 312 369
#     4  12  22  38  65  90 125 168 203 256 332 372
#     4   8  16  38  60  80 118 159 205 248 302 365
#     4  10  20  36  64  88 122 157 210 266 304 362
#
# _framework density 19.966152000000001
#
# number of rings (size 3 to 8) (size 9 to 14) (size 15 to 20)
#    0.000    2.400    6.000    1.200    5.600    0.000 
#    0.000    3.000    8.800    0.000    0.000    0.000 
#    0.000    0.000    0.000    0.000    0.000    0.000 
#
# Total GULP energy -247846.792654 kJ/mol
# GULP energy per Si atom -12392.339633 kJ/mol
# Density = 1.992071 g / cm^3
# Si number density = 19.966152 Si / 1000 Ang^3
#
#
#
# Elastic Constant Matrix: (Units=GPa)
#
#
# Indices 1 2 3 4 5 6 
#
# 1 81.5868 45.9207 57.4249 0.0003 -23.7442 0.0002
# 2 45.9207 159.4893 61.2007 0.0005 -24.7534 -0.0003
# 3 57.4249 61.2007 90.1189 0.0046 -28.3275 -0.0017
# 4 0.0003 0.0005 0.0046 24.1350 -0.0011 -17.2874
# 5 -23.7442 -24.7534 -28.3275 -0.0011 38.4361 0.0003
# 6 0.0002 -0.0003 -0.0017 -17.2874 0.0003 34.4150
#
#
#
# Elastic Compliance Matrix: (Units=1/GPa)
#
#
# Indices 1 2 3 4 5 6 
#
# 1 0.022934 -0.001150 -0.012511 0.000003 0.004207 0.000001
# 2 -0.001150 0.008612 -0.004680 0.000001 0.001387 0.000000
# 3 -0.012511 -0.004680 0.024560 -0.000005 0.007358 -0.000001
# 4 0.000003 0.000001 -0.000005 0.064720 0.000000 0.032510
# 5 0.004207 0.001387 0.007358 0.000000 0.034932 0.000000
# 6 0.000001 0.000000 -0.000001 0.032510 0.000000 0.045388
#
#
# Mechanical properties :
#
#
# Convention : Reuss Voigt Hill
#
# Bulk Modulus (GPa) = 51.48063 73.36529 62.42296
# Shear Modulus (GPa) = 20.46651 30.50712 25.48682
#
# Velocity S-wave (km/s) = 3.20513 3.91313 3.57669
# Velocity P-wave (km/s) = 6.28785 7.56580 6.95624
#
# Compressibility (1/GPa) = 0.01942478
#
# Stress axis : x y z
#
# Youngs Moduli (GPa) = 43.60352 116.11490 40.71720
#
# Poissons Ratio (x) = 0.13348 0.50940
# Poissons Ratio (y) = 0.05012 0.19056
# Poissons Ratio (z) = 0.54551 0.54344
#
# Static dielectric constant tensor:
#      x y z
#    x 3.870750 0.000000 -0.123850 
#    y 0.000000 4.165130 0.000010 
#    z -0.123850 0.000010 3.756150 
# 
# 
# High freq. dielectric constant tensor:
#      x y z
#    x 1.764760 0.000000 -0.018890 
#    y 0.000000 1.775310 0.000000 
#    z -0.018890 0.000000 1.783820 
# 
# From -- ./inp_files/298267.got.cif
#   From: 2010.06.25/outbox.cif.g09.slc.cpg/sg15_150_cif.got.tgz:298267.got - 2010.06.28 07:06:18.
