data_PCOD8137018
_publ_section_title
;
Structure prediction by ZEFSAII (Michael W. Deem and Ramdas Pophale) SiO2 
 PCOD8137018
Probable space group: C 2/C
;
_chemical_formula_sum "Si O2"
_cell_formula_units_Z 48
_cell_length_a 19.084491
_cell_length_b 24.838812
_cell_length_c 5.134897
_cell_angle_alpha 90.000000
_cell_angle_beta 68.743524
_cell_angle_gamma 90.000000
_cell_volume 2268.525291
_symmetry_space_group_name_H-M "C 2/C"
_symmetry_group_IT_number 15
_symmetry_cell_setting 'monoclinic'
loop_
_space_group_symop_operation_xyz
x,y,z
-x,y,1/2-z
-x,-y,-z
x,-y,1/2+z
1/2+x,1/2+y,z
1/2-x,1/2+y,1/2-z
1/2-x,1/2-y,-z
1/2+x,1/2-y,1/2+z
loop_
_atom_site_type_symbol
_atom_site_label
_atom_site_fract_x
_atom_site_fract_y
_atom_site_fract_z
Si Si1 0.724921 0.533163 0.424877
Si Si2 0.198715 0.625036 0.426804
Si Si3 0.145728 0.848988 0.550644
Si Si4 0.913498 0.096804 0.871461
Si Si5 0.412131 0.033916 0.860670
Si Si6 0.300724 0.242395 0.179030
O O1 0.751433 0.502342 0.644633
O O2 0.765350 0.591445 0.362135
O O3 0.635401 0.543023 0.510499
O O4 0.265843 0.635545 0.544341
O O5 0.130729 0.590115 0.637932
O O6 0.165567 0.681799 0.364921
O O7 0.107803 0.886727 0.391318
O O8 0.135535 0.788234 0.447288
O O9 0.104181 0.857221 0.885808
O O10 0.000000 0.080776 0.750000
O O11 0.500000 0.047460 0.750000
O O12 0.389325 0.991071 0.669960
O O13 0.250000 0.250000 0.500000
O O14 0.250000 0.250000 0.000000
#
# Coordination Sequence:
#
# PCOD8137018 Si02
#       6
#     8   8   8   8   8   8
#     4  11  22  35  54  83 112 144 192 237 274 328
#     4  10  21  37  62  85 114 150 190 236 285 342
#     4  10  21  38  59  88 114 148 198 238 283 342
#     4  11  23  40  59  81 118 159 192 235 290 340
#     4  10  22  39  58  83 117 153 188 232 288 343
#     4  10  20  35  58  87 116 144 183 238 291 337
#
# _framework density 21.159119
#
# number of rings (size 3 to 8) (size 9 to 14) (size 15 to 20)
#    0.000    1.667    0.000    6.500    0.000    7.333 
#    0.000    1.667    0.000    2.000    0.000    0.000 
#    0.000    0.000    0.000    0.000    0.000    0.000 
#
# Total GULP energy -297464.602600 kJ/mol
# GULP energy per Si atom -12394.358442 kJ/mol
# Density = 2.111096 g / cm^3
# Si number density = 21.159119 Si / 1000 Ang^3
#
#
#
# Elastic Constant Matrix: (Units=GPa)
#
#
# Indices 1 2 3 4 5 6 
#
# 1 67.9542 23.9237 27.7305 0.0000 9.2214 0.0000
# 2 23.9237 124.7052 22.7279 0.0000 -1.0613 0.0000
# 3 27.7305 22.7279 96.8604 0.0000 10.3770 0.0000
# 4 0.0000 0.0000 0.0000 26.4334 0.0000 -1.4607
# 5 9.2214 -1.0613 10.3770 0.0000 27.7039 0.0000
# 6 0.0000 0.0000 0.0000 -1.4607 0.0000 18.8526
#
#
#
# Elastic Compliance Matrix: (Units=1/GPa)
#
#
# Indices 1 2 3 4 5 6 
#
# 1 0.017938 -0.002751 -0.003999 0.000000 -0.004578 0.000000
# 2 -0.002751 0.008832 -0.001478 0.000000 0.001808 0.000000
# 3 -0.003999 -0.001478 0.012168 0.000000 -0.003283 0.000000
# 4 0.000000 0.000000 0.000000 0.037994 0.000000 0.002944
# 5 -0.004578 0.001808 -0.003283 0.000000 0.038919 0.000000
# 6 0.000000 0.000000 0.000000 0.002944 0.000000 0.053271
#
#
# Mechanical properties :
#
#
# Convention : Reuss Voigt Hill
#
# Bulk Modulus (GPa) = 44.48590 48.69822 46.59206
# Shear Modulus (GPa) = 25.89714 28.94049 27.41882
#
# Velocity S-wave (km/s) = 3.50226 3.70233 3.60368
# Velocity P-wave (km/s) = 6.11756 6.42974 6.27559
#
# Compressibility (1/GPa) = 0.02247903
#
# Stress axis : x y z
#
# Youngs Moduli (GPa) = 55.74852 113.23066 82.18458
#
# Poissons Ratio (x) = 0.31153 0.32869
# Poissons Ratio (y) = 0.15338 0.12149
# Poissons Ratio (z) = 0.22296 0.16739
#
# Static dielectric constant tensor:
#      x y z
#    x 3.748370 0.000000 -0.031030 
#    y 0.000000 4.697150 0.000000 
#    z -0.031030 0.000000 3.864990 
# 
# 
# High freq. dielectric constant tensor:
#      x y z
#    x 1.811310 0.000000 0.011380 
#    y 0.000000 1.829790 0.000000 
#    z 0.011380 0.000000 1.836000 
# 
# From -- ./inp_files/10669.got.cif
#   From: 2010.06.25/outbox.cif.g09.slc.cpg/sg15_6_cif.got.tgz:10669.got - 2010.06.28 07:06:18.
