data_PCOD8137662
_publ_section_title
;
Structure prediction by ZEFSAII (Michael W. Deem and Ramdas Pophale) SiO2 
 PCOD8137662
Probable space group: C 2/C
;
_chemical_formula_sum "Si O2"
_cell_formula_units_Z 40
_cell_length_a 8.553673
_cell_length_b 22.937388
_cell_length_c 9.229761
_cell_angle_alpha 90.000000
_cell_angle_beta 88.777205
_cell_angle_gamma 90.000000
_cell_volume 1810.456722
_symmetry_space_group_name_H-M "C 2/C"
_symmetry_group_IT_number 15
_symmetry_cell_setting 'monoclinic'
loop_
_space_group_symop_operation_xyz
x,y,z
-x,y,1/2-z
-x,-y,-z
x,-y,1/2+z
1/2+x,1/2+y,z
1/2-x,1/2+y,1/2-z
1/2-x,1/2-y,-z
1/2+x,1/2-y,1/2+z
loop_
_atom_site_type_symbol
_atom_site_label
_atom_site_fract_x
_atom_site_fract_y
_atom_site_fract_z
Si Si1 0.830106 0.169675 0.419808
Si Si2 0.350567 0.151628 0.350701
Si Si3 0.334381 0.979680 0.818704
Si Si4 0.857085 0.039385 0.454612
Si Si5 0.476677 0.211047 0.918561
O O1 0.795060 0.171718 0.246612
O O2 0.905241 0.107360 0.459820
O O3 0.675567 0.176982 0.520639
O O4 0.955141 0.220025 0.449685
O O5 0.500000 0.163494 0.250000
O O6 0.342767 0.083709 0.393874
O O7 0.368877 0.189685 0.496809
O O8 0.500000 0.998426 0.750000
O O9 0.195823 0.977928 0.704438
O O10 0.290822 0.028014 0.937926
O O11 0.000000 0.000000 0.500000
O O12 0.500000 0.196410 0.750000
#
# Coordination Sequence:
#
# PCOD8137662 Si02
#       5
#     8   8   8   8   8
#     4   9  21  39  56  83 124 157 190 247 309 359
#     4   8  17  36  57  82 117 154 194 246 302 351
#     4  10  21  39  63  88 121 165 207 247 296 365
#     4  11  23  40  62  91 127 161 198 250 312 365
#     4  10  20  36  61  87 112 154 209 252 290 350
#
# _framework density 22.093871
#
# number of rings (size 3 to 8) (size 9 to 14) (size 15 to 20)
#    0.000    2.400    0.000    2.400    0.000    6.400 
#    0.000   10.000    0.000    0.000    0.000    0.000 
#    0.000    0.000    0.000    0.000    0.000    0.000 
#
# Total GULP energy -247986.846026 kJ/mol
# GULP energy per Si atom -12399.342301 kJ/mol
# Density = 2.204358 g / cm^3
# Si number density = 22.093871 Si / 1000 Ang^3
#
#
#
# Elastic Constant Matrix: (Units=GPa)
#
#
# Indices 1 2 3 4 5 6 
#
# 1 68.6563 51.3689 24.4938 0.0000 17.1762 0.0000
# 2 51.3689 135.3689 69.3134 0.0000 25.7324 0.0000
# 3 24.4938 69.3134 128.3177 0.0000 11.5346 0.0000
# 4 0.0000 0.0000 0.0000 29.6527 0.0000 9.5010
# 5 17.1762 25.7324 11.5346 0.0000 29.1647 0.0000
# 6 0.0000 0.0000 0.0000 9.5010 0.0000 34.8677
#
#
#
# Elastic Compliance Matrix: (Units=1/GPa)
#
#
# Indices 1 2 3 4 5 6 
#
# 1 0.021330 -0.007014 0.000301 0.000000 -0.006493 0.000000
# 2 -0.007014 0.014154 -0.005760 0.000000 -0.006079 0.000000
# 3 0.000301 -0.005760 0.010790 0.000000 0.000638 0.000000
# 4 0.000000 0.000000 0.000000 0.036950 0.000000 -0.010068
# 5 -0.006493 -0.006079 0.000638 0.000000 0.043223 0.000000
# 6 0.000000 0.000000 0.000000 -0.010068 0.000000 0.031423
#
#
# Mechanical properties :
#
#
# Convention : Reuss Voigt Hill
#
# Bulk Modulus (GPa) = 46.88873 69.18837 58.03855
# Shear Modulus (GPa) = 26.32600 31.21480 28.77040
#
# Velocity S-wave (km/s) = 3.45563 3.76284 3.61250
# Velocity P-wave (km/s) = 6.09840 7.08958 6.61259
#
# Compressibility (1/GPa) = 0.02132709
#
# Stress axis : x y z
#
# Youngs Moduli (GPa) = 46.88179 70.65201 92.67950
#
# Poissons Ratio (x) = 0.49556 -0.02788
# Poissons Ratio (y) = 0.32884 0.53385
# Poissons Ratio (z) = -0.01410 0.40697
#
# Static dielectric constant tensor:
#      x y z
#    x 3.892400 0.000000 0.108950 
#    y 0.000000 3.956280 0.000000 
#    z 0.108950 0.000000 4.122270 
# 
# 
# High freq. dielectric constant tensor:
#      x y z
#    x 1.861390 0.000000 0.000160 
#    y 0.000000 1.868820 0.000000 
#    z 0.000160 0.000000 1.865450 
# 
# From -- ./inp_files/23507.got.cif
#   From: 2010.06.25/outbox.cif.g09.slc.cpg/sg15_12_cif.got.tgz:23507.got - 2010.06.28 07:06:18.
