data_PCOD8137023
_publ_section_title
;
Structure prediction by ZEFSAII (Michael W. Deem and Ramdas Pophale) SiO2 
 PCOD8137023
Probable space group: C 2/C
;
_chemical_formula_sum "Si O2"
_cell_formula_units_Z 64
_cell_length_a 29.825310
_cell_length_b 15.165546
_cell_length_c 20.853479
_cell_angle_alpha 90.000000
_cell_angle_beta 160.011670
_cell_angle_gamma 90.000000
_cell_volume 3224.260404
_symmetry_space_group_name_H-M "C 2/C"
_symmetry_group_IT_number 15
_symmetry_cell_setting 'monoclinic'
loop_
_space_group_symop_operation_xyz
x,y,z
-x,y,1/2-z
-x,-y,-z
x,-y,1/2+z
1/2+x,1/2+y,z
1/2-x,1/2+y,1/2-z
1/2-x,1/2-y,-z
1/2+x,1/2-y,1/2+z
loop_
_atom_site_type_symbol
_atom_site_label
_atom_site_fract_x
_atom_site_fract_y
_atom_site_fract_z
Si Si1 0.614507 0.498480 0.739322
Si Si2 0.297039 0.801344 0.240863
Si Si3 0.997171 0.150877 0.171183
Si Si4 0.377381 0.395971 0.879777
Si Si5 0.080840 0.324439 0.230076
Si Si6 0.631372 0.904670 0.626114
Si Si7 0.493864 0.082692 0.418013
Si Si8 0.605591 0.004741 0.336240
O O1 0.544635 0.433986 0.695864
O O2 0.648431 0.449149 0.719329
O O3 0.522290 0.583320 0.601465
O O4 0.751726 0.535618 0.948934
O O5 0.351156 0.705121 0.329860
O O6 0.324722 0.824856 0.204364
O O7 0.373523 0.862223 0.394646
O O8 0.144480 0.820069 0.045599
O O9 0.000000 0.127397 0.250000
O O10 0.094663 0.233796 0.289145
O O11 0.277587 0.428286 0.801314
O O12 0.120453 0.406194 0.328052
O O13 0.929078 0.328062 0.000562
O O14 0.621226 0.882201 0.688385
O O15 0.525784 0.981277 0.473871
O O16 0.438907 0.082624 0.272014
O O17 0.500000 0.000134 0.250000
#
# Coordination Sequence:
#
# PCOD8137023 Si02
#       8
#     8   8   8   8   8   8   8   8
#     4  11  25  39  56  89 122 161 207 252 299 377
#     4  11  22  39  62  90 122 160 204 257 304 355
#     4  12  24  35  59  93 129 157 191 250 311 370
#     4  11  22  39  61  84 121 162 202 255 312 361
#     4  10  20  35  58  89 120 157 197 241 301 374
#     4   9  17  36  59  83 115 156 199 244 301 357
#     4   9  20  37  61  87 112 157 214 251 284 367
#     4  11  23  40  63  87 124 168 201 248 315 367
#
# _framework density 19.849513999999999
#
# number of rings (size 3 to 8) (size 9 to 14) (size 15 to 20)
#    0.000    1.500    2.500    4.125    1.750    3.000 
#    0.000    0.625    0.000    0.750    0.000    0.000 
#    0.000    0.000    0.000    0.000    0.000    0.000 
#
# Total GULP energy -396654.981160 kJ/mol
# GULP energy per Si atom -12395.468161 kJ/mol
# Density = 1.980434 g / cm^3
# Si number density = 19.849514 Si / 1000 Ang^3
#
#
#
# Elastic Constant Matrix: (Units=GPa)
#
#
# Indices 1 2 3 4 5 6 
#
# 1 91.6081 23.1735 45.8572 -0.0001 1.8480 -0.0001
# 2 23.1735 37.1602 25.1345 0.0000 0.3118 0.0000
# 3 45.8572 25.1345 115.2876 -0.0001 -1.8649 -0.0001
# 4 -0.0001 0.0000 -0.0001 22.5656 0.0000 -5.6051
# 5 1.8480 0.3118 -1.8649 0.0000 28.8911 0.0000
# 6 -0.0001 0.0000 -0.0001 -5.6051 0.0000 23.5575
#
#
#
# Elastic Compliance Matrix: (Units=1/GPa)
#
#
# Indices 1 2 3 4 5 6 
#
# 1 0.014770 -0.006116 -0.004560 0.000000 -0.001173 0.000000
# 2 -0.006116 0.034116 -0.005010 0.000000 -0.000300 0.000000
# 3 -0.004560 -0.005010 0.011598 0.000000 0.001094 0.000000
# 4 0.000000 0.000000 0.000000 0.047099 0.000000 0.011206
# 5 -0.001173 -0.000300 0.001094 0.000000 0.034762 0.000000
# 6 0.000000 0.000000 0.000000 0.011206 0.000000 0.045116
#
#
# Mechanical properties :
#
#
# Convention : Reuss Voigt Hill
#
# Bulk Modulus (GPa) = 34.35187 48.04290 41.19738
# Shear Modulus (GPa) = 21.87845 24.99558 23.43702
#
# Velocity S-wave (km/s) = 3.32357 3.55245 3.43991
# Velocity P-wave (km/s) = 5.66320 6.40957 6.04791
#
# Compressibility (1/GPa) = 0.02911050
#
# Stress axis : x y z
#
# Youngs Moduli (GPa) = 67.70602 29.31205 86.22285
#
# Poissons Ratio (x) = 0.17928 0.39321
# Poissons Ratio (y) = 0.41410 0.43196
# Poissons Ratio (z) = 0.30877 0.14685
#
# Static dielectric constant tensor:
#      x y z
#    x 3.957950 0.000000 -0.013010 
#    y 0.000000 3.545450 0.000000 
#    z -0.013010 0.000000 3.667720 
# 
# 
# High freq. dielectric constant tensor:
#      x y z
#    x 1.787360 0.000000 0.008140 
#    y 0.000000 1.750980 0.000000 
#    z 0.008140 0.000000 1.771060 
# 
# From -- ./inp_files/259453.got.cif
#   From: 2010.06.25/outbox.cif.g09.slc.cpg/sg15_130_cif.got.tgz:259453.got - 2010.06.28 07:06:18.
