data_PCOD8137442
_publ_section_title
;
Structure prediction by ZEFSAII (Michael W. Deem and Ramdas Pophale) SiO2 
 PCOD8137442
Probable space group: C 2/C
;
_chemical_formula_sum "Si O2"
_cell_formula_units_Z 48
_cell_length_a 14.092445
_cell_length_b 15.434958
_cell_length_c 10.160475
_cell_angle_alpha 90.000000
_cell_angle_beta 98.129148
_cell_angle_gamma 90.000000
_cell_volume 2187.861789
_symmetry_space_group_name_H-M "C 2/C"
_symmetry_group_IT_number 15
_symmetry_cell_setting 'monoclinic'
loop_
_space_group_symop_operation_xyz
x,y,z
-x,y,1/2-z
-x,-y,-z
x,-y,1/2+z
1/2+x,1/2+y,z
1/2-x,1/2+y,1/2-z
1/2-x,1/2-y,-z
1/2+x,1/2-y,1/2+z
loop_
_atom_site_type_symbol
_atom_site_label
_atom_site_fract_x
_atom_site_fract_y
_atom_site_fract_z
Si Si1 0.101655 0.156632 0.814406
Si Si2 0.900725 0.391577 0.024634
Si Si3 0.500000 0.795898 0.250000
Si Si4 0.000000 0.010048 0.250000
Si Si5 0.796606 0.312314 0.767587
Si Si6 0.904799 0.155705 0.384365
Si Si7 0.069550 0.571096 0.377934
O O1 0.183676 0.208491 0.748118
O O2 0.000000 0.200081 0.750000
O O3 0.093462 0.052575 0.787591
O O4 0.126068 0.164147 0.971955
O O5 0.822197 0.342955 0.920272
O O6 0.004951 0.384055 0.976503
O O7 0.911198 0.350341 0.172199
O O8 0.871842 0.492082 0.042886
O O9 0.468276 0.738713 0.367001
O O10 0.030010 0.070422 0.132180
O O11 0.687247 0.339833 0.728376
O O12 0.858193 0.359045 0.666519
O O13 0.000000 0.533531 0.250000
#
# Coordination Sequence:
#
# PCOD8137442 Si02
#       7
#     8   8   4   4   8   8   8
#     4  10  21  41  66  84 114 164 205 241 294 367
#     4  10  20  36  58  87 117 158 190 243 302 359
#     4  11  22  38  59  78 120 160 195 232 302 359
#     4   9  24  42  65  84 120 168 199 240 304 369
#     4  11  22  37  61  94 118 151 204 257 291 342
#     4  11  23  41  59  89 119 154 200 252 295 353
#     4   9  18  36  59  83 119 154 196 236 299 359
#
# _framework density 21.939228
#
# number of rings (size 3 to 8) (size 9 to 14) (size 15 to 20)
#    0.500    1.333    0.833    4.500    0.000    2.000 
#    3.000    0.000    0.000    0.000    0.000    0.000 
#    0.000    0.000    0.000    0.000    0.000    0.000 
#
# Total GULP energy -297404.926920 kJ/mol
# GULP energy per Si atom -12391.871955 kJ/mol
# Density = 2.188929 g / cm^3
# Si number density = 21.939228 Si / 1000 Ang^3
#
#
#
# Elastic Constant Matrix: (Units=GPa)
#
#
# Indices 1 2 3 4 5 6 
#
# 1 35.9079 21.1219 -1.3630 0.0000 14.6014 0.0000
# 2 21.1219 107.3913 36.9940 0.0000 8.0617 0.0000
# 3 -1.3630 36.9940 105.5012 0.0000 18.3768 0.0000
# 4 0.0000 0.0000 0.0000 25.1284 0.0000 2.0725
# 5 14.6014 8.0617 18.3768 0.0000 28.4686 0.0000
# 6 0.0000 0.0000 0.0000 2.0725 0.0000 13.4941
#
#
#
# Elastic Compliance Matrix: (Units=1/GPa)
#
#
# Indices 1 2 3 4 5 6 
#
# 1 0.044141 -0.009664 0.008367 0.000000 -0.025304 0.000000
# 2 -0.009664 0.012719 -0.005431 0.000000 0.004861 0.000000
# 3 0.008367 -0.005431 0.013487 0.000000 -0.011459 0.000000
# 4 0.000000 0.000000 0.000000 0.040306 0.000000 -0.006191
# 5 -0.025304 0.004861 -0.011459 0.000000 0.054125 0.000000
# 6 0.000000 0.000000 0.000000 -0.006191 0.000000 0.075057
#
#
# Mechanical properties :
#
#
# Convention : Reuss Voigt Hill
#
# Bulk Modulus (GPa) = 17.57830 40.25625 28.91728
# Shear Modulus (GPa) = 18.36509 26.22140 22.29324
#
# Velocity S-wave (km/s) = 2.89639 3.46089 3.19115
# Velocity P-wave (km/s) = 4.38350 5.86167 5.17563
#
# Compressibility (1/GPa) = 0.05688831
#
# Stress axis : x y z
#
# Youngs Moduli (GPa) = 22.65483 78.62499 74.14436
#
# Poissons Ratio (x) = 0.75985 -0.62033
# Poissons Ratio (y) = 0.21894 0.40271
# Poissons Ratio (z) = -0.18954 0.42704
#
# Static dielectric constant tensor:
#      x y z
#    x 3.599670 0.000000 -0.051470 
#    y 0.000000 3.982380 0.000000 
#    z -0.051470 0.000000 3.856310 
# 
# 
# High freq. dielectric constant tensor:
#      x y z
#    x 1.817940 0.000000 -0.001740 
#    y 0.000000 1.874830 0.000000 
#    z -0.001740 0.000000 1.866350 
# 
# From -- ./inp_files/56457.got.cif
#   From: 2010.06.25/outbox.cif.g09.slc.cpg/sg15_29_cif.got.tgz:56457.got - 2010.06.28 07:06:18.
