data_PCOD8137732
_publ_section_title
;
Structure prediction by ZEFSAII (Michael W. Deem and Ramdas Pophale) SiO2 
 PCOD8137732
Probable space group: C 2/C
;
_chemical_formula_sum "Si O2"
_cell_formula_units_Z 52
_cell_length_a 26.496375
_cell_length_b 16.579095
_cell_length_c 12.416998
_cell_angle_alpha 90.000000
_cell_angle_beta 150.551671
_cell_angle_gamma 90.000000
_cell_volume 2681.697159
_symmetry_space_group_name_H-M "C 2/C"
_symmetry_group_IT_number 15
_symmetry_cell_setting 'monoclinic'
loop_
_space_group_symop_operation_xyz
x,y,z
-x,y,1/2-z
-x,-y,-z
x,-y,1/2+z
1/2+x,1/2+y,z
1/2-x,1/2+y,1/2-z
1/2-x,1/2-y,-z
1/2+x,1/2-y,1/2+z
loop_
_atom_site_type_symbol
_atom_site_label
_atom_site_fract_x
_atom_site_fract_y
_atom_site_fract_z
Si Si1 0.619643 0.638457 0.075112
Si Si2 0.289161 0.416372 0.535157
Si Si3 0.827251 0.322330 0.354535
Si Si4 0.390640 0.428216 0.167947
Si Si5 0.239140 0.663137 0.528765
Si Si6 0.602345 0.975287 0.745566
Si Si7 0.000000 0.567881 0.250000
O O1 0.687303 0.617802 0.303900
O O2 0.624926 0.734141 0.072385
O O3 0.662525 0.598379 0.044207
O O4 0.506234 0.603762 0.884040
O O5 0.257154 0.344964 0.393762
O O6 0.381277 0.473870 0.660813
O O7 0.190600 0.471100 0.363287
O O8 0.764681 0.330390 0.349581
O O9 0.928307 0.378403 0.538181
O O10 0.336529 0.389467 0.171989
O O11 0.250000 0.750000 0.500000
O O12 0.135391 0.618980 0.292894
O O13 0.577910 0.988065 0.826864
O O14 0.500000 0.000000 0.500000
#
# Coordination Sequence:
#
# PCOD8137732 Si02
#       7
#     8   8   8   8   8   8   4
#     4  11  23  41  64  88 123 163 207 250 307 373
#     4  11  24  39  61  92 128 157 200 262 312 357
#     4  11  22  39  64  91 123 159 205 254 308 362
#     4  10  23  40  63  89 119 165 211 246 303 374
#     4  10  21  38  61  89 121 158 207 251 295 366
#     4  10  21  36  60  88 119 153 198 251 302 359
#     4  10  20  36  62  86 118 156 202 240 302 366
#
# _framework density 19.390706000000002
#
# number of rings (size 3 to 8) (size 9 to 14) (size 15 to 20)
#    0.000    1.538    3.077    1.846    8.615    0.000 
#    0.000    0.000    0.000    0.000    0.000    0.000 
#    0.000    0.000    0.000    0.000    0.000    0.000 
#
# Total GULP energy -322142.689258 kJ/mol
# GULP energy per Si atom -12390.103433 kJ/mol
# Density = 1.934657 g / cm^3
# Si number density = 19.390706 Si / 1000 Ang^3
#
#
#
# Elastic Constant Matrix: (Units=GPa)
#
#
# Indices 1 2 3 4 5 6 
#
# 1 102.6047 28.5240 28.9231 0.0000 -1.4932 0.0000
# 2 28.5240 69.9894 28.3939 0.0000 -4.5153 0.0000
# 3 28.9231 28.3939 95.0355 0.0000 -16.7874 0.0000
# 4 0.0000 0.0000 0.0000 24.8719 0.0000 -7.4751
# 5 -1.4932 -4.5153 -16.7874 0.0000 35.6994 0.0000
# 6 0.0000 0.0000 0.0000 -7.4751 0.0000 29.8189
#
#
#
# Elastic Compliance Matrix: (Units=1/GPa)
#
#
# Indices 1 2 3 4 5 6 
#
# 1 0.011493 -0.003705 -0.002605 0.000000 -0.001213 0.000000
# 2 -0.003705 0.017455 -0.004062 0.000000 0.000143 0.000000
# 3 -0.002605 -0.004062 0.013544 0.000000 0.005746 0.000000
# 4 0.000000 0.000000 0.000000 0.043482 0.000000 0.010900
# 5 -0.001213 0.000143 0.005746 0.000000 0.030681 0.000000
# 6 0.000000 0.000000 0.000000 0.010900 0.000000 0.036268
#
#
# Mechanical properties :
#
#
# Convention : Reuss Voigt Hill
#
# Bulk Modulus (GPa) = 45.98363 48.81239 47.39801
# Shear Modulus (GPa) = 27.63693 30.19727 28.91710
#
# Velocity S-wave (km/s) = 3.77937 3.95055 3.86591
# Velocity P-wave (km/s) = 6.54298 6.78505 6.66511
#
# Compressibility (1/GPa) = 0.02174687
#
# Stress axis : x y z
#
# Youngs Moduli (GPa) = 87.01047 57.28959 73.83415
#
# Poissons Ratio (x) = 0.21228 0.19233
# Poissons Ratio (y) = 0.32240 0.29993
# Poissons Ratio (z) = 0.22666 0.23272
#
# Static dielectric constant tensor:
#      x y z
#    x 0.000000 0.000000 0.000000 
#    y 0.000000 0.000000 0.000000 
#    z 0.000000 0.000000 0.000000 
# 
# 
# High freq. dielectric constant tensor:
#      x y z
#    x 1.774300 0.000000 -0.001010 
#    y 0.000000 1.751920 0.000000 
#    z -0.001010 0.000000 1.740660 
# 
# From -- ./inp_files/123916.got.cif
#   From: 2010.06.25/outbox.cif.g09.slc.cpg/sg15_62_cif.got.tgz:123916.got - 2010.06.28 07:06:18.
