data_PCOD8137742
_publ_section_title
;
Structure prediction by ZEFSAII (Michael W. Deem and Ramdas Pophale) SiO2 
 PCOD8137742
Probable space group: C 2/C
;
_chemical_formula_sum "Si O2"
_cell_formula_units_Z 48
_cell_length_a 8.768420
_cell_length_b 16.623439
_cell_length_c 16.557386
_cell_angle_alpha 90.000000
_cell_angle_beta 116.221440
_cell_angle_gamma 90.000000
_cell_volume 2165.067825
_symmetry_space_group_name_H-M "C 2/C"
_symmetry_group_IT_number 15
_symmetry_cell_setting 'monoclinic'
loop_
_space_group_symop_operation_xyz
x,y,z
-x,y,1/2-z
-x,-y,-z
x,-y,1/2+z
1/2+x,1/2+y,z
1/2-x,1/2+y,1/2-z
1/2-x,1/2-y,-z
1/2+x,1/2-y,1/2+z
loop_
_atom_site_type_symbol
_atom_site_label
_atom_site_fract_x
_atom_site_fract_y
_atom_site_fract_z
Si Si1 0.971036 0.268073 0.446256
Si Si2 0.500000 0.108058 0.250000
Si Si3 0.000000 0.877477 0.250000
Si Si4 0.297279 0.072982 0.919064
Si Si5 0.737138 0.759072 0.746427
Si Si6 0.762749 0.178326 0.910493
Si Si7 0.119387 0.515512 0.902734
O O1 0.847231 0.335060 0.457586
O O2 0.879423 0.228773 0.347705
O O3 0.036517 0.199041 0.524220
O O4 0.146458 0.311441 0.462735
O O5 0.381584 0.162767 0.279672
O O6 0.386696 0.055169 0.163943
O O7 0.891717 0.931769 0.162622
O O8 0.869825 0.822459 0.268321
O O9 0.429169 0.045181 0.880282
O O10 0.292501 0.015245 0.994799
O O11 0.811163 0.740571 0.674641
O O12 0.735115 0.083642 0.885726
#
# Coordination Sequence:
#
# PCOD8137742 Si02
#       7
#     8   4   4   8   8   8   8
#     4   9  19  36  62  84 114 158 204 242 289 354
#     4  11  24  38  58  90 123 160 198 247 308 354
#     4   9  20  36  62  82 109 162 204 239 292 356
#     4   9  19  40  60  87 122 159 198 248 302 360
#     4  10  21  38  58  85 119 158 203 244 292 357
#     4  10  20  36  62  88 115 157 205 242 292 357
#     4  10  22  37  62  87 125 161 194 248 312 354
#
# _framework density 22.170206
#
# number of rings (size 3 to 8) (size 9 to 14) (size 15 to 20)
#    0.000    2.333    0.000    1.500    7.000    2.667 
#    3.000    6.667    0.000    0.000    0.000    0.000 
#    0.000    0.000    0.000    0.000    0.000    0.000 
#
# Total GULP energy -297469.944064 kJ/mol
# GULP energy per Si atom -12394.581003 kJ/mol
# Density = 2.211975 g / cm^3
# Si number density = 22.170206 Si / 1000 Ang^3
#
#
#
# Elastic Constant Matrix: (Units=GPa)
#
#
# Indices 1 2 3 4 5 6 
#
# 1 38.0515 29.0231 21.7400 0.0000 9.1083 0.0000
# 2 29.0231 125.0684 62.7155 0.0000 4.8212 0.0000
# 3 21.7400 62.7155 136.1502 0.0000 25.4869 0.0000
# 4 0.0000 0.0000 0.0000 43.0120 0.0000 2.6495
# 5 9.1083 4.8212 25.4869 0.0000 38.8678 0.0000
# 6 0.0000 0.0000 0.0000 2.6495 0.0000 27.7184
#
#
#
# Elastic Compliance Matrix: (Units=1/GPa)
#
#
# Indices 1 2 3 4 5 6 
#
# 1 0.033782 -0.007140 -0.000900 0.000000 -0.006441 0.000000
# 2 -0.007140 0.012060 -0.005071 0.000000 0.003502 0.000000
# 3 -0.000900 -0.005071 0.011020 0.000000 -0.006386 0.000000
# 4 0.000000 0.000000 0.000000 0.023387 0.000000 -0.002236
# 5 -0.006441 0.003502 -0.006386 0.000000 0.030991 0.000000
# 6 0.000000 0.000000 0.000000 -0.002236 0.000000 0.036291
#
#
# Mechanical properties :
#
#
# Convention : Reuss Voigt Hill
#
# Bulk Modulus (GPa) = 32.63602 58.46971 45.55287
# Shear Modulus (GPa) = 27.17905 34.30572 30.74239
#
# Velocity S-wave (km/s) = 3.50512 3.93794 3.72782
# Velocity P-wave (km/s) = 5.57977 6.86344 6.25463
#
# Compressibility (1/GPa) = 0.03064099
#
# Stress axis : x y z
#
# Youngs Moduli (GPa) = 29.60176 82.91646 90.74561
#
# Poissons Ratio (x) = 0.59202 0.08163
# Poissons Ratio (y) = 0.21136 0.46017
# Poissons Ratio (z) = 0.02663 0.42047
#
# Static dielectric constant tensor:
#      x y z
#    x 3.830990 0.000000 0.090650 
#    y 0.000000 4.069970 0.000000 
#    z 0.090650 0.000000 3.983290 
# 
# 
# High freq. dielectric constant tensor:
#      x y z
#    x 1.849800 0.000000 0.005150 
#    y 0.000000 1.861400 0.000000 
#    z 0.005150 0.000000 1.877940 
# 
# From -- ./inp_files/135518.got.cif
#   From: 2010.06.25/outbox.cif.g09.slc.cpg/sg15_68_cif.got.tgz:135518.got - 2010.06.28 07:06:18.
