data_PCOD8137508
_publ_section_title
;
Structure prediction by ZEFSAII (Michael W. Deem and Ramdas Pophale) SiO2 
 PCOD8137508
Probable space group: C 2/C
;
_chemical_formula_sum "Si O2"
_cell_formula_units_Z 48
_cell_length_a 8.501299
_cell_length_b 17.838555
_cell_length_c 17.190133
_cell_angle_alpha 90.000000
_cell_angle_beta 103.810771
_cell_angle_gamma 90.000000
_cell_volume 2531.532006
_symmetry_space_group_name_H-M "C 2/C"
_symmetry_group_IT_number 15
_symmetry_cell_setting 'monoclinic'
loop_
_space_group_symop_operation_xyz
x,y,z
-x,y,1/2-z
-x,-y,-z
x,-y,1/2+z
1/2+x,1/2+y,z
1/2-x,1/2+y,1/2-z
1/2-x,1/2-y,-z
1/2+x,1/2-y,1/2+z
loop_
_atom_site_type_symbol
_atom_site_label
_atom_site_fract_x
_atom_site_fract_y
_atom_site_fract_z
Si Si1 0.341351 0.668375 0.101629
Si Si2 0.056784 0.373952 0.667013
Si Si3 0.589074 0.168464 0.932819
Si Si4 0.176953 0.329489 0.981042
Si Si5 0.594961 0.979854 0.340317
Si Si6 0.404683 0.443905 0.932633
O O1 0.242865 0.648415 0.169865
O O2 0.413304 0.752724 0.114665
O O3 0.480760 0.606250 0.108847
O O4 0.228509 0.665581 0.013206
O O5 0.000000 0.369341 0.750000
O O6 0.944083 0.317723 0.605853
O O7 0.017856 0.458169 0.628871
O O8 0.619482 0.100762 0.879024
O O9 0.417003 0.150902 0.951153
O O10 0.312806 0.391213 0.983075
O O11 0.250000 0.250000 0.000000
O O12 0.500000 0.966134 0.250000
O O13 0.777275 0.015298 0.358962
O O14 0.500000 0.500000 0.000000
#
# Coordination Sequence:
#
# PCOD8137508 Si02
#       6
#     8   8   8   8   8   8
#     4  10  20  36  64  94 114 155 207 254 294 356
#     4   9  21  39  60  82 122 160 199 243 307 365
#     4  10  20  37  61  89 122 156 199 249 305 361
#     4  10  20  36  59  85 122 156 198 247 296 357
#     4  10  22  41  57  84 129 162 195 246 312 365
#     4  11  21  35  64  93 118 152 211 255 289 355
#
# _framework density 18.960851999999999
#
# number of rings (size 3 to 8) (size 9 to 14) (size 15 to 20)
#    0.000    2.000    3.333    0.000    2.333    2.000 
#    3.000    7.500    0.000    0.000    0.000    0.000 
#    0.000    0.000    0.000    0.000    0.000    0.000 
#
# Total GULP energy -297328.729828 kJ/mol
# GULP energy per Si atom -12388.697076 kJ/mol
# Density = 1.891770 g / cm^3
# Si number density = 18.960852 Si / 1000 Ang^3
#
#
#
# Elastic Constant Matrix: (Units=GPa)
#
#
# Indices 1 2 3 4 5 6 
#
# 1 146.7663 72.8774 39.3255 0.0000 -18.6125 0.0000
# 2 72.8774 143.4451 50.0839 0.0000 -8.8638 0.0000
# 3 39.3255 50.0839 62.4137 0.0000 -5.6669 0.0000
# 4 0.0000 0.0000 0.0000 20.9140 0.0000 2.7718
# 5 -18.6125 -8.8638 -5.6669 0.0000 23.8856 0.0000
# 6 0.0000 0.0000 0.0000 2.7718 0.0000 36.7856
#
#
#
# Elastic Compliance Matrix: (Units=1/GPa)
#
#
# Indices 1 2 3 4 5 6 
#
# 1 0.010224 -0.003846 -0.002823 0.000000 0.005870 0.000000
# 2 -0.003846 0.011207 -0.006606 0.000000 -0.000406 0.000000
# 3 -0.002823 -0.006606 0.023179 0.000000 0.000848 0.000000
# 4 0.000000 0.000000 0.000000 0.048297 0.000000 -0.003639
# 5 0.005870 -0.000406 0.000848 0.000000 0.046491 0.000000
# 6 0.000000 0.000000 0.000000 -0.003639 0.000000 0.027459
#
#
# Mechanical properties :
#
#
# Convention : Reuss Voigt Hill
#
# Bulk Modulus (GPa) = 55.37258 75.24430 65.30844
# Shear Modulus (GPa) = 25.07178 29.00626 27.03902
#
# Velocity S-wave (km/s) = 3.64028 3.91551 3.78040
# Velocity P-wave (km/s) = 6.85098 7.75962 7.31941
#
# Compressibility (1/GPa) = 0.01805948
#
# Stress axis : x y z
#
# Youngs Moduli (GPa) = 97.80817 89.23065 43.14239
#
# Poissons Ratio (x) = 0.34319 0.12178
# Poissons Ratio (y) = 0.37618 0.28502
# Poissons Ratio (z) = 0.27609 0.58950
#
# Static dielectric constant tensor:
#      x y z
#    x 3.565270 0.000000 0.279630 
#    y 0.000000 3.152770 0.000000 
#    z 0.279630 0.000000 2.937180 
# 
# 
# High freq. dielectric constant tensor:
#      x y z
#    x 1.743470 0.000000 0.010540 
#    y 0.000000 1.750060 0.000000 
#    z 0.010540 0.000000 1.711090 
# 
# From -- ./inp_files/189938.got.cif
#   From: 2010.06.25/outbox.cif.g09.slc.cpg/sg15_95_cif.got.tgz:189938.got - 2010.06.28 07:06:18.
