data_PCOD8137207
_publ_section_title
;
Structure prediction by ZEFSAII (Michael W. Deem and Ramdas Pophale) SiO2 
 PCOD8137207
Probable space group: C 2/C
;
_chemical_formula_sum "Si O2"
_cell_formula_units_Z 56
_cell_length_a 5.101676
_cell_length_b 20.817055
_cell_length_c 24.875617
_cell_angle_alpha 90.000000
_cell_angle_beta 84.882381
_cell_angle_gamma 90.000000
_cell_volume 2631.305839
_symmetry_space_group_name_H-M "C 2/C"
_symmetry_group_IT_number 15
_symmetry_cell_setting 'monoclinic'
loop_
_space_group_symop_operation_xyz
x,y,z
-x,y,1/2-z
-x,-y,-z
x,-y,1/2+z
1/2+x,1/2+y,z
1/2-x,1/2+y,1/2-z
1/2-x,1/2-y,-z
1/2+x,1/2-y,1/2+z
loop_
_atom_site_type_symbol
_atom_site_label
_atom_site_fract_x
_atom_site_fract_y
_atom_site_fract_z
Si Si1 0.303682 0.215072 0.613919
Si Si2 0.402547 0.133391 0.807882
Si Si3 0.613584 0.762791 0.803502
Si Si4 0.388469 0.331640 0.881127
Si Si5 0.642105 0.097220 0.082646
Si Si6 0.242518 0.104664 0.542080
Si Si7 0.725752 0.951192 0.094278
O O1 0.369374 0.163447 0.659283
O O2 0.547934 0.261544 0.591856
O O3 0.183224 0.176593 0.565451
O O4 0.090139 0.263526 0.642959
O O5 0.500000 0.101909 0.750000
O O6 0.210818 0.190397 0.792928
O O7 0.263609 0.078063 0.845645
O O8 0.500000 0.789529 0.750000
O O9 0.837433 0.813081 0.819115
O O10 0.647111 0.375412 0.879013
O O11 0.141095 0.368487 0.911335
O O12 0.614684 0.022885 0.098248
O O13 0.763474 0.106426 0.021597
O O14 0.531528 0.086988 0.558244
O O15 0.020655 0.054099 0.565371
#
# Coordination Sequence:
#
# PCOD8137207 Si02
#       7
#     8   8   8   8   8   8   8
#     4  10  21  39  62  96 123 153 213 267 320 383
#     4  10  20  35  65  96 119 154 200 275 332 361
#     4  11  20  40  68  90 123 158 207 268 327 377
#     4  11  25  41  61  93 126 169 213 252 319 392
#     4  12  24  43  62  89 136 179 210 255 314 387
#     4  11  23  40  67  95 124 169 217 272 320 369
#     4  11  23  41  65  93 127 164 223 264 313 391
#
# _framework density 21.282209000000002
#
# number of rings (size 3 to 8) (size 9 to 14) (size 15 to 20)
#    0.000    1.143    4.286    2.571    0.000    1.143 
#    0.000    0.714    0.000    0.000    0.000    0.000 
#    0.000    0.000    0.000    0.000    0.000    0.000 
#
# Total GULP energy -347060.651327 kJ/mol
# GULP energy per Si atom -12395.023262 kJ/mol
# Density = 2.123377 g / cm^3
# Si number density = 21.282209 Si / 1000 Ang^3
#
#
#
# Elastic Constant Matrix: (Units=GPa)
#
#
# Indices 1 2 3 4 5 6 
#
# 1 89.5061 20.6251 17.2589 0.0000 2.2399 0.0000
# 2 20.6251 89.8481 36.2677 0.0000 2.1763 0.0000
# 3 17.2589 36.2677 74.8289 0.0000 6.0069 0.0000
# 4 0.0000 0.0000 0.0000 16.9385 0.0000 3.0280
# 5 2.2399 2.1763 6.0069 0.0000 30.8138 0.0000
# 6 0.0000 0.0000 0.0000 3.0280 0.0000 28.1649
#
#
#
# Elastic Compliance Matrix: (Units=1/GPa)
#
#
# Indices 1 2 3 4 5 6 
#
# 1 0.011988 -0.002038 -0.001746 0.000000 -0.000387 0.000000
# 2 -0.002038 0.014187 -0.006438 0.000000 0.000401 0.000000
# 3 -0.001746 -0.006438 0.017108 0.000000 -0.002753 0.000000
# 4 0.000000 0.000000 0.000000 0.060194 0.000000 -0.006471
# 5 -0.000387 0.000401 -0.002753 0.000000 0.032990 0.000000
# 6 0.000000 0.000000 0.000000 -0.006471 0.000000 0.036201
#
#
# Mechanical properties :
#
#
# Convention : Reuss Voigt Hill
#
# Bulk Modulus (GPa) = 43.78528 44.72072 44.25300
# Shear Modulus (GPa) = 24.90972 27.18556 26.04764
#
# Velocity S-wave (km/s) = 3.42489 3.57793 3.50225
# Velocity P-wave (km/s) = 6.02148 6.17475 6.09860
#
# Compressibility (1/GPa) = 0.02283873
#
# Stress axis : x y z
#
# Youngs Moduli (GPa) = 83.41394 70.48831 58.45194
#
# Poissons Ratio (x) = 0.14363 0.10208
# Poissons Ratio (y) = 0.16997 0.37632
# Poissons Ratio (z) = 0.14567 0.45382
#
# Static dielectric constant tensor:
#      x y z
#    x 4.036520 0.000000 0.055800 
#    y 0.000000 3.839410 0.000000 
#    z 0.055800 0.000000 3.746680 
# 
# 
# High freq. dielectric constant tensor:
#      x y z
#    x 1.846870 0.000000 0.011710 
#    y 0.000000 1.820880 0.000000 
#    z 0.011710 0.000000 1.819150 
# 
# From -- ./inp_files/261177.got.cif
#   From: 2010.06.25/outbox.cif.g09.slc.cpg/sg15_131_cif.got.tgz:261177.got - 2010.06.28 07:06:18.
