data_PCOD8137149
_publ_section_title
;
Structure prediction by ZEFSAII (Michael W. Deem and Ramdas Pophale) SiO2 
 PCOD8137149
Probable space group: C 2/C
;
_chemical_formula_sum "Si O2"
_cell_formula_units_Z 44
_cell_length_a 9.527457
_cell_length_b 11.927951
_cell_length_c 19.288478
_cell_angle_alpha 90.000000
_cell_angle_beta 71.611602
_cell_angle_gamma 90.000000
_cell_volume 2080.077497
_symmetry_space_group_name_H-M "C 2/C"
_symmetry_group_IT_number 15
_symmetry_cell_setting 'monoclinic'
loop_
_space_group_symop_operation_xyz
x,y,z
-x,y,1/2-z
-x,-y,-z
x,-y,1/2+z
1/2+x,1/2+y,z
1/2-x,1/2+y,1/2-z
1/2-x,1/2-y,-z
1/2+x,1/2-y,1/2+z
loop_
_atom_site_type_symbol
_atom_site_label
_atom_site_fract_x
_atom_site_fract_y
_atom_site_fract_z
Si Si1 0.134536 0.991322 0.848178
Si Si2 0.327088 0.604616 0.421934
Si Si3 0.600836 0.833791 0.673600
Si Si4 0.000000 0.883781 0.250000
Si Si5 0.326297 0.854121 0.407854
Si Si6 0.542462 0.977463 0.914397
O O1 0.233517 0.879520 0.839683
O O2 0.977025 0.964500 0.908570
O O3 0.209952 0.097422 0.872018
O O4 0.108960 0.032142 0.773669
O O5 0.359412 0.726148 0.384128
O O6 0.244269 0.624118 0.506444
O O7 0.219512 0.539003 0.384735
O O8 0.500000 0.889427 0.750000
O O9 0.593878 0.697708 0.682795
O O10 0.539992 0.868459 0.606583
O O11 0.485336 0.916751 0.378341
O O12 0.500000 0.000000 0.000000
#
# Coordination Sequence:
#
# PCOD8137149 Si02
#       6
#     8   8   8   4   8   8
#     4  11  22  37  59  84 111 155 199 234 296 351
#     4  10  20  35  62  87 116 145 198 239 289 363
#     4   9  22  42  56  82 125 152 197 253 301 356
#     4  10  24  38  58  84 120 158 198 250 294 350
#     4   9  20  38  56  88 120 151 182 245 300 342
#     4   9  18  36  63  87 116 158 193 239 304 357
#
# _framework density 21.153058999999999
#
# number of rings (size 3 to 8) (size 9 to 14) (size 15 to 20)
#    0.545    1.818    0.000    1.636    2.545    1.455 
#    3.273    0.000    0.000   16.364    0.000    0.000 
#    0.000    0.000    0.000    0.000    0.000    0.000 
#
# Total GULP energy -272579.450774 kJ/mol
# GULP energy per Si atom -12389.975035 kJ/mol
# Density = 2.110491 g / cm^3
# Si number density = 21.153059 Si / 1000 Ang^3
#
#
#
# Elastic Constant Matrix: (Units=GPa)
#
#
# Indices 1 2 3 4 5 6 
#
# 1 146.5773 27.8486 29.7734 0.0000 22.7871 0.0000
# 2 27.8486 49.7979 23.6458 0.0000 11.3101 0.0000
# 3 29.7734 23.6458 43.1847 0.0000 14.2532 0.0000
# 4 0.0000 0.0000 0.0000 29.5555 0.0000 -1.3174
# 5 22.7871 11.3101 14.2532 0.0000 30.3116 0.0000
# 6 0.0000 0.0000 0.0000 -1.3174 0.0000 27.0189
#
#
#
# Elastic Compliance Matrix: (Units=1/GPa)
#
#
# Indices 1 2 3 4 5 6 
#
# 1 0.008557 -0.002299 -0.003315 0.000000 -0.004016 0.000000
# 2 -0.002299 0.028112 -0.012922 0.000000 -0.002685 0.000000
# 3 -0.003315 -0.012922 0.035634 0.000000 -0.009442 0.000000
# 4 0.000000 0.000000 0.000000 0.033908 0.000000 0.001653
# 5 -0.004016 -0.002685 -0.009442 0.000000 0.041452 0.000000
# 6 0.000000 0.000000 0.000000 0.001653 0.000000 0.037092
#
#
# Mechanical properties :
#
#
# Convention : Reuss Voigt Hill
#
# Bulk Modulus (GPa) = 28.38393 44.67729 36.53061
# Shear Modulus (GPa) = 21.40684 27.92999 24.66841
#
# Velocity S-wave (km/s) = 3.18464 3.63764 3.41865
# Velocity P-wave (km/s) = 5.19327 6.22977 5.73499
#
# Compressibility (1/GPa) = 0.03523120
#
# Stress axis : x y z
#
# Youngs Moduli (GPa) = 116.86535 35.57147 28.06332
#
# Poissons Ratio (x) = 0.08178 0.09303
# Poissons Ratio (y) = 0.26867 0.36263
# Poissons Ratio (z) = 0.38743 0.45965
#
# Static dielectric constant tensor:
#      x y z
#    x 4.101040 0.000000 0.260530 
#    y 0.000000 3.899250 0.000000 
#    z 0.260530 0.000000 3.526170 
# 
# 
# High freq. dielectric constant tensor:
#      x y z
#    x 1.840730 0.000000 0.021230 
#    y 0.000000 1.824900 0.000000 
#    z 0.021230 0.000000 1.802830 
# 
# From -- ./inp_files/230216.got.cif
#   From: 2010.06.25/outbox.cif.g09.slc.cpg/sg15_116_cif.got.tgz:230216.got - 2010.06.28 07:06:18.
