data_PCOD8137224
_publ_section_title
;
Structure prediction by ZEFSAII (Michael W. Deem and Ramdas Pophale) SiO2 
 PCOD8137224
Probable space group: C 2/C
;
_chemical_formula_sum "Si O2"
_cell_formula_units_Z 64
_cell_length_a 18.309324
_cell_length_b 24.974622
_cell_length_c 8.909512
_cell_angle_alpha 90.000000
_cell_angle_beta 133.170225
_cell_angle_gamma 90.000000
_cell_volume 2971.295301
_symmetry_space_group_name_H-M "C 2/C"
_symmetry_group_IT_number 15
_symmetry_cell_setting 'monoclinic'
loop_
_space_group_symop_operation_xyz
x,y,z
-x,y,1/2-z
-x,-y,-z
x,-y,1/2+z
1/2+x,1/2+y,z
1/2-x,1/2+y,1/2-z
1/2-x,1/2-y,-z
1/2+x,1/2-y,1/2+z
loop_
_atom_site_type_symbol
_atom_site_label
_atom_site_fract_x
_atom_site_fract_y
_atom_site_fract_z
Si Si1 0.817875 0.315624 0.959183
Si Si2 0.609717 0.231195 0.441183
Si Si3 0.716667 0.494707 0.128673
Si Si4 0.125932 0.068643 0.771476
Si Si5 0.455512 0.611995 0.343053
Si Si6 0.728878 0.072648 0.053703
Si Si7 0.615013 0.725724 0.270932
Si Si8 0.730846 0.325235 0.510222
O O1 0.847420 0.376775 0.046917
O O2 0.723476 0.302047 0.932676
O O3 0.793491 0.315964 0.749814
O O4 0.899572 0.268694 0.111124
O O5 0.500000 0.209306 0.250000
O O6 0.609562 0.238349 0.617023
O O7 0.634632 0.285873 0.383821
O O8 0.695376 0.188016 0.523304
O O9 0.668074 0.452916 0.173934
O O10 0.783786 0.537659 0.312977
O O11 0.628899 0.522033 0.901626
O O12 0.792143 0.462795 0.123703
O O13 0.195051 0.114870 0.937285
O O14 0.015936 0.091059 0.575436
O O15 0.500000 0.588542 0.250000
O O16 0.343841 0.592479 0.212540
O O17 0.464873 0.677074 0.345314
#
# Coordination Sequence:
#
# PCOD8137224 Si02
#       8
#     8   8   8   8   8   8   8   8
#     4   9  18  36  53  77 109 147 195 239 293 347
#     4  10  21  37  57  88 115 151 196 241 306 370
#     4  10  22  35  56  79 117 155 208 244 290 354
#     4  11  22  37  55  83 117 153 206 240 297 352
#     4  11  22  34  53  78 115 161 198 242 294 352
#     4  10  20  36  51  81 113 155 199 247 298 342
#     4   9  20  33  55  76 107 151 196 239 288 357
#     4  10  21  37  60  83 119 156 189 252 305 359
#
# _framework density 21.539428000000001
#
# number of rings (size 3 to 8) (size 9 to 14) (size 15 to 20)
#    0.000    2.000    2.500    0.750    1.750    7.500 
#    0.000    0.000    0.000    0.000    0.000    0.875 
#    0.000    0.000    0.000    0.000    0.000    0.000 
#
# Total GULP energy -396533.552324 kJ/mol
# GULP energy per Si atom -12391.673510 kJ/mol
# Density = 2.149040 g / cm^3
# Si number density = 21.539428 Si / 1000 Ang^3
#
#
#
# Elastic Constant Matrix: (Units=GPa)
#
#
# Indices 1 2 3 4 5 6 
#
# 1 19.6576 -11.6489 7.3034 0.0000 -11.5942 0.0000
# 2 -11.6489 90.3566 16.4911 0.0000 -9.6753 0.0000
# 3 7.3034 16.4911 60.9044 0.0000 -19.2488 0.0000
# 4 0.0000 0.0000 0.0000 41.5183 0.0000 -6.3360
# 5 -11.5942 -9.6753 -19.2488 0.0000 28.7210 0.0000
# 6 0.0000 0.0000 0.0000 -6.3360 0.0000 25.3710
#
#
#
# Elastic Compliance Matrix: (Units=1/GPa)
#
#
# Indices 1 2 3 4 5 6 
#
# 1 0.082223 0.014950 -0.002316 0.000000 0.036676 0.000000
# 2 0.014950 0.014482 -0.002873 0.000000 0.008988 0.000000
# 3 -0.002316 -0.002873 0.021408 0.000000 0.012445 0.000000
# 4 0.000000 0.000000 0.000000 0.025040 0.000000 0.006253
# 5 0.036676 0.008988 0.012445 0.000000 0.060992 0.000000
# 6 0.000000 0.000000 0.000000 0.006253 0.000000 0.040977
#
#
# Mechanical properties :
#
#
# Convention : Reuss Voigt Hill
#
# Bulk Modulus (GPa) = 7.26565 21.68997 14.47781
# Shear Modulus (GPa) = 18.41770 29.70692 24.06231
#
# Velocity S-wave (km/s) = 2.92733 3.71777 3.34597
# Velocity P-wave (km/s) = 3.84788 5.34049 4.65441
#
# Compressibility (1/GPa) = 0.13763401
#
# Stress axis : x y z
#
# Youngs Moduli (GPa) = 12.16202 69.05347 46.71136
#
# Poissons Ratio (x) = -1.03238 0.10821
# Poissons Ratio (y) = -0.18183 0.13422
# Poissons Ratio (z) = 0.02817 0.19841
#
# Static dielectric constant tensor:
#      x y z
#    x 3.606740 0.000000 -0.288330 
#    y 0.000000 4.367190 0.000000 
#    z -0.288330 0.000000 3.817640 
# 
# 
# High freq. dielectric constant tensor:
#      x y z
#    x 1.806360 0.000000 -0.040820 
#    y 0.000000 1.859270 0.000000 
#    z -0.040820 0.000000 1.829820 
# 
# From -- ./inp_files/59050.got.cif
#   From: 2010.06.25/outbox.cif.g09.slc.cpg/sg15_30_cif.got.tgz:59050.got - 2010.06.28 07:06:18.
