data_PCOD8137154
_publ_section_title
;
Structure prediction by ZEFSAII (Michael W. Deem and Ramdas Pophale) SiO2 
 PCOD8137154
Probable space group: C 2/C
;
_chemical_formula_sum "Si O2"
_cell_formula_units_Z 52
_cell_length_a 8.267222
_cell_length_b 18.304207
_cell_length_c 17.547857
_cell_angle_alpha 90.000000
_cell_angle_beta 82.071825
_cell_angle_gamma 90.000000
_cell_volume 2630.047223
_symmetry_space_group_name_H-M "C 2/C"
_symmetry_group_IT_number 15
_symmetry_cell_setting 'monoclinic'
loop_
_space_group_symop_operation_xyz
x,y,z
-x,y,1/2-z
-x,-y,-z
x,-y,1/2+z
1/2+x,1/2+y,z
1/2-x,1/2+y,1/2-z
1/2-x,1/2-y,-z
1/2+x,1/2-y,1/2+z
loop_
_atom_site_type_symbol
_atom_site_label
_atom_site_fract_x
_atom_site_fract_y
_atom_site_fract_z
Si Si1 0.416011 0.604273 0.540942
Si Si2 0.035305 0.977270 0.619482
Si Si3 0.500000 0.891106 0.750000
Si Si4 0.604189 0.029953 0.383945
Si Si5 0.552833 0.891203 0.042453
Si Si6 0.906311 0.234388 0.039654
Si Si7 0.141346 0.149006 0.300487
O O1 0.497408 0.563236 0.608494
O O2 0.451679 0.558724 0.463537
O O3 0.225857 0.605712 0.572761
O O4 0.480569 0.685897 0.523429
O O5 0.206085 0.966766 0.652796
O O6 0.896292 0.936048 0.677080
O O7 0.510833 0.943353 0.676350
O O8 0.670592 0.844303 0.742855
O O9 0.566216 0.085993 0.453974
O O10 0.568667 0.946402 0.407496
O O11 0.491832 0.809607 0.053930
O O12 0.867485 0.196324 0.122221
O O13 0.750000 0.250000 0.000000
O O14 0.000000 0.176600 0.250000
#
# Coordination Sequence:
#
# PCOD8137154 Si02
#       7
#     8   8   4   8   8   8   8
#     4   9  18  32  59  88 117 153 193 249 302 351
#     4   9  17  35  58  87 120 151 195 249 297 350
#     4  12  22  38  64  90 118 160 208 248 308 374
#     4  10  20  35  62  90 119 154 204 251 299 362
#     4  10  20  37  58  90 120 155 202 253 300 360
#     4  11  22  38  60  89 123 161 205 257 310 364
#     4  11  23  41  62  88 124 165 203 251 311 376
#
# _framework density 19.771508000000001
#
# number of rings (size 3 to 8) (size 9 to 14) (size 15 to 20)
#    0.000    1.846    1.538    3.231    0.000    4.923 
#    4.154    0.000    0.000    0.000    2.000    0.000 
#    0.000    0.000    0.000    0.000    0.000    0.000 
#
# Total GULP energy -322274.322944 kJ/mol
# GULP energy per Si atom -12395.166267 kJ/mol
# Density = 1.972651 g / cm^3
# Si number density = 19.771508 Si / 1000 Ang^3
#
#
#
# Elastic Constant Matrix: (Units=GPa)
#
#
# Indices 1 2 3 4 5 6 
#
# 1 113.2586 23.4054 41.3011 0.0000 1.2118 0.0000
# 2 23.4054 104.0794 32.6055 0.0000 -5.9458 0.0000
# 3 41.3011 32.6055 72.5399 0.0000 14.1148 0.0000
# 4 0.0000 0.0000 0.0000 12.7202 0.0000 9.0896
# 5 1.2118 -5.9458 14.1148 0.0000 34.9235 0.0000
# 6 0.0000 0.0000 0.0000 9.0896 0.0000 24.3810
#
#
#
# Elastic Compliance Matrix: (Units=1/GPa)
#
#
# Indices 1 2 3 4 5 6 
#
# 1 0.011333 -0.000299 -0.006764 0.000000 0.002290 0.000000
# 2 -0.000299 0.011810 -0.006004 0.000000 0.004448 0.000000
# 3 -0.006764 -0.006004 0.022237 0.000000 -0.009775 0.000000
# 4 0.000000 0.000000 0.000000 0.107165 0.000000 -0.039953
# 5 0.002290 0.004448 -0.009775 0.000000 0.033262 0.000000
# 6 0.000000 0.000000 0.000000 -0.039953 0.000000 0.055910
#
#
# Mechanical properties :
#
#
# Convention : Reuss Voigt Hill
#
# Bulk Modulus (GPa) = 51.95436 53.83354 52.89395
# Shear Modulus (GPa) = 18.23045 27.24266 22.73656
#
# Velocity S-wave (km/s) = 3.03983 3.71600 3.39479
# Velocity P-wave (km/s) = 6.21733 6.76007 6.49437
#
# Compressibility (1/GPa) = 0.01924766
#
# Stress axis : x y z
#
# Youngs Moduli (GPa) = 88.23717 84.67289 44.97004
#
# Poissons Ratio (x) = 0.02531 0.30416
# Poissons Ratio (y) = 0.02637 0.26999
# Poissons Ratio (z) = 0.59681 0.50835
#
# Static dielectric constant tensor:
#      x y z
#    x 3.705450 0.000000 0.101430 
#    y 0.000000 3.373740 0.000000 
#    z 0.101430 0.000000 3.491730 
# 
# 
# High freq. dielectric constant tensor:
#      x y z
#    x 1.788060 0.000000 0.007450 
#    y 0.000000 1.756570 0.000000 
#    z 0.007450 0.000000 1.754490 
# 
# From -- ./inp_files/190444.got.cif
#   From: 2010.06.25/outbox.cif.g09.slc.cpg/sg15_96_cif.got.tgz:190444.got - 2010.06.28 07:06:18.
