data_PCOD8137141
_publ_section_title
;
Structure prediction by ZEFSAII (Michael W. Deem and Ramdas Pophale) SiO2 
 PCOD8137141
Probable space group: C 2/C
;
_chemical_formula_sum "Si O2"
_cell_formula_units_Z 64
_cell_length_a 8.498095
_cell_length_b 20.747218
_cell_length_c 25.548410
_cell_angle_alpha 90.000000
_cell_angle_beta 135.019255
_cell_angle_gamma 90.000000
_cell_volume 3184.082647
_symmetry_space_group_name_H-M "C 2/C"
_symmetry_group_IT_number 15
_symmetry_cell_setting 'monoclinic'
loop_
_space_group_symop_operation_xyz
x,y,z
-x,y,1/2-z
-x,-y,-z
x,-y,1/2+z
1/2+x,1/2+y,z
1/2-x,1/2+y,1/2-z
1/2-x,1/2-y,-z
1/2+x,1/2-y,1/2+z
loop_
_atom_site_type_symbol
_atom_site_label
_atom_site_fract_x
_atom_site_fract_y
_atom_site_fract_z
Si Si1 0.767751 0.599685 0.682768
Si Si2 0.168735 0.460013 0.834988
Si Si3 0.853033 0.173668 0.940349
Si Si4 0.514829 0.872532 0.070642
Si Si5 0.829908 0.972109 0.555898
Si Si6 0.926458 0.702728 0.014549
Si Si7 0.270595 0.092469 0.043284
Si Si8 0.413127 0.456393 0.175714
O O1 0.839883 0.537213 0.665812
O O2 0.630299 0.649092 0.615395
O O3 0.622020 0.579006 0.697952
O O4 0.000000 0.635183 0.750000
O O5 0.426381 0.439023 0.888071
O O6 0.095449 0.434920 0.875048
O O7 0.000000 0.433223 0.750000
O O8 0.625042 0.158534 0.915784
O O9 0.857433 0.251663 0.939468
O O10 0.063309 0.136212 0.015758
O O11 0.723482 0.905956 0.147427
O O12 0.360767 0.921417 0.001437
O O13 0.619467 0.819627 0.055843
O O14 0.819299 0.034209 0.514656
O O15 0.797075 0.993776 0.608505
O O16 0.946360 0.638063 0.053998
O O17 0.750000 0.750000 0.000000
O O18 0.500000 0.489335 0.250000
#
# Coordination Sequence:
#
# PCOD8137141 Si02
#       8
#     8   8   8   8   8   8   8   8
#     4  10  20  38  60  91 125 159 210 250 309 367
#     4  10  20  35  61  94 124 164 195 249 318 376
#     4  11  20  37  65  86 118 162 215 257 298 364
#     4  12  22  38  62  94 122 158 211 262 314 368
#     4  11  21  37  60  94 128 155 210 253 315 373
#     4  10  23  39  60  86 116 162 212 263 301 363
#     4  11  19  39  62  90 123 159 206 256 312 366
#     4  11  22  36  55  94 133 163 193 249 320 375
#
# _framework density 20.099979999999999
#
# number of rings (size 3 to 8) (size 9 to 14) (size 15 to 20)
#    0.000    1.250    5.000    3.375    0.000    2.000 
#    0.000    0.000    2.750    6.750    0.000    0.000 
#    0.000    0.000    0.000    0.000    0.000    0.000 
#
# Total GULP energy -396469.199424 kJ/mol
# GULP energy per Si atom -12389.662482 kJ/mol
# Density = 2.005423 g / cm^3
# Si number density = 20.099980 Si / 1000 Ang^3
#
#
#
# Elastic Constant Matrix: (Units=GPa)
#
#
# Indices 1 2 3 4 5 6 
#
# 1 87.2998 27.9459 23.4947 -0.0001 -5.2931 0.0006
# 2 27.9459 58.1689 29.8804 -0.0002 -1.2286 0.0000
# 3 23.4947 29.8804 115.8249 0.0005 -12.8247 0.0010
# 4 -0.0001 -0.0002 0.0005 14.5002 0.0003 -2.5160
# 5 -5.2931 -1.2286 -12.8247 0.0003 38.6716 0.0009
# 6 0.0006 0.0000 0.0010 -2.5160 0.0009 36.2048
#
#
#
# Elastic Compliance Matrix: (Units=1/GPa)
#
#
# Indices 1 2 3 4 5 6 
#
# 1 0.013756 -0.006021 -0.001090 0.000000 0.001330 0.000000
# 2 -0.006021 0.022499 -0.004770 0.000001 -0.001691 0.000000
# 3 -0.001090 -0.004770 0.010435 -0.000001 0.003160 0.000000
# 4 0.000000 0.000001 -0.000001 0.069806 -0.000001 0.004851
# 5 0.001330 -0.001691 0.003160 -0.000001 0.027035 -0.000001
# 6 0.000000 0.000000 0.000000 0.004851 -0.000001 0.027958
#
#
# Mechanical properties :
#
#
# Convention : Reuss Voigt Hill
#
# Bulk Modulus (GPa) = 43.61431 47.10395 45.35913
# Shear Modulus (GPa) = 24.64351 29.87349 27.25850
#
# Velocity S-wave (km/s) = 3.50529 3.85937 3.68658
# Velocity P-wave (km/s) = 6.17483 6.58372 6.38255
#
# Compressibility (1/GPa) = 0.02292826
#
# Stress axis : x y z
#
# Youngs Moduli (GPa) = 72.69504 44.44739 95.82891
#
# Poissons Ratio (x) = 0.26761 0.10444
# Poissons Ratio (y) = 0.43769 0.45711
# Poissons Ratio (z) = 0.07923 0.21202
#
# Static dielectric constant tensor:
#      x y z
#    x 3.823910 0.000000 0.048010 
#    y 0.000000 3.794250 0.000000 
#    z 0.048010 0.000000 3.683800 
# 
# 
# High freq. dielectric constant tensor:
#      x y z
#    x 1.800560 0.000000 -0.004700 
#    y 0.000000 1.755380 0.000000 
#    z -0.004700 0.000000 1.770760 
# 
# From -- ./inp_files/266116.got.cif
#   From: 2010.06.25/outbox.cif.g09.slc.cpg/sg15_134_cif.got.tgz:266116.got - 2010.06.28 07:06:18.
