data_PCOD8137298
_publ_section_title
;
Structure prediction by ZEFSAII (Michael W. Deem and Ramdas Pophale) SiO2 
 PCOD8137298
Probable space group: C 2/C
;
_chemical_formula_sum "Si O2"
_cell_formula_units_Z 36
_cell_length_a 26.024868
_cell_length_b 8.156599
_cell_length_c 10.436596
_cell_angle_alpha 90.000000
_cell_angle_beta 52.625860
_cell_angle_gamma 90.000000
_cell_volume 1760.570996
_symmetry_space_group_name_H-M "C 2/C"
_symmetry_group_IT_number 15
_symmetry_cell_setting 'monoclinic'
loop_
_space_group_symop_operation_xyz
x,y,z
-x,y,1/2-z
-x,-y,-z
x,-y,1/2+z
1/2+x,1/2+y,z
1/2-x,1/2+y,1/2-z
1/2-x,1/2-y,-z
1/2+x,1/2-y,1/2+z
loop_
_atom_site_type_symbol
_atom_site_label
_atom_site_fract_x
_atom_site_fract_y
_atom_site_fract_z
Si Si1 0.467359 0.570714 0.924913
Si Si2 0.827289 0.869121 0.586506
Si Si3 0.000000 0.385271 0.750000
Si Si4 0.706528 0.072235 0.714479
Si Si5 0.861524 0.460160 0.933543
O O1 0.500000 0.486874 0.750000
O O2 0.479308 0.768199 0.901322
O O3 0.500000 0.500000 0.000000
O O4 0.390429 0.535758 0.043396
O O5 0.792762 0.767027 0.754409
O O6 0.848993 0.738039 0.443158
O O7 0.779091 0.002168 0.599907
O O8 0.938373 0.497435 0.807187
O O9 0.673953 0.051827 0.626760
O O10 0.665981 0.977361 0.887428
#
# Coordination Sequence:
#
# PCOD8137298 Si02
#       5
#     8   8   4   8   8
#     4   9  18  36  57  80 110 145 182 226 271 331
#     4   9  21  36  58  81 112 147 185 221 283 324
#     4   8  18  38  56  74 114 146 180 220 288 330
#     4  10  20  36  56  83 112 144 185 223 277 328
#     4   9  20  36  57  79 109 150 181 227 280 320
#
# _framework density 20.447913
#
# number of rings (size 3 to 8) (size 9 to 14) (size 15 to 20)
#    2.000    0.889    0.000    0.667    0.000    5.333 
#    0.000    2.222    0.000    0.000    0.000    0.000 
#    0.000    0.000    0.000    0.000    0.000    0.000 
#
# Total GULP energy -222998.880735 kJ/mol
# GULP energy per Si atom -12388.826707 kJ/mol
# Density = 2.040137 g / cm^3
# Si number density = 20.447913 Si / 1000 Ang^3
#
#
#
# Elastic Constant Matrix: (Units=GPa)
#
#
# Indices 1 2 3 4 5 6 
#
# 1 120.8817 17.3678 34.4954 0.0000 -17.4083 0.0000
# 2 17.3678 25.0000 2.7042 0.0000 -4.5278 0.0000
# 3 34.4954 2.7042 65.8671 0.0000 -3.7070 0.0000
# 4 0.0000 0.0000 0.0000 21.4900 0.0000 0.0402
# 5 -17.4083 -4.5278 -3.7070 0.0000 51.3942 0.0000
# 6 0.0000 0.0000 0.0000 0.0402 0.0000 17.2786
#
#
#
# Elastic Compliance Matrix: (Units=1/GPa)
#
#
# Indices 1 2 3 4 5 6 
#
# 1 0.011184 -0.006674 -0.005425 0.000000 0.002809 0.000000
# 2 -0.006674 0.044774 0.001759 0.000000 0.001811 0.000000
# 3 -0.005425 0.001759 0.017929 0.000000 -0.000389 0.000000
# 4 0.000000 0.000000 0.000000 0.046533 0.000000 -0.000108
# 5 0.002809 0.001811 -0.000389 0.000000 0.020540 0.000000
# 6 0.000000 0.000000 0.000000 -0.000108 0.000000 0.057875
#
#
# Mechanical properties :
#
#
# Convention : Reuss Voigt Hill
#
# Bulk Modulus (GPa) = 18.79448 35.65372 27.22410
# Shear Modulus (GPa) = 21.07453 28.51133 24.79293
#
# Velocity S-wave (km/s) = 3.21385 3.73814 3.48586
# Velocity P-wave (km/s) = 4.79407 6.00881 5.43548
#
# Compressibility (1/GPa) = 0.05320710
#
# Stress axis : x y z
#
# Youngs Moduli (GPa) = 89.41216 22.33421 55.77493
#
# Poissons Ratio (x) = 0.14906 0.30259
# Poissons Ratio (y) = 0.59675 -0.09811
# Poissons Ratio (z) = 0.48508 -0.03929
#
# Static dielectric constant tensor:
#      x y z
#    x 3.663370 0.000000 -0.555220 
#    y 0.000000 3.150640 0.000000 
#    z -0.555220 0.000000 4.210410 
# 
# 
# High freq. dielectric constant tensor:
#      x y z
#    x 1.802320 0.000000 -0.019710 
#    y 0.000000 1.749810 0.000000 
#    z -0.019710 0.000000 1.790860 
# 
# From -- ./inp_files/115886.got.cif
#   From: 2010.06.25/outbox.cif.g09.slc.cpg/sg15_58_cif.got.tgz:115886.got - 2010.06.28 07:06:18.
