data_PCOD8137594
_publ_section_title
;
Structure prediction by ZEFSAII (Michael W. Deem and Ramdas Pophale) SiO2 
 PCOD8137594
Probable space group: C 2/C
;
_chemical_formula_sum "Si O2"
_cell_formula_units_Z 56
_cell_length_a 12.720903
_cell_length_b 17.978664
_cell_length_c 12.451059
_cell_angle_alpha 90.000000
_cell_angle_beta 84.287541
_cell_angle_gamma 90.000000
_cell_volume 2833.476054
_symmetry_space_group_name_H-M "C 2/C"
_symmetry_group_IT_number 15
_symmetry_cell_setting 'monoclinic'
loop_
_space_group_symop_operation_xyz
x,y,z
-x,y,1/2-z
-x,-y,-z
x,-y,1/2+z
1/2+x,1/2+y,z
1/2-x,1/2+y,1/2-z
1/2-x,1/2-y,-z
1/2+x,1/2-y,1/2+z
loop_
_atom_site_type_symbol
_atom_site_label
_atom_site_fract_x
_atom_site_fract_y
_atom_site_fract_z
Si Si1 0.197512 0.254602 0.621225
Si Si2 0.219357 0.994758 0.023858
Si Si3 0.557163 0.384405 0.134891
Si Si4 0.858282 0.847766 0.024530
Si Si5 0.746552 0.718729 0.155145
Si Si6 0.889427 0.591536 0.381069
Si Si7 0.382772 0.077285 0.140224
O O1 0.250000 0.250000 0.500000
O O2 0.142494 0.177555 0.656535
O O3 0.277375 0.273271 0.713910
O O4 0.110710 0.319103 0.624172
O O5 0.302489 0.015817 0.106560
O O6 0.114641 0.956975 0.082131
O O7 0.185009 0.068072 0.962896
O O8 0.281095 0.936189 0.944255
O O9 0.500000 0.409462 0.250000
O O10 0.478022 0.349283 0.054742
O O11 0.781897 0.798573 0.106768
O O12 0.853823 0.814024 0.902558
O O13 0.841741 0.660914 0.124697
O O14 0.892327 0.557417 0.263150
O O15 0.000659 0.569794 0.427068
#
# Coordination Sequence:
#
# PCOD8137594 Si02
#       7
#     8   8   8   8   8   8   8
#     4  11  21  39  63  90 119 157 210 268 308 362
#     4  11  23  38  57  89 127 163 199 256 311 373
#     4  12  24  39  63  93 124 166 211 253 316 384
#     4  10  21  39  61  89 124 163 209 246 315 370
#     4   9  19  39  64  88 116 164 209 255 303 372
#     4  10  20  36  60  87 118 153 208 252 315 362
#     4   9  20  36  61  86 115 159 202 259 306 366
#
# _framework density 19.76371
#
# number of rings (size 3 to 8) (size 9 to 14) (size 15 to 20)
#    0.000    1.714    2.857    1.714    4.000    0.000 
#    0.000    0.714    0.000    0.000    0.000    0.000 
#    0.000    0.000    0.000    0.000    0.000    0.000 
#
# Total GULP energy -347015.739143 kJ/mol
# GULP energy per Si atom -12393.419255 kJ/mol
# Density = 1.971873 g / cm^3
# Si number density = 19.763710 Si / 1000 Ang^3
#
#
#
# Elastic Constant Matrix: (Units=GPa)
#
#
# Indices 1 2 3 4 5 6 
#
# 1 93.0019 24.3024 48.2360 0.0000 11.4030 0.0000
# 2 24.3024 101.2961 29.4609 0.0000 -1.9168 0.0000
# 3 48.2360 29.4609 117.8437 0.0000 4.6978 0.0000
# 4 0.0000 0.0000 0.0000 24.6355 0.0000 -0.5798
# 5 11.4030 -1.9168 4.6978 0.0000 38.0912 0.0000
# 6 0.0000 0.0000 0.0000 -0.5798 0.0000 24.4937
#
#
#
# Elastic Compliance Matrix: (Units=1/GPa)
#
#
# Indices 1 2 3 4 5 6 
#
# 1 0.014476 -0.002011 -0.005272 0.000000 -0.003785 0.000000
# 2 -0.002011 0.010954 -0.001971 0.000000 0.001396 0.000000
# 3 -0.005272 -0.001971 0.011132 0.000000 0.000106 0.000000
# 4 0.000000 0.000000 0.000000 0.040614 0.000000 0.000961
# 5 -0.003785 0.001396 0.000106 0.000000 0.027443 0.000000
# 6 0.000000 0.000000 0.000000 0.000961 0.000000 0.040850
#
#
# Mechanical properties :
#
#
# Convention : Reuss Voigt Hill
#
# Bulk Modulus (GPa) = 55.38770 57.34893 56.36831
# Shear Modulus (GPa) = 29.41243 31.45358 30.43301
#
# Velocity S-wave (km/s) = 3.86191 3.99367 3.92834
# Velocity P-wave (km/s) = 6.92615 7.09550 7.01134
#
# Compressibility (1/GPa) = 0.01805455
#
# Stress axis : x y z
#
# Youngs Moduli (GPa) = 69.07815 91.28863 89.82992
#
# Poissons Ratio (x) = 0.18362 0.47356
# Poissons Ratio (y) = 0.13895 0.17705
# Poissons Ratio (z) = 0.36416 0.17992
#
# Static dielectric constant tensor:
#      x y z
#    x 3.661920 0.000000 0.219270 
#    y 0.000000 3.636400 0.000000 
#    z 0.219270 0.000000 3.709740 
# 
# 
# High freq. dielectric constant tensor:
#      x y z
#    x 1.758730 0.000000 0.020590 
#    y 0.000000 1.778560 0.000000 
#    z 0.020590 0.000000 1.764060 
# 
# From -- ./inp_files/88874.got.cif
#   From: 2010.06.25/outbox.cif.g09.slc.cpg/sg15_45_cif.got.tgz:88874.got - 2010.06.28 07:06:18.
