data_PCOD8137396
_publ_section_title
;
Structure prediction by ZEFSAII (Michael W. Deem and Ramdas Pophale) SiO2 
 PCOD8137396
Probable space group: C 2/C
;
_chemical_formula_sum "Si O2"
_cell_formula_units_Z 32
_cell_length_a 10.101570
_cell_length_b 28.390792
_cell_length_c 12.281553
_cell_angle_alpha 90.000000
_cell_angle_beta 23.422763
_cell_angle_gamma 90.000000
_cell_volume 1400.136680
_symmetry_space_group_name_H-M "C 2/C"
_symmetry_group_IT_number 15
_symmetry_cell_setting 'monoclinic'
loop_
_space_group_symop_operation_xyz
x,y,z
-x,y,1/2-z
-x,-y,-z
x,-y,1/2+z
1/2+x,1/2+y,z
1/2-x,1/2+y,1/2-z
1/2-x,1/2-y,-z
1/2+x,1/2-y,1/2+z
loop_
_atom_site_type_symbol
_atom_site_label
_atom_site_fract_x
_atom_site_fract_y
_atom_site_fract_z
Si Si1 0.612133 0.842352 0.051969
Si Si2 0.193557 0.218849 0.708989
Si Si3 0.572145 0.955269 0.814979
Si Si4 0.680908 0.060535 0.769766
O O1 0.500000 0.818149 0.250000
O O2 0.413371 0.821334 0.099481
O O3 0.533748 0.897740 0.119551
O O4 0.000000 0.832522 0.750000
O O5 0.424810 0.262265 0.497952
O O6 0.000000 0.197362 0.750000
O O7 0.500000 0.934761 0.750000
O O8 0.947106 0.938907 0.559190
O O9 0.514180 0.011494 0.859888
O O10 0.326968 0.934357 0.092031
#
# Coordination Sequence:
#
# PCOD8137396 Si02
#       4
#     8   8   8   8
#     4  12  25  41  65  95 127 163 206 258 312 370
#     4  10  23  44  67  93 127 164 202 252 313 373
#     4  10  20  36  58  81 116 163 209 253 300 359
#     4  10  22  37  55  86 120 157 203 253 307 357
#
# _framework density 22.854911999999999
#
# number of rings (size 3 to 8) (size 9 to 14) (size 15 to 20)
#    0.000    1.500    0.000    4.500    0.000    9.000 
#    0.000    2.500    0.000    0.000    0.000    0.000 
#    0.000    0.000    0.000    0.000    0.000    0.000 
#
# Total GULP energy -198414.006239 kJ/mol
# GULP energy per Si atom -12400.875390 kJ/mol
# Density = 2.280289 g / cm^3
# Si number density = 22.854912 Si / 1000 Ang^3
#
#
#
# Elastic Constant Matrix: (Units=GPa)
#
#
# Indices 1 2 3 4 5 6 
#
# 1 135.4502 34.2031 43.3634 0.0002 -1.2783 0.0000
# 2 34.2031 51.9837 32.6518 0.0001 -12.5779 0.0001
# 3 43.3634 32.6518 124.8440 0.0006 0.8386 0.0000
# 4 0.0002 0.0001 0.0006 11.6357 -0.0003 -2.0451
# 5 -1.2783 -12.5779 0.8386 -0.0003 43.9350 -0.0001
# 6 0.0000 0.0001 0.0000 -2.0451 -0.0001 22.4926
#
#
#
# Elastic Compliance Matrix: (Units=1/GPa)
#
#
# Indices 1 2 3 4 5 6 
#
# 1 0.009286 -0.005238 -0.001847 0.000000 -0.001194 0.000000
# 2 -0.005238 0.028134 -0.005592 0.000000 0.008009 0.000000
# 3 -0.001847 -0.005592 0.010127 -0.000001 -0.001848 0.000000
# 4 0.000000 0.000000 -0.000001 0.087338 0.000001 0.007941
# 5 -0.001194 0.008009 -0.001848 0.000001 0.025054 0.000000
# 6 0.000000 0.000000 0.000000 0.007941 0.000000 0.045181
#
#
# Mechanical properties :
#
#
# Convention : Reuss Voigt Hill
#
# Bulk Modulus (GPa) = 45.06484 59.19051 52.12768
# Shear Modulus (GPa) = 21.01971 29.08331 25.05151
#
# Velocity S-wave (km/s) = 3.03595 3.57111 3.31435
# Velocity P-wave (km/s) = 5.66126 6.55426 6.12406
#
# Compressibility (1/GPa) = 0.02219025
#
# Stress axis : x y z
#
# Youngs Moduli (GPa) = 107.69338 35.54439 98.74884
#
# Poissons Ratio (x) = 0.18619 0.18241
# Poissons Ratio (y) = 0.56412 0.55225
# Poissons Ratio (z) = 0.19894 0.19878
#
# Static dielectric constant tensor:
#      x y z
#    x 4.244060 0.000000 0.270910 
#    y 0.000000 3.679570 0.000000 
#    z 0.270910 0.000000 4.227920 
# 
# 
# High freq. dielectric constant tensor:
#      x y z
#    x 1.915000 0.000000 0.014340 
#    y 0.000000 1.865460 0.000000 
#    z 0.014340 0.000000 1.915320 
# 
# From -- ./inp_files/81964.got.cif
#   From: 2010.06.25/outbox.cif.g09.slc.cpg/sg15_41_cif.got.tgz:81964.got - 2010.06.28 07:06:18.
