data_PCOD8137701
_publ_section_title
;
Structure prediction by ZEFSAII (Michael W. Deem and Ramdas Pophale) SiO2 
 PCOD8137701
Probable space group: C 2/C
;
_chemical_formula_sum "Si O2"
_cell_formula_units_Z 40
_cell_length_a 18.963791
_cell_length_b 7.240485
_cell_length_c 18.008908
_cell_angle_alpha 90.000000
_cell_angle_beta 46.378578
_cell_angle_gamma 90.000000
_cell_volume 1790.058224
_symmetry_space_group_name_H-M "C 2/C"
_symmetry_group_IT_number 15
_symmetry_cell_setting 'monoclinic'
loop_
_space_group_symop_operation_xyz
x,y,z
-x,y,1/2-z
-x,-y,-z
x,-y,1/2+z
1/2+x,1/2+y,z
1/2-x,1/2+y,1/2-z
1/2-x,1/2-y,-z
1/2+x,1/2-y,1/2+z
loop_
_atom_site_type_symbol
_atom_site_label
_atom_site_fract_x
_atom_site_fract_y
_atom_site_fract_z
Si Si1 0.575927 0.250964 0.129266
Si Si2 0.215727 0.311646 0.340537
Si Si3 0.695895 0.761911 0.879171
Si Si4 0.256234 0.043120 0.436854
Si Si5 0.508220 0.791772 0.517768
O O1 0.500000 0.300509 0.250000
O O2 0.640657 0.062569 0.094160
O O3 0.507311 0.226045 0.107698
O O4 0.660148 0.407329 0.055478
O O5 0.256625 0.318385 0.229209
O O6 0.208908 0.519227 0.378078
O O7 0.275059 0.186704 0.354960
O O8 0.109459 0.214103 0.412556
O O9 0.744710 0.665477 0.915159
O O10 0.583835 0.692039 0.953307
O O11 0.500000 0.000000 0.500000
#
# Coordination Sequence:
#
# PCOD8137701 Si02
#       5
#     8   8   8   8   8
#     4  10  21  39  63  88 132 171 206 259 327 376
#     4  10  20  36  61  93 124 164 206 262 316 366
#     4  11  20  38  64  93 127 160 213 263 311 372
#     4  10  22  40  62  93 126 172 207 260 321 379
#     4   9  21  38  61  92 122 159 210 258 306 375
#
# _framework density 22.345644
#
# number of rings (size 3 to 8) (size 9 to 14) (size 15 to 20)
#    0.000    2.000    2.000    1.200    2.800    3.200 
#    3.600   16.000    0.000   14.400    0.000    0.000 
#    0.000    0.000    0.000    0.000    0.000    0.000 
#
# Total GULP energy -247802.366492 kJ/mol
# GULP energy per Si atom -12390.118325 kJ/mol
# Density = 2.229478 g / cm^3
# Si number density = 22.345644 Si / 1000 Ang^3
#
#
#
# Elastic Constant Matrix: (Units=GPa)
#
#
# Indices 1 2 3 4 5 6 
#
# 1 49.0735 6.3827 -8.2292 -0.0017 -10.6847 0.0037
# 2 6.3827 60.5309 10.7878 0.0026 -5.3834 0.0009
# 3 -8.2292 10.7878 113.9579 0.0003 -3.2158 0.0003
# 4 -0.0017 0.0026 0.0003 15.6831 -0.0013 7.9585
# 5 -10.6847 -5.3834 -3.2158 -0.0013 21.5953 0.0005
# 6 0.0037 0.0009 0.0003 7.9585 0.0005 38.0359
#
#
#
# Elastic Compliance Matrix: (Units=1/GPa)
#
#
# Indices 1 2 3 4 5 6 
#
# 1 0.023487 -0.001846 0.002195 0.000006 0.011487 -0.000004
# 2 -0.001846 0.017295 -0.001682 -0.000003 0.003147 0.000000
# 3 0.002195 -0.001682 0.009150 0.000001 0.002029 0.000000
# 4 0.000006 -0.000003 0.000001 0.071337 0.000007 -0.014926
# 5 0.011487 0.003147 0.002029 0.000007 0.053077 -0.000003
# 6 -0.000004 0.000000 0.000000 -0.014926 -0.000003 0.029414
#
#
# Mechanical properties :
#
#
# Convention : Reuss Voigt Hill
#
# Bulk Modulus (GPa) = 21.15682 26.82721 23.99201
# Shear Modulus (GPa) = 22.50417 29.37093 25.93755
#
# Velocity S-wave (km/s) = 3.17692 3.62939 3.41066
# Velocity P-wave (km/s) = 4.79016 5.44012 5.12545
#
# Compressibility (1/GPa) = 0.04726609
#
# Stress axis : x y z
#
# Youngs Moduli (GPa) = 42.57689 57.82082 109.28798
#
# Poissons Ratio (x) = 0.10675 -0.23989
# Poissons Ratio (y) = 0.07860 0.18379
# Poissons Ratio (z) = -0.09346 0.09724
#
# Static dielectric constant tensor:
#      x y z
#    x 4.624190 -0.000010 -0.364360 
#    y -0.000010 3.689870 0.000000 
#    z -0.364360 0.000000 4.267460 
# 
# 
# High freq. dielectric constant tensor:
#      x y z
#    x 1.885270 0.000000 -0.003430 
#    y 0.000000 1.856570 0.000000 
#    z -0.003430 0.000000 1.885280 
# 
# From -- ./inp_files/221803.got.cif
#   From: 2010.06.25/outbox.cif.g09.slc.cpg/sg15_111_cif.got.tgz:221803.got - 2010.06.28 07:06:18.
