data_PCOD8137928
_publ_section_title
;
Structure prediction by ZEFSAII (Michael W. Deem and Ramdas Pophale) SiO2 
 PCOD8137928
Probable space group: C 2/C
;
_chemical_formula_sum "Si O2"
_cell_formula_units_Z 48
_cell_length_a 8.000524
_cell_length_b 27.781094
_cell_length_c 10.603621
_cell_angle_alpha 90.000000
_cell_angle_beta 116.010622
_cell_angle_gamma 90.000000
_cell_volume 2118.082547
_symmetry_space_group_name_H-M "C 2/C"
_symmetry_group_IT_number 15
_symmetry_cell_setting 'monoclinic'
loop_
_space_group_symop_operation_xyz
x,y,z
-x,y,1/2-z
-x,-y,-z
x,-y,1/2+z
1/2+x,1/2+y,z
1/2-x,1/2+y,1/2-z
1/2-x,1/2-y,-z
1/2+x,1/2-y,1/2+z
loop_
_atom_site_type_symbol
_atom_site_label
_atom_site_fract_x
_atom_site_fract_y
_atom_site_fract_z
Si Si1 0.629033 0.453487 0.671597
Si Si2 0.555128 0.803984 0.457274
Si Si3 0.204789 0.146693 0.256611
Si Si4 0.400012 0.287135 0.998280
Si Si5 0.610896 0.557504 0.657053
Si Si6 0.226986 0.838834 0.210343
O O1 0.500000 0.459502 0.750000
O O2 0.765775 0.408509 0.744320
O O3 0.725096 0.506470 0.688708
O O4 0.520533 0.440228 0.508243
O O5 0.639231 0.831545 0.603463
O O6 0.552006 0.746321 0.476089
O O7 0.339849 0.823039 0.372645
O O8 0.671844 0.814302 0.372996
O O9 0.204871 0.177316 0.129894
O O10 0.000000 0.147006 0.250000
O O11 0.250000 0.250000 0.000000
O O12 0.513286 0.319097 0.139696
O O13 0.500000 0.562249 0.750000
O O14 0.744451 0.603699 0.696803
#
# Coordination Sequence:
#
# PCOD8137928 Si02
#       6
#     8   8   8   8   8   8
#     4   9  18  37  65  95 124 169 225 267 328 404
#     4  11  25  39  64  92 131 173 220 264 329 392
#     4  11  21  41  68  91 124 173 226 266 318 402
#     4  12  26  42  64  93 130 174 220 277 325 386
#     4  10  20  36  66  99 128 165 218 280 332 387
#     4  11  23  42  62  95 134 167 215 272 330 397
#
# _framework density 22.662006999999999
#
# number of rings (size 3 to 8) (size 9 to 14) (size 15 to 20)
#    0.000    1.333    3.333    2.500    4.667    2.000 
#    0.000    0.833    0.000    4.000    0.000    0.000 
#    0.000    0.000    0.000    0.000    0.000    0.000 
#
# Total GULP energy -297406.534008 kJ/mol
# GULP energy per Si atom -12391.938917 kJ/mol
# Density = 2.261043 g / cm^3
# Si number density = 22.662007 Si / 1000 Ang^3
#
#
#
# Elastic Constant Matrix: (Units=GPa)
#
#
# Indices 1 2 3 4 5 6 
#
# 1 42.5334 10.1493 19.9051 0.0000 6.5150 0.0000
# 2 10.1493 204.4698 49.5665 0.0000 17.7673 0.0000
# 3 19.9051 49.5665 162.4907 0.0000 17.4231 0.0000
# 4 0.0000 0.0000 0.0000 30.5546 0.0000 -3.6516
# 5 6.5150 17.7673 17.4231 0.0000 37.3908 0.0000
# 6 0.0000 0.0000 0.0000 -3.6516 0.0000 72.8160
#
#
#
# Elastic Compliance Matrix: (Units=1/GPa)
#
#
# Indices 1 2 3 4 5 6 
#
# 1 0.025304 -0.000348 -0.002672 0.000000 -0.002999 0.000000
# 2 -0.000348 0.005411 -0.001409 0.000000 -0.001854 0.000000
# 3 -0.002672 -0.001409 0.007147 0.000000 -0.002195 0.000000
# 4 0.000000 0.000000 0.000000 0.032926 0.000000 0.001651
# 5 -0.002999 -0.001854 -0.002195 0.000000 0.029171 0.000000
# 6 0.000000 0.000000 0.000000 0.001651 0.000000 0.013816
#
#
# Mechanical properties :
#
#
# Convention : Reuss Voigt Hill
#
# Bulk Modulus (GPa) = 34.47889 63.19286 48.83587
# Shear Modulus (GPa) = 37.79316 50.14381 43.96849
#
# Velocity S-wave (km/s) = 4.08816 4.70902 4.40953
# Velocity P-wave (km/s) = 6.12630 7.58366 6.89360
#
# Compressibility (1/GPa) = 0.02900326
#
# Stress axis : x y z
#
# Youngs Moduli (GPa) = 39.51988 184.82138 139.92414
#
# Poissons Ratio (x) = 0.06426 0.37390
# Poissons Ratio (y) = 0.01374 0.19717
# Poissons Ratio (z) = 0.10560 0.26043
#
# Static dielectric constant tensor:
#      x y z
#    x 3.988260 0.000000 0.321890 
#    y 0.000000 5.018040 0.000000 
#    z 0.321890 0.000000 5.299160 
# 
# 
# High freq. dielectric constant tensor:
#      x y z
#    x 1.857300 0.000000 -0.021730 
#    y 0.000000 1.924830 0.000000 
#    z -0.021730 0.000000 1.907220 
# 
# From -- ./inp_files/80931.got.cif
#   From: 2010.06.25/outbox.cif.g09.slc.cpg/sg15_41_cif.got.tgz:80931.got - 2010.06.28 07:06:18.
