data_PCOD8137426
_publ_section_title
;
Structure prediction by ZEFSAII (Michael W. Deem and Ramdas Pophale) SiO2 
 PCOD8137426
Probable space group: C 2/C
;
_chemical_formula_sum "Si O2"
_cell_formula_units_Z 64
_cell_length_a 8.220518
_cell_length_b 13.447034
_cell_length_c 27.864239
_cell_angle_alpha 90.000000
_cell_angle_beta 78.960965
_cell_angle_gamma 90.000000
_cell_volume 3023.164873
_symmetry_space_group_name_H-M "C 2/C"
_symmetry_group_IT_number 15
_symmetry_cell_setting 'monoclinic'
loop_
_space_group_symop_operation_xyz
x,y,z
-x,y,1/2-z
-x,-y,-z
x,-y,1/2+z
1/2+x,1/2+y,z
1/2-x,1/2+y,1/2-z
1/2-x,1/2-y,-z
1/2+x,1/2-y,1/2+z
loop_
_atom_site_type_symbol
_atom_site_label
_atom_site_fract_x
_atom_site_fract_y
_atom_site_fract_z
Si Si1 0.116681 0.420197 0.517529
Si Si2 0.646181 0.505246 0.416381
Si Si3 0.204899 0.366930 0.669386
Si Si4 0.331257 0.385449 0.420280
Si Si5 0.805721 0.333206 0.353608
Si Si6 0.461363 0.808842 0.610190
Si Si7 0.693051 0.145598 0.830333
Si Si8 0.809913 0.548070 0.764385
O O1 0.276573 0.458532 0.537927
O O2 0.199962 0.357527 0.469421
O O3 0.986014 0.359960 0.557330
O O4 0.000000 0.500000 0.500000
O O5 0.656747 0.592570 0.375747
O O6 0.452327 0.474594 0.430948
O O7 0.756310 0.409280 0.398006
O O8 0.029262 0.378223 0.650034
O O9 0.222880 0.252627 0.682282
O O10 0.208834 0.433194 0.717634
O O11 0.431060 0.290264 0.398120
O O12 0.232232 0.413852 0.377212
O O13 0.728486 0.223821 0.368893
O O14 0.729014 0.377998 0.308375
O O15 0.000919 0.327055 0.339603
O O16 0.762094 0.072219 0.784356
O O17 0.000000 0.576589 0.750000
#
# Coordination Sequence:
#
# PCOD8137426 Si02
#       8
#     8   8   8   8   8   8   8   8
#     4  11  21  34  55  85 112 144 191 238 286 339
#     4   9  19  37  56  77 111 151 188 233 287 341
#     4   9  19  36  57  81 109 147 188 230 284 344
#     4  10  20  37  56  79 113 152 188 231 282 341
#     4   9  18  37  57  79 112 145 185 240 287 336
#     4   9  20  37  58  79 109 150 188 227 285 345
#     4  10  20  36  58  85 114 147 190 238 284 338
#     4   9  19  36  57  81 113 148 182 231 289 338
#
# _framework density 21.169865999999999
#
# number of rings (size 3 to 8) (size 9 to 14) (size 15 to 20)
#    0.000    2.500    0.000    1.500    0.000    3.000 
#    0.000   20.000    0.000    3.000    0.000    0.000 
#    0.000    0.000    0.000    0.000    0.000    0.000 
#
# Total GULP energy -396475.793309 kJ/mol
# GULP energy per Si atom -12389.868541 kJ/mol
# Density = 2.112168 g / cm^3
# Si number density = 21.169866 Si / 1000 Ang^3
#
#
#
# Elastic Constant Matrix: (Units=GPa)
#
#
# Indices 1 2 3 4 5 6 
#
# 1 69.6660 20.6190 41.2454 0.0000 5.8710 0.0000
# 2 20.6190 66.4225 47.2603 0.0000 6.4572 0.0000
# 3 41.2454 47.2603 148.8809 0.0000 15.9806 0.0000
# 4 0.0000 0.0000 0.0000 39.4196 0.0000 -3.5733
# 5 5.8710 6.4572 15.9806 0.0000 28.7824 0.0000
# 6 0.0000 0.0000 0.0000 -3.5733 0.0000 26.9671
#
#
#
# Elastic Compliance Matrix: (Units=1/GPa)
#
#
# Indices 1 2 3 4 5 6 
#
# 1 0.017519 -0.002543 -0.003960 0.000000 -0.000804 0.000000
# 2 -0.002543 0.019843 -0.005500 0.000000 -0.000879 0.000000
# 3 -0.003960 -0.005500 0.009933 0.000000 -0.003473 0.000000
# 4 0.000000 0.000000 0.000000 0.025676 0.000000 0.003402
# 5 -0.000804 -0.000879 -0.003473 0.000000 0.037033 0.000000
# 6 0.000000 0.000000 0.000000 0.003402 0.000000 0.037533
#
#
# Mechanical properties :
#
#
# Convention : Reuss Voigt Hill
#
# Bulk Modulus (GPa) = 42.93788 55.91322 49.42555
# Shear Modulus (GPa) = 27.88526 30.75682 29.32104
#
# Velocity S-wave (km/s) = 3.63328 3.81577 3.72565
# Velocity P-wave (km/s) = 6.15854 6.77366 6.47341
#
# Compressibility (1/GPa) = 0.02328946
#
# Stress axis : x y z
#
# Youngs Moduli (GPa) = 57.08100 50.39469 100.67849
#
# Poissons Ratio (x) = 0.12813 0.39868
# Poissons Ratio (y) = 0.14513 0.55376
# Poissons Ratio (z) = 0.22604 0.27718
#
# Static dielectric constant tensor:
#      x y z
#    x 3.832050 0.000000 -0.049190 
#    y 0.000000 3.861130 0.000000 
#    z -0.049190 0.000000 4.506280 
# 
# 
# High freq. dielectric constant tensor:
#      x y z
#    x 1.812380 0.000000 -0.000900 
#    y 0.000000 1.815420 0.000000 
#    z -0.000900 0.000000 1.841070 
# 
# From -- ./inp_files/288759.got.cif
#   From: 2010.06.25/outbox.cif.g09.slc.cpg/sg15_145_cif.got.tgz:288759.got - 2010.06.28 07:06:18.
