data_PCOD8137121
_publ_section_title
;
Structure prediction by ZEFSAII (Michael W. Deem and Ramdas Pophale) SiO2 
 PCOD8137121
Probable space group: C 2/C
;
_chemical_formula_sum "Si O2"
_cell_formula_units_Z 48
_cell_length_a 17.600201
_cell_length_b 8.387135
_cell_length_c 21.889020
_cell_angle_alpha 90.000000
_cell_angle_beta 39.084703
_cell_angle_gamma 90.000000
_cell_volume 2037.140752
_symmetry_space_group_name_H-M "C 2/C"
_symmetry_group_IT_number 15
_symmetry_cell_setting 'monoclinic'
loop_
_space_group_symop_operation_xyz
x,y,z
-x,y,1/2-z
-x,-y,-z
x,-y,1/2+z
1/2+x,1/2+y,z
1/2-x,1/2+y,1/2-z
1/2-x,1/2-y,-z
1/2+x,1/2-y,1/2+z
loop_
_atom_site_type_symbol
_atom_site_label
_atom_site_fract_x
_atom_site_fract_y
_atom_site_fract_z
Si Si1 0.037887 0.865627 0.312437
Si Si2 0.467786 0.794282 0.051900
Si Si3 0.706066 0.535732 0.295364
Si Si4 0.675568 0.503395 0.620879
Si Si5 0.559882 0.934313 0.561674
Si Si6 0.228022 0.746559 0.352765
O O1 0.928776 0.989325 0.365329
O O2 0.994734 0.686256 0.354560
O O3 0.133894 0.861769 0.196664
O O4 0.098858 0.928941 0.335220
O O5 0.357209 0.675687 0.128550
O O6 0.479608 0.904472 0.106076
O O7 0.428172 0.885071 0.016177
O O8 0.597789 0.712009 0.961762
O O9 0.790268 0.613653 0.190329
O O10 0.780058 0.414529 0.293809
O O11 0.800152 0.537197 0.507947
O O12 0.683531 0.331518 0.651369
#
# Coordination Sequence:
#
# PCOD8137121 Si02
#       6
#     8   8   8   8   8   8
#     4  10  20  38  62  84 121 165 202 243 319 361
#     4  10  22  37  57  91 126 146 202 264 304 357
#     4  11  23  37  63  89 117 160 203 258 312 374
#     4   9  21  39  59  86 123 162 201 258 297 377
#     4  10  20  35  61  87 119 160 201 250 305 368
#     4  10  22  38  59  89 117 159 205 255 315 361
#
# _framework density 23.562436999999999
#
# number of rings (size 3 to 8) (size 9 to 14) (size 15 to 20)
#    0.000    2.000    1.667    1.000    9.333    0.000 
#    0.000    3.333    3.667    2.000    0.000    0.000 
#    0.000    0.000    0.000    0.000    0.000    0.000 
#
# Total GULP energy -297320.067371 kJ/mol
# GULP energy per Si atom -12388.336140 kJ/mol
# Density = 2.350881 g / cm^3
# Si number density = 23.562437 Si / 1000 Ang^3
#
#
#
# Elastic Constant Matrix: (Units=GPa)
#
#
# Indices 1 2 3 4 5 6 
#
# 1 63.0863 32.4417 7.6378 0.0000 -1.4346 0.0000
# 2 32.4417 113.2796 32.3650 0.0000 0.5512 0.0002
# 3 7.6378 32.3650 75.3139 0.0000 -5.2267 0.0000
# 4 0.0000 0.0000 0.0000 37.7240 0.0000 0.0077
# 5 -1.4346 0.5512 -5.2267 0.0000 18.7604 0.0000
# 6 0.0000 0.0002 0.0000 0.0077 0.0000 30.4158
#
#
#
# Elastic Compliance Matrix: (Units=1/GPa)
#
#
# Indices 1 2 3 4 5 6 
#
# 1 0.018659 -0.005525 0.000604 0.000000 0.001757 0.000000
# 2 -0.005525 0.011742 -0.004629 0.000000 -0.002057 0.000000
# 3 0.000604 -0.004629 0.015518 0.000000 0.004506 0.000000
# 4 0.000000 0.000000 0.000000 0.026508 0.000000 -0.000007
# 5 0.001757 -0.002057 0.004506 0.000000 0.054754 0.000000
# 6 0.000000 0.000000 0.000000 -0.000007 0.000000 0.032878
#
#
# Mechanical properties :
#
#
# Convention : Reuss Voigt Hill
#
# Bulk Modulus (GPa) = 37.28444 44.06322 40.67383
# Shear Modulus (GPa) = 26.58172 29.32906 27.95539
#
# Velocity S-wave (km/s) = 3.36242 3.53191 3.44821
# Velocity P-wave (km/s) = 5.56170 5.94758 5.75788
#
# Compressibility (1/GPa) = 0.02682084
#
# Stress axis : x y z
#
# Youngs Moduli (GPa) = 53.59267 85.16146 64.44021
#
# Poissons Ratio (x) = 0.47050 -0.03891
# Poissons Ratio (y) = 0.29609 0.29827
# Poissons Ratio (z) = -0.03236 0.39418
#
# Static dielectric constant tensor:
#      x y z
#    x 4.244410 0.000000 -0.200640 
#    y 0.000000 4.384510 0.000000 
#    z -0.200640 0.000000 4.154990 
# 
# 
# High freq. dielectric constant tensor:
#      x y z
#    x 1.910870 0.000000 -0.021270 
#    y 0.000000 1.916920 0.000000 
#    z -0.021270 0.000000 1.935900 
# 
# From -- ./inp_files/247296.got.cif
#   From: 2010.06.25/outbox.cif.g09.slc.cpg/sg15_124_cif.got.tgz:247296.got - 2010.06.28 07:06:18.
