data_PCOD8137293
_publ_section_title
;
Structure prediction by ZEFSAII (Michael W. Deem and Ramdas Pophale) SiO2 
 PCOD8137293
Probable space group: C 2/C
;
_chemical_formula_sum "Si O2"
_cell_formula_units_Z 56
_cell_length_a 20.565558
_cell_length_b 22.812918
_cell_length_c 10.834715
_cell_angle_alpha 90.000000
_cell_angle_beta 35.535840
_cell_angle_gamma 90.000000
_cell_volume 2954.428408
_symmetry_space_group_name_H-M "C 2/C"
_symmetry_group_IT_number 15
_symmetry_cell_setting 'monoclinic'
loop_
_space_group_symop_operation_xyz
x,y,z
-x,y,1/2-z
-x,-y,-z
x,-y,1/2+z
1/2+x,1/2+y,z
1/2-x,1/2+y,1/2-z
1/2-x,1/2-y,-z
1/2+x,1/2-y,1/2+z
loop_
_atom_site_type_symbol
_atom_site_label
_atom_site_fract_x
_atom_site_fract_y
_atom_site_fract_z
Si Si1 0.375114 0.021816 0.680527
Si Si2 0.282234 0.142139 0.787815
Si Si3 0.621080 0.376931 0.755018
Si Si4 0.632330 0.611147 0.806182
Si Si5 0.596684 0.739805 0.423983
Si Si6 0.755227 0.010543 0.364421
Si Si7 0.636741 0.718033 0.645473
O O1 0.375826 0.091648 0.656012
O O2 0.500000 0.000000 0.500000
O O3 0.313984 0.992028 0.656981
O O4 0.320365 0.007505 0.896816
O O5 0.228837 0.143767 0.735104
O O6 0.342590 0.203105 0.724151
O O7 0.177835 0.125599 0.034594
O O8 0.650228 0.315496 0.773459
O O9 0.673426 0.429888 0.753561
O O10 0.488876 0.385340 0.943030
O O11 0.659078 0.542973 0.751488
O O12 0.636592 0.647478 0.670913
O O13 0.614322 0.729587 0.539427
O O14 0.462081 0.745115 0.614633
O O15 0.750000 0.750000 0.500000
#
# Coordination Sequence:
#
# PCOD8137293 Si02
#       7
#     8   8   8   8   8   8   8
#     4  10  22  40  59  84 117 155 201 240 294 344
#     4  10  20  38  58  82 113 151 192 235 287 353
#     4  10  21  37  57  84 117 146 187 240 291 349
#     4  10  20  36  60  84 112 152 189 235 295 344
#     4  10  21  36  57  84 112 151 188 236 291 339
#     4  10  22  38  60  87 116 153 194 244 291 354
#     4  10  20  36  56  82 116 144 194 239 277 345
#
# _framework density 18.954597
#
# number of rings (size 3 to 8) (size 9 to 14) (size 15 to 20)
#    0.000    2.000    1.429    1.714    2.000    1.143 
#    2.571    1.429    0.000    0.000    0.000    0.000 
#    0.000    0.000    0.000    0.000    0.000    0.000 
#
# Total GULP energy -347058.408336 kJ/mol
# GULP energy per Si atom -12394.943155 kJ/mol
# Density = 1.891146 g / cm^3
# Si number density = 18.954597 Si / 1000 Ang^3
#
#
#
# Elastic Constant Matrix: (Units=GPa)
#
#
# Indices 1 2 3 4 5 6 
#
# 1 69.0806 42.3181 37.5483 0.0000 -7.0859 0.0000
# 2 42.3181 153.3723 54.8728 0.0000 -19.7684 0.0000
# 3 37.5483 54.8728 90.5359 -0.0003 -18.8826 0.0000
# 4 0.0000 0.0000 -0.0003 32.7896 0.0001 -0.5593
# 5 -7.0859 -19.7684 -18.8826 0.0001 27.9085 0.0000
# 6 0.0000 0.0000 0.0000 -0.5593 0.0000 28.5218
#
#
#
# Elastic Compliance Matrix: (Units=1/GPa)
#
#
# Indices 1 2 3 4 5 6 
#
# 1 0.019947 -0.003372 -0.006602 0.000000 -0.001791 0.000000
# 2 -0.003372 0.009101 -0.003436 0.000000 0.003265 0.000000
# 3 -0.006602 -0.003436 0.017475 0.000000 0.007713 0.000000
# 4 0.000000 0.000000 0.000000 0.030508 0.000000 0.000598
# 5 -0.001791 0.003265 0.007713 0.000000 0.042908 0.000000
# 6 0.000000 0.000000 0.000000 0.000598 0.000000 0.035073
#
#
# Mechanical properties :
#
#
# Convention : Reuss Voigt Hill
#
# Bulk Modulus (GPa) = 50.75990 64.71858 57.73924
# Shear Modulus (GPa) = 26.53942 29.72728 28.13335
#
# Velocity S-wave (km/s) = 3.74593 3.96453 3.85678
# Velocity P-wave (km/s) = 6.74886 7.42797 7.09654
#
# Compressibility (1/GPa) = 0.01970059
#
# Stress axis : x y z
#
# Youngs Moduli (GPa) = 50.13398 109.87967 57.22515
#
# Poissons Ratio (x) = 0.37056 0.37781
# Poissons Ratio (y) = 0.16907 0.19664
# Poissons Ratio (z) = 0.33099 0.37758
#
# Static dielectric constant tensor:
#      x y z
#    x 3.254090 0.000000 0.065010 
#    y 0.000000 3.968940 0.000000 
#    z 0.065010 0.000000 3.540220 
# 
# 
# High freq. dielectric constant tensor:
#      x y z
#    x 1.734580 0.000000 -0.002370 
#    y 0.000000 1.744130 0.000000 
#    z -0.002370 0.000000 1.743060 
# 
# From -- ./inp_files/90912.got.cif
#   From: 2010.06.25/outbox.cif.g09.slc.cpg/sg15_46_cif.got.tgz:90912.got - 2010.06.28 07:06:18.
