data_PCOD8137738
_publ_section_title
;
Structure prediction by ZEFSAII (Michael W. Deem and Ramdas Pophale) SiO2 
 PCOD8137738
Probable space group: C 2/C
;
_chemical_formula_sum "Si O2"
_cell_formula_units_Z 48
_cell_length_a 11.828366
_cell_length_b 13.811481
_cell_length_c 14.413066
_cell_angle_alpha 90.000000
_cell_angle_beta 99.772004
_cell_angle_gamma 90.000000
_cell_volume 2320.459644
_symmetry_space_group_name_H-M "C 2/C"
_symmetry_group_IT_number 15
_symmetry_cell_setting 'monoclinic'
loop_
_space_group_symop_operation_xyz
x,y,z
-x,y,1/2-z
-x,-y,-z
x,-y,1/2+z
1/2+x,1/2+y,z
1/2-x,1/2+y,1/2-z
1/2-x,1/2-y,-z
1/2+x,1/2-y,1/2+z
loop_
_atom_site_type_symbol
_atom_site_label
_atom_site_fract_x
_atom_site_fract_y
_atom_site_fract_z
Si Si1 0.499640 0.489858 0.647512
Si Si2 0.751816 0.441967 0.633565
Si Si3 0.582545 0.695242 0.443246
Si Si4 0.135326 0.740653 0.284144
Si Si5 0.878460 0.156435 0.530293
Si Si6 0.236979 0.337420 0.369777
O O1 0.500000 0.535397 0.750000
O O2 0.624227 0.446514 0.653257
O O3 0.412640 0.401080 0.619871
O O4 0.470593 0.574159 0.571858
O O5 0.828679 0.372785 0.710170
O O6 0.736096 0.392156 0.529631
O O7 0.802473 0.550296 0.639690
O O8 0.455135 0.718431 0.467259
O O9 0.670141 0.681950 0.539091
O O10 0.620414 0.781381 0.379875
O O11 0.167194 0.782878 0.389521
O O12 0.207561 0.801004 0.218944
O O13 0.000000 0.748505 0.250000
#
# Coordination Sequence:
#
# PCOD8137738 Si02
#       6
#     8   8   8   8   8   8
#     4  11  19  35  62  95 117 152 201 256 295 349
#     4  11  22  39  60  91 119 155 205 252 296 356
#     4  10  20  36  62  87 120 154 195 246 303 353
#     4  12  24  40  60  88 124 164 199 244 300 365
#     4  11  20  40  62  90 119 156 202 257 297 352
#     4  11  21  40  61  87 120 160 199 241 302 358
#
# _framework density 20.685555999999998
#
# number of rings (size 3 to 8) (size 9 to 14) (size 15 to 20)
#    0.000    1.000    5.000    4.000    0.000    0.000 
#    0.000    5.000    0.000    0.000    0.000    0.000 
#    0.000    0.000    0.000    0.000    0.000    0.000 
#
# Total GULP energy -297474.205076 kJ/mol
# GULP energy per Si atom -12394.758545 kJ/mol
# Density = 2.063847 g / cm^3
# Si number density = 20.685556 Si / 1000 Ang^3
#
#
#
# Elastic Constant Matrix: (Units=GPa)
#
#
# Indices 1 2 3 4 5 6 
#
# 1 60.0017 55.9143 32.4730 0.0000 -17.7901 0.0000
# 2 55.9143 144.0950 36.5958 0.0000 -13.4029 0.0000
# 3 32.4730 36.5958 78.2530 0.0000 -17.2514 0.0000
# 4 0.0000 0.0000 0.0000 32.7583 0.0000 -0.8961
# 5 -17.7901 -13.4029 -17.2514 0.0000 20.0113 0.0000
# 6 0.0000 0.0000 0.0000 -0.8961 0.0000 29.2693
#
#
#
# Elastic Compliance Matrix: (Units=1/GPa)
#
#
# Indices 1 2 3 4 5 6 
#
# 1 0.035106 -0.010437 -0.005368 0.000000 0.019591 0.000000
# 2 -0.010437 0.011088 -0.001559 0.000000 -0.003196 0.000000
# 3 -0.005368 -0.001559 0.017845 0.000000 0.009567 0.000000
# 4 0.000000 0.000000 0.000000 0.030552 0.000000 0.000935
# 5 0.019591 -0.003196 0.009567 0.000000 0.073496 0.000000
# 6 0.000000 0.000000 0.000000 0.000935 0.000000 0.034194
#
#
# Mechanical properties :
#
#
# Convention : Reuss Voigt Hill
#
# Bulk Modulus (GPa) = 34.11657 59.14620 46.63139
# Shear Modulus (GPa) = 20.26090 26.89889 23.57989
#
# Velocity S-wave (km/s) = 3.13304 3.60998 3.37993
# Velocity P-wave (km/s) = 5.44212 6.78461 6.15011
#
# Compressibility (1/GPa) = 0.02931127
#
# Stress axis : x y z
#
# Youngs Moduli (GPa) = 28.48511 90.18378 56.03786
#
# Poissons Ratio (x) = 0.94123 0.30082
# Poissons Ratio (y) = 0.29729 0.08737
# Poissons Ratio (z) = 0.15291 0.14061
#
# Static dielectric constant tensor:
#      x y z
#    x 3.584180 0.000000 -0.041880 
#    y 0.000000 4.022900 0.000000 
#    z -0.041880 0.000000 4.329870 
# 
# 
# High freq. dielectric constant tensor:
#      x y z
#    x 1.786250 0.000000 -0.004090 
#    y 0.000000 1.813000 0.000000 
#    z -0.004090 0.000000 1.817010 
# 
# From -- ./inp_files/152112.got.cif
#   From: 2010.06.25/outbox.cif.g09.slc.cpg/sg15_77_cif.got.tgz:152112.got - 2010.06.28 07:06:18.
