data_PCOD8137033
_publ_section_title
;
Structure prediction by ZEFSAII (Michael W. Deem and Ramdas Pophale) SiO2 
 PCOD8137033
Probable space group: C 2/C
;
_chemical_formula_sum "Si O2"
_cell_formula_units_Z 44
_cell_length_a 5.435537
_cell_length_b 16.817099
_cell_length_c 22.100081
_cell_angle_alpha 90.000000
_cell_angle_beta 101.779280
_cell_angle_gamma 90.000000
_cell_volume 1977.625455
_symmetry_space_group_name_H-M "C 2/C"
_symmetry_group_IT_number 15
_symmetry_cell_setting 'monoclinic'
loop_
_space_group_symop_operation_xyz
x,y,z
-x,y,1/2-z
-x,-y,-z
x,-y,1/2+z
1/2+x,1/2+y,z
1/2-x,1/2+y,1/2-z
1/2-x,1/2-y,-z
1/2+x,1/2-y,1/2+z
loop_
_atom_site_type_symbol
_atom_site_label
_atom_site_fract_x
_atom_site_fract_y
_atom_site_fract_z
Si Si1 0.405989 0.414738 0.347200
Si Si2 0.500000 0.299968 0.750000
Si Si3 0.022138 0.906256 0.013409
Si Si4 0.704891 0.434582 0.833098
Si Si5 0.500000 0.299984 0.250000
Si Si6 0.481451 0.083791 0.464368
Si Si7 0.000000 0.520224 0.750000
O O1 0.395614 0.382818 0.414689
O O2 0.525595 0.502098 0.356125
O O3 0.559299 0.355086 0.311425
O O4 0.125273 0.422698 0.306349
O O5 0.559053 0.352638 0.812737
O O6 0.250747 0.250311 0.752070
O O7 0.239954 0.869950 0.980835
O O8 0.745212 0.869045 0.986357
O O9 0.000000 0.000000 0.000000
O O10 0.940395 0.423528 0.890193
O O11 0.793862 0.465070 0.771779
O O12 0.500000 0.000000 0.500000
#
# Coordination Sequence:
#
# PCOD8137033 Si02
#       7
#     8   4   8   8   4   8   4
#     4  12  23  39  70  98 130 171 225 285 326 391
#     4  12  28  46  61  95 142 186 218 266 340 408
#     4  10  20  35  59 101 127 155 204 282 337 374
#     4  12  23  39  70  98 130 171 225 285 326 391
#     4  12  28  46  61  95 142 186 218 266 340 408
#     4  10  20  35  59 101 127 155 204 282 337 374
#     4  12  20  36  64 108 124 162 226 292 330 382
#
# _framework density 22.248902999999999
#
# number of rings (size 3 to 8) (size 9 to 14) (size 15 to 20)
#    0.000    0.727    7.273    3.273    0.000    0.000 
#    0.000    0.000    0.000    6.545    0.000    0.000 
#    0.000    0.000    0.000    0.000    0.000    0.000 
#
# Total GULP energy -272744.851243 kJ/mol
# GULP energy per Si atom -12397.493238 kJ/mol
# Density = 2.219826 g / cm^3
# Si number density = 22.248903 Si / 1000 Ang^3
#
#
#
# Elastic Constant Matrix: (Units=GPa)
#
#
# Indices 1 2 3 4 5 6 
#
# 1 177.0662 30.3841 32.9063 0.0000 12.7472 0.0000
# 2 30.3841 66.9234 21.4568 0.0000 4.5955 0.0000
# 3 32.9063 21.4568 135.3492 0.0000 25.4304 0.0000
# 4 0.0000 0.0000 0.0000 6.5429 0.0000 -1.7246
# 5 12.7472 4.5955 25.4304 0.0000 46.6843 0.0000
# 6 0.0000 0.0000 0.0000 -1.7246 0.0000 28.3844
#
#
#
# Elastic Compliance Matrix: (Units=1/GPa)
#
#
# Indices 1 2 3 4 5 6 
#
# 1 0.006324 -0.002497 -0.000962 0.000000 -0.000957 0.000000
# 2 -0.002497 0.016730 -0.002076 0.000000 0.000166 0.000000
# 3 -0.000962 -0.002076 0.008760 0.000000 -0.004305 0.000000
# 4 0.000000 0.000000 0.000000 0.155326 0.000000 0.009437
# 5 -0.000957 0.000166 -0.004305 0.000000 0.024010 0.000000
# 6 0.000000 0.000000 0.000000 0.009437 0.000000 0.035804
#
#
# Mechanical properties :
#
#
# Convention : Reuss Voigt Hill
#
# Bulk Modulus (GPa) = 48.20664 60.98147 54.59406
# Shear Modulus (GPa) = 18.87224 35.96176 27.41700
#
# Velocity S-wave (km/s) = 2.91560 4.02473 3.51420
# Velocity P-wave (km/s) = 5.74877 7.00473 6.40760
#
# Compressibility (1/GPa) = 0.02074403
#
# Stress axis : x y z
#
# Youngs Moduli (GPa) = 158.13495 59.77128 114.15357
#
# Poissons Ratio (x) = 0.14925 0.10979
# Poissons Ratio (y) = 0.39486 0.23703
# Poissons Ratio (z) = 0.15209 0.12411
#
# Static dielectric constant tensor:
#      x y z
#    x 5.494520 0.000000 0.145360 
#    y 0.000000 3.566580 0.000000 
#    z 0.145360 0.000000 4.153630 
# 
# 
# High freq. dielectric constant tensor:
#      x y z
#    x 1.898280 0.000000 0.009030 
#    y 0.000000 1.810770 0.000000 
#    z 0.009030 0.000000 1.887450 
# 
# From -- ./inp_files/226943.got.cif
#   From: 2010.06.25/outbox.cif.g09.slc.cpg/sg15_114_cif.got.tgz:226943.got - 2010.06.28 07:06:18.
