data_PCOD8137200
_publ_section_title
;
Structure prediction by ZEFSAII (Michael W. Deem and Ramdas Pophale) SiO2 
 PCOD8137200
Probable space group: C 2/C
;
_chemical_formula_sum "Si O2"
_cell_formula_units_Z 56
_cell_length_a 11.851233
_cell_length_b 17.808228
_cell_length_c 13.310588
_cell_angle_alpha 90.000000
_cell_angle_beta 76.910262
_cell_angle_gamma 90.000000
_cell_volume 2736.199880
_symmetry_space_group_name_H-M "C 2/C"
_symmetry_group_IT_number 15
_symmetry_cell_setting 'monoclinic'
loop_
_space_group_symop_operation_xyz
x,y,z
-x,y,1/2-z
-x,-y,-z
x,-y,1/2+z
1/2+x,1/2+y,z
1/2-x,1/2+y,1/2-z
1/2-x,1/2-y,-z
1/2+x,1/2-y,1/2+z
loop_
_atom_site_type_symbol
_atom_site_label
_atom_site_fract_x
_atom_site_fract_y
_atom_site_fract_z
Si Si1 0.796714 0.333658 0.981839
Si Si2 0.599782 0.677242 0.995933
Si Si3 0.180723 0.049240 0.641829
Si Si4 0.882244 0.123551 0.135647
Si Si5 0.734870 0.618245 0.137824
Si Si6 0.458956 0.196281 0.144352
Si Si7 0.923557 0.956885 0.129031
O O1 0.741381 0.366991 0.892182
O O2 0.934506 0.334550 0.941782
O O3 0.750000 0.250000 0.000000
O O4 0.764864 0.384846 0.084513
O O5 0.600173 0.733371 0.901229
O O6 0.621722 0.594006 0.950826
O O7 0.476051 0.684517 0.078535
O O8 0.704576 0.680447 0.056960
O O9 0.172270 0.051327 0.763786
O O10 0.052713 0.069373 0.629692
O O11 0.228972 0.967484 0.598801
O O12 0.865772 0.128668 0.258413
O O13 0.931262 0.042787 0.092293
O O14 0.860543 0.632406 0.161727
O O15 0.500000 0.217124 0.250000
#
# Coordination Sequence:
#
# PCOD8137200 Si02
#       7
#     8   8   8   8   8   8   8
#     4  12  23  40  65  92 125 166 216 254 314 377
#     4  12  22  38  66  95 126 159 209 265 323 367
#     4  10  21  37  64  95 126 163 208 261 309 374
#     4  11  20  37  63  94 122 160 200 264 318 370
#     4  11  24  42  62  93 125 166 214 256 313 380
#     4  12  27  43  61  89 129 176 210 253 315 383
#     4  10  20  35  64  99 127 148 206 271 323 355
#
# _framework density 20.466339999999999
#
# number of rings (size 3 to 8) (size 9 to 14) (size 15 to 20)
#    0.000    0.857    5.714    2.143    4.000    0.571 
#    0.000    0.000    0.000    0.000    0.000    0.000 
#    0.000    0.000    0.000    0.000    0.000    0.000 
#
# Total GULP energy -347081.958815 kJ/mol
# GULP energy per Si atom -12395.784243 kJ/mol
# Density = 2.041976 g / cm^3
# Si number density = 20.466340 Si / 1000 Ang^3
#
#
#
# Elastic Constant Matrix: (Units=GPa)
#
#
# Indices 1 2 3 4 5 6 
#
# 1 96.3777 25.3760 29.6729 0.0000 -0.7564 0.0000
# 2 25.3760 78.9454 46.1647 0.0000 -4.3698 0.0000
# 3 29.6729 46.1647 80.2548 0.0000 1.0392 0.0000
# 4 0.0000 0.0000 0.0000 31.4734 0.0000 -2.8162
# 5 -0.7564 -4.3698 1.0392 0.0000 34.7439 0.0000
# 6 0.0000 0.0000 0.0000 -2.8162 0.0000 23.3295
#
#
#
# Elastic Compliance Matrix: (Units=1/GPa)
#
#
# Indices 1 2 3 4 5 6 
#
# 1 0.011893 -0.001874 -0.003321 0.000000 0.000123 0.000000
# 2 -0.001874 0.019645 -0.010643 0.000000 0.002748 0.000000
# 3 -0.003321 -0.010643 0.019836 0.000000 -0.002004 0.000000
# 4 0.000000 0.000000 0.000000 0.032120 0.000000 0.003877
# 5 0.000123 0.002748 -0.002004 0.000000 0.029190 0.000000
# 6 0.000000 0.000000 0.000000 0.003877 0.000000 0.043332
#
#
# Mechanical properties :
#
#
# Convention : Reuss Voigt Hill
#
# Bulk Modulus (GPa) = 50.76581 50.88946 50.82764
# Shear Modulus (GPa) = 25.73890 28.20031 26.96960
#
# Velocity S-wave (km/s) = 3.55014 3.71602 3.63403
# Velocity P-wave (km/s) = 6.45469 6.58260 6.51896
#
# Compressibility (1/GPa) = 0.01969830
#
# Stress axis : x y z
#
# Youngs Moduli (GPa) = 84.08570 50.90279 50.41283
#
# Poissons Ratio (x) = 0.09540 0.16740
# Poissons Ratio (y) = 0.15759 0.53655
# Poissons Ratio (z) = 0.27922 0.54177
#
# Static dielectric constant tensor:
#      x y z
#    x 3.809850 0.000000 0.056030 
#    y 0.000000 3.568100 0.000000 
#    z 0.056030 0.000000 3.889700 
# 
# 
# High freq. dielectric constant tensor:
#      x y z
#    x 1.784890 0.000000 0.006090 
#    y 0.000000 1.786070 0.000000 
#    z 0.006090 0.000000 1.815580 
# 
# From -- ./inp_files/145552.got.cif
#   From: 2010.06.25/outbox.cif.g09.slc.cpg/sg15_73_cif.got.tgz:145552.got - 2010.06.28 07:06:18.
