data_PCOD8137106
_publ_section_title
;
Structure prediction by ZEFSAII (Michael W. Deem and Ramdas Pophale) SiO2 
 PCOD8137106
Probable space group: C 2/C
;
_chemical_formula_sum "Si O2"
_cell_formula_units_Z 56
_cell_length_a 22.026841
_cell_length_b 20.112817
_cell_length_c 5.430423
_cell_angle_alpha 90.000000
_cell_angle_beta 88.300510
_cell_angle_gamma 90.000000
_cell_volume 2404.737641
_symmetry_space_group_name_H-M "C 2/C"
_symmetry_group_IT_number 15
_symmetry_cell_setting 'monoclinic'
loop_
_space_group_symop_operation_xyz
x,y,z
-x,y,1/2-z
-x,-y,-z
x,-y,1/2+z
1/2+x,1/2+y,z
1/2-x,1/2+y,1/2-z
1/2-x,1/2-y,-z
1/2+x,1/2-y,1/2+z
loop_
_atom_site_type_symbol
_atom_site_label
_atom_site_fract_x
_atom_site_fract_y
_atom_site_fract_z
Si Si1 0.428381 0.032771 0.732684
Si Si2 0.061437 0.210891 0.349295
Si Si3 0.214886 0.292498 0.805081
Si Si4 0.500000 0.800782 0.750000
Si Si5 0.000000 0.959897 0.250000
Si Si6 0.820165 0.834395 0.474289
Si Si7 0.600149 0.836389 0.064106
Si Si8 0.132539 0.957131 0.247238
O O1 0.500000 0.028147 0.750000
O O2 0.401655 0.998466 0.490445
O O3 0.404800 0.109193 0.719529
O O4 0.043216 0.253214 0.587578
O O5 0.115183 0.157986 0.389747
O O6 0.000000 0.175083 0.250000
O O7 0.089332 0.261075 0.147355
O O8 0.180476 0.239975 0.634610
O O9 0.261414 0.340635 0.655367
O O10 0.166046 0.341504 0.931732
O O11 0.250000 0.250000 0.000000
O O12 0.543872 0.851956 0.888008
O O13 0.935063 0.921998 0.253454
O O14 0.000000 0.000000 0.500000
O O15 0.819801 0.895442 0.278728
O O16 0.142687 0.994899 0.506076
#
# Coordination Sequence:
#
# PCOD8137106 Si02
#       8
#     8   8   8   4   4   8   8   8
#     4  10  23  39  62  94 133 179 219 267 337 412
#     4  10  21  37  61  99 126 164 214 279 350 398
#     4  11  24  44  68  95 128 179 228 282 345 399
#     4  10  20  35  60  94 126 160 203 280 346 388
#     4   8  16  37  60  92 128 172 217 260 326 398
#     4  11  24  43  67  98 132 179 228 282 341 410
#     4  11  22  39  65  91 132 167 221 276 338 401
#     4  10  23  43  69  98 139 185 227 277 340 406
#
# _framework density 23.287362999999999
#
# number of rings (size 3 to 8) (size 9 to 14) (size 15 to 20)
#    0.000    1.714    2.857    1.286    7.000    0.571 
#    7.714    1.429    0.000    0.000    0.000    0.000 
#    0.000    0.000    0.000    0.000    0.000    0.000 
#
# Total GULP energy -346942.910689 kJ/mol
# GULP energy per Si atom -12390.818239 kJ/mol
# Density = 2.323436 g / cm^3
# Si number density = 23.287363 Si / 1000 Ang^3
#
#
#
# Elastic Constant Matrix: (Units=GPa)
#
#
# Indices 1 2 3 4 5 6 
#
# 1 97.6671 20.4187 27.9211 0.0000 -17.9275 0.0000
# 2 20.4187 48.3273 8.0841 0.0000 -11.7471 0.0000
# 3 27.9211 8.0841 108.7705 0.0000 -13.4958 0.0000
# 4 0.0000 0.0000 0.0000 31.3016 0.0000 -12.0890
# 5 -17.9275 -11.7471 -13.4958 0.0000 32.4586 0.0000
# 6 0.0000 0.0000 0.0000 -12.0890 0.0000 23.3285
#
#
#
# Elastic Compliance Matrix: (Units=1/GPa)
#
#
# Indices 1 2 3 4 5 6 
#
# 1 0.012549 -0.003794 -0.002372 0.000000 0.004572 0.000000
# 2 -0.003794 0.023886 0.000012 0.000000 0.006554 0.000000
# 3 -0.002372 0.000012 0.010164 0.000000 0.002920 0.000000
# 4 0.000000 0.000000 0.000000 0.039941 0.000000 0.020698
# 5 0.004572 0.006554 0.002920 0.000000 0.036920 0.000000
# 6 0.000000 0.000000 0.000000 0.020698 0.000000 0.053592
#
#
# Mechanical properties :
#
#
# Convention : Reuss Voigt Hill
#
# Bulk Modulus (GPa) = 29.16211 40.84585 35.00398
# Shear Modulus (GPa) = 24.90144 30.64046 27.77095
#
# Velocity S-wave (km/s) = 3.27358 3.63127 3.45705
# Velocity P-wave (km/s) = 5.18057 5.92954 5.56767
#
# Compressibility (1/GPa) = 0.03429107
#
# Stress axis : x y z
#
# Youngs Moduli (GPa) = 79.68500 41.86470 98.38610
#
# Poissons Ratio (x) = 0.15884 0.23339
# Poissons Ratio (y) = 0.30233 -0.00116
# Poissons Ratio (z) = 0.18902 -0.00050
#
# Static dielectric constant tensor:
#      x y z
#    x 4.299990 0.000000 -0.208500 
#    y 0.000000 4.218210 0.000000 
#    z -0.208500 0.000000 4.482350 
# 
# 
# High freq. dielectric constant tensor:
#      x y z
#    x 1.911040 0.000000 -0.014890 
#    y 0.000000 1.888840 0.000000 
#    z -0.014890 0.000000 1.936510 
# 
# From -- ./inp_files/15655.got.cif
#   From: 2010.06.25/outbox.cif.g09.slc.cpg/sg15_8_cif.got.tgz:15655.got - 2010.06.28 07:06:18.
