data_PCOD8137361
_publ_section_title
;
Structure prediction by ZEFSAII (Michael W. Deem and Ramdas Pophale) SiO2 
 PCOD8137361
Probable space group: C 2/C
;
_chemical_formula_sum "Si O2"
_cell_formula_units_Z 56
_cell_length_a 29.289205
_cell_length_b 12.417389
_cell_length_c 8.574076
_cell_angle_alpha 90.000000
_cell_angle_beta 121.521792
_cell_angle_gamma 90.000000
_cell_volume 2658.212645
_symmetry_space_group_name_H-M "C 2/C"
_symmetry_group_IT_number 15
_symmetry_cell_setting 'monoclinic'
loop_
_space_group_symop_operation_xyz
x,y,z
-x,y,1/2-z
-x,-y,-z
x,-y,1/2+z
1/2+x,1/2+y,z
1/2-x,1/2+y,1/2-z
1/2-x,1/2-y,-z
1/2+x,1/2-y,1/2+z
loop_
_atom_site_type_symbol
_atom_site_label
_atom_site_fract_x
_atom_site_fract_y
_atom_site_fract_z
Si Si1 0.165738 0.363017 0.069191
Si Si2 0.560566 0.379219 0.877306
Si Si3 0.372962 0.508560 0.744403
Si Si4 0.308289 0.622730 0.370934
Si Si5 0.946060 0.425240 0.735776
Si Si6 0.807702 0.571526 0.221263
Si Si7 0.080676 0.364174 0.473186
O O1 0.185533 0.247390 0.160486
O O2 0.179359 0.444974 0.233663
O O3 0.102271 0.356838 0.925276
O O4 0.196824 0.402679 0.969709
O O5 0.500000 0.421006 0.750000
O O6 0.596048 0.417534 0.796015
O O7 0.583940 0.427299 0.077754
O O8 0.560543 0.250800 0.881769
O O9 0.344039 0.596444 0.585390
O O10 0.326889 0.450591 0.760953
O O11 0.246321 0.601998 0.288793
O O12 0.950432 0.403848 0.927577
O O13 0.934541 0.552148 0.690356
O O14 0.000000 0.384934 0.750000
O O15 0.855559 0.640617 0.384132
#
# Coordination Sequence:
#
# PCOD8137361 Si02
#       7
#     8   8   8   8   8   8   8
#     4  10  22  37  58  85 117 155 196 236 290 348
#     4  11  23  43  63  84 117 156 193 245 295 338
#     4  10  24  40  61  91 114 147 205 241 283 356
#     4  11  22  41  62  86 120 155 189 245 294 336
#     4  10  20  36  57  86 121 152 193 243 286 345
#     4  10  21  38  59  87 120 154 194 238 285 347
#     4  10  22  37  59  89 119 155 196 234 290 354
#
# _framework density 21.066789
#
# number of rings (size 3 to 8) (size 9 to 14) (size 15 to 20)
#    0.000    1.714    0.000    4.286    0.000    8.000 
#    0.000    5.714    0.000    0.000    0.000    0.000 
#    0.000    0.000    0.000    0.000    0.000    0.000 
#
# Total GULP energy -347368.626231 kJ/mol
# GULP energy per Si atom -12406.022365 kJ/mol
# Density = 2.101884 g / cm^3
# Si number density = 21.066789 Si / 1000 Ang^3
#
#
#
# Elastic Constant Matrix: (Units=GPa)
#
#
# Indices 1 2 3 4 5 6 
#
# 1 142.1775 26.4051 32.4905 0.0000 8.9012 0.0000
# 2 26.4051 93.6038 9.7130 0.0000 0.8140 0.0000
# 3 32.4905 9.7130 39.3887 0.0000 2.9142 0.0000
# 4 0.0000 0.0000 0.0000 23.7715 0.0000 -4.5245
# 5 8.9012 0.8140 2.9142 0.0000 23.9129 0.0000
# 6 0.0000 0.0000 0.0000 -4.5245 0.0000 23.5878
#
#
#
# Elastic Compliance Matrix: (Units=1/GPa)
#
#
# Indices 1 2 3 4 5 6 
#
# 1 0.009099 -0.001832 -0.006870 0.000000 -0.002488 0.000000
# 2 -0.001832 0.011333 -0.001317 0.000000 0.000457 0.000000
# 3 -0.006870 -0.001317 0.031471 0.000000 -0.001233 0.000000
# 4 0.000000 0.000000 0.000000 0.043661 0.000000 0.008375
# 5 -0.002488 0.000457 -0.001233 0.000000 0.042879 0.000000
# 6 0.000000 0.000000 0.000000 0.008375 0.000000 0.044001
#
#
# Mechanical properties :
#
#
# Convention : Reuss Voigt Hill
#
# Bulk Modulus (GPa) = 31.38279 45.82081 38.60180
# Shear Modulus (GPa) = 23.46263 28.02519 25.74391
#
# Velocity S-wave (km/s) = 3.34087 3.65129 3.49952
# Velocity P-wave (km/s) = 5.45995 6.29073 5.89001
#
# Compressibility (1/GPa) = 0.03186460
#
# Stress axis : x y z
#
# Youngs Moduli (GPa) = 109.89692 88.23850 31.77549
#
# Poissons Ratio (x) = 0.16169 0.21830
# Poissons Ratio (y) = 0.20137 0.04185
# Poissons Ratio (z) = 0.75499 0.11620
#
# Static dielectric constant tensor:
#      x y z
#    x 3.975320 0.000000 0.036200 
#    y 0.000000 3.653180 0.000000 
#    z 0.036200 0.000000 3.812000 
# 
# 
# High freq. dielectric constant tensor:
#      x y z
#    x 1.840290 0.000000 0.004430 
#    y 0.000000 1.819760 0.000000 
#    z 0.004430 0.000000 1.825690 
# 
# From -- ./inp_files/65546.got.cif
#   From: 2010.06.25/outbox.cif.g09.slc.cpg/sg15_33_cif.got.tgz:65546.got - 2010.06.28 07:06:18.
