data_PCOD8137999
_publ_section_title
;
Structure prediction by ZEFSAII (Michael W. Deem and Ramdas Pophale) SiO2 
 PCOD8137999
Probable space group: C 2/C
;
_chemical_formula_sum "Si O2"
_cell_formula_units_Z 64
_cell_length_a 26.084085
_cell_length_b 12.743853
_cell_length_c 9.479828
_cell_angle_alpha 90.000000
_cell_angle_beta 75.202500
_cell_angle_gamma 90.000000
_cell_volume 3046.694944
_symmetry_space_group_name_H-M "C 2/C"
_symmetry_group_IT_number 15
_symmetry_cell_setting 'monoclinic'
loop_
_space_group_symop_operation_xyz
x,y,z
-x,y,1/2-z
-x,-y,-z
x,-y,1/2+z
1/2+x,1/2+y,z
1/2-x,1/2+y,1/2-z
1/2-x,1/2-y,-z
1/2+x,1/2-y,1/2+z
loop_
_atom_site_type_symbol
_atom_site_label
_atom_site_fract_x
_atom_site_fract_y
_atom_site_fract_z
Si Si1 0.812918 0.745675 0.810499
Si Si2 0.510142 0.397416 0.582854
Si Si3 0.159643 0.273877 0.607778
Si Si4 0.319639 0.549997 0.872921
Si Si5 0.803552 0.327277 0.623373
Si Si6 0.704726 0.060402 0.876742
Si Si7 0.091613 0.184510 0.445324
Si Si8 0.619422 0.550224 0.950393
O O1 0.759589 0.810146 0.806448
O O2 0.808256 0.626952 0.753229
O O3 0.865214 0.799096 0.709835
O O4 0.820663 0.736418 0.972788
O O5 0.500000 0.427749 0.750000
O O6 0.500000 0.500000 0.500000
O O7 0.469205 0.303344 0.567217
O O8 0.572297 0.366255 0.517348
O O9 0.186220 0.162314 0.541045
O O10 0.161149 0.276601 0.776061
O O11 0.191541 0.373624 0.526714
O O12 0.102187 0.266911 0.568190
O O13 0.265499 0.525075 0.833310
O O14 0.364176 0.564318 0.721960
O O15 0.332470 0.449988 0.967206
O O16 0.823765 0.447628 0.602696
O O17 0.096638 0.066223 0.497243
#
# Coordination Sequence:
#
# PCOD8137999 Si02
#       8
#     8   8   8   8   8   8   8   8
#     4  10  22  37  52  85 119 156 208 247 290 366
#     4  10  20  37  56  82 117 155 198 253 296 361
#     4  10  22  37  54  79 114 159 207 243 295 371
#     4  11  22  34  55  82 120 164 200 245 295 356
#     4  11  22  34  56  82 118 153 207 256 291 349
#     4  11  22  36  55  80 123 168 200 242 304 357
#     4   9  20  37  55  74 115 161 190 243 300 346
#     4  10  21  33  54  82 110 155 207 232 291 363
#
# _framework density 21.006368999999999
#
# number of rings (size 3 to 8) (size 9 to 14) (size 15 to 20)
#    0.000    1.750    1.250    3.375    7.000    2.000 
#    0.000    0.000    0.000    0.000    0.000    0.000 
#    0.000   58.000    0.000    0.000    0.000    0.000 
#
# Total GULP energy -396463.657023 kJ/mol
# GULP energy per Si atom -12389.489282 kJ/mol
# Density = 2.095856 g / cm^3
# Si number density = 21.006369 Si / 1000 Ang^3
#
#
#
# Elastic Constant Matrix: (Units=GPa)
#
#
# Indices 1 2 3 4 5 6 
#
# 1 115.0639 27.6107 51.7061 0.0000 7.7460 0.0000
# 2 27.6107 78.8114 26.7389 0.0000 -1.2906 0.0000
# 3 51.7061 26.7389 112.5544 0.0000 31.2104 0.0000
# 4 0.0000 0.0000 0.0000 24.4239 0.0000 1.9490
# 5 7.7460 -1.2906 31.2104 0.0000 26.0173 0.0000
# 6 0.0000 0.0000 0.0000 1.9490 0.0000 25.6108
#
#
#
# Elastic Compliance Matrix: (Units=1/GPa)
#
#
# Indices 1 2 3 4 5 6 
#
# 1 0.011536 -0.002037 -0.005747 0.000000 0.003358 0.000000
# 2 -0.002037 0.015045 -0.004516 0.000000 0.006770 0.000000
# 3 -0.005747 -0.004516 0.018259 0.000000 -0.020416 0.000000
# 4 0.000000 0.000000 0.000000 0.041194 0.000000 -0.003135
# 5 0.003358 0.006770 -0.020416 0.000000 0.062263 0.000000
# 6 0.000000 0.000000 0.000000 -0.003135 0.000000 0.039285
#
#
# Mechanical properties :
#
#
# Convention : Reuss Voigt Hill
#
# Bulk Modulus (GPa) = 49.40474 57.61567 53.51020
# Shear Modulus (GPa) = 22.83874 28.56867 25.70370
#
# Velocity S-wave (km/s) = 3.30089 3.69182 3.50182
# Velocity P-wave (km/s) = 6.17235 6.75722 6.47139
#
# Compressibility (1/GPa) = 0.02024097
#
# Stress axis : x y z
#
# Youngs Moduli (GPa) = 86.68579 66.46732 54.76879
#
# Poissons Ratio (x) = 0.13537 0.31475
# Poissons Ratio (y) = 0.17655 0.24732
# Poissons Ratio (z) = 0.49817 0.30015
#
# Static dielectric constant tensor:
#      x y z
#    x 0.918760 0.000000 0.346150 
#    y 0.000000 3.726550 0.000000 
#    z 0.346150 0.000000 3.740590 
# 
# 
# High freq. dielectric constant tensor:
#      x y z
#    x 1.803320 0.000000 0.027420 
#    y 0.000000 1.800360 0.000000 
#    z 0.027420 0.000000 1.828190 
# 
# From -- ./inp_files/66201.got.cif
#   From: 2010.06.25/outbox.cif.g09.slc.cpg/sg15_34_cif.got.tgz:66201.got - 2010.06.28 07:06:18.
