data_PCOD8137587
_publ_section_title
;
Structure prediction by ZEFSAII (Michael W. Deem and Ramdas Pophale) SiO2 
 PCOD8137587
Probable space group: C 2/C
;
_chemical_formula_sum "Si O2"
_cell_formula_units_Z 56
_cell_length_a 8.175418
_cell_length_b 10.984441
_cell_length_c 32.102073
_cell_angle_alpha 90.000000
_cell_angle_beta 118.037050
_cell_angle_gamma 90.000000
_cell_volume 2544.523661
_symmetry_space_group_name_H-M "C 2/C"
_symmetry_group_IT_number 15
_symmetry_cell_setting 'monoclinic'
loop_
_space_group_symop_operation_xyz
x,y,z
-x,y,1/2-z
-x,-y,-z
x,-y,1/2+z
1/2+x,1/2+y,z
1/2-x,1/2+y,1/2-z
1/2-x,1/2-y,-z
1/2+x,1/2-y,1/2+z
loop_
_atom_site_type_symbol
_atom_site_label
_atom_site_fract_x
_atom_site_fract_y
_atom_site_fract_z
Si Si1 0.016762 0.650267 0.301368
Si Si2 0.929415 0.593662 0.654792
Si Si3 0.581680 0.884381 0.559127
Si Si4 0.637354 0.403376 0.304804
Si Si5 0.328345 0.369608 0.449702
Si Si6 0.282278 0.464102 0.019646
Si Si7 0.229551 0.152490 0.335127
O O1 0.815224 0.651130 0.299115
O O2 0.000000 0.645912 0.250000
O O3 0.134384 0.529897 0.328807
O O4 0.111377 0.778050 0.328016
O O5 0.845027 0.583017 0.598323
O O6 0.868151 0.718404 0.669872
O O7 0.149203 0.593859 0.682409
O O8 0.685215 0.774693 0.548208
O O9 0.362708 0.880728 0.523314
O O10 0.607906 0.871880 0.611775
O O11 0.685751 0.002484 0.552188
O O12 0.500000 0.392361 0.250000
O O13 0.593163 0.533284 0.322570
O O14 0.522724 0.398159 0.449019
O O15 0.322732 0.419425 0.495513
#
# Coordination Sequence:
#
# PCOD8137587 Si02
#       7
#     8   8   8   8   8   8   8
#     4  10  23  41  61  87 116 152 197 244 296 352
#     4  10  23  41  62  88 119 154 196 244 294 351
#     4  10  21  38  59  87 118 153 194 238 289 345
#     4  10  23  41  61  87 116 152 197 244 296 352
#     4  10  21  38  59  87 118 153 194 238 289 345
#     4  10  20  36  60  86 118 154 192 236 286 346
#     4  10  23  41  62  88 119 154 196 244 294 351
#
# _framework density 22.008047999999999
#
# number of rings (size 3 to 8) (size 9 to 14) (size 15 to 20)
#    0.000    2.000    0.000    2.571    0.000   15.429 
#    0.000    7.143    0.000    0.000    0.000    0.000 
#    0.000    0.000    0.000    0.000    0.000    0.000 
#
# Total GULP energy -346931.142444 kJ/mol
# GULP energy per Si atom -12390.397944 kJ/mol
# Density = 2.195796 g / cm^3
# Si number density = 22.008048 Si / 1000 Ang^3
#
#
#
# Elastic Constant Matrix: (Units=GPa)
#
#
# Indices 1 2 3 4 5 6 
#
# 1 75.6944 6.5536 26.9650 0.0000 16.1741 0.0000
# 2 6.5536 168.8478 12.4475 0.0000 9.6973 0.0000
# 3 26.9650 12.4475 60.5233 0.0000 15.1785 0.0000
# 4 0.0000 0.0000 0.0000 27.6264 0.0000 0.1284
# 5 16.1741 9.6973 15.1785 0.0000 34.5644 0.0000
# 6 0.0000 0.0000 0.0000 0.1284 0.0000 20.9974
#
#
#
# Elastic Compliance Matrix: (Units=1/GPa)
#
#
# Indices 1 2 3 4 5 6 
#
# 1 0.016449 0.000100 -0.006081 0.000000 -0.005055 0.000000
# 2 0.000100 0.006066 -0.000959 0.000000 -0.001327 0.000000
# 3 -0.006081 -0.000959 0.020956 0.000000 -0.006088 0.000000
# 4 0.000000 0.000000 0.000000 0.036198 0.000000 -0.000221
# 5 -0.005055 -0.001327 -0.006088 0.000000 0.034343 0.000000
# 6 0.000000 0.000000 0.000000 -0.000221 0.000000 0.047626
#
#
# Mechanical properties :
#
#
# Convention : Reuss Voigt Hill
#
# Bulk Modulus (GPa) = 33.79581 44.11087 38.95334
# Shear Modulus (GPa) = 26.97141 33.91093 30.44117
#
# Velocity S-wave (km/s) = 3.50455 3.92961 3.72315
# Velocity P-wave (km/s) = 5.63607 6.37775 6.01835
#
# Compressibility (1/GPa) = 0.02958947
#
# Stress axis : x y z
#
# Youngs Moduli (GPa) = 60.79462 164.86544 47.71904
#
# Poissons Ratio (x) = -0.01652 0.29020
# Poissons Ratio (y) = -0.00609 0.04577
# Poissons Ratio (z) = 0.36972 0.15814
#
# Static dielectric constant tensor:
#      x y z
#    x 3.730960 0.000000 0.105710 
#    y 0.000000 4.843400 0.000000 
#    z 0.105710 0.000000 3.731690 
# 
# 
# High freq. dielectric constant tensor:
#      x y z
#    x 1.845520 0.000000 0.006260 
#    y 0.000000 1.894930 0.000000 
#    z 0.006260 0.000000 1.852030 
# 
# From -- ./inp_files/288068.got.cif
#   From: 2010.06.25/outbox.cif.g09.slc.cpg/sg15_145_cif.got.tgz:288068.got - 2010.06.28 07:06:18.
