data_PCOD8137747
_publ_section_title
;
Structure prediction by ZEFSAII (Michael W. Deem and Ramdas Pophale) SiO2 
 PCOD8137747
Probable space group: C 2/C
;
_chemical_formula_sum "Si O2"
_cell_formula_units_Z 64
_cell_length_a 12.770980
_cell_length_b 11.439121
_cell_length_c 23.288073
_cell_angle_alpha 90.000000
_cell_angle_beta 118.788837
_cell_angle_gamma 90.000000
_cell_volume 2981.625273
_symmetry_space_group_name_H-M "C 2/C"
_symmetry_group_IT_number 15
_symmetry_cell_setting 'monoclinic'
loop_
_space_group_symop_operation_xyz
x,y,z
-x,y,1/2-z
-x,-y,-z
x,-y,1/2+z
1/2+x,1/2+y,z
1/2-x,1/2+y,1/2-z
1/2-x,1/2-y,-z
1/2+x,1/2-y,1/2+z
loop_
_atom_site_type_symbol
_atom_site_label
_atom_site_fract_x
_atom_site_fract_y
_atom_site_fract_z
Si Si1 0.371204 0.108874 0.535981
Si Si2 0.361421 0.671172 0.196904
Si Si3 0.635125 0.927960 0.278544
Si Si4 0.623804 0.856427 0.148374
Si Si5 0.324672 0.399406 0.808654
Si Si6 0.233489 0.978127 0.409749
Si Si7 0.508494 0.456788 0.412487
Si Si8 0.376634 0.647701 0.977727
O O1 0.493634 0.086465 0.602502
O O2 0.339958 0.006180 0.482514
O O3 0.394138 0.222240 0.503848
O O4 0.264207 0.116602 0.554223
O O5 0.500000 0.654978 0.250000
O O6 0.338440 0.809219 0.177711
O O7 0.287279 0.626763 0.232867
O O8 0.321328 0.600411 0.129809
O O9 0.500000 0.968667 0.250000
O O10 0.666903 0.898128 0.221390
O O11 0.715443 0.040962 0.315605
O O12 0.626977 0.716109 0.146680
O O13 0.719950 0.897118 0.127814
O O14 0.430514 0.494282 0.839089
O O15 0.129218 0.905852 0.415448
O O16 0.544109 0.563196 0.462770
O O17 0.428843 0.362041 0.426502
#
# Coordination Sequence:
#
# PCOD8137747 Si02
#       8
#     8   8   8   8   8   8   8   8
#     4  10  21  37  64  89 124 163 205 258 299 361
#     4  10  20  38  61  88 118 151 203 256 302 361
#     4  10  24  38  62  90 119 157 208 254 306 358
#     4  11  23  42  59  88 129 162 201 248 313 366
#     4  11  21  39  62  86 119 160 198 254 309 357
#     4  11  22  39  60  93 124 164 203 246 311 369
#     4  10  20  36  62  89 121 155 205 248 305 357
#     4   9  20  36  60  95 117 155 208 257 295 353
#
# _framework density 21.464804000000001
#
# number of rings (size 3 to 8) (size 9 to 14) (size 15 to 20)
#    0.000    1.750    3.750    0.375    3.500    0.000 
#    0.000    5.000    0.000    0.000    0.000    0.000 
#    0.000    0.000    0.000    0.000    0.000    0.000 
#
# Total GULP energy -396633.359109 kJ/mol
# GULP energy per Si atom -12394.792472 kJ/mol
# Density = 2.141595 g / cm^3
# Si number density = 21.464804 Si / 1000 Ang^3
#
#
#
# Elastic Constant Matrix: (Units=GPa)
#
#
# Indices 1 2 3 4 5 6 
#
# 1 119.6195 33.4636 16.7506 0.0000 -12.3126 0.0000
# 2 33.4636 42.1781 8.9839 0.0000 0.1132 0.0000
# 3 16.7506 8.9839 58.5518 0.0000 -1.4687 0.0000
# 4 0.0000 0.0000 0.0000 22.0593 0.0000 -0.2262
# 5 -12.3126 0.1132 -1.4687 0.0000 35.2448 0.0000
# 6 0.0000 0.0000 0.0000 -0.2262 0.0000 34.6160
#
#
#
# Elastic Compliance Matrix: (Units=1/GPa)
#
#
# Indices 1 2 3 4 5 6 
#
# 1 0.011462 -0.008712 -0.001843 0.000000 0.003955 0.000000
# 2 -0.008712 0.031134 -0.002366 0.000000 -0.003242 0.000000
# 3 -0.001843 -0.002366 0.017972 0.000000 0.000113 0.000000
# 4 0.000000 0.000000 0.000000 0.045335 0.000000 0.000296
# 5 0.003955 -0.003242 0.000113 0.000000 0.029770 0.000000
# 6 0.000000 0.000000 0.000000 0.000296 0.000000 0.028890
#
#
# Mechanical properties :
#
#
# Convention : Reuss Voigt Hill
#
# Bulk Modulus (GPa) = 28.79722 37.63839 33.21781
# Shear Modulus (GPa) = 24.75477 29.12743 26.94110
#
# Velocity S-wave (km/s) = 3.39967 3.68773 3.54662
# Velocity P-wave (km/s) = 5.37173 5.97540 5.68159
#
# Compressibility (1/GPa) = 0.03472557
#
# Stress axis : x y z
#
# Youngs Moduli (GPa) = 87.24254 32.11958 55.64201
#
# Poissons Ratio (x) = 0.27983 0.10256
# Poissons Ratio (y) = 0.76006 0.13165
# Poissons Ratio (z) = 0.16080 0.07599
#
# Static dielectric constant tensor:
#      x y z
#    x 4.072290 0.000000 -0.045930 
#    y 0.000000 3.658350 0.000000 
#    z -0.045930 0.000000 3.876040 
# 
# 
# High freq. dielectric constant tensor:
#      x y z
#    x 1.847930 0.000000 -0.000880 
#    y 0.000000 1.809390 0.000000 
#    z -0.000880 0.000000 1.845840 
# 
# From -- ./inp_files/269274.got.cif
#   From: 2010.06.25/outbox.cif.g09.slc.cpg/sg15_135_cif.got.tgz:269274.got - 2010.06.28 07:06:18.
