data_PCOD8137004
_publ_section_title
;
Structure prediction by ZEFSAII (Michael W. Deem and Ramdas Pophale) SiO2 
 PCOD8137004
Probable space group: C 2/C
;
_chemical_formula_sum "Si O2"
_cell_formula_units_Z 36
_cell_length_a 16.040607
_cell_length_b 8.783667
_cell_length_c 23.294664
_cell_angle_alpha 90.000000
_cell_angle_beta 147.416040
_cell_angle_gamma 90.000000
_cell_volume 1767.530759
_symmetry_space_group_name_H-M "C 2/C"
_symmetry_group_IT_number 15
_symmetry_cell_setting 'monoclinic'
loop_
_space_group_symop_operation_xyz
x,y,z
-x,y,1/2-z
-x,-y,-z
x,-y,1/2+z
1/2+x,1/2+y,z
1/2-x,1/2+y,1/2-z
1/2-x,1/2-y,-z
1/2+x,1/2-y,1/2+z
loop_
_atom_site_type_symbol
_atom_site_label
_atom_site_fract_x
_atom_site_fract_y
_atom_site_fract_z
Si Si1 0.000000 0.926203 0.750000
Si Si2 0.238960 0.142728 0.299525
Si Si3 0.528080 0.645515 0.979567
Si Si4 0.902994 0.157380 0.604602
Si Si5 0.237206 0.783569 0.304960
O O1 0.896298 0.822531 0.732016
O O2 0.883602 0.031862 0.643590
O O3 0.390912 0.232676 0.407000
O O4 0.189046 0.198330 0.207203
O O5 0.266201 0.962730 0.313866
O O6 0.683726 0.728851 0.090630
O O7 0.500000 0.500000 0.000000
O O8 0.546492 0.580178 0.926144
O O9 0.750000 0.250000 0.500000
O O10 0.055031 0.259315 0.708031
#
# Coordination Sequence:
#
# PCOD8137004 Si02
#       5
#     4   8   8   8   8
#     4  10  20  38  56  86 120 146 190 244 286 334
#     4  10  21  38  61  84 115 154 189 237 289 338
#     4  11  22  39  59  84 116 155 195 232 283 347
#     4  10  20  35  58  85 115 151 190 235 286 340
#     4  10  20  37  59  85 115 151 194 237 284 343
#
# _framework density 20.367398000000001
#
# number of rings (size 3 to 8) (size 9 to 14) (size 15 to 20)
#    0.000    1.778    0.000    7.333    0.000    1.778 
#    0.000   11.111    0.000    1.333    0.000    0.000 
#    0.000    0.000    0.000    0.000    0.000    0.000 
#
# Total GULP energy -223033.303635 kJ/mol
# GULP energy per Si atom -12390.739091 kJ/mol
# Density = 2.032104 g / cm^3
# Si number density = 20.367398 Si / 1000 Ang^3
#
#
#
# Elastic Constant Matrix: (Units=GPa)
#
#
# Indices 1 2 3 4 5 6 
#
# 1 87.2400 2.6348 13.7927 0.0000 1.2774 0.0000
# 2 2.6348 75.9413 19.3587 0.0000 4.2901 0.0000
# 3 13.7927 19.3587 119.8555 0.0002 6.8167 0.0001
# 4 0.0000 0.0000 0.0002 33.0392 0.0001 -7.9900
# 5 1.2774 4.2901 6.8167 0.0001 35.6609 0.0000
# 6 0.0000 0.0000 0.0001 -7.9900 0.0000 35.5787
#
#
#
# Elastic Compliance Matrix: (Units=1/GPa)
#
#
# Indices 1 2 3 4 5 6 
#
# 1 0.011676 -0.000058 -0.001325 0.000000 -0.000158 0.000000
# 2 -0.000058 0.013788 -0.002149 0.000000 -0.001246 0.000000
# 3 -0.001325 -0.002149 0.008923 0.000000 -0.001400 0.000000
# 4 0.000000 0.000000 0.000000 0.032005 0.000000 0.007188
# 5 -0.000158 -0.001246 -0.001400 0.000000 0.028465 0.000000
# 6 0.000000 0.000000 0.000000 0.007188 0.000000 0.029721
#
#
# Mechanical properties :
#
#
# Convention : Reuss Voigt Hill
#
# Bulk Modulus (GPa) = 36.60181 39.40104 38.00143
# Shear Modulus (GPa) = 35.52358 37.33914 36.43136
#
# Velocity S-wave (km/s) = 4.18082 4.28633 4.23390
# Velocity P-wave (km/s) = 6.42771 6.62450 6.52685
#
# Compressibility (1/GPa) = 0.02732105
#
# Stress axis : x y z
#
# Youngs Moduli (GPa) = 85.64410 72.52473 112.07415
#
# Poissons Ratio (x) = 0.00423 0.14853
# Poissons Ratio (y) = 0.00500 0.24090
# Poissons Ratio (z) = 0.11350 0.15589
#
# Static dielectric constant tensor:
#      x y z
#    x 4.056970 0.000000 -0.406580 
#    y 0.000000 3.445300 0.000000 
#    z -0.406580 0.000000 3.136320 
# 
# 
# High freq. dielectric constant tensor:
#      x y z
#    x 1.810150 0.000000 -0.017430 
#    y 0.000000 1.764840 0.000000 
#    z -0.017430 0.000000 1.815750 
# 
# From -- ./inp_files/102452.got.cif
#   From: 2010.06.25/outbox.cif.g09.slc.cpg/sg15_52_cif.got.tgz:102452.got - 2010.06.28 07:06:18.
