data_PCOD8137622
_publ_section_title
;
Structure prediction by ZEFSAII (Michael W. Deem and Ramdas Pophale) SiO2 
 PCOD8137622
Probable space group: C 2/C
;
_chemical_formula_sum "Si O2"
_cell_formula_units_Z 60
_cell_length_a 18.749703
_cell_length_b 8.565959
_cell_length_c 17.767574
_cell_angle_alpha 90.000000
_cell_angle_beta 87.735129
_cell_angle_gamma 90.000000
_cell_volume 2851.406394
_symmetry_space_group_name_H-M "C 2/C"
_symmetry_group_IT_number 15
_symmetry_cell_setting 'monoclinic'
loop_
_space_group_symop_operation_xyz
x,y,z
-x,y,1/2-z
-x,-y,-z
x,-y,1/2+z
1/2+x,1/2+y,z
1/2-x,1/2+y,1/2-z
1/2-x,1/2-y,-z
1/2+x,1/2-y,1/2+z
loop_
_atom_site_type_symbol
_atom_site_label
_atom_site_fract_x
_atom_site_fract_y
_atom_site_fract_z
Si Si1 0.833746 0.665950 0.394941
Si Si2 0.310550 0.203648 0.648616
Si Si3 0.947064 0.883017 0.607190
Si Si4 0.346089 0.336782 0.950832
Si Si5 0.500000 0.217434 0.750000
Si Si6 0.547791 0.378611 0.058974
Si Si7 0.352211 0.869212 0.303133
Si Si8 0.311913 0.956455 0.536266
O O1 0.765772 0.775562 0.387052
O O2 0.907552 0.764980 0.388424
O O3 0.830047 0.540625 0.328903
O O4 0.831067 0.587580 0.475351
O O5 0.363344 0.350646 0.628168
O O6 0.300113 0.187899 0.738605
O O7 0.337898 0.036328 0.613579
O O8 0.993845 0.815920 0.673461
O O9 0.964066 0.804925 0.524193
O O10 0.972365 0.066462 0.600121
O O11 0.409013 0.459695 0.957080
O O12 0.347701 0.255828 0.869376
O O13 0.272091 0.425823 0.963632
O O14 0.353985 0.204007 0.015841
O O15 0.569533 0.112420 0.736704
#
# Coordination Sequence:
#
# PCOD8137622 Si02
#       8
#     8   8   8   8   4   8   8   8
#     4  11  22  39  64  93 125 160 207 269 308 365
#     4  11  21  38  63  91 126 163 205 257 320 371
#     4  10  22  37  64  90 120 165 204 250 311 377
#     4  10  20  37  61  90 126 160 205 251 306 377
#     4  10  20  46  60  82 124 166 198 250 316 376
#     4  11  20  39  63  95 118 161 212 255 304 373
#     4  10  24  39  63  88 125 167 204 250 319 371
#     4  10  20  36  60  90 121 161 202 256 308 358
#
# _framework density 21.042248000000001
#
# number of rings (size 3 to 8) (size 9 to 14) (size 15 to 20)
#    0.000    1.600    4.000    1.200    1.867    0.000 
#    0.000    8.667    0.000    0.000    0.000    0.000 
#    0.000    0.000    0.000    0.000    0.000    0.000 
#
# Total GULP energy -371713.690819 kJ/mol
# GULP energy per Si atom -12390.456361 kJ/mol
# Density = 2.099435 g / cm^3
# Si number density = 21.042248 Si / 1000 Ang^3
#
#
#
# Elastic Constant Matrix: (Units=GPa)
#
#
# Indices 1 2 3 4 5 6 
#
# 1 44.0265 23.9213 16.9331 0.0000 6.6758 0.0000
# 2 23.9213 79.6743 38.3656 0.0000 -3.8839 0.0000
# 3 16.9331 38.3656 94.5615 0.0000 2.2293 0.0000
# 4 0.0000 0.0000 0.0000 21.1469 0.0000 -7.1755
# 5 6.6758 -3.8839 2.2293 0.0000 25.7520 0.0000
# 6 0.0000 0.0000 0.0000 -7.1755 0.0000 33.4681
#
#
#
# Elastic Compliance Matrix: (Units=1/GPa)
#
#
# Indices 1 2 3 4 5 6 
#
# 1 0.029232 -0.008425 -0.001611 0.000000 -0.008709 0.000000
# 2 -0.008425 0.018247 -0.006023 0.000000 0.005458 0.000000
# 3 -0.001611 -0.006023 0.013346 0.000000 -0.001646 0.000000
# 4 0.000000 0.000000 0.000000 0.050998 0.000000 0.010934
# 5 -0.008709 0.005458 -0.001646 0.000000 0.042055 0.000000
# 6 0.000000 0.000000 0.000000 0.010934 0.000000 0.032223
#
#
# Mechanical properties :
#
#
# Convention : Reuss Voigt Hill
#
# Bulk Modulus (GPa) = 34.83583 41.85581 38.34582
# Shear Modulus (GPa) = 21.95014 25.34290 23.64652
#
# Velocity S-wave (km/s) = 3.23328 3.47419 3.35590
# Velocity P-wave (km/s) = 5.52539 6.00232 5.76878
#
# Compressibility (1/GPa) = 0.02870608
#
# Stress axis : x y z
#
# Youngs Moduli (GPa) = 34.20965 54.80322 74.92821
#
# Poissons Ratio (x) = 0.46174 0.12070
# Poissons Ratio (y) = 0.28823 0.45131
# Poissons Ratio (z) = 0.05511 0.33009
#
# Static dielectric constant tensor:
#      x y z
#    x 3.816890 0.000000 -0.086110 
#    y 0.000000 3.770310 0.000000 
#    z -0.086110 0.000000 4.031630 
# 
# 
# High freq. dielectric constant tensor:
#      x y z
#    x 1.821510 0.000000 0.004110 
#    y 0.000000 1.806920 0.000000 
#    z 0.004110 0.000000 1.829050 
# 
# From -- ./inp_files/209602.got.cif
#   From: 2010.06.25/outbox.cif.g09.slc.cpg/sg15_105_cif.got.tgz:209602.got - 2010.06.28 07:06:18.
