data_PCOD8137091
_publ_section_title
;
Structure prediction by ZEFSAII (Michael W. Deem and Ramdas Pophale) SiO2 
 PCOD8137091
Probable space group: C 2/C
;
_chemical_formula_sum "Si O2"
_cell_formula_units_Z 40
_cell_length_a 9.909570
_cell_length_b 18.740964
_cell_length_c 10.392437
_cell_angle_alpha 90.000000
_cell_angle_beta 76.191872
_cell_angle_gamma 90.000000
_cell_volume 1874.253299
_symmetry_space_group_name_H-M "C 2/C"
_symmetry_group_IT_number 15
_symmetry_cell_setting 'monoclinic'
loop_
_space_group_symop_operation_xyz
x,y,z
-x,y,1/2-z
-x,-y,-z
x,-y,1/2+z
1/2+x,1/2+y,z
1/2-x,1/2+y,1/2-z
1/2-x,1/2-y,-z
1/2+x,1/2-y,1/2+z
loop_
_atom_site_type_symbol
_atom_site_label
_atom_site_fract_x
_atom_site_fract_y
_atom_site_fract_z
Si Si1 0.588322 0.022520 0.855655
Si Si2 0.806439 0.813774 0.639924
Si Si3 0.602003 0.835968 0.460694
Si Si4 0.021676 0.935147 0.592577
Si Si5 0.701039 0.116834 0.398888
O O1 0.500000 0.038274 0.750000
O O2 0.684162 0.953468 0.809610
O O3 0.671582 0.095633 0.872296
O O4 0.500000 0.000000 0.000000
O O5 0.669054 0.823107 0.584583
O O6 0.875501 0.736036 0.622822
O O7 0.757888 0.820041 0.797400
O O8 0.918196 0.872547 0.573505
O O9 0.438165 0.855333 0.501721
O O10 0.178081 0.905766 0.528846
O O11 0.000000 0.954629 0.750000
O O12 0.000000 0.000000 0.500000
#
# Coordination Sequence:
#
# PCOD8137091 Si02
#       5
#     8   8   8   8   8
#     4  10  20  35  60  89 115 149 201 253 296 355
#     4  10  21  39  58  86 126 159 196 254 310 359
#     4  10  21  37  61  88 117 158 207 249 301 368
#     4  10  22  39  60  87 124 162 199 248 306 367
#     4  10  20  38  62  86 119 160 200 252 309 360
#
# _framework density 21.341832
#
# number of rings (size 3 to 8) (size 9 to 14) (size 15 to 20)
#    0.000    2.000    0.000    4.200    0.000    8.000 
#    0.000   10.000    0.000    0.000    0.000    0.000 
#    0.000    0.000    0.000    0.000    0.000    0.000 
#
# Total GULP energy -247819.401067 kJ/mol
# GULP energy per Si atom -12390.970053 kJ/mol
# Density = 2.129326 g / cm^3
# Si number density = 21.341832 Si / 1000 Ang^3
#
#
#
# Elastic Constant Matrix: (Units=GPa)
#
#
# Indices 1 2 3 4 5 6 
#
# 1 114.8954 35.5901 28.1930 0.0000 -5.8386 0.0000
# 2 35.5901 169.9065 55.1438 0.0000 -5.2501 0.0000
# 3 28.1930 55.1438 71.0289 0.0000 12.1709 0.0000
# 4 0.0000 0.0000 0.0000 36.0478 0.0000 4.7556
# 5 -5.8386 -5.2501 12.1709 0.0000 24.5283 0.0000
# 6 0.0000 0.0000 0.0000 4.7556 0.0000 36.6901
#
#
#
# Elastic Compliance Matrix: (Units=1/GPa)
#
#
# Indices 1 2 3 4 5 6 
#
# 1 0.010178 -0.000582 -0.004352 0.000000 0.004458 0.000000
# 2 -0.000582 0.008546 -0.007316 0.000000 0.005321 0.000000
# 3 -0.004352 -0.007316 0.023970 0.000000 -0.014496 0.000000
# 4 0.000000 0.000000 0.000000 0.028224 0.000000 -0.003658
# 5 0.004458 0.005321 -0.014496 0.000000 0.050162 0.000000
# 6 0.000000 0.000000 0.000000 -0.003658 0.000000 0.027729
#
#
# Mechanical properties :
#
#
# Convention : Reuss Voigt Hill
#
# Bulk Modulus (GPa) = 54.96063 65.96495 60.46279
# Shear Modulus (GPa) = 27.87482 35.24683 31.56082
#
# Velocity S-wave (km/s) = 3.61794 4.06832 3.84972
# Velocity P-wave (km/s) = 6.57732 7.28314 6.93921
#
# Compressibility (1/GPa) = 0.01819484
#
# Stress axis : x y z
#
# Youngs Moduli (GPa) = 98.24877 117.01092 41.71932
#
# Poissons Ratio (x) = 0.06807 0.18157
# Poissons Ratio (y) = 0.05716 0.30521
# Poissons Ratio (z) = 0.42759 0.85602
#
# Static dielectric constant tensor:
#      x y z
#    x 4.105030 0.000000 -0.022250 
#    y 0.000000 4.615520 0.000000 
#    z -0.022250 0.000000 3.525000 
# 
# 
# High freq. dielectric constant tensor:
#      x y z
#    x 1.841960 0.000000 0.008810 
#    y 0.000000 1.853980 0.000000 
#    z 0.008810 0.000000 1.812680 
# 
# From -- ./inp_files/76691.got.cif
#   From: 2010.06.25/outbox.cif.g09.slc.cpg/sg15_39_cif.got.tgz:76691.got - 2010.06.28 07:06:18.
