data_PCOD8137920
_publ_section_title
;
Structure prediction by ZEFSAII (Michael W. Deem and Ramdas Pophale) SiO2 
 PCOD8137920
Probable space group: C 2/C
;
_chemical_formula_sum "Si O2"
_cell_formula_units_Z 48
_cell_length_a 10.241010
_cell_length_b 9.699645
_cell_length_c 24.978877
_cell_angle_alpha 90.000000
_cell_angle_beta 63.390467
_cell_angle_gamma 90.000000
_cell_volume 2218.440505
_symmetry_space_group_name_H-M "C 2/C"
_symmetry_group_IT_number 15
_symmetry_cell_setting 'monoclinic'
loop_
_space_group_symop_operation_xyz
x,y,z
-x,y,1/2-z
-x,-y,-z
x,-y,1/2+z
1/2+x,1/2+y,z
1/2-x,1/2+y,1/2-z
1/2-x,1/2-y,-z
1/2+x,1/2-y,1/2+z
loop_
_atom_site_type_symbol
_atom_site_label
_atom_site_fract_x
_atom_site_fract_y
_atom_site_fract_z
Si Si1 0.694335 0.367983 0.049599
Si Si2 0.131666 0.220040 0.888504
Si Si3 0.121235 0.609729 0.494794
Si Si4 0.098107 0.454527 0.811168
Si Si5 0.890836 0.698066 0.612451
Si Si6 0.283528 0.955729 0.825738
O O1 0.522920 0.355665 0.088589
O O2 0.735240 0.518727 0.016817
O O3 0.771375 0.359137 0.092890
O O4 0.750000 0.250000 0.000000
O O5 0.156238 0.278571 0.943205
O O6 0.154028 0.343610 0.843098
O O7 0.253492 0.107914 0.853194
O O8 0.000000 0.500000 0.500000
O O9 0.055357 0.693317 0.557470
O O10 0.109842 0.606019 0.834283
O O11 0.202812 0.455859 0.740728
O O12 0.934255 0.410071 0.825563
O O13 0.848539 0.853869 0.634907
#
# Coordination Sequence:
#
# PCOD8137920 Si02
#       6
#     8   8   8   8   8   8
#     4  11  19  37  68  97 127 167 208 253 323 387
#     4  12  22  42  68  93 131 166 214 262 319 387
#     4  10  20  36  66  97 126 172 198 259 331 371
#     4  11  23  47  64  85 135 169 214 270 316 367
#     4  11  21  41  67  94 128 170 211 258 326 379
#     4  11  27  40  65  97 119 174 223 263 309 379
#
# _framework density 21.63682
#
# number of rings (size 3 to 8) (size 9 to 14) (size 15 to 20)
#    0.000    1.000    8.333    1.000    0.000    2.000 
#    0.000    1.667    0.000    0.000    0.000    0.000 
#    0.000    0.000    0.000    0.000    0.000    0.000 
#
# Total GULP energy -297621.325018 kJ/mol
# GULP energy per Si atom -12400.888542 kJ/mol
# Density = 2.158757 g / cm^3
# Si number density = 21.636820 Si / 1000 Ang^3
#
#
#
# Elastic Constant Matrix: (Units=GPa)
#
#
# Indices 1 2 3 4 5 6 
#
# 1 35.6802 19.8682 17.6467 0.0000 0.1472 0.0000
# 2 19.8682 135.0317 65.8399 0.0000 -4.5355 0.0000
# 3 17.6467 65.8399 139.6627 0.0000 -1.6951 0.0000
# 4 0.0000 0.0000 0.0000 115.7108 0.0000 24.9434
# 5 0.1472 -4.5355 -1.6951 0.0000 22.6221 0.0000
# 6 0.0000 0.0000 0.0000 24.9434 0.0000 48.3596
#
#
#
# Elastic Compliance Matrix: (Units=1/GPa)
#
#
# Indices 1 2 3 4 5 6 
#
# 1 0.031113 -0.003494 -0.002297 0.000000 -0.001075 0.000000
# 2 -0.003494 0.010066 -0.004283 0.000000 0.001720 0.000000
# 3 -0.002297 -0.004283 0.009468 0.000000 -0.000134 0.000000
# 4 0.000000 0.000000 0.000000 0.009723 0.000000 -0.005015
# 5 -0.001075 0.001720 -0.000134 0.000000 0.044546 0.000000
# 6 0.000000 0.000000 0.000000 -0.005015 0.000000 0.023265
#
#
# Mechanical properties :
#
#
# Convention : Reuss Voigt Hill
#
# Bulk Modulus (GPa) = 32.78840 57.45380 45.12110
# Shear Modulus (GPa) = 31.54666 51.13981 41.34324
#
# Velocity S-wave (km/s) = 3.82253 4.86691 4.37599
# Velocity P-wave (km/s) = 5.88805 7.62849 6.81407
#
# Compressibility (1/GPa) = 0.03049859
#
# Stress axis : x y z
#
# Youngs Moduli (GPa) = 32.14102 99.34622 105.62148
#
# Poissons Ratio (x) = 0.34711 0.24263
# Poissons Ratio (y) = 0.11230 0.45237
# Poissons Ratio (z) = 0.07383 0.42549
#
# Static dielectric constant tensor:
#      x y z
#    x 3.905590 0.000000 -0.116200 
#    y 0.000000 4.113280 0.000000 
#    z -0.116200 0.000000 4.164110 
# 
# 
# High freq. dielectric constant tensor:
#      x y z
#    x 1.834690 0.000000 -0.000320 
#    y 0.000000 1.858590 0.000000 
#    z -0.000320 0.000000 1.858670 
# 
# From -- ./inp_files/291045.got.cif
#   From: 2010.06.25/outbox.cif.g09.slc.cpg/sg15_146_cif.got.tgz:291045.got - 2010.06.28 07:06:18.
