data_PCOD8137798
_publ_section_title
;
Structure prediction by ZEFSAII (Michael W. Deem and Ramdas Pophale) SiO2 
 PCOD8137798
Probable space group: C 2/C
;
_chemical_formula_sum "Si O2"
_cell_formula_units_Z 44
_cell_length_a 8.878053
_cell_length_b 24.987257
_cell_length_c 8.913786
_cell_angle_alpha 90.000000
_cell_angle_beta 69.886288
_cell_angle_gamma 90.000000
_cell_volume 1856.819352
_symmetry_space_group_name_H-M "C 2/C"
_symmetry_group_IT_number 15
_symmetry_cell_setting 'monoclinic'
loop_
_space_group_symop_operation_xyz
x,y,z
-x,y,1/2-z
-x,-y,-z
x,-y,1/2+z
1/2+x,1/2+y,z
1/2-x,1/2+y,1/2-z
1/2-x,1/2-y,-z
1/2+x,1/2-y,1/2+z
loop_
_atom_site_type_symbol
_atom_site_label
_atom_site_fract_x
_atom_site_fract_y
_atom_site_fract_z
Si Si1 0.186723 0.658242 0.163757
Si Si2 0.677781 0.351671 0.210778
Si Si3 0.314580 0.246261 0.812058
Si Si4 0.500000 0.000184 0.750000
Si Si5 0.209170 0.055174 0.230569
Si Si6 0.182842 0.955103 0.410793
O O1 0.227570 0.716144 0.219015
O O2 0.299795 0.615156 0.206273
O O3 0.000000 0.646880 0.250000
O O4 0.226257 0.649711 0.976736
O O5 0.500000 0.327387 0.250000
O O6 0.782769 0.315116 0.282995
O O7 0.654572 0.409938 0.294647
O O8 0.500000 0.260510 0.750000
O O9 0.250000 0.250000 0.000000
O O10 0.602725 0.963842 0.832857
O O11 0.626072 0.038619 0.622323
O O12 0.114889 0.012331 0.371428
O O13 0.119188 0.058027 0.099840
#
# Coordination Sequence:
#
# PCOD8137798 Si02
#       6
#     8   8   8   4   8   8
#     4  12  24  42  70  98 131 173 222 273 329 390
#     4  12  27  46  66  97 138 176 218 272 338 395
#     4  12  26  46  71  98 130 171 223 276 332 395
#     4   8  20  32  64  94 136 164 230 262 316 376
#     4  10  20  36  63 101 131 173 222 272 322 389
#     4  10  21  36  64  95 133 173 224 271 321 383
#
# _framework density 23.696435000000001
#
# number of rings (size 3 to 8) (size 9 to 14) (size 15 to 20)
#    1.091    0.000    0.909    6.000    3.818    0.000 
#    0.000    4.545    0.000    0.000    0.000    0.000 
#    0.000    0.000    0.000    0.000    0.000    0.000 
#
# Total GULP energy -272617.547383 kJ/mol
# GULP energy per Si atom -12391.706699 kJ/mol
# Density = 2.364250 g / cm^3
# Si number density = 23.696435 Si / 1000 Ang^3
#
#
#
# Elastic Constant Matrix: (Units=GPa)
#
#
# Indices 1 2 3 4 5 6 
#
# 1 89.3160 22.5735 37.2846 0.0000 14.3100 0.0000
# 2 22.5735 105.0349 6.5275 0.0000 15.2808 0.0000
# 3 37.2846 6.5275 141.0160 0.0000 20.6046 0.0000
# 4 0.0000 0.0000 0.0000 28.0850 0.0000 9.0118
# 5 14.3100 15.2808 20.6046 0.0000 33.9200 0.0000
# 6 0.0000 0.0000 0.0000 9.0118 0.0000 36.6774
#
#
#
# Elastic Compliance Matrix: (Units=1/GPa)
#
#
# Indices 1 2 3 4 5 6 
#
# 1 0.013503 -0.002304 -0.003054 0.000000 -0.002803 0.000000
# 2 -0.002304 0.010588 0.000740 0.000000 -0.004247 0.000000
# 3 -0.003054 0.000740 0.008477 0.000000 -0.004195 0.000000
# 4 0.000000 0.000000 0.000000 0.038654 0.000000 -0.009497
# 5 -0.002803 -0.004247 -0.004195 0.000000 0.035125 0.000000
# 6 0.000000 0.000000 0.000000 -0.009497 0.000000 0.029598
#
#
# Mechanical properties :
#
#
# Convention : Reuss Voigt Hill
#
# Bulk Modulus (GPa) = 42.86142 52.01533 47.43838
# Shear Modulus (GPa) = 32.68862 37.66857 35.17860
#
# Velocity S-wave (km/s) = 3.71816 3.99134 3.85717
# Velocity P-wave (km/s) = 6.04648 6.57567 6.31662
#
# Compressibility (1/GPa) = 0.02333100
#
# Stress axis : x y z
#
# Youngs Moduli (GPa) = 74.06034 94.44876 117.95990
#
# Poissons Ratio (x) = 0.21763 0.36022
# Poissons Ratio (y) = 0.17065 -0.08725
# Poissons Ratio (z) = 0.22616 -0.06986
#
# Static dielectric constant tensor:
#      x y z
#    x 4.289450 0.000000 0.011820 
#    y 0.000000 4.479070 0.000000 
#    z 0.011820 0.000000 4.160370 
# 
# 
# High freq. dielectric constant tensor:
#      x y z
#    x 1.957960 0.000000 -0.002330 
#    y 0.000000 1.935610 0.000000 
#    z -0.002330 0.000000 1.943660 
# 
# From -- ./inp_files/25963.got.cif
#   From: 2010.06.25/outbox.cif.g09.slc.cpg/sg15_13_cif.got.tgz:25963.got - 2010.06.28 07:06:18.
