data_PCOD8137896
_publ_section_title
;
Structure prediction by ZEFSAII (Michael W. Deem and Ramdas Pophale) SiO2 
 PCOD8137896
Probable space group: C 2/C
;
_chemical_formula_sum "Si O2"
_cell_formula_units_Z 48
_cell_length_a 15.107974
_cell_length_b 8.956187
_cell_length_c 20.411961
_cell_angle_alpha 90.000000
_cell_angle_beta 121.073542
_cell_angle_gamma 90.000000
_cell_volume 2365.616150
_symmetry_space_group_name_H-M "C 2/C"
_symmetry_group_IT_number 15
_symmetry_cell_setting 'monoclinic'
loop_
_space_group_symop_operation_xyz
x,y,z
-x,y,1/2-z
-x,-y,-z
x,-y,1/2+z
1/2+x,1/2+y,z
1/2-x,1/2+y,1/2-z
1/2-x,1/2-y,-z
1/2+x,1/2-y,1/2+z
loop_
_atom_site_type_symbol
_atom_site_label
_atom_site_fract_x
_atom_site_fract_y
_atom_site_fract_z
Si Si1 0.108432 0.108600 0.820744
Si Si2 0.927652 0.152253 0.543859
Si Si3 0.730978 0.658273 0.344285
Si Si4 0.711934 0.284163 0.685546
Si Si5 0.349800 0.570238 0.912391
Si Si6 0.102878 0.584313 0.557990
O O1 0.108938 0.152617 0.896230
O O2 0.193910 0.205505 0.816054
O O3 0.000000 0.155653 0.750000
O O4 0.123191 0.927341 0.817210
O O5 0.875367 0.298405 0.492081
O O6 0.052313 0.155176 0.583357
O O7 0.883705 0.002494 0.493521
O O8 0.738398 0.706418 0.271562
O O9 0.757598 0.811134 0.392858
O O10 0.811083 0.539025 0.402616
O O11 0.695177 0.452532 0.656129
O O12 0.608467 0.185040 0.627677
O O13 0.000000 0.500000 0.500000
#
# Coordination Sequence:
#
# PCOD8137896 Si02
#       6
#     8   8   8   8   8   8
#     4  11  24  41  62  87 126 169 207 262 313 379
#     4  10  21  39  62  92 123 157 208 253 320 369
#     4  11  21  38  62  92 124 165 210 253 317 376
#     4  10  22  38  63  90 125 167 212 252 314 381
#     4  10  20  37  63  89 120 162 204 261 307 376
#     4  10  20  36  65  96 119 165 209 256 304 378
#
# _framework density 20.290697000000002
#
# number of rings (size 3 to 8) (size 9 to 14) (size 15 to 20)
#    0.000    1.667    1.667    4.000    0.000    6.667 
#    0.000    0.833    0.000    0.000    0.000    0.000 
#    0.000    0.000    0.000    0.000    0.000    0.000 
#
# Total GULP energy -297319.739679 kJ/mol
# GULP energy per Si atom -12388.322487 kJ/mol
# Density = 2.024451 g / cm^3
# Si number density = 20.290697 Si / 1000 Ang^3
#
#
#
# Elastic Constant Matrix: (Units=GPa)
#
#
# Indices 1 2 3 4 5 6 
#
# 1 53.8100 20.3768 54.7464 0.0000 0.3995 0.0000
# 2 20.3768 122.7034 52.5186 0.0000 10.3384 0.0000
# 3 54.7464 52.5186 130.8210 0.0000 -2.4881 0.0000
# 4 0.0000 0.0000 0.0000 37.6034 0.0000 12.2371
# 5 0.3995 10.3384 -2.4881 0.0000 31.7096 0.0000
# 6 0.0000 0.0000 0.0000 12.2371 0.0000 27.6696
#
#
#
# Elastic Compliance Matrix: (Units=1/GPa)
#
#
# Indices 1 2 3 4 5 6 
#
# 1 0.032480 0.000705 -0.013908 0.000000 -0.001730 0.000000
# 2 0.000705 0.010265 -0.004487 0.000000 -0.003708 0.000000
# 3 -0.013908 -0.004487 0.015320 0.000000 0.002840 0.000000
# 4 0.000000 0.000000 0.000000 0.031064 0.000000 -0.013738
# 5 -0.001730 -0.003708 0.002840 0.000000 0.032990 0.000000
# 6 0.000000 0.000000 0.000000 -0.013738 0.000000 0.042217
#
#
# Mechanical properties :
#
#
# Convention : Reuss Voigt Hill
#
# Bulk Modulus (GPa) = 44.08164 62.51312 53.29738
# Shear Modulus (GPa) = 24.12227 31.37604 27.74915
#
# Velocity S-wave (km/s) = 3.45169 3.93660 3.70209
# Velocity P-wave (km/s) = 6.13659 7.17900 6.67817
#
# Compressibility (1/GPa) = 0.02268518
#
# Stress axis : x y z
#
# Youngs Moduli (GPa) = 30.78799 97.41471 65.27582
#
# Poissons Ratio (x) = -0.06867 0.90788
# Poissons Ratio (y) = -0.02170 0.29287
# Poissons Ratio (z) = 0.42821 0.43706
#
# Static dielectric constant tensor:
#      x y z
#    x 5.062550 0.000000 1.092640 
#    y 0.000000 4.290200 0.000000 
#    z 1.092640 0.000000 4.300190 
# 
# 
# High freq. dielectric constant tensor:
#      x y z
#    x 1.749480 0.000000 0.026170 
#    y 0.000000 1.811380 0.000000 
#    z 0.026170 0.000000 1.816900 
# 
# From -- ./inp_files/242570.got.cif
#   From: 2010.06.25/outbox.cif.g09.slc.cpg/sg15_122_cif.got.tgz:242570.got - 2010.06.28 07:06:18.
