data_PCOD8137633
_publ_section_title
;
Structure prediction by ZEFSAII (Michael W. Deem and Ramdas Pophale) SiO2 
 PCOD8137633
Probable space group: C 2/C
;
_chemical_formula_sum "Si O2"
_cell_formula_units_Z 60
_cell_length_a 20.115672
_cell_length_b 8.815271
_cell_length_c 24.843238
_cell_angle_alpha 90.000000
_cell_angle_beta 143.485051
_cell_angle_gamma 90.000000
_cell_volume 2621.314324
_symmetry_space_group_name_H-M "C 2/C"
_symmetry_group_IT_number 15
_symmetry_cell_setting 'monoclinic'
loop_
_space_group_symop_operation_xyz
x,y,z
-x,y,1/2-z
-x,-y,-z
x,-y,1/2+z
1/2+x,1/2+y,z
1/2-x,1/2+y,1/2-z
1/2-x,1/2-y,-z
1/2+x,1/2-y,1/2+z
loop_
_atom_site_type_symbol
_atom_site_label
_atom_site_fract_x
_atom_site_fract_y
_atom_site_fract_z
Si Si1 0.546853 0.060229 0.839868
Si Si2 0.500000 0.515629 0.750000
Si Si3 0.244392 0.204400 0.569011
Si Si4 0.315559 0.880698 0.227442
Si Si5 0.968035 0.949222 0.612109
Si Si6 0.863810 0.722822 0.043864
Si Si7 0.263108 0.547863 0.620895
Si Si8 0.786133 0.066758 0.250361
O O1 0.500000 0.038986 0.750000
O O2 0.561265 0.894301 0.874336
O O3 0.664087 0.154480 0.916915
O O4 0.450529 0.143479 0.812935
O O5 0.491320 0.410024 0.690763
O O6 0.386096 0.614014 0.683178
O O7 0.266918 0.099675 0.635891
O O8 0.120372 0.170398 0.467903
O O9 0.256615 0.380822 0.590260
O O10 0.254876 0.738864 0.215903
O O11 0.283519 0.026947 0.241785
O O12 0.081695 0.940939 0.652102
O O13 0.928051 0.121259 0.579367
O O14 0.750000 0.750000 0.000000
O O15 0.834316 0.654091 0.965619
O O16 0.251308 0.541654 0.677606
#
# Coordination Sequence:
#
# PCOD8137633 Si02
#       8
#     8   4   8   8   8   8   8   8
#     4  10  23  38  66  95 129 163 213 272 325 380
#     4  10  20  36  60  92 128 168 206 258 320 376
#     4  10  22  42  67  99 130 166 214 273 326 386
#     4  10  24  45  67  95 127 172 224 263 323 386
#     4  11  24  40  64  95 133 169 214 266 324 385
#     4  12  23  38  59 101 130 166 212 266 334 376
#     4  10  23  39  65  91 136 168 214 264 324 390
#     4  10  25  45  66  94 125 179 219 262 325 386
#
# _framework density 22.889282000000001
#
# number of rings (size 3 to 8) (size 9 to 14) (size 15 to 20)
#    0.000    1.600    2.667    0.000   11.200    2.667 
#    0.000    0.667    0.000    0.000    0.000    0.000 
#    0.000    0.000    0.000    0.000    0.000    0.000 
#
# Total GULP energy -372017.116016 kJ/mol
# GULP energy per Si atom -12400.570534 kJ/mol
# Density = 2.283719 g / cm^3
# Si number density = 22.889282 Si / 1000 Ang^3
#
#
#
# Elastic Constant Matrix: (Units=GPa)
#
#
# Indices 1 2 3 4 5 6 
#
# 1 110.0173 19.4315 34.6207 0.0000 5.7754 0.0000
# 2 19.4315 66.7397 20.9655 0.0000 -5.5776 -0.0001
# 3 34.6207 20.9655 116.4382 0.0000 8.3712 0.0000
# 4 0.0000 0.0000 0.0000 32.8699 0.0000 2.5214
# 5 5.7754 -5.5776 8.3712 0.0000 22.0512 0.0000
# 6 0.0000 -0.0001 0.0000 2.5214 0.0000 35.8271
#
#
#
# Elastic Compliance Matrix: (Units=1/GPa)
#
#
# Indices 1 2 3 4 5 6 
#
# 1 0.010432 -0.002458 -0.002486 0.000000 -0.002410 0.000000
# 2 -0.002458 0.017074 -0.002776 0.000000 0.006016 0.000000
# 3 -0.002486 -0.002776 0.010107 0.000000 -0.003888 0.000000
# 4 0.000000 0.000000 0.000000 0.030588 0.000000 -0.002153
# 5 -0.002410 0.006016 -0.003888 0.000000 0.048978 0.000000
# 6 0.000000 0.000000 0.000000 -0.002153 0.000000 0.028063
#
#
# Mechanical properties :
#
#
# Convention : Reuss Voigt Hill
#
# Bulk Modulus (GPa) = 45.09922 49.24784 47.17353
# Shear Modulus (GPa) = 29.74886 32.69481 31.22184
#
# Velocity S-wave (km/s) = 3.60903 3.78350 3.69729
# Velocity P-wave (km/s) = 6.09202 6.37565 6.23545
#
# Compressibility (1/GPa) = 0.02217333
#
# Stress axis : x y z
#
# Youngs Moduli (GPa) = 95.85480 58.56839 98.94349
#
# Poissons Ratio (x) = 0.14396 0.24598
# Poissons Ratio (y) = 0.23560 0.27467
# Poissons Ratio (z) = 0.23830 0.16259
#
# Static dielectric constant tensor:
#      x y z
#    x 3.955260 0.000000 -0.123400 
#    y 0.000000 3.414000 0.000000 
#    z -0.123400 0.000000 4.548390 
# 
# 
# High freq. dielectric constant tensor:
#      x y z
#    x 1.882790 0.000000 -0.004950 
#    y 0.000000 1.898070 0.000000 
#    z -0.004950 0.000000 1.918230 
# 
# From -- ./inp_files/318522.got.cif
#   From: 2010.06.25/outbox.cif.g09.slc.cpg/sg15_160_cif.got.tgz:318522.got - 2010.06.28 07:06:18.
