data_PCOD8137549
_publ_section_title
;
Structure prediction by ZEFSAII (Michael W. Deem and Ramdas Pophale) SiO2 
 PCOD8137549
Probable space group: C 2/C
;
_chemical_formula_sum "Si O2"
_cell_formula_units_Z 48
_cell_length_a 15.113961
_cell_length_b 12.957388
_cell_length_c 13.762286
_cell_angle_alpha 90.000000
_cell_angle_beta 117.432028
_cell_angle_gamma 90.000000
_cell_volume 2392.120657
_symmetry_space_group_name_H-M "C 2/C"
_symmetry_group_IT_number 15
_symmetry_cell_setting 'monoclinic'
loop_
_space_group_symop_operation_xyz
x,y,z
-x,y,1/2-z
-x,-y,-z
x,-y,1/2+z
1/2+x,1/2+y,z
1/2-x,1/2+y,1/2-z
1/2-x,1/2-y,-z
1/2+x,1/2-y,1/2+z
loop_
_atom_site_type_symbol
_atom_site_label
_atom_site_fract_x
_atom_site_fract_y
_atom_site_fract_z
Si Si1 0.193258 0.540515 0.333295
Si Si2 0.045755 0.955204 0.874362
Si Si3 0.342152 0.178724 0.017241
Si Si4 0.240279 0.629159 0.005522
Si Si5 0.116489 0.491163 0.582319
Si Si6 0.410936 0.630255 0.457010
O O1 0.126418 0.614320 0.370360
O O2 0.209042 0.427855 0.389655
O O3 0.132489 0.523397 0.204606
O O4 0.299314 0.596677 0.369819
O O5 0.000000 0.988957 0.750000
O O6 0.978837 0.868702 0.894809
O O7 0.154416 0.913847 0.906471
O O8 0.044313 0.055871 0.939607
O O9 0.321489 0.091685 0.924224
O O10 0.422252 0.256187 0.010992
O O11 0.250000 0.250000 0.000000
O O12 0.250000 0.750000 0.000000
O O13 0.159391 0.608405 0.048528
O O14 0.000000 0.500000 0.500000
#
# Coordination Sequence:
#
# PCOD8137549 Si02
#       6
#     8   8   8   8   8   8
#     4   9  20  41  63  85 129 160 197 261 309 359
#     4  10  20  36  59  90 125 157 201 267 316 365
#     4   9  20  39  62  88 118 160 208 250 306 375
#     4  10  23  40  58  90 124 161 208 252 309 374
#     4  11  24  40  62  89 128 167 210 253 307 369
#     4   9  19  37  62  90 119 158 211 251 314 378
#
# _framework density 20.065878000000001
#
# number of rings (size 3 to 8) (size 9 to 14) (size 15 to 20)
#    0.000    2.333    0.000    2.000    2.333    6.667 
#    3.000    0.000    0.000    0.000    0.000    0.000 
#    0.000    0.000    0.000    0.000    0.000    0.000 
#
# Total GULP energy -297447.647652 kJ/mol
# GULP energy per Si atom -12393.651986 kJ/mol
# Density = 2.002021 g / cm^3
# Si number density = 20.065878 Si / 1000 Ang^3
#
#
#
# Elastic Constant Matrix: (Units=GPa)
#
#
# Indices 1 2 3 4 5 6 
#
# 1 93.1394 32.6004 50.8942 0.0000 -3.1745 0.0000
# 2 32.6004 134.8177 49.5893 0.0000 -9.7148 0.0000
# 3 50.8942 49.5893 167.8095 0.0000 0.6526 0.0000
# 4 0.0000 0.0000 0.0000 16.2709 0.0000 -14.0035
# 5 -3.1745 -9.7148 0.6526 0.0000 25.1265 0.0000
# 6 0.0000 0.0000 0.0000 -14.0035 0.0000 37.0791
#
#
#
# Elastic Compliance Matrix: (Units=1/GPa)
#
#
# Indices 1 2 3 4 5 6 
#
# 1 0.013336 -0.001862 -0.003499 0.000000 0.001056 0.000000
# 2 -0.001862 0.008862 -0.002067 0.000000 0.003245 0.000000
# 3 -0.003499 -0.002067 0.007636 0.000000 -0.001439 0.000000
# 4 0.000000 0.000000 0.000000 0.091056 0.000000 0.034389
# 5 0.001056 0.003245 -0.001439 0.000000 0.041224 0.000000
# 6 0.000000 0.000000 0.000000 0.034389 0.000000 0.039957
#
#
# Mechanical properties :
#
#
# Convention : Reuss Voigt Hill
#
# Bulk Modulus (GPa) = 66.75545 73.54827 70.15186
# Shear Modulus (GPa) = 22.53080 33.20749 27.86914
#
# Velocity S-wave (km/s) = 3.35452 4.07249 3.73081
# Velocity P-wave (km/s) = 6.95299 7.67115 7.32088
#
# Compressibility (1/GPa) = 0.01498005
#
# Stress axis : x y z
#
# Youngs Moduli (GPa) = 74.98530 112.84636 130.95016
#
# Poissons Ratio (x) = 0.21010 0.45813
# Poissons Ratio (y) = 0.13961 0.27063
# Poissons Ratio (z) = 0.26234 0.23321
#
# Static dielectric constant tensor:
#      x y z
#    x 4.037140 0.000000 -0.388610 
#    y 0.000000 4.087750 0.000000 
#    z -0.388610 0.000000 3.484440 
# 
# 
# High freq. dielectric constant tensor:
#      x y z
#    x 1.789690 0.000000 -0.020950 
#    y 0.000000 1.785150 0.000000 
#    z -0.020950 0.000000 1.769390 
# 
# From -- ./inp_files/96527.got.cif
#   From: 2010.06.25/outbox.cif.g09.slc.cpg/sg15_49_cif.got.tgz:96527.got - 2010.06.28 07:06:18.
