data_PCOD8137572
_publ_section_title
;
Structure prediction by ZEFSAII (Michael W. Deem and Ramdas Pophale) SiO2 
 PCOD8137572
Probable space group: C 2/C
;
_chemical_formula_sum "Si O2"
_cell_formula_units_Z 64
_cell_length_a 17.996067
_cell_length_b 12.423228
_cell_length_c 31.991940
_cell_angle_alpha 90.000000
_cell_angle_beta 152.604403
_cell_angle_gamma 90.000000
_cell_volume 3291.051313
_symmetry_space_group_name_H-M "C 2/C"
_symmetry_group_IT_number 15
_symmetry_cell_setting 'monoclinic'
loop_
_space_group_symop_operation_xyz
x,y,z
-x,y,1/2-z
-x,-y,-z
x,-y,1/2+z
1/2+x,1/2+y,z
1/2-x,1/2+y,1/2-z
1/2-x,1/2-y,-z
1/2+x,1/2-y,1/2+z
loop_
_atom_site_type_symbol
_atom_site_label
_atom_site_fract_x
_atom_site_fract_y
_atom_site_fract_z
Si Si1 0.501873 0.762824 0.354938
Si Si2 0.677416 0.255998 0.651700
Si Si3 0.540106 0.509993 0.067660
Si Si4 0.707783 0.587308 0.493419
Si Si5 0.967237 0.625085 0.995909
Si Si6 0.494195 0.255951 0.353212
Si Si7 0.812668 0.221121 0.846679
Si Si8 0.285362 0.109258 0.990640
O O1 0.410102 0.798404 0.351800
O O2 0.566437 0.643845 0.396471
O O3 0.658604 0.833008 0.420659
O O4 0.381034 0.764862 0.254941
O O5 0.635240 0.380398 0.623928
O O6 0.629856 0.181508 0.589420
O O7 0.871953 0.255663 0.753425
O O8 0.373270 0.514200 0.010753
O O9 0.647727 0.405236 0.130345
O O10 0.500000 0.500000 0.000000
O O11 0.804551 0.516817 0.508132
O O12 0.126617 0.699232 0.085426
O O13 0.856498 0.637007 0.981277
O O14 0.000000 0.500000 0.000000
O O15 0.391157 0.240205 0.343287
O O16 0.631056 0.164573 0.426947
O O17 0.592868 0.366178 0.395961
#
# Coordination Sequence:
#
# PCOD8137572 Si02
#       8
#     8   8   8   8   8   8   8   8
#     4   9  21  38  63  85 115 152 205 242 284 353
#     4  10  21  38  59  88 114 154 199 242 295 349
#     4  11  21  37  64  85 122 152 190 246 298 345
#     4  10  20  38  61  89 115 155 198 243 288 346
#     4  11  23  38  58  85 121 158 194 241 303 353
#     4   9  20  36  58  86 112 148 200 243 288 352
#     4  10  20  40  59  88 114 157 200 240 295 354
#     4  10  20  36  60  84 116 154 193 244 292 347
#
# _framework density 19.446674000000002
#
# number of rings (size 3 to 8) (size 9 to 14) (size 15 to 20)
#    0.000    2.000    2.500    0.750    1.750    1.500 
#    4.500    0.625    0.000    0.000    0.000    0.000 
#    0.000    0.000    0.000    0.000    0.000    0.000 
#
# Total GULP energy -396465.093470 kJ/mol
# GULP energy per Si atom -12389.534171 kJ/mol
# Density = 1.940241 g / cm^3
# Si number density = 19.446674 Si / 1000 Ang^3
#
#
#
# Elastic Constant Matrix: (Units=GPa)
#
#
# Indices 1 2 3 4 5 6 
#
# 1 46.2703 25.1291 40.1290 0.0002 -6.1644 0.0000
# 2 25.1291 117.7510 61.2044 -0.0004 -3.4814 0.0000
# 3 40.1290 61.2044 171.9898 -0.0031 -4.0741 0.0001
# 4 0.0002 -0.0004 -0.0031 18.1306 0.0002 -1.2214
# 5 -6.1644 -3.4814 -4.0741 0.0002 27.1265 0.0001
# 6 0.0000 0.0000 0.0001 -1.2214 0.0001 30.2604
#
#
#
# Elastic Compliance Matrix: (Units=1/GPa)
#
#
# Indices 1 2 3 4 5 6 
#
# 1 0.028768 -0.003140 -0.005469 -0.000001 0.005313 0.000000
# 2 -0.003140 0.010779 -0.003098 0.000000 0.000205 0.000000
# 3 -0.005469 -0.003098 0.008183 0.000001 -0.000411 0.000000
# 4 -0.000001 0.000000 0.000001 0.055306 -0.000001 0.002232
# 5 0.005313 0.000205 -0.000411 -0.000001 0.038036 0.000000
# 6 0.000000 0.000000 0.000000 0.002232 0.000000 0.033137
#
#
# Mechanical properties :
#
#
# Convention : Reuss Voigt Hill
#
# Bulk Modulus (GPa) = 41.12481 65.43734 53.28107
# Shear Modulus (GPa) = 24.30384 29.07342 26.68863
#
# Velocity S-wave (km/s) = 3.53904 3.87076 3.70861
# Velocity P-wave (km/s) = 6.15574 7.32801 6.76731
#
# Compressibility (1/GPa) = 0.02431622
#
# Stress axis : x y z
#
# Youngs Moduli (GPa) = 34.76048 92.77239 122.20071
#
# Poissons Ratio (x) = 0.29126 0.66834
# Poissons Ratio (y) = 0.10913 0.37864
# Poissons Ratio (z) = 0.19011 0.28745
#
# Static dielectric constant tensor:
#      x y z
#    x 3.431190 0.000000 0.057100 
#    y 0.000000 3.295880 0.000000 
#    z 0.057100 0.000000 3.840200 
# 
# 
# High freq. dielectric constant tensor:
#      x y z
#    x 1.740190 0.000000 0.004930 
#    y 0.000000 1.762220 0.000000 
#    z 0.004930 0.000000 1.761660 
# 
# From -- ./inp_files/215073.got.cif
#   From: 2010.06.25/outbox.cif.g09.slc.cpg/sg15_108_cif.got.tgz:215073.got - 2010.06.28 07:06:18.
