data_PCOD8137283
_publ_section_title
;
Structure prediction by ZEFSAII (Michael W. Deem and Ramdas Pophale) SiO2 
 PCOD8137283
Probable space group: C 2/C
;
_chemical_formula_sum "Si O2"
_cell_formula_units_Z 56
_cell_length_a 23.989903
_cell_length_b 16.584640
_cell_length_c 22.444832
_cell_angle_alpha 90.000000
_cell_angle_beta 160.814474
_cell_angle_gamma 90.000000
_cell_volume 2934.644877
_symmetry_space_group_name_H-M "C 2/C"
_symmetry_group_IT_number 15
_symmetry_cell_setting 'monoclinic'
loop_
_space_group_symop_operation_xyz
x,y,z
-x,y,1/2-z
-x,-y,-z
x,-y,1/2+z
1/2+x,1/2+y,z
1/2-x,1/2+y,1/2-z
1/2-x,1/2-y,-z
1/2+x,1/2-y,1/2+z
loop_
_atom_site_type_symbol
_atom_site_label
_atom_site_fract_x
_atom_site_fract_y
_atom_site_fract_z
Si Si1 0.143963 0.281638 0.600928
Si Si2 0.148134 0.815648 0.861111
Si Si3 0.867087 0.688362 0.740597
Si Si4 0.531331 0.369156 0.537101
Si Si5 0.672556 0.019319 0.849667
Si Si6 0.482019 0.492374 0.080777
Si Si7 0.210100 0.520754 0.023276
O O1 0.206362 0.226441 0.610195
O O2 0.271846 0.343762 0.760525
O O3 0.997191 0.338397 0.424297
O O4 0.071350 0.214644 0.573538
O O5 0.051743 0.763446 0.713651
O O6 0.273500 0.881893 0.958874
O O7 0.000000 0.859746 0.750000
O O8 0.250000 0.750000 0.000000
O O9 0.812023 0.616060 0.641251
O O10 0.497601 0.419062 0.443823
O O11 0.482603 0.422468 0.546216
O O12 0.475106 0.995326 0.637848
O O13 0.724848 0.992903 0.969177
O O14 0.803114 0.980149 0.934582
O O15 0.639158 0.483716 0.285148
#
# Coordination Sequence:
#
# PCOD8137283 Si02
#       7
#     8   8   8   8   8   8   8
#     4  10  20  36  56  79 111 152 194 252 278 332
#     4  12  21  29  45  77 115 162 202 225 265 330
#     4  11  19  30  48  76 114 150 193 232 274 331
#     4  10  22  40  60  83 116 148 206 243 296 342
#     4  11  21  36  53  82 115 154 189 232 286 351
#     4  11  22  41  58  86 117 164 191 242 292 352
#     4  11  23  35  52  81 119 155 199 234 278 347
#
# _framework density 19.082377000000001
#
# number of rings (size 3 to 8) (size 9 to 14) (size 15 to 20)
#    0.000    1.143    2.857    6.429    0.000    0.000 
#    5.143    2.143    0.000    0.000    0.000    4.000 
#    0.000    0.000    0.000    0.000    0.000    0.000 
#
# Total GULP energy -346943.347092 kJ/mol
# GULP energy per Si atom -12390.833825 kJ/mol
# Density = 1.903894 g / cm^3
# Si number density = 19.082377 Si / 1000 Ang^3
#
#
#
# Elastic Constant Matrix: (Units=GPa)
#
#
# Indices 1 2 3 4 5 6 
#
# 1 90.7410 19.8760 51.4003 0.0000 2.2481 0.0068
# 2 19.8760 35.4388 31.3517 0.0314 -8.9778 -0.0151
# 3 51.4003 31.3517 118.6053 -0.0104 -1.6254 0.0357
# 4 0.0000 0.0314 -0.0104 33.3353 -0.0101 -26.5924
# 5 2.2481 -8.9778 -1.6254 -0.0101 27.0850 0.0417
# 6 0.0068 -0.0151 0.0357 -26.5924 0.0417 66.3273
#
#
#
# Elastic Compliance Matrix: (Units=1/GPa)
#
#
# Indices 1 2 3 4 5 6 
#
# 1 0.015149 -0.004474 -0.005425 0.000005 -0.003066 0.000004
# 2 -0.004474 0.042219 -0.009032 -0.000049 0.013824 -0.000013
# 3 -0.005425 -0.009032 0.013146 0.000009 -0.001755 -0.000004
# 4 0.000005 -0.000049 0.000009 0.044104 -0.000027 0.017683
# 5 -0.003066 0.013824 -0.001755 -0.000027 0.041652 -0.000033
# 6 0.000004 -0.000013 -0.000004 0.017683 -0.000033 0.022166
#
#
# Mechanical properties :
#
#
# Convention : Reuss Voigt Hill
#
# Bulk Modulus (GPa) = 30.62511 50.00457 40.31484
# Shear Modulus (GPa) = 22.00886 34.82664 28.41775
#
# Velocity S-wave (km/s) = 3.39980 4.27672 3.86322
# Velocity P-wave (km/s) = 5.61206 7.11678 6.40874
#
# Compressibility (1/GPa) = 0.03265295
#
# Stress axis : x y z
#
# Youngs Moduli (GPa) = 66.01046 23.68600 76.07163
#
# Poissons Ratio (x) = 0.10598 0.41265
# Poissons Ratio (y) = 0.29535 0.68705
# Poissons Ratio (z) = 0.35808 0.21392
#
# Static dielectric constant tensor:
#      x y z
#    x 3.608010 -0.000050 0.101420 
#    y -0.000050 3.339550 -0.000070 
#    z 0.101420 -0.000070 3.622380 
# 
# 
# High freq. dielectric constant tensor:
#      x y z
#    x 1.735470 0.000000 0.011420 
#    y 0.000000 1.679020 0.000000 
#    z 0.011420 0.000000 1.762070 
# 
# From -- ./inp_files/255932.got.cif
#   From: 2010.06.25/outbox.cif.g09.slc.cpg/sg15_128_cif.got.tgz:255932.got - 2010.06.28 07:06:18.
