data_PCOD8137152
_publ_section_title
;
Structure prediction by ZEFSAII (Michael W. Deem and Ramdas Pophale) SiO2 
 PCOD8137152
Probable space group: C 2/C
;
_chemical_formula_sum "Si O2"
_cell_formula_units_Z 64
_cell_length_a 8.949875
_cell_length_b 29.147216
_cell_length_c 11.935183
_cell_angle_alpha 90.000000
_cell_angle_beta 94.788547
_cell_angle_gamma 90.000000
_cell_volume 3102.591537
_symmetry_space_group_name_H-M "C 2/C"
_symmetry_group_IT_number 15
_symmetry_cell_setting 'monoclinic'
loop_
_space_group_symop_operation_xyz
x,y,z
-x,y,1/2-z
-x,-y,-z
x,-y,1/2+z
1/2+x,1/2+y,z
1/2-x,1/2+y,1/2-z
1/2-x,1/2-y,-z
1/2+x,1/2-y,1/2+z
loop_
_atom_site_type_symbol
_atom_site_label
_atom_site_fract_x
_atom_site_fract_y
_atom_site_fract_z
Si Si1 0.239781 0.178850 0.456173
Si Si2 0.548583 0.595001 0.381151
Si Si3 0.932077 0.552641 0.865433
Si Si4 0.841169 0.779383 0.097342
Si Si5 0.181672 0.232291 0.654377
Si Si6 0.996145 0.633267 0.131257
Si Si7 0.713291 0.619015 0.981109
Si Si8 0.348126 0.046278 0.415739
O O1 0.115258 0.145902 0.395973
O O2 0.219967 0.186063 0.587704
O O3 0.220040 0.226147 0.387778
O O4 0.407110 0.159147 0.455675
O O5 0.500000 0.586622 0.250000
O O6 0.415551 0.589557 0.464342
O O7 0.673122 0.557517 0.421948
O O8 0.803111 0.588816 0.894672
O O9 0.856261 0.502730 0.855979
O O10 0.000000 0.567149 0.750000
O O11 0.070807 0.549562 0.959146
O O12 0.766375 0.774650 0.214812
O O13 0.851163 0.833722 0.072944
O O14 0.005974 0.757915 0.120742
O O15 0.750000 0.750000 0.000000
O O16 0.000000 0.660073 0.250000
O O17 0.069504 0.583196 0.158359
O O18 0.825134 0.632712 0.086478
#
# Coordination Sequence:
#
# PCOD8137152 Si02
#       8
#     8   8   8   8   8   8   8   8
#     4  10  21  39  61  88 117 171 218 258 328 377
#     4  11  23  39  65  97 140 168 210 275 334 390
#     4  10  22  43  70  94 126 171 220 268 319 388
#     4  11  24  40  61  89 126 166 217 268 326 388
#     4  10  23  41  60  83 124 168 213 270 318 389
#     4  10  20  35  62  89 121 163 210 267 313 378
#     4  11  23  39  59  97 128 163 219 262 324 396
#     4   9  21  41  65  94 127 167 218 263 319 392
#
# _framework density 20.627915999999999
#
# number of rings (size 3 to 8) (size 9 to 14) (size 15 to 20)
#    0.000    1.750    1.250    2.625    5.250    5.500 
#    0.000    4.375    0.000    0.000    0.000    0.000 
#    0.000    0.000    0.000    0.000    0.000    0.000 
#
# Total GULP energy -396694.068555 kJ/mol
# GULP energy per Si atom -12396.689642 kJ/mol
# Density = 2.058097 g / cm^3
# Si number density = 20.627916 Si / 1000 Ang^3
#
#
#
# Elastic Constant Matrix: (Units=GPa)
#
#
# Indices 1 2 3 4 5 6 
#
# 1 113.6808 22.8999 50.9228 0.0000 -8.1571 0.0000
# 2 22.8999 80.6064 33.0265 0.0000 -5.4163 0.0000
# 3 50.9228 33.0265 139.5717 0.0000 -18.4490 0.0000
# 4 0.0000 0.0000 0.0000 24.9741 0.0000 -1.1858
# 5 -8.1571 -5.4163 -18.4490 0.0000 31.8368 0.0000
# 6 0.0000 0.0000 0.0000 -1.1858 0.0000 29.3654
#
#
#
# Elastic Compliance Matrix: (Units=1/GPa)
#
#
# Indices 1 2 3 4 5 6 
#
# 1 0.010703 -0.001589 -0.003468 0.000000 0.000462 0.000000
# 2 -0.001589 0.013981 -0.002673 0.000000 0.000423 0.000000
# 3 -0.003468 -0.002673 0.009622 0.000000 0.004233 0.000000
# 4 0.000000 0.000000 0.000000 0.040118 0.000000 0.001620
# 5 0.000462 0.000423 0.004233 0.000000 0.034053 0.000000
# 6 0.000000 0.000000 0.000000 0.001620 0.000000 0.034119
#
#
# Mechanical properties :
#
#
# Convention : Reuss Voigt Hill
#
# Bulk Modulus (GPa) = 53.05863 60.83969 56.94916
# Shear Modulus (GPa) = 30.42507 32.36924 31.39715
#
# Velocity S-wave (km/s) = 3.84467 3.96560 3.90561
# Velocity P-wave (km/s) = 6.74435 7.10816 6.92864
#
# Compressibility (1/GPa) = 0.01884707
#
# Stress axis : x y z
#
# Youngs Moduli (GPa) = 93.42946 71.52670 103.92852
#
# Poissons Ratio (x) = 0.11364 0.36043
# Poissons Ratio (y) = 0.14843 0.27777
# Poissons Ratio (z) = 0.32402 0.19117
#
# Static dielectric constant tensor:
#      x y z
#    x 3.742900 0.000000 -0.179720 
#    y 0.000000 3.825570 0.000000 
#    z -0.179720 0.000000 3.797860 
# 
# 
# High freq. dielectric constant tensor:
#      x y z
#    x 1.807730 0.000000 -0.011190 
#    y 0.000000 1.805830 0.000000 
#    z -0.011190 0.000000 1.806590 
# 
# From -- ./inp_files/82577.got.cif
#   From: 2010.06.25/outbox.cif.g09.slc.cpg/sg15_42_cif.got.tgz:82577.got - 2010.06.28 07:06:18.
