data_PCOD8137489
_publ_section_title
;
Structure prediction by ZEFSAII (Michael W. Deem and Ramdas Pophale) SiO2 
 PCOD8137489
Probable space group: C 2/C
;
_chemical_formula_sum "Si O2"
_cell_formula_units_Z 40
_cell_length_a 8.329728
_cell_length_b 23.612593
_cell_length_c 12.795414
_cell_angle_alpha 90.000000
_cell_angle_beta 52.968581
_cell_angle_gamma 90.000000
_cell_volume 2009.083086
_symmetry_space_group_name_H-M "C 2/C"
_symmetry_group_IT_number 15
_symmetry_cell_setting 'monoclinic'
loop_
_space_group_symop_operation_xyz
x,y,z
-x,y,1/2-z
-x,-y,-z
x,-y,1/2+z
1/2+x,1/2+y,z
1/2-x,1/2+y,1/2-z
1/2-x,1/2-y,-z
1/2+x,1/2-y,1/2+z
loop_
_atom_site_type_symbol
_atom_site_label
_atom_site_fract_x
_atom_site_fract_y
_atom_site_fract_z
Si Si1 0.725092 0.526904 0.696916
Si Si2 0.106259 0.417205 0.954791
Si Si3 0.017918 0.187475 0.623769
Si Si4 0.974318 0.683909 0.377589
Si Si5 0.719188 0.896958 0.138057
O O1 0.500000 0.539963 0.750000
O O2 0.780260 0.460802 0.666274
O O3 0.747553 0.545569 0.808591
O O4 0.876987 0.563053 0.564838
O O5 0.105096 0.355887 0.901676
O O6 0.235302 0.413603 0.010507
O O7 0.942474 0.252268 0.644283
O O8 0.243274 0.180905 0.498287
O O9 0.000000 0.165884 0.750000
O O10 0.880850 0.150454 0.601831
O O11 0.000000 0.661707 0.250000
O O12 0.500000 0.871151 0.250000
#
# Coordination Sequence:
#
# PCOD8137489 Si02
#       5
#     8   8   8   8   8
#     4  10  21  37  56  77 110 154 194 230 281 348
#     4  10  22  36  54  85 114 143 190 242 288 329
#     4  10  20  39  64  85 112 157 197 225 282 355
#     4  10  22  38  59  87 118 151 189 238 289 339
#     4  10  20  36  59  84 110 147 196 241 281 336
#
# _framework density 19.909579000000001
#
# number of rings (size 3 to 8) (size 9 to 14) (size 15 to 20)
#    0.000    2.000    0.000    4.200    0.000    7.200 
#    0.000    1.000    0.000    0.000    0.000    0.000 
#    0.000    0.000    0.000    0.000    0.000    0.000 
#
# Total GULP energy -248072.009624 kJ/mol
# GULP energy per Si atom -12403.600481 kJ/mol
# Density = 1.986426 g / cm^3
# Si number density = 19.909579 Si / 1000 Ang^3
#
#
#
# Elastic Constant Matrix: (Units=GPa)
#
#
# Indices 1 2 3 4 5 6 
#
# 1 116.3445 58.5450 46.2681 0.0000 15.1221 0.0000
# 2 58.5450 121.0078 44.8379 0.0000 24.3424 0.0000
# 3 46.2681 44.8379 105.5807 0.0000 20.1946 0.0000
# 4 0.0000 0.0000 0.0000 27.7217 0.0000 4.2099
# 5 15.1221 24.3424 20.1946 0.0000 31.9086 0.0000
# 6 0.0000 0.0000 0.0000 4.2099 0.0000 37.6350
#
#
#
# Elastic Compliance Matrix: (Units=1/GPa)
#
#
# Indices 1 2 3 4 5 6 
#
# 1 0.012311 -0.004677 -0.003385 0.000000 -0.000124 0.000000
# 2 -0.004677 0.012518 -0.002121 0.000000 -0.005991 0.000000
# 3 -0.003385 -0.002121 0.012787 0.000000 -0.004871 0.000000
# 4 0.000000 0.000000 0.000000 0.036696 0.000000 -0.004105
# 5 -0.000124 -0.005991 -0.004871 0.000000 0.039051 0.000000
# 6 0.000000 0.000000 0.000000 -0.004105 0.000000 0.027030
#
#
# Mechanical properties :
#
#
# Convention : Reuss Voigt Hill
#
# Bulk Modulus (GPa) = 57.96912 71.35947 64.66430
# Shear Modulus (GPa) = 30.02852 32.33852 31.18352
#
# Velocity S-wave (km/s) = 3.88783 4.03459 3.96189
# Velocity P-wave (km/s) = 7.02375 7.59102 7.31288
#
# Compressibility (1/GPa) = 0.01725056
#
# Stress axis : x y z
#
# Youngs Moduli (GPa) = 81.22890 79.88782 78.20433
#
# Poissons Ratio (x) = 0.37363 0.26472
# Poissons Ratio (y) = 0.37990 0.16583
# Poissons Ratio (z) = 0.27496 0.16940
#
# Static dielectric constant tensor:
#      x y z
#    x 3.542410 0.000000 0.013960 
#    y 0.000000 3.732020 0.000000 
#    z 0.013960 0.000000 3.656060 
# 
# 
# High freq. dielectric constant tensor:
#      x y z
#    x 1.770680 0.000000 0.000430 
#    y 0.000000 1.779780 0.000000 
#    z 0.000430 0.000000 1.776750 
# 
# From -- ./inp_files/24538.got.cif
#   From: 2010.06.25/outbox.cif.g09.slc.cpg/sg15_13_cif.got.tgz:24538.got - 2010.06.28 07:06:18.
