data_PCOD8137386
_publ_section_title
;
Structure prediction by ZEFSAII (Michael W. Deem and Ramdas Pophale) SiO2 
 PCOD8137386
Probable space group: C 2/C
;
_chemical_formula_sum "Si O2"
_cell_formula_units_Z 64
_cell_length_a 13.056672
_cell_length_b 17.572367
_cell_length_c 28.031029
_cell_angle_alpha 90.000000
_cell_angle_beta 150.184811
_cell_angle_gamma 90.000000
_cell_volume 3197.690318
_symmetry_space_group_name_H-M "C 2/C"
_symmetry_group_IT_number 15
_symmetry_cell_setting 'monoclinic'
loop_
_space_group_symop_operation_xyz
x,y,z
-x,y,1/2-z
-x,-y,-z
x,-y,1/2+z
1/2+x,1/2+y,z
1/2-x,1/2+y,1/2-z
1/2-x,1/2-y,-z
1/2+x,1/2-y,1/2+z
loop_
_atom_site_type_symbol
_atom_site_label
_atom_site_fract_x
_atom_site_fract_y
_atom_site_fract_z
Si Si1 0.704119 0.839234 0.716569
Si Si2 0.690035 0.576713 0.920960
Si Si3 0.420726 0.662944 0.940476
Si Si4 0.704115 0.339235 0.216567
Si Si5 0.190034 0.423286 0.920960
Si Si6 0.357886 0.595563 0.094190
Si Si7 0.920719 0.337058 0.940473
Si Si8 0.357883 0.095563 0.594190
O O1 0.715178 0.749999 0.731246
O O2 0.515655 0.874199 0.670770
O O3 0.680312 0.857888 0.651031
O O4 0.907795 0.879704 0.818040
O O5 0.484351 0.625803 0.829231
O O6 0.652997 0.490194 0.890012
O O7 0.749996 0.582738 0.999999
O O8 0.879097 0.611486 0.967043
O O9 0.319707 0.642111 0.848977
O O10 0.494152 0.750002 0.969962
O O11 0.250242 0.651021 0.911900
O O12 0.620914 0.611492 0.032964
O O13 0.907794 0.379707 0.318036
O O14 0.153011 0.509806 0.890017
O O15 0.249759 0.651020 0.088099
O O16 0.250002 0.603091 0.000000
#
# Coordination Sequence:
#
# PCOD8137386 Si02
#       8
#     8   8   8   8   8   8   8   8
#     4  10  20  36  58  80 103 136 179 222 260 304
#     4   9  19  36  57  80 104 135 178 222 262 305
#     4  10  20  36  58  80 103 136 179 222 260 304
#     4  10  20  36  58  80 103 136 179 222 260 304
#     4   9  19  36  57  80 104 135 178 222 262 305
#     4  11  22  35  53  79 112 143 170 210 264 319
#     4  10  20  36  58  80 103 136 179 222 260 304
#     4  11  22  35  53  79 112 143 170 210 264 319
#
# _framework density 20.014446
#
# number of rings (size 3 to 8) (size 9 to 14) (size 15 to 20)
#    0.000    2.000    0.000    3.750    0.000    7.000 
#    0.000    3.750    0.000    3.000    0.000    0.000 
#    0.000    0.000    0.000    0.000    0.000    0.000 
#
# Total GULP energy -396957.459111 kJ/mol
# GULP energy per Si atom -12404.920597 kJ/mol
# Density = 1.996889 g / cm^3
# Si number density = 20.014446 Si / 1000 Ang^3
#
#
#
# Elastic Constant Matrix: (Units=GPa)
#
#
# Indices 1 2 3 4 5 6 
#
# 1 33.5829 7.4846 21.9802 0.0001 4.9459 0.0001
# 2 7.4846 108.2326 63.4286 0.0000 -2.0708 0.0002
# 3 21.9802 63.4286 139.6328 0.0001 22.0497 0.0004
# 4 0.0001 0.0000 0.0001 37.7310 0.0000 10.9610
# 5 4.9459 -2.0708 22.0497 0.0000 26.0070 0.0001
# 6 0.0001 0.0002 0.0004 10.9610 0.0001 27.6790
#
#
#
# Elastic Compliance Matrix: (Units=1/GPa)
#
#
# Indices 1 2 3 4 5 6 
#
# 1 0.033349 0.000781 -0.005326 0.000000 -0.001765 0.000000
# 2 0.000781 0.013729 -0.007515 0.000000 0.007316 0.000000
# 3 -0.005326 -0.007515 0.013102 0.000000 -0.010694 0.000000
# 4 0.000000 0.000000 0.000000 0.029949 0.000000 -0.011860
# 5 -0.001765 0.007316 -0.010694 0.000000 0.048436 0.000000
# 6 0.000000 0.000000 0.000000 -0.011860 0.000000 0.040825
#
#
# Mechanical properties :
#
#
# Convention : Reuss Voigt Hill
#
# Bulk Modulus (GPa) = 27.73045 51.91502 39.82273
# Shear Modulus (GPa) = 23.19868 30.85373 27.02620
#
# Velocity S-wave (km/s) = 3.40824 3.93055 3.67868
# Velocity P-wave (km/s) = 5.41973 6.82598 6.16310
#
# Compressibility (1/GPa) = 0.03606144
#
# Stress axis : x y z
#
# Youngs Moduli (GPa) = 29.98630 72.83697 76.32215
#
# Poissons Ratio (x) = -0.05690 0.40647
# Poissons Ratio (y) = -0.02342 0.57355
# Poissons Ratio (z) = 0.15970 0.54736
#
# Static dielectric constant tensor:
#      x y z
#    x 3.342980 0.000000 0.210670 
#    y 0.000000 3.756740 0.000000 
#    z 0.210670 0.000000 3.675250 
# 
# 
# High freq. dielectric constant tensor:
#      x y z
#    x 1.758090 0.000000 0.022470 
#    y 0.000000 1.795240 0.000000 
#    z 0.022470 0.000000 1.784600 
# 
# From -- ./inp_files/251911.got.cif
#   From: 2010.06.25/outbox.cif.g09.slc.cpg/sg15_126_cif.got.tgz:251911.got - 2010.06.28 07:06:18.
