data_PCOD8137250
_publ_section_title
;
Structure prediction by ZEFSAII (Michael W. Deem and Ramdas Pophale) SiO2 
 PCOD8137250
Probable space group: C 2/C
;
_chemical_formula_sum "Si O2"
_cell_formula_units_Z 36
_cell_length_a 12.392276
_cell_length_b 26.575868
_cell_length_c 5.042037
_cell_angle_alpha 90.000000
_cell_angle_beta 92.935830
_cell_angle_gamma 90.000000
_cell_volume 1658.342336
_symmetry_space_group_name_H-M "C 2/C"
_symmetry_group_IT_number 15
_symmetry_cell_setting 'monoclinic'
loop_
_space_group_symop_operation_xyz
x,y,z
-x,y,1/2-z
-x,-y,-z
x,-y,1/2+z
1/2+x,1/2+y,z
1/2-x,1/2+y,1/2-z
1/2-x,1/2-y,-z
1/2+x,1/2-y,1/2+z
loop_
_atom_site_type_symbol
_atom_site_label
_atom_site_fract_x
_atom_site_fract_y
_atom_site_fract_z
Si Si1 0.121148 0.466748 0.230665
Si Si2 0.917377 0.247778 0.431916
Si Si3 0.734520 0.371294 0.254816
Si Si4 0.500000 0.657791 0.750000
Si Si5 0.281276 0.192107 0.266823
O O1 0.137970 0.512067 0.438379
O O2 0.210996 0.424684 0.291034
O O3 0.000000 0.444117 0.250000
O O4 0.970160 0.193785 0.502134
O O5 0.807629 0.236630 0.254234
O O6 0.893628 0.280577 0.694389
O O7 0.000000 0.277548 0.250000
O O8 0.604819 0.376199 0.189410
O O9 0.757394 0.352500 0.554267
O O10 0.787805 0.331024 0.060056
#
# Coordination Sequence:
#
# PCOD8137250 Si02
#       5
#     8   8   8   4   8
#     4  10  22  43  68  89 118 153 193 256 321 371
#     4  10  20  36  54  82 122 173 206 242 296 346
#     4  11  22  41  60  94 118 159 209 251 301 374
#     4  10  22  36  62  82 130 168 194 248 302 356
#     4  10  23  35  58  84 123 161 212 247 286 351
#
# _framework density 21.708427
#
# number of rings (size 3 to 8) (size 9 to 14) (size 15 to 20)
#    0.000    1.778    2.222    1.333    3.111    3.556 
#    0.000    1.111    0.000    0.000    0.000    0.000 
#    0.000    0.000    0.000    0.000    0.000    0.000 
#
# Total GULP energy -223194.864101 kJ/mol
# GULP energy per Si atom -12399.714672 kJ/mol
# Density = 2.165902 g / cm^3
# Si number density = 21.708427 Si / 1000 Ang^3
#
#
#
# Elastic Constant Matrix: (Units=GPa)
#
#
# Indices 1 2 3 4 5 6 
#
# 1 157.5084 63.2747 19.9686 0.0000 -26.8385 0.0000
# 2 63.2747 77.9030 2.6311 0.0000 -8.1404 0.0000
# 3 19.9686 2.6311 63.8147 0.0000 -13.8589 0.0000
# 4 0.0000 0.0000 0.0000 20.5282 0.0000 1.0129
# 5 -26.8385 -8.1404 -13.8589 0.0000 34.3000 0.0000
# 6 0.0000 0.0000 0.0000 1.0129 0.0000 36.6227
#
#
#
# Elastic Compliance Matrix: (Units=1/GPa)
#
#
# Indices 1 2 3 4 5 6 
#
# 1 0.010835 -0.008131 -0.001790 0.000000 0.005825 0.000000
# 2 -0.008131 0.019266 0.001492 0.000000 -0.001187 0.000000
# 3 -0.001790 0.001492 0.017475 0.000000 0.006014 0.000000
# 4 0.000000 0.000000 0.000000 0.048780 0.000000 -0.001349
# 5 0.005825 -0.001187 0.006014 0.000000 0.035861 0.000000
# 6 0.000000 0.000000 0.000000 -0.001349 0.000000 0.027343
#
#
# Mechanical properties :
#
#
# Convention : Reuss Voigt Hill
#
# Bulk Modulus (GPa) = 32.55402 52.33055 42.44228
# Shear Modulus (GPa) = 26.78705 32.51361 29.65033
#
# Velocity S-wave (km/s) = 3.51657 3.87427 3.69974
# Velocity P-wave (km/s) = 5.61399 6.64618 6.15177
#
# Compressibility (1/GPa) = 0.03071817
#
# Stress axis : x y z
#
# Youngs Moduli (GPa) = 92.29507 51.90383 57.22415
#
# Poissons Ratio (x) = 0.42204 0.10244
# Poissons Ratio (y) = 0.75047 -0.08539
# Poissons Ratio (z) = 0.16522 -0.07745
#
# Static dielectric constant tensor:
#      x y z
#    x 4.245940 0.000000 -0.163050 
#    y 0.000000 3.408660 0.000000 
#    z -0.163050 0.000000 3.900830 
# 
# 
# High freq. dielectric constant tensor:
#      x y z
#    x 1.865790 0.000000 -0.008760 
#    y 0.000000 1.803610 0.000000 
#    z -0.008760 0.000000 1.870290 
# 
# From -- ./inp_files/4258.got.cif
#   From: 2010.06.25/outbox.cif.g09.slc.cpg/sg15_3_cif.got.tgz:4258.got - 2010.06.28 07:06:18.
