data_PCOD8137143
_publ_section_title
;
Structure prediction by ZEFSAII (Michael W. Deem and Ramdas Pophale) SiO2 
 PCOD8137143
Probable space group: C 2/C
;
_chemical_formula_sum "Si O2"
_cell_formula_units_Z 52
_cell_length_a 19.496875
_cell_length_b 12.680796
_cell_length_c 20.704056
_cell_angle_alpha 90.000000
_cell_angle_beta 151.591013
_cell_angle_gamma 90.000000
_cell_volume 2435.324686
_symmetry_space_group_name_H-M "C 2/C"
_symmetry_group_IT_number 15
_symmetry_cell_setting 'monoclinic'
loop_
_space_group_symop_operation_xyz
x,y,z
-x,y,1/2-z
-x,-y,-z
x,-y,1/2+z
1/2+x,1/2+y,z
1/2-x,1/2+y,1/2-z
1/2-x,1/2-y,-z
1/2+x,1/2-y,1/2+z
loop_
_atom_site_type_symbol
_atom_site_label
_atom_site_fract_x
_atom_site_fract_y
_atom_site_fract_z
Si Si1 0.214418 0.760252 0.248476
Si Si2 0.000000 0.448923 0.250000
Si Si3 0.523054 0.540377 0.591215
Si Si4 0.209426 0.556697 0.325014
Si Si5 0.385689 0.182800 0.548229
Si Si6 0.919575 0.425871 0.386899
Si Si7 0.141837 0.840271 0.753425
O O1 0.081100 0.840477 0.137229
O O2 0.187382 0.676895 0.282826
O O3 0.359508 0.829278 0.379952
O O4 0.243625 0.706878 0.203093
O O5 0.914361 0.524956 0.227489
O O6 0.887872 0.369958 0.121022
O O7 0.500000 0.500000 0.500000
O O8 0.362033 0.546141 0.487610
O O9 0.620045 0.463611 0.717017
O O10 0.209331 0.481818 0.260523
O O11 0.458647 0.099598 0.562675
O O12 0.218525 0.187945 0.385902
O O13 0.481362 0.289707 0.622386
O O14 0.000000 0.500000 0.500000
#
# Coordination Sequence:
#
# PCOD8137143 Si02
#       7
#     8   4   8   8   8   8   8
#     4  11  21  35  65 100 131 171 210 280 350 399
#     4  10  26  50  64  90 138 188 240 264 336 402
#     4  12  22  40  65 104 142 166 223 285 352 405
#     4  11  24  42  66  92 135 183 223 280 331 410
#     4  10  23  40  67  94 132 179 219 278 333 410
#     4  10  20  35  61  94 130 162 217 273 341 394
#     4  11  23  40  68 107 138 163 227 286 354 398
#
# _framework density 21.352388999999999
#
# number of rings (size 3 to 8) (size 9 to 14) (size 15 to 20)
#    0.000    1.231    3.077    2.769    8.615    0.615 
#    0.000    0.769    0.000    0.000    0.000    0.000 
#    0.000    0.000    0.000    0.000    0.000    0.000 
#
# Total GULP energy -322142.512130 kJ/mol
# GULP energy per Si atom -12390.096620 kJ/mol
# Density = 2.130379 g / cm^3
# Si number density = 21.352389 Si / 1000 Ang^3
#
#
#
# Elastic Constant Matrix: (Units=GPa)
#
#
# Indices 1 2 3 4 5 6 
#
# 1 73.6323 43.2947 25.6754 0.0013 -1.3445 0.0008
# 2 43.2947 128.6084 43.0230 0.0000 -6.5840 0.0005
# 3 25.6754 43.0230 129.8858 -0.0011 -2.3553 -0.0004
# 4 0.0013 0.0000 -0.0011 42.9774 -0.0001 0.2111
# 5 -1.3445 -6.5840 -2.3553 -0.0001 25.5332 0.0003
# 6 0.0008 0.0005 -0.0004 0.2111 0.0003 30.8849
#
#
#
# Elastic Compliance Matrix: (Units=1/GPa)
#
#
# Indices 1 2 3 4 5 6 
#
# 1 0.017259 -0.005281 -0.001673 -0.000001 -0.000607 0.000000
# 2 -0.005281 0.010463 -0.002382 0.000000 0.002200 0.000000
# 3 -0.001673 -0.002382 0.008821 0.000000 0.000111 0.000000
# 4 -0.000001 0.000000 0.000000 0.023269 0.000000 -0.000159
# 5 -0.000607 0.002200 0.000111 0.000000 0.039710 0.000000
# 6 0.000000 0.000000 0.000000 -0.000159 0.000000 0.032379
#
#
# Mechanical properties :
#
#
# Convention : Reuss Voigt Hill
#
# Bulk Modulus (GPa) = 55.96108 61.79033 58.87570
# Shear Modulus (GPa) = 31.94273 34.55466 33.24869
#
# Velocity S-wave (km/s) = 3.87199 4.02718 3.95034
# Velocity P-wave (km/s) = 6.80110 7.11515 6.95990
#
# Compressibility (1/GPa) = 0.01786956
#
# Stress axis : x y z
#
# Youngs Moduli (GPa) = 57.94180 95.57629 113.36835
#
# Poissons Ratio (x) = 0.50477 0.18970
# Poissons Ratio (y) = 0.30601 0.27002
# Poissons Ratio (z) = 0.09695 0.22764
#
# Static dielectric constant tensor:
#      x y z
#    x 3.490710 0.000000 0.094930 
#    y 0.000000 3.722510 0.000000 
#    z 0.094930 0.000000 4.173490 
# 
# 
# High freq. dielectric constant tensor:
#      x y z
#    x 1.810680 0.000000 0.016670 
#    y 0.000000 1.844090 0.000000 
#    z 0.016670 0.000000 1.846830 
# 
# From -- ./inp_files/252766.got.cif
#   From: 2010.06.25/outbox.cif.g09.slc.cpg/sg15_127_cif.got.tgz:252766.got - 2010.06.28 07:06:18.
