data_PCOD8137054
_publ_section_title
;
Structure prediction by ZEFSAII (Michael W. Deem and Ramdas Pophale) SiO2 
 PCOD8137054
Probable space group: C 2/C
;
_chemical_formula_sum "Si O2"
_cell_formula_units_Z 48
_cell_length_a 10.835905
_cell_length_b 27.678571
_cell_length_c 13.370081
_cell_angle_alpha 90.000000
_cell_angle_beta 33.723780
_cell_angle_gamma 90.000000
_cell_volume 2226.302998
_symmetry_space_group_name_H-M "C 2/C"
_symmetry_group_IT_number 15
_symmetry_cell_setting 'monoclinic'
loop_
_space_group_symop_operation_xyz
x,y,z
-x,y,1/2-z
-x,-y,-z
x,-y,1/2+z
1/2+x,1/2+y,z
1/2-x,1/2+y,1/2-z
1/2-x,1/2-y,-z
1/2+x,1/2-y,1/2+z
loop_
_atom_site_type_symbol
_atom_site_label
_atom_site_fract_x
_atom_site_fract_y
_atom_site_fract_z
Si Si1 0.229762 0.294722 0.633286
Si Si2 0.585619 0.775715 0.935070
Si Si3 0.052944 0.112657 0.522165
Si Si4 0.684661 0.464701 0.197270
Si Si5 0.388245 0.965329 0.719300
Si Si6 0.328586 0.818748 0.286435
O O1 0.403913 0.252949 0.491175
O O2 0.228112 0.304421 0.755887
O O3 0.291068 0.345200 0.537604
O O4 0.000000 0.274914 0.750000
O O5 0.735712 0.733602 0.885539
O O6 0.466194 0.812456 0.090588
O O7 0.938895 0.084226 0.688648
O O8 0.862624 0.140717 0.588080
O O9 0.212339 0.077899 0.349460
O O10 0.500000 0.492027 0.250000
O O11 0.748824 0.492976 0.255964
O O12 0.906647 0.449876 0.988753
O O13 0.500000 0.982167 0.750000
O O14 0.500000 0.839677 0.250000
#
# Coordination Sequence:
#
# PCOD8137054 Si02
#       6
#     8   8   8   8   8   8
#     4  10  20  35  59  88 126 164 201 262 311 373
#     4   9  20  37  59  87 122 165 221 250 313 379
#     4  11  24  39  62  97 130 160 212 265 318 379
#     4  11  25  44  71  98 127 173 212 261 326 387
#     4  11  24  46  71  95 131 169 214 262 322 392
#     4  10  21  39  61  89 126 171 211 268 316 375
#
# _framework density 21.560407000000001
#
# number of rings (size 3 to 8) (size 9 to 14) (size 15 to 20)
#    0.000    1.667    1.667    2.000    2.333    0.667 
#    3.000    1.667    0.000    0.000    0.000    0.000 
#    0.000    0.000    0.000    0.000    0.000    0.000 
#
# Total GULP energy -297317.138766 kJ/mol
# GULP energy per Si atom -12388.214115 kJ/mol
# Density = 2.151133 g / cm^3
# Si number density = 21.560407 Si / 1000 Ang^3
#
#
#
# Elastic Constant Matrix: (Units=GPa)
#
#
# Indices 1 2 3 4 5 6 
#
# 1 122.0817 44.4343 32.3524 0.0000 -13.5338 0.0000
# 2 44.4343 75.5811 36.0078 0.0000 7.1137 0.0000
# 3 32.3524 36.0078 117.1254 0.0000 -0.1454 0.0000
# 4 0.0000 0.0000 0.0000 19.7797 0.0000 11.6787
# 5 -13.5338 7.1137 -0.1454 0.0000 32.5411 0.0000
# 6 0.0000 0.0000 0.0000 11.6787 0.0000 -0.7512
#
#
#
# Elastic Compliance Matrix: (Units=1/GPa)
#
#
# Indices 1 2 3 4 5 6 
#
# 1 0.011729 -0.006981 -0.001086 0.000000 0.006399 0.000000
# 2 -0.006981 0.020044 -0.004243 0.000000 -0.007304 0.000000
# 3 -0.001086 -0.004243 0.010143 0.000000 0.000521 0.000000
# 4 0.000000 0.000000 0.000000 0.004966 0.000000 0.077214
# 5 0.006399 -0.007304 0.000521 0.000000 0.034991 0.000000
# 6 0.000000 0.000000 0.000000 0.077214 0.000000 -0.130774
#
#
# Mechanical properties :
#
#
# Convention : Reuss Voigt Hill
#
# Bulk Modulus (GPa) = 57.81384 60.04192 58.92788
# Shear Modulus (GPa) = -270.02074 23.78017 -123.12029
#
# Velocity S-wave (km/s) = -11.20317 3.32468 -7.56497
# Velocity P-wave (km/s) = 11.85222 6.53044 6.99387
#
# Compressibility (1/GPa) = 0.01729690
#
# Stress axis : x y z
#
# Youngs Moduli (GPa) = 85.25778 49.89148 98.59192
#
# Poissons Ratio (x) = 0.34827 0.10705
# Poissons Ratio (y) = 0.59515 0.41831
# Poissons Ratio (z) = 0.09258 0.21168
#
# Static dielectric constant tensor:
#      x y z
#    x 3.890600 0.000000 -0.194660 
#    y 0.000000 3.637340 0.000000 
#    z -0.194660 0.000000 4.277900 
# 
# 
# High freq. dielectric constant tensor:
#      x y z
#    x 1.836430 0.000000 -0.013360 
#    y 0.000000 1.816320 0.000000 
#    z -0.013360 0.000000 1.879380 
# 
# From -- ./inp_files/148681.got.cif
#   From: 2010.06.25/outbox.cif.g09.slc.cpg/sg15_75_cif.got.tgz:148681.got - 2010.06.28 07:06:18.
