data_PCOD8137473
_publ_section_title
;
Structure prediction by ZEFSAII (Michael W. Deem and Ramdas Pophale) SiO2 
 PCOD8137473
Probable space group: C 2/C
;
_chemical_formula_sum "Si O2"
_cell_formula_units_Z 64
_cell_length_a 22.844649
_cell_length_b 23.043139
_cell_length_c 11.228110
_cell_angle_alpha 90.000000
_cell_angle_beta 150.796013
_cell_angle_gamma 90.000000
_cell_volume 2883.910415
_symmetry_space_group_name_H-M "C 2/C"
_symmetry_group_IT_number 15
_symmetry_cell_setting 'monoclinic'
loop_
_space_group_symop_operation_xyz
x,y,z
-x,y,1/2-z
-x,-y,-z
x,-y,1/2+z
1/2+x,1/2+y,z
1/2-x,1/2+y,1/2-z
1/2-x,1/2-y,-z
1/2+x,1/2-y,1/2+z
loop_
_atom_site_type_symbol
_atom_site_label
_atom_site_fract_x
_atom_site_fract_y
_atom_site_fract_z
Si Si1 0.971200 0.673217 0.360858
Si Si2 0.197270 0.258684 0.221125
Si Si3 0.754779 0.387609 0.390454
Si Si4 0.507138 0.081168 0.622744
Si Si5 0.306379 0.009353 0.139213
Si Si6 0.369338 0.574217 0.062438
Si Si7 0.377537 0.683274 0.216884
Si Si8 0.368282 0.274509 0.313778
O O1 0.015148 0.640497 0.560154
O O2 0.881434 0.726731 0.233710
O O3 0.084475 0.699085 0.489712
O O4 0.897220 0.627951 0.147653
O O5 0.271043 0.290946 0.452221
O O6 0.148450 0.197701 0.189554
O O7 0.276187 0.247485 0.245683
O O8 0.738983 0.449319 0.425333
O O9 0.680367 0.336181 0.323791
O O10 0.707230 0.389867 0.171190
O O11 0.500000 0.096886 0.750000
O O12 0.390201 0.045120 0.377352
O O13 0.623602 0.041712 0.804872
O O14 0.200626 0.983812 0.031149
O O15 0.500000 0.555814 0.250000
O O16 0.384525 0.614445 0.206557
O O17 0.501633 0.713716 0.396674
#
# Coordination Sequence:
#
# PCOD8137473 Si02
#       8
#     8   8   8   8   8   8   8   8
#     4  10  24  39  64  97 130 166 212 263 328 391
#     4  10  20  36  61  95 124 165 210 257 312 383
#     4  11  23  43  64  90 131 169 210 274 323 382
#     4  10  21  42  63  95 128 165 208 273 331 378
#     4  10  24  41  64  95 128 162 223 271 321 387
#     4  12  22  41  68  91 121 175 219 265 326 383
#     4  10  20  36  58  94 128 156 217 266 300 378
#     4  11  21  40  64  89 132 174 204 258 327 388
#
# _framework density 22.192091000000001
#
# number of rings (size 3 to 8) (size 9 to 14) (size 15 to 20)
#    0.000    1.500    2.500    2.250    0.000    5.000 
#    6.750    0.000    5.500    0.000    0.000    0.000 
#    0.000    0.000    0.000    0.000    0.000    0.000 
#
# Total GULP energy -396734.070602 kJ/mol
# GULP energy per Si atom -12397.939706 kJ/mol
# Density = 2.214158 g / cm^3
# Si number density = 22.192091 Si / 1000 Ang^3
#
#
#
# Elastic Constant Matrix: (Units=GPa)
#
#
# Indices 1 2 3 4 5 6 
#
# 1 96.0470 32.2644 38.5266 0.0000 22.8429 0.0000
# 2 32.2644 101.8815 23.1105 0.0000 11.0950 0.0000
# 3 38.5266 23.1105 91.8717 0.0000 17.1952 0.0000
# 4 0.0000 0.0000 0.0000 40.1013 0.0000 -0.9412
# 5 22.8429 11.0950 17.1952 0.0000 36.8214 0.0000
# 6 0.0000 0.0000 0.0000 -0.9412 0.0000 33.6384
#
#
#
# Elastic Compliance Matrix: (Units=1/GPa)
#
#
# Indices 1 2 3 4 5 6 
#
# 1 0.014570 -0.002988 -0.004202 0.000000 -0.006176 0.000000
# 2 -0.002988 0.011172 -0.001396 0.000000 -0.000861 0.000000
# 3 -0.004202 -0.001396 0.013622 0.000000 -0.003334 0.000000
# 4 0.000000 0.000000 0.000000 0.024953 0.000000 0.000698
# 5 -0.006176 -0.000861 -0.003334 0.000000 0.032806 0.000000
# 6 0.000000 0.000000 0.000000 0.000698 0.000000 0.029747
#
#
# Mechanical properties :
#
#
# Convention : Reuss Voigt Hill
#
# Bulk Modulus (GPa) = 45.06404 53.06703 49.06553
# Shear Modulus (GPa) = 33.01624 35.17213 34.09418
#
# Velocity S-wave (km/s) = 3.86132 3.98539 3.92385
# Velocity P-wave (km/s) = 6.34272 6.71880 6.53347
#
# Compressibility (1/GPa) = 0.02219064
#
# Stress axis : x y z
#
# Youngs Moduli (GPa) = 68.63491 89.50881 73.40988
#
# Poissons Ratio (x) = 0.26748 0.30849
# Poissons Ratio (y) = 0.20510 0.10249
# Poissons Ratio (z) = 0.28842 0.12497
#
# Static dielectric constant tensor:
#      x y z
#    x 3.928770 0.000000 0.095320 
#    y 0.000000 4.105990 0.000000 
#    z 0.095320 0.000000 4.228070 
# 
# 
# High freq. dielectric constant tensor:
#      x y z
#    x 1.858670 0.000000 0.012110 
#    y 0.000000 1.866630 0.000000 
#    z 0.012110 0.000000 1.890040 
# 
# From -- ./inp_files/120269.got.cif
#   From: 2010.06.25/outbox.cif.g09.slc.cpg/sg15_61_cif.got.tgz:120269.got - 2010.06.28 07:06:18.
