data_PCOD8137565
_publ_section_title
;
Structure prediction by ZEFSAII (Michael W. Deem and Ramdas Pophale) SiO2 
 PCOD8137565
Probable space group: C 2/C
;
_chemical_formula_sum "Si O2"
_cell_formula_units_Z 48
_cell_length_a 21.068803
_cell_length_b 5.214402
_cell_length_c 34.358780
_cell_angle_alpha 90.000000
_cell_angle_beta 139.038416
_cell_angle_gamma 90.000000
_cell_volume 2474.513474
_symmetry_space_group_name_H-M "C 2/C"
_symmetry_group_IT_number 15
_symmetry_cell_setting 'monoclinic'
loop_
_space_group_symop_operation_xyz
x,y,z
-x,y,1/2-z
-x,-y,-z
x,-y,1/2+z
1/2+x,1/2+y,z
1/2-x,1/2+y,1/2-z
1/2-x,1/2-y,-z
1/2+x,1/2-y,1/2+z
loop_
_atom_site_type_symbol
_atom_site_label
_atom_site_fract_x
_atom_site_fract_y
_atom_site_fract_z
Si Si1 0.201525 0.202945 0.937107
Si Si2 0.374798 0.921923 0.306391
Si Si3 0.391757 0.995989 0.502063
Si Si4 0.407652 0.816108 0.096702
Si Si5 0.935215 0.800320 0.447971
Si Si6 0.816324 0.926343 0.322820
O O1 0.142978 0.461985 0.900895
O O2 0.293510 0.169901 0.951352
O O3 0.130459 0.957290 0.906046
O O4 0.250000 0.250000 0.000000
O O5 0.480685 0.850024 0.340391
O O6 0.299645 0.897339 0.235506
O O7 0.346949 0.711627 0.325440
O O8 0.370233 0.207130 0.322414
O O9 0.389189 0.160072 0.541186
O O10 0.385686 0.143561 0.458958
O O11 0.493218 0.844072 0.549239
O O12 0.846847 0.910893 0.381975
O O13 0.000000 0.000000 0.500000
#
# Coordination Sequence:
#
# PCOD8137565 Si02
#       6
#     8   8   8   8   8   8
#     4  10  22  34  56  82 111 149 187 235 274 326
#     4  10  20  36  60  82 113 145 188 242 278 333
#     4  10  22  35  51  84 116 147 184 222 288 335
#     4  11  20  36  59  82 112 145 191 236 275 329
#     4  11  23  34  58  82 119 156 175 234 283 359
#     4  10  21  37  55  86 115 146 186 233 288 334
#
# _framework density 19.397753999999999
#
# number of rings (size 3 to 8) (size 9 to 14) (size 15 to 20)
#    0.000    1.667    1.667    4.000   11.667    0.000 
#    0.000    0.000    0.000    1.000    0.000    0.000 
#    0.000    0.000    0.000    0.000    0.000    0.000 
#
# Total GULP energy -297337.050896 kJ/mol
# GULP energy per Si atom -12389.043787 kJ/mol
# Density = 1.935360 g / cm^3
# Si number density = 19.397754 Si / 1000 Ang^3
#
#
#
# Elastic Constant Matrix: (Units=GPa)
#
#
# Indices 1 2 3 4 5 6 
#
# 1 90.2955 13.7231 29.9369 -0.0094 12.0044 0.0150
# 2 13.7231 80.5703 11.3214 -0.0033 4.3302 0.0020
# 3 29.9369 11.3214 124.5617 -0.0029 14.1822 -0.0093
# 4 -0.0094 -0.0033 -0.0029 24.6115 0.0124 10.1920
# 5 12.0044 4.3302 14.1822 0.0124 24.4268 -0.0038
# 6 0.0150 0.0020 -0.0093 10.1920 -0.0038 -10.2915
#
#
#
# Elastic Compliance Matrix: (Units=1/GPa)
#
#
# Indices 1 2 3 4 5 6 
#
# 1 0.012717 -0.001584 -0.002391 -0.000002 -0.004581 0.000020
# 2 -0.001584 0.012834 -0.000659 0.000001 -0.001114 0.000002
# 3 -0.002391 -0.000659 0.009118 0.000005 -0.004002 -0.000006
# 4 -0.000002 0.000001 0.000005 0.028814 -0.000012 0.028536
# 5 -0.004581 -0.001114 -0.004002 -0.000012 0.045711 -0.000032
# 6 0.000020 0.000002 -0.000006 0.028536 -0.000032 -0.068908
#
#
# Mechanical properties :
#
#
# Convention : Reuss Voigt Hill
#
# Bulk Modulus (GPa) = 39.36725 45.04335 42.20530
# Shear Modulus (GPa) = 86.17472 23.77911 54.97691
#
# Velocity S-wave (km/s) = 6.67245 3.50504 5.32949
# Velocity P-wave (km/s) = 8.92753 6.29696 7.72504
#
# Compressibility (1/GPa) = 0.02540182
#
# Stress axis : x y z
#
# Youngs Moduli (GPa) = 78.63394 77.91948 109.66896
#
# Poissons Ratio (x) = 0.12342 0.26221
# Poissons Ratio (y) = 0.12455 0.07227
# Poissons Ratio (z) = 0.18800 0.05134
#
# Static dielectric constant tensor:
#      x y z
#    x 3.417320 0.001510 0.475330 
#    y 0.001510 4.192130 0.001100 
#    z 0.475330 0.001100 3.680720 
# 
# 
# High freq. dielectric constant tensor:
#      x y z
#    x 1.736670 -0.000010 0.030280 
#    y -0.000010 1.769200 0.000010 
#    z 0.030280 0.000010 1.742350 
# 
# From -- ./inp_files/317095.got.cif
#   From: 2010.06.25/outbox.cif.g09.slc.cpg/sg15_159_cif.got.tgz:317095.got - 2010.06.28 07:06:18.
