data_PCOD8137802
_publ_section_title
;
Structure prediction by ZEFSAII (Michael W. Deem and Ramdas Pophale) SiO2 
 PCOD8137802
Probable space group: C 2/C
;
_chemical_formula_sum "Si O2"
_cell_formula_units_Z 52
_cell_length_a 19.930657
_cell_length_b 15.349653
_cell_length_c 17.706982
_cell_angle_alpha 90.000000
_cell_angle_beta 151.631722
_cell_angle_gamma 90.000000
_cell_volume 2573.852648
_symmetry_space_group_name_H-M "C 2/C"
_symmetry_group_IT_number 15
_symmetry_cell_setting 'monoclinic'
loop_
_space_group_symop_operation_xyz
x,y,z
-x,y,1/2-z
-x,-y,-z
x,-y,1/2+z
1/2+x,1/2+y,z
1/2-x,1/2+y,1/2-z
1/2-x,1/2-y,-z
1/2+x,1/2-y,1/2+z
loop_
_atom_site_type_symbol
_atom_site_label
_atom_site_fract_x
_atom_site_fract_y
_atom_site_fract_z
Si Si1 0.008309 0.304525 0.615417
Si Si2 0.341740 0.664580 0.080612
Si Si3 0.716531 0.019536 0.056970
Si Si4 0.303664 0.353499 0.221346
Si Si5 0.073114 0.346659 0.515354
Si Si6 0.747877 0.180168 0.830641
Si Si7 0.000000 0.586174 0.250000
O O1 0.063365 0.205231 0.671568
O O2 0.068906 0.355280 0.602097
O O3 0.059671 0.354154 0.741171
O O4 0.838426 0.302756 0.444440
O O5 0.500000 0.695430 0.250000
O O6 0.313304 0.591116 0.114205
O O7 0.250000 0.750000 0.000000
O O8 0.309198 0.628761 0.963996
O O9 0.614111 0.060583 0.019545
O O10 0.816474 0.947433 0.194900
O O11 0.625199 0.974971 0.901623
O O12 0.303191 0.369049 0.310923
O O13 0.193206 0.278593 0.609749
O O14 0.921876 0.315179 0.334111
#
# Coordination Sequence:
#
# PCOD8137802 Si02
#       7
#     8   8   8   8   8   8   4
#     4   9  20  39  62  87 117 158 200 234 304 351
#     4  12  25  40  61  90 122 159 194 241 302 356
#     4  11  23  37  59  91 123 147 205 251 286 344
#     4   9  21  41  62  87 117 156 202 244 285 357
#     4  10  20  36  63  85 115 155 201 243 284 357
#     4  10  20  37  63  83 116 162 196 233 303 350
#     4  10  22  38  62  90 118 158 198 244 296 348
#
# _framework density 20.203175999999999
#
# number of rings (size 3 to 8) (size 9 to 14) (size 15 to 20)
#    0.000    1.846    1.538    1.846    1.077    9.231 
#    4.154    0.769    0.000    0.000    0.000    0.000 
#    0.000    0.000    0.000    0.000    0.000    0.000 
#
# Total GULP energy -322428.564509 kJ/mol
# GULP energy per Si atom -12401.098635 kJ/mol
# Density = 2.015719 g / cm^3
# Si number density = 20.203176 Si / 1000 Ang^3
#
#
#
# Elastic Constant Matrix: (Units=GPa)
#
#
# Indices 1 2 3 4 5 6 
#
# 1 111.2028 64.1233 59.7636 0.0015 -16.5390 0.0011
# 2 64.1233 113.7770 56.8128 0.0017 -1.8196 0.0015
# 3 59.7636 56.8128 108.3110 0.0014 -11.7697 0.0014
# 4 0.0015 0.0017 0.0014 23.4897 0.0010 -5.1934
# 5 -16.5390 -1.8196 -11.7697 0.0010 39.0733 0.0010
# 6 0.0011 0.0015 0.0014 -5.1934 0.0010 34.1771
#
#
#
# Elastic Compliance Matrix: (Units=1/GPa)
#
#
# Indices 1 2 3 4 5 6 
#
# 1 0.016191 -0.006582 -0.004932 -0.000001 0.005061 0.000000
# 2 -0.006582 0.014655 -0.004429 0.000000 -0.003437 0.000000
# 3 -0.004932 -0.004429 0.014502 0.000000 0.002075 0.000000
# 4 -0.000001 0.000000 0.000000 0.044052 -0.000002 0.006694
# 5 0.005061 -0.003437 0.002075 -0.000002 0.028200 -0.000001
# 6 0.000000 0.000000 0.000000 0.006694 -0.000001 0.030277
#
#
# Mechanical properties :
#
#
# Convention : Reuss Voigt Hill
#
# Bulk Modulus (GPa) = 74.27180 77.18780 75.72980
# Shear Modulus (GPa) = 27.13723 29.52077 28.32900
#
# Velocity S-wave (km/s) = 3.66897 3.82670 3.74867
# Velocity P-wave (km/s) = 7.40207 7.60353 7.50347
#
# Compressibility (1/GPa) = 0.01346406
#
# Stress axis : x y z
#
# Youngs Moduli (GPa) = 61.76344 68.23615 68.95412
#
# Poissons Ratio (x) = 0.44910 0.34005
# Poissons Ratio (y) = 0.40650 0.30540
# Poissons Ratio (z) = 0.30459 0.30222
#
# Static dielectric constant tensor:
#      x y z
#    x 3.939450 0.000000 -0.354370 
#    y 0.000000 3.492890 0.000000 
#    z -0.354370 0.000000 3.799840 
# 
# 
# High freq. dielectric constant tensor:
#      x y z
#    x 1.799150 0.000000 -0.017320 
#    y 0.000000 1.771650 0.000000 
#    z -0.017320 0.000000 1.790450 
# 
# From -- ./inp_files/215576.got.cif
#   From: 2010.06.25/outbox.cif.g09.slc.cpg/sg15_108_cif.got.tgz:215576.got - 2010.06.28 07:06:18.
