data_PCOD8137858
_publ_section_title
;
Structure prediction by ZEFSAII (Michael W. Deem and Ramdas Pophale) SiO2 
 PCOD8137858
Probable space group: C 2/C
;
_chemical_formula_sum "Si O2"
_cell_formula_units_Z 52
_cell_length_a 9.178182
_cell_length_b 27.132409
_cell_length_c 13.780287
_cell_angle_alpha 90.000000
_cell_angle_beta 47.335231
_cell_angle_gamma 90.000000
_cell_volume 2523.401906
_symmetry_space_group_name_H-M "C 2/C"
_symmetry_group_IT_number 15
_symmetry_cell_setting 'monoclinic'
loop_
_space_group_symop_operation_xyz
x,y,z
-x,y,1/2-z
-x,-y,-z
x,-y,1/2+z
1/2+x,1/2+y,z
1/2-x,1/2+y,1/2-z
1/2-x,1/2-y,-z
1/2+x,1/2-y,1/2+z
loop_
_atom_site_type_symbol
_atom_site_label
_atom_site_fract_x
_atom_site_fract_y
_atom_site_fract_z
Si Si1 0.034958 0.532534 0.891634
Si Si2 0.500000 0.902894 0.750000
Si Si3 0.806550 0.697809 0.784357
Si Si4 0.730220 0.505627 0.380943
Si Si5 0.440502 0.738808 0.041580
Si Si6 0.352657 0.177402 0.443429
Si Si7 0.205670 0.119478 0.681950
O O1 0.226202 0.513936 0.746162
O O2 0.095442 0.586507 0.901800
O O3 0.842016 0.528837 0.909711
O O4 0.000000 0.500000 0.000000
O O5 0.694317 0.937638 0.650202
O O6 0.498141 0.866293 0.658250
O O7 0.661143 0.715942 0.936705
O O8 0.880166 0.739041 0.672952
O O9 0.696086 0.652200 0.783208
O O10 0.000000 0.677070 0.750000
O O11 0.500000 0.500000 0.500000
O O12 0.467526 0.777983 0.941807
O O13 0.273842 0.698017 0.090453
O O14 0.209982 0.156458 0.589959
O O15 0.000000 0.089913 0.750000
#
# Coordination Sequence:
#
# PCOD8137858 Si02
#       7
#     8   4   8   8   8   8   8
#     4  10  23  41  62  90 124 160 206 265 314 377
#     4  10  20  38  60  92 122 158 212 256 314 372
#     4  11  23  38  60  90 127 166 203 258 318 380
#     4  10  24  41  62  92 127 163 209 260 325 380
#     4  10  21  38  60  91 126 161 211 256 321 362
#     4  10  20  36  64  90 117 160 212 263 298 374
#     4  11  22  37  63  90 117 159 218 253 309 372
#
# _framework density 20.607102000000001
#
# number of rings (size 3 to 8) (size 9 to 14) (size 15 to 20)
#    0.000    1.846    1.538    3.231    6.462    0.000 
#    0.000    0.000    3.385    0.000    0.000    0.000 
#    0.000    0.000    0.000    0.000    0.000    0.000 
#
# Total GULP energy -322094.492491 kJ/mol
# GULP energy per Si atom -12388.249711 kJ/mol
# Density = 2.056020 g / cm^3
# Si number density = 20.607102 Si / 1000 Ang^3
#
#
#
# Elastic Constant Matrix: (Units=GPa)
#
#
# Indices 1 2 3 4 5 6 
#
# 1 105.8679 35.1947 42.3171 0.0000 -15.1950 0.0000
# 2 35.1947 89.3445 16.7439 0.0000 -10.3684 0.0000
# 3 42.3171 16.7439 94.0043 0.0000 -11.5985 0.0000
# 4 0.0000 0.0000 0.0000 30.7052 0.0000 2.4567
# 5 -15.1950 -10.3684 -11.5985 0.0000 41.7571 0.0000
# 6 0.0000 0.0000 0.0000 2.4567 0.0000 24.6099
#
#
#
# Elastic Compliance Matrix: (Units=1/GPa)
#
#
# Indices 1 2 3 4 5 6 
#
# 1 0.013054 -0.003948 -0.004875 0.000000 0.002416 0.000000
# 2 -0.003948 0.013007 -0.000330 0.000000 0.001701 0.000000
# 3 -0.004875 -0.000330 0.013111 0.000000 0.001786 0.000000
# 4 0.000000 0.000000 0.000000 0.032830 0.000000 -0.003277
# 5 0.002416 0.001701 0.001786 0.000000 0.025746 0.000000
# 6 0.000000 0.000000 0.000000 -0.003277 0.000000 0.040961
#
#
# Mechanical properties :
#
#
# Convention : Reuss Voigt Hill
#
# Bulk Modulus (GPa) = 47.92309 53.08093 50.50201
# Shear Modulus (GPa) = 30.49346 32.41186 31.45266
#
# Velocity S-wave (km/s) = 3.85093 3.97022 3.91103
# Velocity P-wave (km/s) = 6.56346 6.84334 6.70486
#
# Compressibility (1/GPa) = 0.02086677
#
# Stress axis : x y z
#
# Youngs Moduli (GPa) = 76.60755 76.88106 76.26964
#
# Poissons Ratio (x) = 0.30354 0.37181
# Poissons Ratio (y) = 0.30246 0.02514
# Poissons Ratio (z) = 0.37346 0.02534
#
# Static dielectric constant tensor:
#      x y z
#    x 3.645290 0.000000 0.067840 
#    y 0.000000 3.839940 0.000000 
#    z 0.067840 0.000000 3.696870 
# 
# 
# High freq. dielectric constant tensor:
#      x y z
#    x 1.790800 0.000000 0.006270 
#    y 0.000000 1.801050 0.000000 
#    z 0.006270 0.000000 1.815120 
# 
# From -- ./inp_files/138448.got.cif
#   From: 2010.06.25/outbox.cif.g09.slc.cpg/sg15_70_cif.got.tgz:138448.got - 2010.06.28 07:06:18.
