data_PCOD8137574
_publ_section_title
;
Structure prediction by ZEFSAII (Michael W. Deem and Ramdas Pophale) SiO2 
 PCOD8137574
Probable space group: C 2/C
;
_chemical_formula_sum "Si O2"
_cell_formula_units_Z 52
_cell_length_a 29.049118
_cell_length_b 18.618990
_cell_length_c 14.206805
_cell_angle_alpha 90.000000
_cell_angle_beta 160.943668
_cell_angle_gamma 90.000000
_cell_volume 2508.796855
_symmetry_space_group_name_H-M "C 2/C"
_symmetry_group_IT_number 15
_symmetry_cell_setting 'monoclinic'
loop_
_space_group_symop_operation_xyz
x,y,z
-x,y,1/2-z
-x,-y,-z
x,-y,1/2+z
1/2+x,1/2+y,z
1/2-x,1/2+y,1/2-z
1/2-x,1/2-y,-z
1/2+x,1/2-y,1/2+z
loop_
_atom_site_type_symbol
_atom_site_label
_atom_site_fract_x
_atom_site_fract_y
_atom_site_fract_z
Si Si1 0.526294 0.481250 0.405250
Si Si2 0.666231 0.846218 0.287068
Si Si3 0.552439 0.951519 0.685369
Si Si4 0.644455 0.593674 0.776320
Si Si5 0.682713 0.081498 0.018801
Si Si6 0.459000 0.283668 0.853184
Si Si7 0.500000 0.195401 0.750000
O O1 0.500000 0.510570 0.250000
O O2 0.566159 0.548487 0.545127
O O3 0.393144 0.439420 0.193719
O O4 0.653797 0.425524 0.643515
O O5 0.668297 0.891915 0.385275
O O6 0.594013 0.769823 0.167820
O O7 0.826556 0.833054 0.561520
O O8 0.572061 0.893372 0.030319
O O9 0.500000 0.000000 0.500000
O O10 0.687944 0.906069 0.912165
O O11 0.597284 0.004719 0.858562
O O12 0.583921 0.673297 0.645359
O O13 0.631799 0.141450 0.993877
O O14 0.523603 0.243536 0.887610
#
# Coordination Sequence:
#
# PCOD8137574 Si02
#       7
#     8   8   8   8   8   8   4
#     4  10  21  35  59  86 120 154 197 254 303 343
#     4   9  18  36  61  83 113 162 195 240 307 353
#     4   9  19  35  60  87 115 151 197 250 306 347
#     4  10  21  38  58  91 119 154 206 249 289 371
#     4   9  18  38  55  86 117 150 203 251 293 356
#     4  10  20  36  60  84 121 160 201 239 295 372
#     4  10  22  36  60  82 118 162 200 244 300 362
#
# _framework density 20.727067999999999
#
# number of rings (size 3 to 8) (size 9 to 14) (size 15 to 20)
#    0.000    2.462    1.538    0.000    3.231    4.308 
#    0.000    0.000    0.000    0.000    2.000    0.000 
#    0.000    0.000    0.000    0.000    0.000    0.000 
#
# Total GULP energy -322202.860910 kJ/mol
# GULP energy per Si atom -12392.417727 kJ/mol
# Density = 2.067989 g / cm^3
# Si number density = 20.727068 Si / 1000 Ang^3
#
#
#
# Elastic Constant Matrix: (Units=GPa)
#
#
# Indices 1 2 3 4 5 6 
#
# 1 68.7350 20.4027 10.4472 0.0000 7.4097 0.0000
# 2 20.4027 79.6962 38.2732 0.0000 4.5979 0.0000
# 3 10.4472 38.2732 89.5235 0.0000 13.2150 0.0000
# 4 0.0000 0.0000 0.0000 35.6503 0.0000 -9.2529
# 5 7.4097 4.5979 13.2150 0.0000 15.3884 0.0000
# 6 0.0000 0.0000 0.0000 -9.2529 0.0000 -98.6945
#
#
#
# Elastic Compliance Matrix: (Units=1/GPa)
#
#
# Indices 1 2 3 4 5 6 
#
# 1 0.016473 -0.004270 0.001014 0.000000 -0.007527 0.000000
# 2 -0.004270 0.016917 -0.007205 0.000000 0.003189 0.000000
# 3 0.001014 -0.007205 0.015902 0.000000 -0.011992 0.000000
# 4 0.000000 0.000000 0.000000 0.027384 0.000000 -0.002567
# 5 -0.007527 0.003189 -0.011992 0.000000 0.077954 0.000000
# 6 0.000000 0.000000 0.000000 -0.002567 0.000000 -0.009892
#
#
# Mechanical properties :
#
#
# Convention : Reuss Voigt Hill
#
# Bulk Modulus (GPa) = 35.24666 41.80011 38.52338
# Shear Modulus (GPa) = 28.55230 1.72429 15.13830
#
# Velocity S-wave (km/s) = 3.71555 0.91308 2.70546
# Velocity P-wave (km/s) = 5.95391 4.61761 5.32782
#
# Compressibility (1/GPa) = 0.02837149
#
# Stress axis : x y z
#
# Youngs Moduli (GPa) = 60.70377 59.11272 62.88422
#
# Poissons Ratio (x) = 0.25242 -0.06378
# Poissons Ratio (y) = 0.25921 0.45306
# Poissons Ratio (z) = -0.06157 0.42589
#
# Static dielectric constant tensor:
#      x y z
#    x 3.573310 0.000000 0.140350 
#    y 0.000000 4.152370 0.000000 
#    z 0.140350 0.000000 4.129970 
# 
# 
# High freq. dielectric constant tensor:
#      x y z
#    x 1.778510 0.000000 0.019150 
#    y 0.000000 1.818710 0.000000 
#    z 0.019150 0.000000 1.806000 
# 
# From -- ./inp_files/182909.got.cif
#   From: 2010.06.25/outbox.cif.g09.slc.cpg/sg15_92_cif.got.tgz:182909.got - 2010.06.28 07:06:18.
