data_PCOD8137014
_publ_section_title
;
Structure prediction by ZEFSAII (Michael W. Deem and Ramdas Pophale) SiO2 
 PCOD8137014
Probable space group: C 2/C
;
_chemical_formula_sum "Si O2"
_cell_formula_units_Z 56
_cell_length_a 11.947556
_cell_length_b 8.991483
_cell_length_c 27.953061
_cell_angle_alpha 90.000000
_cell_angle_beta 116.201622
_cell_angle_gamma 90.000000
_cell_volume 2694.332829
_symmetry_space_group_name_H-M "C 2/C"
_symmetry_group_IT_number 15
_symmetry_cell_setting 'monoclinic'
loop_
_space_group_symop_operation_xyz
x,y,z
-x,y,1/2-z
-x,-y,-z
x,-y,1/2+z
1/2+x,1/2+y,z
1/2-x,1/2+y,1/2-z
1/2-x,1/2-y,-z
1/2+x,1/2-y,1/2+z
loop_
_atom_site_type_symbol
_atom_site_label
_atom_site_fract_x
_atom_site_fract_y
_atom_site_fract_z
Si Si1 0.029750 0.199274 0.141996
Si Si2 0.271624 0.328467 0.635536
Si Si3 0.695841 0.589575 0.254604
Si Si4 0.390663 0.196246 0.016464
Si Si5 0.936386 0.559092 0.926188
Si Si6 0.057381 0.880625 0.113680
Si Si7 0.082591 0.784046 0.218463
O O1 0.100944 0.189868 0.205790
O O2 0.070346 0.351100 0.124329
O O3 0.880872 0.204828 0.119170
O O4 0.063220 0.058228 0.115181
O O5 0.335869 0.390503 0.695699
O O6 0.179660 0.447100 0.593869
O O7 0.198470 0.177014 0.633589
O O8 0.839465 0.632063 0.270753
O O9 0.682071 0.417387 0.239403
O O10 0.472885 0.328541 0.053867
O O11 0.433833 0.036368 0.047306
O O12 0.250000 0.250000 0.000000
O O13 0.421222 0.178481 0.966060
O O14 0.003837 0.813138 0.154500
O O15 0.000000 0.777793 0.250000
#
# Coordination Sequence:
#
# PCOD8137014 Si02
#       7
#     8   8   8   8   8   8   8
#     4  11  21  36  60  87 114 150 189 233 285 339
#     4  10  20  39  57  81 122 152 182 237 286 335
#     4  10  20  35  58  86 116 152 191 225 280 352
#     4  10  21  41  61  81 114 152 190 243 292 328
#     4  10  23  39  61  87 109 149 202 232 278 351
#     4   9  21  37  55  84 116 147 191 238 287 344
#     4  10  20  37  57  81 117 154 187 233 285 338
#
# _framework density 20.784365000000001
#
# number of rings (size 3 to 8) (size 9 to 14) (size 15 to 20)
#    0.000    2.000    0.000    3.857    0.000    2.857 
#    0.000   26.429    0.000    0.000    0.000    0.000 
#    0.000    0.000    0.000    0.000    0.000    0.000 
#
# Total GULP energy -347127.092530 kJ/mol
# GULP energy per Si atom -12397.396162 kJ/mol
# Density = 2.073706 g / cm^3
# Si number density = 20.784365 Si / 1000 Ang^3
#
#
#
# Elastic Constant Matrix: (Units=GPa)
#
#
# Indices 1 2 3 4 5 6 
#
# 1 75.2997 28.7311 12.5911 0.0000 0.6901 0.0000
# 2 28.7311 56.3210 11.2423 0.0000 -6.0640 0.0000
# 3 12.5911 11.2423 84.0062 0.0000 3.6926 0.0000
# 4 0.0000 0.0000 0.0000 36.6364 0.0000 0.0600
# 5 0.6901 -6.0640 3.6926 0.0000 22.7492 0.0000
# 6 0.0000 0.0000 0.0000 0.0600 0.0000 26.3205
#
#
#
# Elastic Compliance Matrix: (Units=1/GPa)
#
#
# Indices 1 2 3 4 5 6 
#
# 1 0.016794 -0.008597 -0.001252 0.000000 -0.002598 0.000000
# 2 -0.008597 0.023300 -0.002129 0.000000 0.006817 0.000000
# 3 -0.001252 -0.002129 0.012489 0.000000 -0.002557 0.000000
# 4 0.000000 0.000000 0.000000 0.027295 0.000000 -0.000062
# 5 -0.002598 0.006817 -0.002557 0.000000 0.046269 0.000000
# 6 0.000000 0.000000 0.000000 -0.000062 0.000000 0.037993
#
#
# Mechanical properties :
#
#
# Convention : Reuss Voigt Hill
#
# Bulk Modulus (GPa) = 34.93374 35.63953 35.28664
# Shear Modulus (GPa) = 25.29877 28.01206 26.65541
#
# Velocity S-wave (km/s) = 3.49263 3.67515 3.58505
# Velocity P-wave (km/s) = 5.75402 5.93241 5.84390
#
# Compressibility (1/GPa) = 0.02862562
#
# Stress axis : x y z
#
# Youngs Moduli (GPa) = 59.54658 42.91885 80.07084
#
# Poissons Ratio (x) = 0.36896 0.10028
# Poissons Ratio (y) = 0.51190 0.17050
# Poissons Ratio (z) = 0.07458 0.09139
#
# Static dielectric constant tensor:
#      x y z
#    x 3.508320 0.000000 -0.001960 
#    y 0.000000 3.714800 0.000000 
#    z -0.001960 0.000000 3.992400 
# 
# 
# High freq. dielectric constant tensor:
#      x y z
#    x 1.793290 0.000000 0.001940 
#    y 0.000000 1.810010 0.000000 
#    z 0.001940 0.000000 1.826470 
# 
# From -- ./inp_files/309917.got.cif
#   From: 2010.06.25/outbox.cif.g09.slc.cpg/sg15_155_cif.got.tgz:309917.got - 2010.06.28 07:06:18.
