data_PCOD8137379
_publ_section_title
;
Structure prediction by ZEFSAII (Michael W. Deem and Ramdas Pophale) SiO2 
 PCOD8137379
Probable space group: C 2/C
;
_chemical_formula_sum "Si O2"
_cell_formula_units_Z 44
_cell_length_a 9.153164
_cell_length_b 22.974851
_cell_length_c 12.804477
_cell_angle_alpha 90.000000
_cell_angle_beta 55.088361
_cell_angle_gamma 90.000000
_cell_volume 2208.098874
_symmetry_space_group_name_H-M "C 2/C"
_symmetry_group_IT_number 15
_symmetry_cell_setting 'monoclinic'
loop_
_space_group_symop_operation_xyz
x,y,z
-x,y,1/2-z
-x,-y,-z
x,-y,1/2+z
1/2+x,1/2+y,z
1/2-x,1/2+y,1/2-z
1/2-x,1/2-y,-z
1/2+x,1/2-y,1/2+z
loop_
_atom_site_type_symbol
_atom_site_label
_atom_site_fract_x
_atom_site_fract_y
_atom_site_fract_z
Si Si1 0.989749 0.692375 0.956420
Si Si2 0.830297 0.869946 0.244607
Si Si3 0.133249 0.183317 0.984884
Si Si4 0.554775 0.966283 0.339634
Si Si5 0.367185 0.918055 0.604909
Si Si6 0.500000 0.370444 0.750000
O O1 0.844652 0.685845 0.922383
O O2 0.187706 0.681449 0.829901
O O3 0.958354 0.756431 0.016287
O O4 0.959185 0.645778 0.063958
O O5 0.896004 0.861762 0.098028
O O6 0.737550 0.933217 0.297420
O O7 0.000000 0.866109 0.250000
O O8 0.034813 0.167888 0.133116
O O9 0.500000 0.943219 0.250000
O O10 0.395329 0.947928 0.480949
O O11 0.565193 0.036723 0.335176
O O12 0.160175 0.912905 0.710805
#
# Coordination Sequence:
#
# PCOD8137379 Si02
#       6
#     8   8   8   8   8   4
#     4   9  20  38  64  85 118 159 203 250 287 361
#     4  11  23  38  59  89 123 162 196 248 309 358
#     4  10  21  37  65  91 117 159 204 246 295 356
#     4  10  20  41  63  81 112 166 205 242 293 363
#     4   9  20  37  58  88 119 144 198 253 299 340
#     4  10  20  36  58 100 116 148 198 262 288 356
#
# _framework density 19.926642999999999
#
# number of rings (size 3 to 8) (size 9 to 14) (size 15 to 20)
#    0.000    2.182    0.000    3.818    8.909    0.727 
#    9.818    2.727    0.000    0.000    0.000    0.000 
#    0.000    0.000    0.000    0.000    0.000    0.000 
#
# Total GULP energy -272614.295535 kJ/mol
# GULP energy per Si atom -12391.558888 kJ/mol
# Density = 1.988129 g / cm^3
# Si number density = 19.926643 Si / 1000 Ang^3
#
#
#
# Elastic Constant Matrix: (Units=GPa)
#
#
# Indices 1 2 3 4 5 6 
#
# 1 103.1749 23.6773 50.2965 0.0000 -8.5056 0.0000
# 2 23.6773 102.4768 29.4346 0.0000 -6.1350 0.0000
# 3 50.2965 29.4346 103.2297 0.0000 -7.9714 0.0000
# 4 0.0000 0.0000 0.0000 16.4956 0.0000 -0.8759
# 5 -8.5056 -6.1350 -7.9714 0.0000 29.1114 0.0000
# 6 0.0000 0.0000 0.0000 -0.8759 0.0000 23.3674
#
#
#
# Elastic Compliance Matrix: (Units=1/GPa)
#
#
# Indices 1 2 3 4 5 6 
#
# 1 0.012969 -0.001207 -0.005825 0.000000 0.001940 0.000000
# 2 -0.001207 0.010801 -0.002394 0.000000 0.001268 0.000000
# 3 -0.005825 -0.002394 0.013319 0.000000 0.001441 0.000000
# 4 0.000000 0.000000 0.000000 0.060743 0.000000 0.002277
# 5 0.001940 0.001268 0.001441 0.000000 0.035579 0.000000
# 6 0.000000 0.000000 0.000000 0.002277 0.000000 0.042880
#
#
# Mechanical properties :
#
#
# Convention : Reuss Voigt Hill
#
# Bulk Modulus (GPa) = 54.83296 57.29978 56.06637
# Shear Modulus (GPa) = 24.84832 27.49308 26.17070
#
# Velocity S-wave (km/s) = 3.53511 3.71848 3.62795
# Velocity P-wave (km/s) = 6.65130 6.87415 6.76364
#
# Compressibility (1/GPa) = 0.01823721
#
# Stress axis : x y z
#
# Youngs Moduli (GPa) = 77.10870 92.58697 75.08160
#
# Poissons Ratio (x) = 0.11178 0.43733
# Poissons Ratio (y) = 0.09309 0.17971
# Poissons Ratio (z) = 0.44914 0.22161
#
# Static dielectric constant tensor:
#      x y z
#    x 3.336040 0.000000 -0.165470 
#    y 0.000000 3.825170 0.000000 
#    z -0.165470 0.000000 3.642750 
# 
# 
# High freq. dielectric constant tensor:
#      x y z
#    x 1.743680 0.000000 -0.014490 
#    y 0.000000 1.782730 0.000000 
#    z -0.014490 0.000000 1.780750 
# 
# From -- ./inp_files/79663.got.cif
#   From: 2010.06.25/outbox.cif.g09.slc.cpg/sg15_40_cif.got.tgz:79663.got - 2010.06.28 07:06:18.
