data_PCOD8137700
_publ_section_title
;
Structure prediction by ZEFSAII (Michael W. Deem and Ramdas Pophale) SiO2 
 PCOD8137700
Probable space group: C 2/C
;
_chemical_formula_sum "Si O2"
_cell_formula_units_Z 56
_cell_length_a 18.947719
_cell_length_b 18.387675
_cell_length_c 8.605671
_cell_angle_alpha 90.000000
_cell_angle_beta 112.233994
_cell_angle_gamma 90.000000
_cell_volume 2775.323017
_symmetry_space_group_name_H-M "C 2/C"
_symmetry_group_IT_number 15
_symmetry_cell_setting 'monoclinic'
loop_
_space_group_symop_operation_xyz
x,y,z
-x,y,1/2-z
-x,-y,-z
x,-y,1/2+z
1/2+x,1/2+y,z
1/2-x,1/2+y,1/2-z
1/2-x,1/2-y,-z
1/2+x,1/2-y,1/2+z
loop_
_atom_site_type_symbol
_atom_site_label
_atom_site_fract_x
_atom_site_fract_y
_atom_site_fract_z
Si Si1 0.009175 0.580939 0.573991
Si Si2 0.851049 0.978222 0.441184
Si Si3 0.796891 0.203709 0.658881
Si Si4 0.245084 0.450355 0.616024
Si Si5 0.864717 0.343439 0.820371
Si Si6 0.834870 0.602508 0.948992
Si Si7 0.416594 0.405987 0.210619
O O1 0.093396 0.610191 0.605269
O O2 0.000000 0.578440 0.750000
O O3 0.000000 0.500000 0.500000
O O4 0.949594 0.637981 0.449510
O O5 0.787868 0.934980 0.489014
O O6 0.900976 0.922531 0.380323
O O7 0.808309 0.036872 0.299547
O O8 0.907575 0.021362 0.602006
O O9 0.750000 0.250000 0.500000
O O10 0.843968 0.257089 0.814012
O O11 0.735661 0.148138 0.685963
O O12 0.857076 0.155814 0.610772
O O13 0.195487 0.381019 0.616186
O O14 0.189335 0.519120 0.552902
O O15 0.857332 0.369805 0.637820
O O16 0.500000 0.374206 0.250000
#
# Coordination Sequence:
#
# PCOD8137700 Si02
#       7
#     8   8   8   8   8   8   8
#     4  12  26  39  61  95 133 169 213 269 320 373
#     4  10  20  36  61  93 121 159 207 263 303 370
#     4  10  22  41  65  93 124 169 213 255 317 395
#     4  11  19  35  63  91 124 160 210 258 310 365
#     4  11  23  39  64  96 125 169 213 260 320 378
#     4  11  21  40  64  89 126 165 218 260 311 381
#     4  11  22  39  64  93 126 161 209 264 317 368
#
# _framework density 20.17783
#
# number of rings (size 3 to 8) (size 9 to 14) (size 15 to 20)
#    0.000    1.143    5.714    2.571    2.000    2.286 
#    0.000    2.857    0.000    2.571    0.000    0.000 
#    0.000    0.000    0.000    0.000    0.000    0.000 
#
# Total GULP energy -347139.617128 kJ/mol
# GULP energy per Si atom -12397.843469 kJ/mol
# Density = 2.013190 g / cm^3
# Si number density = 20.177830 Si / 1000 Ang^3
#
#
#
# Elastic Constant Matrix: (Units=GPa)
#
#
# Indices 1 2 3 4 5 6 
#
# 1 193.8038 54.0262 51.7198 0.0000 1.2577 0.0000
# 2 54.0262 84.9466 26.2978 0.0000 2.6166 0.0000
# 3 51.7198 26.2978 85.4007 0.0000 -9.1739 0.0000
# 4 0.0000 0.0000 0.0000 30.2004 0.0000 6.9632
# 5 1.2577 2.6166 -9.1739 0.0000 37.4340 0.0000
# 6 0.0000 0.0000 0.0000 6.9632 0.0000 19.5478
#
#
#
# Elastic Compliance Matrix: (Units=1/GPa)
#
#
# Indices 1 2 3 4 5 6 
#
# 1 0.006987 -0.003408 -0.003268 0.000000 -0.000797 0.000000
# 2 -0.003408 0.014813 -0.002667 0.000000 -0.001575 0.000000
# 3 -0.003268 -0.002667 0.014935 0.000000 0.003956 0.000000
# 4 0.000000 0.000000 0.000000 0.036075 0.000000 -0.012850
# 5 -0.000797 -0.001575 0.003956 0.000000 0.027820 0.000000
# 6 0.000000 0.000000 0.000000 -0.012850 0.000000 0.055734
#
#
# Mechanical properties :
#
#
# Convention : Reuss Voigt Hill
#
# Bulk Modulus (GPa) = 55.40017 69.80430 62.60224
# Shear Modulus (GPa) = 27.61421 32.91027 30.26224
#
# Velocity S-wave (km/s) = 3.70339 4.04296 3.87690
# Velocity P-wave (km/s) = 6.76775 7.51423 7.15074
#
# Compressibility (1/GPa) = 0.01805049
#
# Stress axis : x y z
#
# Youngs Moduli (GPa) = 143.12280 67.50609 66.95776
#
# Poissons Ratio (x) = 0.23003 0.21880
# Poissons Ratio (y) = 0.48770 0.17858
# Poissons Ratio (z) = 0.46769 0.18004
#
# Static dielectric constant tensor:
#      x y z
#    x 3.989020 0.000000 0.026870 
#    y 0.000000 4.008900 0.000000 
#    z 0.026870 0.000000 3.730370 
# 
# 
# High freq. dielectric constant tensor:
#      x y z
#    x 1.800830 0.000000 0.004850 
#    y 0.000000 1.771200 0.000000 
#    z 0.004850 0.000000 1.779790 
# 
# From -- ./inp_files/56708.got.cif
#   From: 2010.06.25/outbox.cif.g09.slc.cpg/sg15_29_cif.got.tgz:56708.got - 2010.06.28 07:06:18.
