data_PCOD8137125
_publ_section_title
;
Structure prediction by ZEFSAII (Michael W. Deem and Ramdas Pophale) SiO2 
 PCOD8137125
Probable space group: C 2/C
;
_chemical_formula_sum "Si O2"
_cell_formula_units_Z 64
_cell_length_a 16.417720
_cell_length_b 10.698644
_cell_length_c 21.647379
_cell_angle_alpha 90.000000
_cell_angle_beta 58.302315
_cell_angle_gamma 90.000000
_cell_volume 3235.123698
_symmetry_space_group_name_H-M "C 2/C"
_symmetry_group_IT_number 15
_symmetry_cell_setting 'monoclinic'
loop_
_space_group_symop_operation_xyz
x,y,z
-x,y,1/2-z
-x,-y,-z
x,-y,1/2+z
1/2+x,1/2+y,z
1/2-x,1/2+y,1/2-z
1/2-x,1/2-y,-z
1/2+x,1/2-y,1/2+z
loop_
_atom_site_type_symbol
_atom_site_label
_atom_site_fract_x
_atom_site_fract_y
_atom_site_fract_z
Si Si1 0.268614 0.290533 0.187607
Si Si2 0.038223 0.116189 0.547083
Si Si3 0.340448 0.785309 0.922228
Si Si4 0.912018 0.667203 0.053493
Si Si5 0.578536 0.919839 0.269237
Si Si6 0.805549 0.674589 0.295734
Si Si7 0.367734 0.532649 0.106785
Si Si8 0.049271 0.487332 0.072503
O O1 0.308499 0.175093 0.129833
O O2 0.154198 0.305084 0.237469
O O3 0.318215 0.276366 0.235944
O O4 0.301318 0.412623 0.138689
O O5 0.075214 0.189086 0.592376
O O6 0.966090 0.199416 0.533534
O O7 0.973203 0.996149 0.593446
O O8 0.124875 0.071726 0.468619
O O9 0.323812 0.765692 0.855903
O O10 0.372960 0.928220 0.921761
O O11 0.250000 0.750000 0.000000
O O12 0.983686 0.573509 0.057312
O O13 0.894322 0.615446 0.991362
O O14 0.500000 0.893240 0.250000
O O15 0.522072 0.911433 0.355607
O O16 0.624819 0.057309 0.242932
O O17 0.692447 0.639829 0.334567
#
# Coordination Sequence:
#
# PCOD8137125 Si02
#       8
#     8   8   8   8   8   8   8   8
#     4  10  22  37  60  87 120 157 199 238 305 358
#     4   9  18  35  59  84 115 148 193 236 305 347
#     4  11  21  35  60  90 116 146 197 257 300 345
#     4   9  19  36  58  89 118 154 194 248 287 362
#     4  11  22  38  62  86 120 159 197 247 306 357
#     4  11  21  37  60  86 119 151 202 245 297 355
#     4   9  19  35  55  82 113 152 189 240 287 361
#     4  10  20  35  61  89 119 153 203 247 300 353
#
# _framework density 19.782861
#
# number of rings (size 3 to 8) (size 9 to 14) (size 15 to 20)
#    0.000    2.000    3.750    0.000    1.750    1.000 
#    0.000    0.625    2.750    0.000    0.000    0.000 
#    0.000    0.000    0.000    0.000    0.000    0.000 
#
# Total GULP energy -396418.121886 kJ/mol
# GULP energy per Si atom -12388.066309 kJ/mol
# Density = 1.973783 g / cm^3
# Si number density = 19.782861 Si / 1000 Ang^3
#
#
#
# Elastic Constant Matrix: (Units=GPa)
#
#
# Indices 1 2 3 4 5 6 
#
# 1 83.9349 35.6046 48.5344 0.0000 -0.5951 0.0000
# 2 35.6046 55.6038 42.2127 0.0000 4.7838 0.0000
# 3 48.5344 42.2127 139.6646 0.0000 -1.0038 0.0000
# 4 0.0000 0.0000 0.0000 33.5066 0.0000 -4.4367
# 5 -0.5951 4.7838 -1.0038 0.0000 30.7535 0.0000
# 6 0.0000 0.0000 0.0000 -4.4367 0.0000 23.0172
#
#
#
# Elastic Compliance Matrix: (Units=1/GPa)
#
#
# Indices 1 2 3 4 5 6 
#
# 1 0.017670 -0.008824 -0.003462 0.000000 0.001602 0.000000
# 2 -0.008824 0.028214 -0.005495 0.000000 -0.004739 0.000000
# 3 -0.003462 -0.005495 0.010032 0.000000 0.001115 0.000000
# 4 0.000000 0.000000 0.000000 0.030627 0.000000 0.005903
# 5 0.001602 -0.004739 0.001115 0.000000 0.033321 0.000000
# 6 0.000000 0.000000 0.000000 0.005903 0.000000 0.044584
#
#
# Mechanical properties :
#
#
# Convention : Reuss Voigt Hill
#
# Bulk Modulus (GPa) = 49.13106 59.10073 54.11589
# Shear Modulus (GPa) = 24.17844 27.64556 25.91200
#
# Velocity S-wave (km/s) = 3.49978 3.74230 3.62307
# Velocity P-wave (km/s) = 6.42031 6.97228 6.70198
#
# Compressibility (1/GPa) = 0.02035372
#
# Stress axis : x y z
#
# Youngs Moduli (GPa) = 56.59158 35.44299 99.68159
#
# Poissons Ratio (x) = 0.31276 0.34510
# Poissons Ratio (y) = 0.49939 0.54776
# Poissons Ratio (z) = 0.19592 0.19476
#
# Static dielectric constant tensor:
#      x y z
#    x 3.598580 0.000000 -0.272620 
#    y 0.000000 3.741050 0.000000 
#    z -0.272620 0.000000 3.952200 
# 
# 
# High freq. dielectric constant tensor:
#      x y z
#    x 1.750850 0.000000 -0.019720 
#    y 0.000000 1.750060 0.000000 
#    z -0.019720 0.000000 1.786360 
# 
# From -- ./inp_files/248354.got.cif
#   From: 2010.06.25/outbox.cif.g09.slc.cpg/sg15_125_cif.got.tgz:248354.got - 2010.06.28 07:06:18.
