data_PCOD8137277
_publ_section_title
;
Structure prediction by ZEFSAII (Michael W. Deem and Ramdas Pophale) SiO2 
 PCOD8137277
Probable space group: C 2/C
;
_chemical_formula_sum "Si O2"
_cell_formula_units_Z 48
_cell_length_a 17.184068
_cell_length_b 22.589136
_cell_length_c 8.657668
_cell_angle_alpha 90.000000
_cell_angle_beta 45.631531
_cell_angle_gamma 90.000000
_cell_volume 2402.404182
_symmetry_space_group_name_H-M "C 2/C"
_symmetry_group_IT_number 15
_symmetry_cell_setting 'monoclinic'
loop_
_space_group_symop_operation_xyz
x,y,z
-x,y,1/2-z
-x,-y,-z
x,-y,1/2+z
1/2+x,1/2+y,z
1/2-x,1/2+y,1/2-z
1/2-x,1/2-y,-z
1/2+x,1/2-y,1/2+z
loop_
_atom_site_type_symbol
_atom_site_label
_atom_site_fract_x
_atom_site_fract_y
_atom_site_fract_z
Si Si1 0.672108 0.445080 0.285745
Si Si2 0.887388 0.361012 0.478032
Si Si3 0.788580 0.067572 0.114710
Si Si4 0.422186 0.736935 0.502421
Si Si5 0.038890 0.130915 0.453605
Si Si6 0.782476 0.147860 0.543741
O O1 0.666603 0.511441 0.355030
O O2 0.550497 0.420150 0.439191
O O3 0.744967 0.405910 0.301370
O O4 0.729814 0.445101 0.038887
O O5 0.827389 0.413369 0.652491
O O6 0.899331 0.305281 0.581702
O O7 0.817690 0.338354 0.428116
O O8 0.000000 0.385169 0.250000
O O9 0.881486 0.118548 0.010752
O O10 0.500000 0.744100 0.250000
O O11 0.481468 0.695909 0.549975
O O12 0.308907 0.705992 0.608818
O O13 0.109822 0.128664 0.199285
#
# Coordination Sequence:
#
# PCOD8137277 Si02
#       6
#     8   8   8   8   8   8
#     4  11  21  36  55  83 114 141 176 225 281 334
#     4  10  20  36  56  78 104 145 192 228 261 312
#     4  11  22  35  55  83 112 146 180 223 277 327
#     4   8  15  30  56  83 107 138 179 220 265 323
#     4   9  18  33  56  86 115 140 170 216 275 335
#     4   9  18  34  56  83 111 142 178 222 271 325
#
# _framework density 19.979984999999999
#
# number of rings (size 3 to 8) (size 9 to 14) (size 15 to 20)
#    0.000    2.333    0.000    5.000    0.000    2.667 
#    0.000    7.500    0.000   12.000    0.000    0.000 
#    0.000    0.000    0.000    0.000    0.000    0.000 
#
# Total GULP energy -297472.366169 kJ/mol
# GULP energy per Si atom -12394.681924 kJ/mol
# Density = 1.993451 g / cm^3
# Si number density = 19.979985 Si / 1000 Ang^3
#
#
#
# Elastic Constant Matrix: (Units=GPa)
#
#
# Indices 1 2 3 4 5 6 
#
# 1 66.0127 27.8510 34.7597 0.0000 -2.1433 0.0000
# 2 27.8510 89.7782 34.8228 0.0000 -3.7511 0.0000
# 3 34.7597 34.8228 69.1018 0.0000 -6.9741 0.0000
# 4 0.0000 0.0000 0.0000 27.2201 0.0000 2.1235
# 5 -2.1433 -3.7511 -6.9741 0.0000 36.1641 0.0000
# 6 0.0000 0.0000 0.0000 2.1235 0.0000 19.4486
#
#
#
# Elastic Compliance Matrix: (Units=1/GPa)
#
#
# Indices 1 2 3 4 5 6 
#
# 1 0.021279 -0.003047 -0.009253 0.000000 -0.000839 0.000000
# 2 -0.003047 0.014281 -0.005643 0.000000 0.000213 0.000000
# 3 -0.009253 -0.005643 0.022289 0.000000 0.003165 0.000000
# 4 0.000000 0.000000 0.000000 0.037053 0.000000 -0.004046
# 5 -0.000839 0.000213 0.003165 0.000000 0.028234 0.000000
# 6 0.000000 0.000000 0.000000 -0.004046 0.000000 0.051859
#
#
# Mechanical properties :
#
#
# Convention : Reuss Voigt Hill
#
# Bulk Modulus (GPa) = 45.52979 46.63997 46.08488
# Shear Modulus (GPa) = 22.91439 25.06381 23.98910
#
# Velocity S-wave (km/s) = 3.39022 3.54566 3.46881
# Velocity P-wave (km/s) = 6.17753 6.33690 6.25772
#
# Compressibility (1/GPa) = 0.02196364
#
# Stress axis : x y z
#
# Youngs Moduli (GPa) = 46.99399 70.02107 44.86558
#
# Poissons Ratio (x) = 0.21338 0.41514
# Poissons Ratio (y) = 0.14321 0.25316
# Poissons Ratio (z) = 0.43484 0.39510
#
# Static dielectric constant tensor:
#      x y z
#    x 3.595280 0.000000 0.017070 
#    y 0.000000 3.897120 0.000000 
#    z 0.017070 0.000000 3.383120 
# 
# 
# High freq. dielectric constant tensor:
#      x y z
#    x 1.764660 0.000000 -0.003800 
#    y 0.000000 1.780680 0.000000 
#    z -0.003800 0.000000 1.749690 
# 
# From -- ./inp_files/50038.got.cif
#   From: 2010.06.25/outbox.cif.g09.slc.cpg/sg15_26_cif.got.tgz:50038.got - 2010.06.28 07:06:18.
