data_PCOD8137344
_publ_section_title
;
Structure prediction by ZEFSAII (Michael W. Deem and Ramdas Pophale) SiO2 
 PCOD8137344
Probable space group: C 2/C
;
_chemical_formula_sum "Si O2"
_cell_formula_units_Z 48
_cell_length_a 17.034975
_cell_length_b 29.386383
_cell_length_c 9.475901
_cell_angle_alpha 90.000000
_cell_angle_beta 33.413820
_cell_angle_gamma 90.000000
_cell_volume 2612.216115
_symmetry_space_group_name_H-M "C 2/C"
_symmetry_group_IT_number 15
_symmetry_cell_setting 'monoclinic'
loop_
_space_group_symop_operation_xyz
x,y,z
-x,y,1/2-z
-x,-y,-z
x,-y,1/2+z
1/2+x,1/2+y,z
1/2-x,1/2+y,1/2-z
1/2-x,1/2-y,-z
1/2+x,1/2-y,1/2+z
loop_
_atom_site_type_symbol
_atom_site_label
_atom_site_fract_x
_atom_site_fract_y
_atom_site_fract_z
Si Si1 0.331711 0.227257 0.252230
Si Si2 0.660236 0.128346 0.171316
Si Si3 0.148540 0.043292 0.947620
Si Si4 0.167978 0.272300 0.248031
Si Si5 0.851358 0.956846 0.393630
Si Si6 0.338929 0.128612 0.652817
O O1 0.250000 0.250000 0.500000
O O2 0.309312 0.172803 0.281132
O O3 0.251172 0.248665 0.245856
O O4 0.499916 0.239148 0.003391
O O5 0.499374 0.111247 0.434547
O O6 0.760150 0.087261 0.067561
O O7 0.687231 0.142729 0.969508
O O8 0.133382 0.035765 0.799851
O O9 0.238586 0.087646 0.849649
O O10 0.000000 0.050605 0.250000
O O11 0.221743 0.000100 0.917321
O O12 0.192066 0.326683 0.208297
O O13 0.250000 0.250000 0.000000
O O14 0.000000 0.949337 0.250000
#
# Coordination Sequence:
#
# PCOD8137344 Si02
#       6
#     8   8   8   8   8   8
#     4  11  21  39  62  84 113 158 197 238 280 350
#     4   9  19  37  59  81 108 145 193 229 273 336
#     4  10  20  36  58  81 112 146 182 228 283 334
#     4  11  23  39  58  86 123 150 194 243 296 337
#     4  10  20  36  57  83 113 141 184 233 277 334
#     4   9  19  38  58  79 111 150 182 230 285 337
#
# _framework density 18.375202000000002
#
# number of rings (size 3 to 8) (size 9 to 14) (size 15 to 20)
#    0.000    2.000    1.667    3.000    0.000    3.333 
#    6.000    0.000    0.000    0.000    0.000    0.000 
#    0.000    0.000    0.000    0.000    0.000    0.000 
#
# Total GULP energy -297355.164043 kJ/mol
# GULP energy per Si atom -12389.798502 kJ/mol
# Density = 1.833338 g / cm^3
# Si number density = 18.375202 Si / 1000 Ang^3
#
#
#
# Elastic Constant Matrix: (Units=GPa)
#
#
# Indices 1 2 3 4 5 6 
#
# 1 116.9924 67.4295 59.9516 0.0000 -0.2900 0.0000
# 2 67.4295 142.3567 82.1973 0.0000 -12.6187 0.0000
# 3 59.9516 82.1973 123.9329 0.0000 2.5238 0.0000
# 4 0.0000 0.0000 0.0000 40.5064 0.0000 -5.5964
# 5 -0.2900 -12.6187 2.5238 0.0000 30.1969 0.0000
# 6 0.0000 0.0000 0.0000 -5.5964 0.0000 36.8644
#
#
#
# Elastic Compliance Matrix: (Units=1/GPa)
#
#
# Indices 1 2 3 4 5 6 
#
# 1 0.012665 -0.004211 -0.003306 0.000000 -0.001362 0.000000
# 2 -0.004211 0.013736 -0.007202 0.000000 0.006301 0.000000
# 3 -0.003306 -0.007202 0.014531 0.000000 -0.004256 0.000000
# 4 0.000000 0.000000 0.000000 0.025216 0.000000 0.003828
# 5 -0.001362 0.006301 -0.004256 0.000000 0.036092 0.000000
# 6 0.000000 0.000000 0.000000 0.003828 0.000000 0.027708
#
#
# Mechanical properties :
#
#
# Convention : Reuss Voigt Hill
#
# Bulk Modulus (GPa) = 86.99230 89.15987 88.07609
# Shear Modulus (GPa) = 30.63397 33.09378 31.86387
#
# Velocity S-wave (km/s) = 4.08749 4.24843 4.16873
# Velocity P-wave (km/s) = 8.34995 8.52600 8.43844
#
# Compressibility (1/GPa) = 0.01149527
#
# Stress axis : x y z
#
# Youngs Moduli (GPa) = 78.95529 72.80178 68.81675
#
# Poissons Ratio (x) = 0.30655 0.22753
# Poissons Ratio (y) = 0.33246 0.49559
# Poissons Ratio (z) = 0.26105 0.52429
#
# Static dielectric constant tensor:
#      x y z
#    x 3.384320 0.000000 -0.075080 
#    y 0.000000 3.757600 0.000000 
#    z -0.075080 0.000000 3.425240 
# 
# 
# High freq. dielectric constant tensor:
#      x y z
#    x 1.712820 0.000000 -0.001790 
#    y 0.000000 1.726340 0.000000 
#    z -0.001790 0.000000 1.713440 
# 
# From -- ./inp_files/44399.got.cif
#   From: 2010.06.25/outbox.cif.g09.slc.cpg/sg15_23_cif.got.tgz:44399.got - 2010.06.28 07:06:18.
