data_PCOD8137099
_publ_section_title
;
Structure prediction by ZEFSAII (Michael W. Deem and Ramdas Pophale) SiO2 
 PCOD8137099
Probable space group: C 2/C
;
_chemical_formula_sum "Si O2"
_cell_formula_units_Z 64
_cell_length_a 15.854127
_cell_length_b 11.861053
_cell_length_c 21.945585
_cell_angle_alpha 90.000000
_cell_angle_beta 56.278560
_cell_angle_gamma 90.000000
_cell_volume 3432.445840
_symmetry_space_group_name_H-M "C 2/C"
_symmetry_group_IT_number 15
_symmetry_cell_setting 'monoclinic'
loop_
_space_group_symop_operation_xyz
x,y,z
-x,y,1/2-z
-x,-y,-z
x,-y,1/2+z
1/2+x,1/2+y,z
1/2-x,1/2+y,1/2-z
1/2-x,1/2-y,-z
1/2+x,1/2-y,1/2+z
loop_
_atom_site_type_symbol
_atom_site_label
_atom_site_fract_x
_atom_site_fract_y
_atom_site_fract_z
Si Si1 0.520804 0.404637 0.076795
Si Si2 0.089000 0.296641 0.828138
Si Si3 0.114614 0.438095 0.592726
Si Si4 0.482421 0.875279 0.437122
Si Si5 0.349243 0.953938 0.598982
Si Si6 0.280762 0.600611 0.924985
Si Si7 0.791523 0.678772 0.340591
Si Si8 0.566438 0.642288 0.422660
O O1 0.428832 0.329744 0.140299
O O2 0.611253 0.419584 0.088212
O O3 0.478947 0.528295 0.083798
O O4 0.560634 0.349805 0.998241
O O5 0.168573 0.367365 0.837941
O O6 0.130907 0.289105 0.743434
O O7 0.980558 0.355978 0.873431
O O8 0.191744 0.396392 0.510209
O O9 0.165490 0.429316 0.638970
O O10 0.078415 0.566935 0.594874
O O11 0.415302 0.884593 0.524311
O O12 0.503667 0.743929 0.416379
O O13 0.590351 0.935399 0.403292
O O14 0.243333 0.998777 0.613178
O O15 0.282513 0.719337 0.891010
O O16 0.683325 0.648273 0.355555
#
# Coordination Sequence:
#
# PCOD8137099 Si02
#       8
#     8   8   8   8   8   8   8   8
#     4  11  23  38  60  87 127 151 193 248 296 354
#     4  11  22  36  56  90 121 152 195 246 299 353
#     4  10  20  35  60  91 112 144 202 255 282 341
#     4   9  17  34  60  84 111 148 193 240 295 336
#     4   9  18  33  59  86 111 148 196 244 284 346
#     4  11  20  36  63  88 112 154 201 244 290 346
#     4  12  22  35  60  89 117 153 200 249 294 346
#     4  11  22  40  58  87 121 160 191 241 305 353
#
# _framework density 18.645596000000001
#
# number of rings (size 3 to 8) (size 9 to 14) (size 15 to 20)
#    0.000    1.500    5.000    2.250    0.000    1.000 
#    0.000    3.750    0.000    0.000    9.750    0.000 
#    0.000    0.000    0.000    0.000    0.000    0.000 
#
# Total GULP energy -396802.070472 kJ/mol
# GULP energy per Si atom -12400.064702 kJ/mol
# Density = 1.860316 g / cm^3
# Si number density = 18.645596 Si / 1000 Ang^3
#
#
#
# Elastic Constant Matrix: (Units=GPa)
#
#
# Indices 1 2 3 4 5 6 
#
# 1 73.5164 47.6997 22.8149 0.0000 -8.3179 0.0000
# 2 47.6997 114.3549 35.9609 0.0000 2.8053 0.0000
# 3 22.8149 35.9609 76.0987 0.0000 1.4143 0.0000
# 4 0.0000 0.0000 0.0000 7.2827 0.0000 0.4597
# 5 -8.3179 2.8053 1.4143 0.0000 8.6696 0.0000
# 6 0.0000 0.0000 0.0000 0.4597 0.0000 28.1602
#
#
#
# Elastic Compliance Matrix: (Units=1/GPa)
#
#
# Indices 1 2 3 4 5 6 
#
# 1 0.023774 -0.009595 -0.003085 0.000000 0.026417 0.000000
# 2 -0.009595 0.014199 -0.003588 0.000000 -0.013215 0.000000
# 3 -0.003085 -0.003588 0.015842 0.000000 -0.004383 0.000000
# 4 0.000000 0.000000 0.000000 0.137453 0.000000 -0.002244
# 5 0.026417 -0.013215 -0.004383 0.000000 0.145682 0.000000
# 6 0.000000 0.000000 0.000000 -0.002244 0.000000 0.035548
#
#
# Mechanical properties :
#
#
# Convention : Reuss Voigt Hill
#
# Bulk Modulus (GPa) = 46.98877 52.99119 49.98998
# Shear Modulus (GPa) = 12.13221 19.32213 15.72717
#
# Velocity S-wave (km/s) = 2.55360 3.22263 2.90742
# Velocity P-wave (km/s) = 5.82668 6.50608 6.17573
#
# Compressibility (1/GPa) = 0.02128168
#
# Stress axis : x y z
#
# Youngs Moduli (GPa) = 42.06302 70.42638 63.12135
#
# Poissons Ratio (x) = 0.67571 0.19470
# Poissons Ratio (y) = 0.40358 0.22647
# Poissons Ratio (z) = 0.12974 0.25268
#
# Static dielectric constant tensor:
#      x y z
#    x 3.767150 0.000000 0.001870 
#    y 0.000000 3.455730 0.000000 
#    z 0.001870 0.000000 3.330040 
# 
# 
# High freq. dielectric constant tensor:
#      x y z
#    x 1.720890 0.000000 0.001390 
#    y 0.000000 1.717830 0.000000 
#    z 0.001390 0.000000 1.705580 
# 
# From -- ./inp_files/210352.got.cif
#   From: 2010.06.25/outbox.cif.g09.slc.cpg/sg15_106_cif.got.tgz:210352.got - 2010.06.28 07:06:18.
