data_PCOD8137292
_publ_section_title
;
Structure prediction by ZEFSAII (Michael W. Deem and Ramdas Pophale) SiO2 
 PCOD8137292
Probable space group: C 2/C
;
_chemical_formula_sum "Si O2"
_cell_formula_units_Z 56
_cell_length_a 12.732693
_cell_length_b 17.953636
_cell_length_c 18.328032
_cell_angle_alpha 90.000000
_cell_angle_beta 46.688355
_cell_angle_gamma 90.000000
_cell_volume 3048.604714
_symmetry_space_group_name_H-M "C 2/C"
_symmetry_group_IT_number 15
_symmetry_cell_setting 'monoclinic'
loop_
_space_group_symop_operation_xyz
x,y,z
-x,y,1/2-z
-x,-y,-z
x,-y,1/2+z
1/2+x,1/2+y,z
1/2-x,1/2+y,1/2-z
1/2-x,1/2-y,-z
1/2+x,1/2-y,1/2+z
loop_
_atom_site_type_symbol
_atom_site_label
_atom_site_fract_x
_atom_site_fract_y
_atom_site_fract_z
Si Si1 0.305676 0.679194 0.017693
Si Si2 0.631299 0.931373 0.801059
Si Si3 0.140861 0.277583 0.729559
Si Si4 0.349024 0.500138 0.296455
Si Si5 0.662287 0.054831 0.671002
Si Si6 0.175629 0.470620 0.524493
Si Si7 0.371817 0.363128 0.176745
O O1 0.276572 0.697503 0.116145
O O2 0.213038 0.608667 0.039942
O O3 0.250000 0.750000 0.000000
O O4 0.472907 0.660435 0.927548
O O5 0.596574 0.845542 0.802824
O O6 0.496688 0.970554 0.905798
O O7 0.769091 0.936980 0.787997
O O8 0.661967 0.974975 0.711459
O O9 0.196048 0.208601 0.751504
O O10 0.000000 0.253387 0.750000
O O11 0.500000 0.534969 0.250000
O O12 0.254068 0.480103 0.411176
O O13 0.382317 0.427850 0.231656
O O14 0.500000 0.088855 0.750000
O O15 0.771149 0.112730 0.657085
O O16 0.714931 0.036986 0.563194
#
# Coordination Sequence:
#
# PCOD8137292 Si02
#       7
#     8   8   8   8   8   8   8
#     4  12  21  32  58  87 117 146 181 235 293 343
#     4  10  20  36  56  82 111 151 190 230 285 338
#     4  12  20  36  58  82 114 147 185 235 288 343
#     4  11  22  35  54  83 118 148 188 239 281 330
#     4   9  20  39  60  81 111 155 196 232 278 345
#     4  11  19  35  57  82 113 151 191 233 280 342
#     4  11  23  37  57  87 119 148 190 239 291 337
#
# _framework density 18.369060000000001
#
# number of rings (size 3 to 8) (size 9 to 14) (size 15 to 20)
#    0.000    1.143    5.714    2.143    0.000    1.714 
#    0.000    0.714    0.000    1.714    0.000    0.000 
#    0.000    0.000    0.000    0.000    0.000    0.000 
#
# Total GULP energy -347188.579170 kJ/mol
# GULP energy per Si atom -12399.592113 kJ/mol
# Density = 1.832725 g / cm^3
# Si number density = 18.369060 Si / 1000 Ang^3
#
#
#
# Elastic Constant Matrix: (Units=GPa)
#
#
# Indices 1 2 3 4 5 6 
#
# 1 122.9832 41.2498 33.5769 -0.0001 -8.9430 0.0001
# 2 41.2498 72.7875 8.3834 -0.0001 1.2000 0.0001
# 3 33.5769 8.3834 96.9677 -0.0003 1.5227 0.0002
# 4 -0.0001 -0.0001 -0.0003 26.6072 0.0002 1.6429
# 5 -8.9430 1.2000 1.5227 0.0002 21.0077 -0.0002
# 6 0.0001 0.0001 0.0002 1.6429 -0.0002 23.7013
#
#
#
# Elastic Compliance Matrix: (Units=1/GPa)
#
#
# Indices 1 2 3 4 5 6 
#
# 1 0.011608 -0.006260 -0.003566 0.000000 0.005558 0.000000
# 2 -0.006260 0.017263 0.000733 0.000000 -0.003704 0.000000
# 3 -0.003566 0.000733 0.011522 0.000000 -0.002395 0.000000
# 4 0.000000 0.000000 0.000000 0.037745 0.000000 -0.002616
# 5 0.005558 -0.003704 -0.002395 0.000000 0.050353 0.000000
# 6 0.000000 0.000000 0.000000 -0.002616 0.000000 0.042373
#
#
# Mechanical properties :
#
#
# Convention : Reuss Voigt Hill
#
# Bulk Modulus (GPa) = 45.02786 51.01762 48.02274
# Shear Modulus (GPa) = 25.45168 28.23180 26.84174
#
# Velocity S-wave (km/s) = 3.72637 3.92461 3.82677
# Velocity P-wave (km/s) = 6.56357 6.95491 6.76207
#
# Compressibility (1/GPa) = 0.02220847
#
# Stress axis : x y z
#
# Youngs Moduli (GPa) = 86.14475 57.92855 86.79327
#
# Poissons Ratio (x) = 0.36261 0.30948
# Poissons Ratio (y) = 0.53923 -0.06364
# Poissons Ratio (z) = 0.30717 -0.04247
#
# Static dielectric constant tensor:
#      x y z
#    x 4.578780 -0.000010 0.338210 
#    y -0.000010 3.306070 0.000000 
#    z 0.338210 0.000000 3.710650 
# 
# 
# High freq. dielectric constant tensor:
#      x y z
#    x 1.702730 0.000000 -0.001960 
#    y 0.000000 1.693520 0.000000 
#    z -0.001960 0.000000 1.726960 
# 
# From -- ./inp_files/199427.got.cif
#   From: 2010.06.25/outbox.cif.g09.slc.cpg/sg15_100_cif.got.tgz:199427.got - 2010.06.28 07:06:18.
