data_PCOD8137295
_publ_section_title
;
Structure prediction by ZEFSAII (Michael W. Deem and Ramdas Pophale) SiO2 
 PCOD8137295
Probable space group: C 2/C
;
_chemical_formula_sum "Si O2"
_cell_formula_units_Z 56
_cell_length_a 11.896917
_cell_length_b 7.918334
_cell_length_c 29.570252
_cell_angle_alpha 90.000000
_cell_angle_beta 68.185876
_cell_angle_gamma 90.000000
_cell_volume 2586.161947
_symmetry_space_group_name_H-M "C 2/C"
_symmetry_group_IT_number 15
_symmetry_cell_setting 'monoclinic'
loop_
_space_group_symop_operation_xyz
x,y,z
-x,y,1/2-z
-x,-y,-z
x,-y,1/2+z
1/2+x,1/2+y,z
1/2-x,1/2+y,1/2-z
1/2-x,1/2-y,-z
1/2+x,1/2-y,1/2+z
loop_
_atom_site_type_symbol
_atom_site_label
_atom_site_fract_x
_atom_site_fract_y
_atom_site_fract_z
Si Si1 0.139236 0.815623 0.229461
Si Si2 0.337488 0.467791 0.688937
Si Si3 0.956749 0.494455 0.057470
Si Si4 0.815415 0.815576 0.105931
Si Si5 0.604551 0.572051 0.156252
Si Si6 0.209967 0.499849 0.040175
Si Si7 0.782143 0.119488 0.936132
O O1 0.225911 0.660586 0.203920
O O2 0.000000 0.750096 0.250000
O O3 0.183118 0.883995 0.271468
O O4 0.152587 0.966938 0.191893
O O5 0.353420 0.550637 0.637605
O O6 0.463964 0.373929 0.682808
O O7 0.919604 0.677252 0.083138
O O8 0.839643 0.373778 0.077030
O O9 0.074174 0.420723 0.066335
O O10 0.000000 0.500000 0.000000
O O11 0.686824 0.737050 0.139689
O O12 0.802141 0.911794 0.060089
O O13 0.611539 0.455761 0.110345
O O14 0.185405 0.696175 0.052990
O O15 0.262818 0.489238 0.981223
#
# Coordination Sequence:
#
# PCOD8137295 Si02
#       7
#     8   8   8   8   8   8   8
#     4  10  23  42  63  86 116 148 189 241 297 355
#     4  11  23  41  64  88 115 151 189 239 299 351
#     4   9  20  37  55  80 117 158 196 238 283 332
#     4  11  23  36  59  90 117 153 201 237 284 347
#     4  10  22  39  58  86 118 149 192 241 284 343
#     4  10  20  36  56  82 118 157 195 238 282 334
#     4   9  19  37  57  81 118 156 194 238 284 335
#
# _framework density 21.65371
#
# number of rings (size 3 to 8) (size 9 to 14) (size 15 to 20)
#    0.000    2.000    0.000    2.571    0.000   10.857 
#    0.000   11.429    0.000    0.000    0.000    0.000 
#    0.000    0.000    0.000    0.000    0.000    0.000 
#
# Total GULP energy -347088.208996 kJ/mol
# GULP energy per Si atom -12396.007464 kJ/mol
# Density = 2.160443 g / cm^3
# Si number density = 21.653710 Si / 1000 Ang^3
#
#
#
# Elastic Constant Matrix: (Units=GPa)
#
#
# Indices 1 2 3 4 5 6 
#
# 1 86.1895 19.5543 27.3489 0.0000 -1.9259 0.0000
# 2 19.5543 29.8639 7.2718 0.0000 -4.7888 0.0000
# 3 27.3489 7.2718 72.4369 0.0000 3.2519 0.0000
# 4 0.0000 0.0000 0.0000 41.0386 0.0000 -2.4564
# 5 -1.9259 -4.7888 3.2519 0.0000 36.7356 0.0000
# 6 0.0000 0.0000 0.0000 -2.4564 0.0000 26.2235
#
#
#
# Elastic Compliance Matrix: (Units=1/GPa)
#
#
# Indices 1 2 3 4 5 6 
#
# 1 0.015114 -0.008705 -0.004836 0.000000 0.000086 0.000000
# 2 -0.008705 0.040202 -0.000968 0.000000 0.004870 0.000000
# 3 -0.004836 -0.000968 0.015808 0.000000 -0.001779 0.000000
# 4 0.000000 0.000000 0.000000 0.024505 0.000000 0.002295
# 5 0.000086 0.004870 -0.001779 0.000000 0.028018 0.000000
# 6 0.000000 0.000000 0.000000 0.002295 0.000000 0.038349
#
#
# Mechanical properties :
#
#
# Convention : Reuss Voigt Hill
#
# Bulk Modulus (GPa) = 23.74978 32.98225 28.36602
# Shear Modulus (GPa) = 24.38448 29.75390 27.06919
#
# Velocity S-wave (km/s) = 3.35940 3.71088 3.53950
# Velocity P-wave (km/s) = 5.10286 5.79876 5.46190
#
# Compressibility (1/GPa) = 0.04210565
#
# Stress axis : x y z
#
# Youngs Moduli (GPa) = 66.16472 24.87458 63.25870
#
# Poissons Ratio (x) = 0.21653 0.30594
# Poissons Ratio (y) = 0.57596 0.06122
# Poissons Ratio (z) = 0.31999 0.02407
#
# Static dielectric constant tensor:
#      x y z
#    x 4.294270 0.000000 -0.054730 
#    y 0.000000 3.525390 0.000000 
#    z -0.054730 0.000000 4.059200 
# 
# 
# High freq. dielectric constant tensor:
#      x y z
#    x 1.862480 0.000000 -0.002310 
#    y 0.000000 1.824260 0.000000 
#    z -0.002310 0.000000 1.858400 
# 
# From -- ./inp_files/309916.got.cif
#   From: 2010.06.25/outbox.cif.g09.slc.cpg/sg15_155_cif.got.tgz:309916.got - 2010.06.28 07:06:18.
