data_PCOD8137697
_publ_section_title
;
Structure prediction by ZEFSAII (Michael W. Deem and Ramdas Pophale) SiO2 
 PCOD8137697
Probable space group: C 2/C
;
_chemical_formula_sum "Si O2"
_cell_formula_units_Z 52
_cell_length_a 27.598439
_cell_length_b 11.955133
_cell_length_c 8.075323
_cell_angle_alpha 90.000000
_cell_angle_beta 64.285970
_cell_angle_gamma 90.000000
_cell_volume 2400.543339
_symmetry_space_group_name_H-M "C 2/C"
_symmetry_group_IT_number 15
_symmetry_cell_setting 'monoclinic'
loop_
_space_group_symop_operation_xyz
x,y,z
-x,y,1/2-z
-x,-y,-z
x,-y,1/2+z
1/2+x,1/2+y,z
1/2-x,1/2+y,1/2-z
1/2-x,1/2-y,-z
1/2+x,1/2-y,1/2+z
loop_
_atom_site_type_symbol
_atom_site_label
_atom_site_fract_x
_atom_site_fract_y
_atom_site_fract_z
Si Si1 0.657229 0.770234 0.402680
Si Si2 0.000000 0.533144 0.250000
Si Si3 0.557529 0.643056 0.172360
Si Si4 0.861389 0.196313 0.711387
Si Si5 0.940321 0.637575 0.633168
Si Si6 0.158877 0.051307 0.181636
Si Si7 0.731316 0.685465 0.867272
O O1 0.632858 0.760739 0.623772
O O2 0.620753 0.852540 0.344121
O O3 0.661170 0.644841 0.322680
O O4 0.716009 0.828779 0.326126
O O5 0.050460 0.457441 0.240075
O O6 0.980519 0.613163 0.423972
O O7 0.500000 0.578951 0.250000
O O8 0.543961 0.743874 0.315585
O O9 0.600379 0.556775 0.181709
O O10 0.580441 0.691934 0.963727
O O11 0.816331 0.254113 0.658613
O O12 0.834601 0.073398 0.764704
O O13 0.205480 0.070343 0.975485
O O14 0.750000 0.750000 0.000000
#
# Coordination Sequence:
#
# PCOD8137697 Si02
#       7
#     8   4   8   8   8   8   8
#     4  10  20  36  61  93 117 157 207 243 302 375
#     4  10  22  42  64  82 124 156 200 254 310 362
#     4  10  21  37  60  88 124 163 202 251 297 359
#     4  11  21  36  64  89 125 163 202 249 306 361
#     4  10  22  39  63  88 117 158 199 250 312 356
#     4   9  20  39  59  87 125 163 195 247 309 357
#     4   9  19  38  59  83 119 157 196 250 303 356
#
# _framework density 21.661762
#
# number of rings (size 3 to 8) (size 9 to 14) (size 15 to 20)
#    0.000    2.154    0.769    3.231    2.154    0.615 
#    2.769    0.000    6.769    0.000    0.000    0.000 
#    0.000    0.000    0.000    0.000    0.000    0.000 
#
# Total GULP energy -322170.924243 kJ/mol
# GULP energy per Si atom -12391.189394 kJ/mol
# Density = 2.161246 g / cm^3
# Si number density = 21.661762 Si / 1000 Ang^3
#
#
#
# Elastic Constant Matrix: (Units=GPa)
#
#
# Indices 1 2 3 4 5 6 
#
# 1 127.7441 16.2223 50.3152 0.0000 -14.2700 0.0000
# 2 16.2223 55.4527 14.5375 0.0000 -0.1648 0.0000
# 3 50.3152 14.5375 113.9243 0.0000 2.6403 0.0000
# 4 0.0000 0.0000 0.0000 25.5303 0.0000 -1.0074
# 5 -14.2700 -0.1648 2.6403 0.0000 41.0770 0.0000
# 6 0.0000 0.0000 0.0000 -1.0074 0.0000 13.5024
#
#
#
# Elastic Compliance Matrix: (Units=1/GPa)
#
#
# Indices 1 2 3 4 5 6 
#
# 1 0.010205 -0.001831 -0.004362 0.000000 0.003818 0.000000
# 2 -0.001831 0.018988 -0.001604 0.000000 -0.000457 0.000000
# 3 -0.004362 -0.001604 0.010961 0.000000 -0.002226 0.000000
# 4 0.000000 0.000000 0.000000 0.039285 0.000000 0.002931
# 5 0.003818 -0.000457 -0.002226 0.000000 0.025812 0.000000
# 6 0.000000 0.000000 0.000000 0.002931 0.000000 0.074280
#
#
# Mechanical properties :
#
#
# Convention : Reuss Voigt Hill
#
# Bulk Modulus (GPa) = 40.71550 51.03010 45.87280
# Shear Modulus (GPa) = 24.59287 30.42500 27.50894
#
# Velocity S-wave (km/s) = 3.37310 3.75180 3.56747
# Velocity P-wave (km/s) = 5.83157 6.50975 6.17997
#
# Compressibility (1/GPa) = 0.02456067
#
# Stress axis : x y z
#
# Youngs Moduli (GPa) = 97.98862 52.66475 91.23611
#
# Poissons Ratio (x) = 0.09641 0.39798
# Poissons Ratio (y) = 0.17937 0.14634
# Poissons Ratio (z) = 0.42744 0.08447
#
# Static dielectric constant tensor:
#      x y z
#    x 4.536440 0.000000 -0.067250 
#    y 0.000000 3.535010 0.000000 
#    z -0.067250 0.000000 4.226850 
# 
# 
# High freq. dielectric constant tensor:
#      x y z
#    x 1.863420 0.000000 0.009760 
#    y 0.000000 1.804920 0.000000 
#    z 0.009760 0.000000 1.862670 
# 
# From -- ./inp_files/69011.got.cif
#   From: 2010.06.25/outbox.cif.g09.slc.cpg/sg15_35_cif.got.tgz:69011.got - 2010.06.28 07:06:18.
