data_PCOD8137758
_publ_section_title
;
Structure prediction by ZEFSAII (Michael W. Deem and Ramdas Pophale) SiO2 
 PCOD8137758
Probable space group: C 2/C
;
_chemical_formula_sum "Si O2"
_cell_formula_units_Z 56
_cell_length_a 28.151801
_cell_length_b 12.397036
_cell_length_c 8.384116
_cell_angle_alpha 90.000000
_cell_angle_beta 65.736341
_cell_angle_gamma 90.000000
_cell_volume 2667.572184
_symmetry_space_group_name_H-M "C 2/C"
_symmetry_group_IT_number 15
_symmetry_cell_setting 'monoclinic'
loop_
_space_group_symop_operation_xyz
x,y,z
-x,y,1/2-z
-x,-y,-z
x,-y,1/2+z
1/2+x,1/2+y,z
1/2-x,1/2+y,1/2-z
1/2-x,1/2-y,-z
1/2+x,1/2-y,1/2+z
loop_
_atom_site_type_symbol
_atom_site_label
_atom_site_fract_x
_atom_site_fract_y
_atom_site_fract_z
Si Si1 0.072185 0.100287 0.401590
Si Si2 0.444199 0.759776 0.349246
Si Si3 0.839320 0.625926 0.019088
Si Si4 0.814547 0.606463 0.682544
Si Si5 0.632212 0.697054 0.567743
Si Si6 0.716645 0.701780 0.687815
Si Si7 0.959144 0.872805 0.133758
O O1 0.075839 0.203417 0.283148
O O2 0.124603 0.108157 0.437818
O O3 0.020730 0.112546 0.589523
O O4 0.069994 0.988536 0.309624
O O5 0.500000 0.821565 0.250000
O O6 0.399681 0.842936 0.464053
O O7 0.455798 0.663451 0.455372
O O8 0.833339 0.510700 0.108014
O O9 0.801453 0.708449 0.161512
O O10 0.824295 0.625149 0.854924
O O11 0.845989 0.691384 0.530763
O O12 0.752364 0.616098 0.733536
O O13 0.667087 0.649122 0.665160
O O14 0.573398 0.714909 0.718068
O O15 0.750000 0.750000 0.500000
#
# Coordination Sequence:
#
# PCOD8137758 Si02
#       7
#     8   8   8   8   8   8   8
#     4  10  20  37  59  96 129 177 216 263 335 390
#     4  10  21  39  64  98 134 174 222 268 325 400
#     4  12  23  48  71  93 135 174 216 277 337 382
#     4  11  25  43  69  94 128 177 217 273 329 390
#     4  11  20  39  62  95 132 166 224 261 327 388
#     4  10  23  44  65  98 128 165 219 271 325 388
#     4  10  20  36  62  90 136 172 214 273 327 393
#
# _framework density 20.992871999999998
#
# number of rings (size 3 to 8) (size 9 to 14) (size 15 to 20)
#    0.000    1.429    2.857    3.429    0.000    2.286 
#    7.714    2.143    0.000    0.000    0.000    0.000 
#    0.000    0.000    0.000    0.000    0.000    0.000 
#
# Total GULP energy -346986.000649 kJ/mol
# GULP energy per Si atom -12392.357166 kJ/mol
# Density = 2.094509 g / cm^3
# Si number density = 20.992872 Si / 1000 Ang^3
#
#
#
# Elastic Constant Matrix: (Units=GPa)
#
#
# Indices 1 2 3 4 5 6 
#
# 1 144.3794 68.7672 40.5170 0.0000 8.7090 0.0000
# 2 68.7672 100.8910 36.2917 0.0000 -9.3392 0.0000
# 3 40.5170 36.2917 96.0472 0.0000 -10.3712 0.0000
# 4 0.0000 0.0000 0.0000 35.3520 0.0000 -2.2395
# 5 8.7090 -9.3392 -10.3712 0.0000 36.4840 0.0000
# 6 0.0000 0.0000 0.0000 -2.2395 0.0000 31.5527
#
#
#
# Elastic Compliance Matrix: (Units=1/GPa)
#
#
# Indices 1 2 3 4 5 6 
#
# 1 0.011518 -0.007398 -0.002646 0.000000 -0.005395 0.000000
# 2 -0.007398 0.016333 -0.002485 0.000000 0.005241 0.000000
# 3 -0.002646 -0.002485 0.012861 0.000000 0.003651 0.000000
# 4 0.000000 0.000000 0.000000 0.028415 0.000000 0.002017
# 5 -0.005395 0.005241 0.003651 0.000000 0.031077 0.000000
# 6 0.000000 0.000000 0.000000 0.002017 0.000000 0.031836
#
#
# Mechanical properties :
#
#
# Convention : Reuss Voigt Hill
#
# Bulk Modulus (GPa) = 63.88074 70.27437 67.07755
# Shear Modulus (GPa) = 30.80420 33.72718 32.26569
#
# Velocity S-wave (km/s) = 3.83478 4.01259 3.92469
# Velocity P-wave (km/s) = 7.07836 7.41727 7.24979
#
# Compressibility (1/GPa) = 0.01565417
#
# Stress axis : x y z
#
# Youngs Moduli (GPa) = 86.82122 61.22479 77.75533
#
# Poissons Ratio (x) = 0.45296 0.20573
# Poissons Ratio (y) = 0.64233 0.19320
# Poissons Ratio (z) = 0.22972 0.15213
#
# Static dielectric constant tensor:
#      x y z
#    x 4.923020 0.000000 0.090340 
#    y 0.000000 3.398470 0.000000 
#    z 0.090340 0.000000 4.013390 
# 
# 
# High freq. dielectric constant tensor:
#      x y z
#    x 1.841770 0.000000 0.010990 
#    y 0.000000 1.782260 0.000000 
#    z 0.010990 0.000000 1.846370 
# 
# From -- ./inp_files/69051.got.cif
#   From: 2010.06.25/outbox.cif.g09.slc.cpg/sg15_35_cif.got.tgz:69051.got - 2010.06.28 07:06:18.
