data_PCOD8137504
_publ_section_title
;
Structure prediction by ZEFSAII (Michael W. Deem and Ramdas Pophale) SiO2 
 PCOD8137504
Probable space group: C 2/C
;
_chemical_formula_sum "Si O2"
_cell_formula_units_Z 64
_cell_length_a 9.065882
_cell_length_b 13.945582
_cell_length_c 32.489504
_cell_angle_alpha 90.000000
_cell_angle_beta 131.099042
_cell_angle_gamma 90.000000
_cell_volume 3095.393840
_symmetry_space_group_name_H-M "C 2/C"
_symmetry_group_IT_number 15
_symmetry_cell_setting 'monoclinic'
loop_
_space_group_symop_operation_xyz
x,y,z
-x,y,1/2-z
-x,-y,-z
x,-y,1/2+z
1/2+x,1/2+y,z
1/2-x,1/2+y,1/2-z
1/2-x,1/2-y,-z
1/2+x,1/2-y,1/2+z
loop_
_atom_site_type_symbol
_atom_site_label
_atom_site_fract_x
_atom_site_fract_y
_atom_site_fract_z
Si Si1 0.678181 0.591908 0.376747
Si Si2 0.572503 0.409723 0.404425
Si Si3 0.893858 0.359967 0.834309
Si Si4 0.662142 0.239081 0.938247
Si Si5 0.521023 0.395673 0.021330
Si Si6 0.269157 0.149534 0.707174
Si Si7 0.639251 0.486806 0.737378
Si Si8 0.709995 0.274781 0.585730
O O1 0.697921 0.497664 0.408969
O O2 0.841989 0.602698 0.371033
O O3 0.710203 0.679342 0.413798
O O4 0.465386 0.581612 0.315988
O O5 0.588579 0.405405 0.455906
O O6 0.340696 0.406014 0.350484
O O7 0.670101 0.316429 0.404740
O O8 0.778597 0.261806 0.802987
O O9 0.836100 0.435253 0.788511
O O10 0.127989 0.353226 0.871723
O O11 0.750906 0.140153 0.935353
O O12 0.427326 0.243493 0.901055
O O13 0.750000 0.250000 0.000000
O O14 0.500000 0.500000 0.000000
O O15 0.412638 0.315512 0.974707
O O16 0.500000 0.133975 0.750000
O O17 0.184891 0.095121 0.731703
O O18 0.500000 0.499681 0.750000
#
# Coordination Sequence:
#
# PCOD8137504 Si02
#       8
#     8   8   8   8   8   8   8   8
#     4  10  20  39  62  85 118 159 198 245 297 354
#     4  10  21  38  59  86 117 152 198 244 292 352
#     4  10  21  40  61  86 119 158 198 244 298 357
#     4  10  21  38  58  83 116 152 194 243 295 351
#     4  11  23  40  60  84 116 155 195 244 297 354
#     4  10  20  36  59  85 115 154 193 236 292 353
#     4   9  20  38  60  87 120 156 199 245 297 355
#     4  10  22  39  59  88 119 152 197 243 294 354
#
# _framework density 20.675884
#
# number of rings (size 3 to 8) (size 9 to 14) (size 15 to 20)
#    0.000    2.000    0.000    4.500    0.000    5.000 
#    0.000   18.125    0.000    0.000    0.000    0.000 
#    0.000    0.000    0.000    0.000    0.000    0.000 
#
# Total GULP energy -396439.304416 kJ/mol
# GULP energy per Si atom -12388.728263 kJ/mol
# Density = 2.062882 g / cm^3
# Si number density = 20.675884 Si / 1000 Ang^3
#
#
#
# Elastic Constant Matrix: (Units=GPa)
#
#
# Indices 1 2 3 4 5 6 
#
# 1 86.5796 33.7849 37.2383 0.0000 13.1490 0.0000
# 2 33.7849 89.8213 25.8847 0.0000 -5.2280 0.0000
# 3 37.2383 25.8847 64.4030 0.0000 -1.1903 0.0000
# 4 0.0000 0.0000 0.0000 36.2160 0.0000 -10.1472
# 5 13.1490 -5.2280 -1.1903 0.0000 35.7393 0.0000
# 6 0.0000 0.0000 0.0000 -10.1472 0.0000 31.5042
#
#
#
# Elastic Compliance Matrix: (Units=1/GPa)
#
#
# Indices 1 2 3 4 5 6 
#
# 1 0.018426 -0.004831 -0.008856 0.000000 -0.007781 0.000000
# 2 -0.004831 0.013959 -0.002748 0.000000 0.003728 0.000000
# 3 -0.008856 -0.002748 0.021819 0.000000 0.003583 0.000000
# 4 0.000000 0.000000 0.000000 0.030351 0.000000 0.009776
# 5 -0.007781 0.003728 0.003583 0.000000 0.031508 0.000000
# 6 0.000000 0.000000 0.000000 0.009776 0.000000 0.034890
#
#
# Mechanical properties :
#
#
# Convention : Reuss Voigt Hill
#
# Bulk Modulus (GPa) = 46.87585 48.29110 47.58348
# Shear Modulus (GPa) = 26.18682 30.28497 28.23590
#
# Velocity S-wave (km/s) = 3.56271 3.83136 3.69947
# Velocity P-wave (km/s) = 6.29641 6.55586 6.42745
#
# Compressibility (1/GPa) = 0.02133295
#
# Stress axis : x y z
#
# Youngs Moduli (GPa) = 54.27070 71.63622 45.83249
#
# Poissons Ratio (x) = 0.34611 0.40590
# Poissons Ratio (y) = 0.26221 0.12595
# Poissons Ratio (z) = 0.48063 0.19686
#
# Static dielectric constant tensor:
#      x y z
#    x 4.021790 0.000000 0.215510 
#    y 0.000000 3.845690 0.000000 
#    z 0.215510 0.000000 4.010100 
# 
# 
# High freq. dielectric constant tensor:
#      x y z
#    x 1.807740 0.000000 -0.001860 
#    y 0.000000 1.811030 0.000000 
#    z -0.001860 0.000000 1.810740 
# 
# From -- ./inp_files/308278.got.cif
#   From: 2010.06.25/outbox.cif.g09.slc.cpg/sg15_155_cif.got.tgz:308278.got - 2010.06.28 07:06:18.
