data_PCOD8137975
_publ_section_title
;
Structure prediction by ZEFSAII (Michael W. Deem and Ramdas Pophale) SiO2 
 PCOD8137975
Probable space group: C 2/C
;
_chemical_formula_sum "Si O2"
_cell_formula_units_Z 56
_cell_length_a 25.088441
_cell_length_b 8.097798
_cell_length_c 33.643012
_cell_angle_alpha 90.000000
_cell_angle_beta 154.569407
_cell_angle_gamma 90.000000
_cell_volume 2935.047469
_symmetry_space_group_name_H-M "C 2/C"
_symmetry_group_IT_number 15
_symmetry_cell_setting 'monoclinic'
loop_
_space_group_symop_operation_xyz
x,y,z
-x,y,1/2-z
-x,-y,-z
x,-y,1/2+z
1/2+x,1/2+y,z
1/2-x,1/2+y,1/2-z
1/2-x,1/2-y,-z
1/2+x,1/2-y,1/2+z
loop_
_atom_site_type_symbol
_atom_site_label
_atom_site_fract_x
_atom_site_fract_y
_atom_site_fract_z
Si Si1 0.364472 0.509629 0.982118
Si Si2 0.661481 0.796208 0.476157
Si Si3 0.920636 0.498347 0.304230
Si Si4 0.198433 0.221277 0.632282
Si Si5 0.009616 0.312147 0.571204
Si Si6 0.116728 0.677481 0.301338
Si Si7 0.240354 0.500843 0.101811
O O1 0.378637 0.603759 0.949608
O O2 0.228870 0.429337 0.894686
O O3 0.384701 0.633505 0.032120
O O4 0.471394 0.373022 0.057615
O O5 0.750000 0.750000 0.500000
O O6 0.541814 0.888530 0.378509
O O7 0.737400 0.916136 0.556535
O O8 0.800147 0.382170 0.224948
O O9 0.912179 0.629006 0.263143
O O10 0.924728 0.598447 0.347868
O O11 0.268078 0.362185 0.653769
O O12 0.105318 0.308367 0.599659
O O13 0.890000 0.413023 0.475969
O O14 0.000000 0.639279 0.250000
O O15 0.147822 0.871184 0.322811
#
# Coordination Sequence:
#
# PCOD8137975 Si02
#       7
#     8   8   8   8   8   8   8
#     4   9  20  36  57  79 103 141 183 207 257 331
#     4  10  20  37  56  78 108 140 174 221 264 307
#     4  10  23  34  51  84 108 133 182 220 259 313
#     4  10  20  37  56  78 108 140 173 220 264 307
#     4  10  20  37  56  78 108 140 174 221 264 307
#     4  10  20  37  55  77 109 141 173 220 264 308
#     4   9  21  36  55  80 104 141 184 207 259 333
#
# _framework density 19.079758999999999
#
# number of rings (size 3 to 8) (size 9 to 14) (size 15 to 20)
#    0.000    2.286    0.000    1.714    0.000    5.714 
#    0.000    8.571    0.000    0.000    0.000    0.000 
#    0.000    0.000    0.000    0.000    0.000    0.000 
#
# Total GULP energy -347334.343488 kJ/mol
# GULP energy per Si atom -12404.797982 kJ/mol
# Density = 1.903633 g / cm^3
# Si number density = 19.079759 Si / 1000 Ang^3
#
#
#
# Elastic Constant Matrix: (Units=GPa)
#
#
# Indices 1 2 3 4 5 6 
#
# 1 110.9281 35.2581 40.8465 0.0003 7.6228 0.0006
# 2 35.2581 107.1277 31.0494 0.0004 -10.5257 0.0037
# 3 40.8465 31.0494 63.9812 -0.0012 -8.8428 -0.0047
# 4 0.0003 0.0004 -0.0012 34.2826 0.0003 0.8740
# 5 7.6228 -10.5257 -8.8428 0.0003 20.9908 -0.0002
# 6 0.0006 0.0037 -0.0047 0.8740 -0.0002 25.2060
#
#
#
# Elastic Compliance Matrix: (Units=1/GPa)
#
#
# Indices 1 2 3 4 5 6 
#
# 1 0.013952 -0.003038 -0.008859 0.000000 -0.010323 -0.000002
# 2 -0.003038 0.011761 -0.002973 0.000000 0.005748 -0.000002
# 3 -0.008859 -0.002973 0.024387 0.000001 0.012000 0.000005
# 4 0.000000 0.000000 0.000001 0.029195 0.000000 -0.001012
# 5 -0.010323 0.005748 0.012000 0.000000 0.059326 0.000002
# 6 -0.000002 -0.000002 0.000005 -0.001012 0.000002 0.039708
#
#
# Mechanical properties :
#
#
# Convention : Reuss Voigt Hill
#
# Bulk Modulus (GPa) = 49.12065 55.14944 52.13504
# Shear Modulus (GPa) = 23.27113 27.75475 25.51294
#
# Velocity S-wave (km/s) = 3.49618 3.81815 3.66070
# Velocity P-wave (km/s) = 6.48833 6.95738 6.72695
#
# Compressibility (1/GPa) = 0.02035804
#
# Stress axis : x y z
#
# Youngs Moduli (GPa) = 71.67314 85.02500 41.00534
#
# Poissons Ratio (x) = 0.25834 0.36329
# Poissons Ratio (y) = 0.21777 0.12192
# Poissons Ratio (z) = 0.63499 0.25281
#
# Static dielectric constant tensor:
#      x y z
#    x 3.324720 -0.000010 -0.079570 
#    y -0.000010 3.748250 0.000000 
#    z -0.079570 0.000000 3.403030 
# 
# 
# High freq. dielectric constant tensor:
#      x y z
#    x 1.740430 0.000000 -0.004170 
#    y 0.000000 1.759580 0.000000 
#    z -0.004170 0.000000 1.734700 
# 
# From -- ./inp_files/171960.got.cif
#   From: 2010.06.25/outbox.cif.g09.slc.cpg/sg15_86_cif.got.tgz:171960.got - 2010.06.28 07:06:18.
