data_PCOD8137982
_publ_section_title
;
Structure prediction by ZEFSAII (Michael W. Deem and Ramdas Pophale) SiO2 
 PCOD8137982
Probable space group: C 2/C
;
_chemical_formula_sum "Si O2"
_cell_formula_units_Z 56
_cell_length_a 14.269347
_cell_length_b 8.675006
_cell_length_c 23.254904
_cell_angle_alpha 90.000000
_cell_angle_beta 72.710316
_cell_angle_gamma 90.000000
_cell_volume 2748.573535
_symmetry_space_group_name_H-M "C 2/C"
_symmetry_group_IT_number 15
_symmetry_cell_setting 'monoclinic'
loop_
_space_group_symop_operation_xyz
x,y,z
-x,y,1/2-z
-x,-y,-z
x,-y,1/2+z
1/2+x,1/2+y,z
1/2-x,1/2+y,1/2-z
1/2-x,1/2-y,-z
1/2+x,1/2-y,1/2+z
loop_
_atom_site_type_symbol
_atom_site_label
_atom_site_fract_x
_atom_site_fract_y
_atom_site_fract_z
Si Si1 0.486117 0.346281 0.968055
Si Si2 0.635590 0.393756 0.182675
Si Si3 0.861627 0.317639 0.581741
Si Si4 0.941861 0.239117 0.686038
Si Si5 0.986483 0.593787 0.689916
Si Si6 0.350179 0.165332 0.619248
Si Si7 0.858262 0.803103 0.884148
O O1 0.595019 0.291502 0.929540
O O2 0.414162 0.379802 0.927702
O O3 0.500000 0.500000 0.000000
O O4 0.439016 0.219523 0.018275
O O5 0.616666 0.352147 0.253081
O O6 0.547561 0.338133 0.158209
O O7 0.733995 0.305114 0.144137
O O8 0.644292 0.577918 0.169950
O O9 0.882993 0.225933 0.637348
O O10 0.872788 0.498564 0.589137
O O11 0.754131 0.266329 0.579659
O O12 0.964854 0.413731 0.699332
O O13 0.894671 0.674982 0.675505
O O14 0.000000 0.666860 0.750000
O O15 0.087255 0.640646 0.638861
#
# Coordination Sequence:
#
# PCOD8137982 Si02
#       7
#     8   8   8   8   8   8   8
#     4  11  22  41  60  89 119 152 202 248 290 348
#     4  10  20  40  56  88 121 154 195 237 301 352
#     4  10  21  41  62  86 115 159 198 244 294 349
#     4  10  21  38  60  85 123 152 195 243 291 360
#     4  10  20  37  55  87 116 151 191 233 289 350
#     4   9  22  39  61  83 117 156 195 237 295 347
#     4  10  23  38  61  87 120 154 195 245 295 351
#
# _framework density 20.374205
#
# number of rings (size 3 to 8) (size 9 to 14) (size 15 to 20)
#    0.000    2.000    1.429    1.714    4.000    1.143 
#    0.000    7.857    0.000    0.000    0.000    0.000 
#    0.000    0.000    0.000    0.000    0.000    0.000 
#
# Total GULP energy -347082.738999 kJ/mol
# GULP energy per Si atom -12395.812107 kJ/mol
# Density = 2.032783 g / cm^3
# Si number density = 20.374205 Si / 1000 Ang^3
#
#
#
# Elastic Constant Matrix: (Units=GPa)
#
#
# Indices 1 2 3 4 5 6 
#
# 1 135.2995 25.8306 54.7723 0.0000 -21.4737 0.0000
# 2 25.8306 54.7588 44.0529 0.0000 -6.4578 0.0000
# 3 54.7723 44.0529 109.8215 0.0000 -8.1393 0.0000
# 4 0.0000 0.0000 0.0000 32.4173 0.0000 -4.8777
# 5 -21.4737 -6.4578 -8.1393 0.0000 33.0543 0.0000
# 6 0.0000 0.0000 0.0000 -4.8777 0.0000 23.9589
#
#
#
# Elastic Compliance Matrix: (Units=1/GPa)
#
#
# Indices 1 2 3 4 5 6 
#
# 1 0.010151 -0.000592 -0.004426 0.000000 0.005389 0.000000
# 2 -0.000592 0.027228 -0.010452 0.000000 0.002361 0.000000
# 3 -0.004426 -0.010452 0.015422 0.000000 -0.001119 0.000000
# 4 0.000000 0.000000 0.000000 0.031823 0.000000 0.006479
# 5 0.005389 0.002361 -0.001119 0.000000 0.033940 0.000000
# 6 0.000000 0.000000 0.000000 0.006479 0.000000 0.043057
#
#
# Mechanical properties :
#
#
# Convention : Reuss Voigt Hill
#
# Bulk Modulus (GPa) = 45.74121 61.02125 53.38123
# Shear Modulus (GPa) = 25.01905 29.56770 27.29337
#
# Velocity S-wave (km/s) = 3.50805 3.81364 3.66403
# Velocity P-wave (km/s) = 6.23762 7.02901 6.64511
#
# Compressibility (1/GPa) = 0.02186212
#
# Stress axis : x y z
#
# Youngs Moduli (GPa) = 98.51197 36.72696 64.84068
#
# Poissons Ratio (x) = 0.02176 0.28696
# Poissons Ratio (y) = 0.05836 0.67768
# Poissons Ratio (z) = 0.43598 0.38385
#
# Static dielectric constant tensor:
#      x y z
#    x 3.931980 0.000000 0.078590 
#    y 0.000000 3.541410 0.000000 
#    z 0.078590 0.000000 3.752410 
# 
# 
# High freq. dielectric constant tensor:
#      x y z
#    x 1.806980 0.000000 0.003750 
#    y 0.000000 1.783820 0.000000 
#    z 0.003750 0.000000 1.794010 
# 
# From -- ./inp_files/272660.got.cif
#   From: 2010.06.25/outbox.cif.g09.slc.cpg/sg15_137_cif.got.tgz:272660.got - 2010.06.28 07:06:18.
