data_PCOD8137270
_publ_section_title
;
Structure prediction by ZEFSAII (Michael W. Deem and Ramdas Pophale) SiO2 
 PCOD8137270
Probable space group: C 2/C
;
_chemical_formula_sum "Si O2"
_cell_formula_units_Z 52
_cell_length_a 17.455586
_cell_length_b 12.922583
_cell_length_c 14.267483
_cell_angle_alpha 90.000000
_cell_angle_beta 122.170717
_cell_angle_gamma 90.000000
_cell_volume 2724.208464
_symmetry_space_group_name_H-M "C 2/C"
_symmetry_group_IT_number 15
_symmetry_cell_setting 'monoclinic'
loop_
_space_group_symop_operation_xyz
x,y,z
-x,y,1/2-z
-x,-y,-z
x,-y,1/2+z
1/2+x,1/2+y,z
1/2-x,1/2+y,1/2-z
1/2-x,1/2-y,-z
1/2+x,1/2-y,1/2+z
loop_
_atom_site_type_symbol
_atom_site_label
_atom_site_fract_x
_atom_site_fract_y
_atom_site_fract_z
Si Si1 0.500000 0.506512 0.750000
Si Si2 0.125337 0.168813 0.749427
Si Si3 0.811870 0.740703 0.397319
Si Si4 0.100902 0.531411 0.090303
Si Si5 0.904391 0.392654 0.717857
Si Si6 0.830627 0.872159 0.589010
Si Si7 0.274917 0.070653 0.966556
O O1 0.546943 0.579464 0.699881
O O2 0.425480 0.427632 0.665174
O O3 0.180281 0.180978 0.686716
O O4 0.076005 0.276979 0.734076
O O5 0.193624 0.144653 0.880087
O O6 0.882092 0.646554 0.436519
O O7 0.844180 0.799532 0.509914
O O8 0.709296 0.694478 0.347671
O O9 0.126827 0.533085 0.217625
O O10 0.163410 0.444772 0.084536
O O11 0.000000 0.500000 0.000000
O O12 0.830366 0.381892 0.588475
O O13 0.000000 0.440983 0.750000
O O14 0.758120 0.960254 0.517309
#
# Coordination Sequence:
#
# PCOD8137270 Si02
#       7
#     4   8   8   8   8   8   8
#     4  10  20  38  60  86 118 154 202 242 292 356
#     4  10  21  37  59  84 115 154 192 241 294 354
#     4   9  20  39  58  81 119 155 190 243 299 345
#     4  10  20  36  55  84 111 145 193 234 281 351
#     4  11  20  35  56  81 113 147 187 240 288 338
#     4   9  20  40  58  82 118 154 193 243 296 350
#     4  10  21  36  58  82 112 149 191 234 291 356
#
# _framework density 19.088113
#
# number of rings (size 3 to 8) (size 9 to 14) (size 15 to 20)
#    0.000    2.154    2.308    0.462    2.154    0.615 
#    2.769    0.000    0.000    0.000    0.000    0.000 
#    0.000    0.000    0.000    0.000    0.000    0.000 
#
# Total GULP energy -322110.082508 kJ/mol
# GULP energy per Si atom -12388.849327 kJ/mol
# Density = 1.904467 g / cm^3
# Si number density = 19.088113 Si / 1000 Ang^3
#
#
#
# Elastic Constant Matrix: (Units=GPa)
#
#
# Indices 1 2 3 4 5 6 
#
# 1 114.5471 41.5099 59.5468 0.0000 -6.1804 0.0000
# 2 41.5099 64.6901 34.3055 0.0000 -5.7322 0.0000
# 3 59.5468 34.3055 91.3758 0.0000 -6.9736 0.0000
# 4 0.0000 0.0000 0.0000 26.6000 0.0000 3.4000
# 5 -6.1804 -5.7322 -6.9736 0.0000 35.0776 0.0000
# 6 0.0000 0.0000 0.0000 3.4000 0.0000 33.0138
#
#
#
# Elastic Compliance Matrix: (Units=1/GPa)
#
#
# Indices 1 2 3 4 5 6 
#
# 1 0.014566 -0.005372 -0.007459 0.000000 0.000205 0.000000
# 2 -0.005372 0.021388 -0.004401 0.000000 0.001674 0.000000
# 3 -0.007459 -0.004401 0.017568 0.000000 0.001459 0.000000
# 4 0.000000 0.000000 0.000000 0.038095 0.000000 -0.003923
# 5 0.000205 0.001674 0.001459 0.000000 0.029108 0.000000
# 6 0.000000 0.000000 0.000000 -0.003923 0.000000 0.030694
#
#
# Mechanical properties :
#
#
# Convention : Reuss Voigt Hill
#
# Bulk Modulus (GPa) = 52.47540 60.14857 56.31199
# Shear Modulus (GPa) = 26.00951 27.95501 26.98226
#
# Velocity S-wave (km/s) = 3.69535 3.83106 3.76382
# Velocity P-wave (km/s) = 6.76449 7.15184 6.96086
#
# Compressibility (1/GPa) = 0.01905655
#
# Stress axis : x y z
#
# Youngs Moduli (GPa) = 68.65430 46.75568 56.92025
#
# Poissons Ratio (x) = 0.25119 0.42459
# Poissons Ratio (y) = 0.36884 0.25050
# Poissons Ratio (z) = 0.51212 0.20577
#
# Static dielectric constant tensor:
#      x y z
#    x 3.902030 0.000000 -0.064480 
#    y 0.000000 3.599520 0.000000 
#    z -0.064480 0.000000 3.280760 
# 
# 
# High freq. dielectric constant tensor:
#      x y z
#    x 1.758990 0.000000 -0.004920 
#    y 0.000000 1.745760 0.000000 
#    z -0.004920 0.000000 1.714430 
# 
# From -- ./inp_files/154057.got.cif
#   From: 2010.06.25/outbox.cif.g09.slc.cpg/sg15_78_cif.got.tgz:154057.got - 2010.06.28 07:06:18.
