data_PCOD8137287
_publ_section_title
;
Structure prediction by ZEFSAII (Michael W. Deem and Ramdas Pophale) SiO2 
 PCOD8137287
Probable space group: C 2/C
;
_chemical_formula_sum "Si O2"
_cell_formula_units_Z 60
_cell_length_a 13.579121
_cell_length_b 9.252987
_cell_length_c 23.624777
_cell_angle_alpha 90.000000
_cell_angle_beta 89.685849
_cell_angle_gamma 90.000000
_cell_volume 2968.347897
_symmetry_space_group_name_H-M "C 2/C"
_symmetry_group_IT_number 15
_symmetry_cell_setting 'monoclinic'
loop_
_space_group_symop_operation_xyz
x,y,z
-x,y,1/2-z
-x,-y,-z
x,-y,1/2+z
1/2+x,1/2+y,z
1/2-x,1/2+y,1/2-z
1/2-x,1/2-y,-z
1/2+x,1/2-y,1/2+z
loop_
_atom_site_type_symbol
_atom_site_label
_atom_site_fract_x
_atom_site_fract_y
_atom_site_fract_z
Si Si1 0.896228 0.919462 0.503154
Si Si2 0.743909 0.939278 0.595477
Si Si3 0.000000 0.422542 0.750000
Si Si4 0.799243 0.110196 0.889344
Si Si5 0.697523 0.369782 0.306132
Si Si6 0.790775 0.462553 0.709722
Si Si7 0.552647 0.882761 0.537229
Si Si8 0.506316 0.277648 0.148270
O O1 0.843702 0.970702 0.560549
O O2 0.818500 0.951760 0.452344
O O3 0.915290 0.747776 0.503932
O O4 0.000000 0.000000 0.500000
O O5 0.743323 0.772051 0.613907
O O6 0.647771 0.968478 0.558746
O O7 0.735351 0.050129 0.647689
O O8 0.097819 0.508696 0.770901
O O9 0.959769 0.328439 0.802009
O O10 0.907457 0.107117 0.860693
O O11 0.723405 0.010745 0.855373
O O12 0.708148 0.462100 0.248684
O O13 0.729570 0.208042 0.290422
O O14 0.587833 0.368074 0.331475
O O15 0.489940 0.816301 0.590364
O O16 0.500000 0.000000 0.500000
#
# Coordination Sequence:
#
# PCOD8137287 Si02
#       8
#     8   8   4   8   8   8   8   8
#     4  10  21  38  58  85 123 160 196 238 292 349
#     4  10  20  38  60  83 117 157 197 241 291 346
#     4  10  20  36  56  80 112 150 188 236 286 340
#     4  10  20  38  61  87 115 154 196 240 290 348
#     4  11  22  39  61  86 114 152 194 242 294 352
#     4  11  23  39  60  84 114 149 192 239 292 348
#     4  10  21  37  60  88 119 155 198 245 293 345
#     4   9  19  37  60  83 113 153 188 232 295 351
#
# _framework density 20.213263000000001
#
# number of rings (size 3 to 8) (size 9 to 14) (size 15 to 20)
#    0.000    2.133    0.000    7.200    0.000    5.333 
#    0.000    6.000    0.000    0.800    0.000    0.000 
#    0.000    0.000    0.000    0.000    0.000    0.000 
#
# Total GULP energy -371761.343235 kJ/mol
# GULP energy per Si atom -12392.044775 kJ/mol
# Density = 2.016726 g / cm^3
# Si number density = 20.213263 Si / 1000 Ang^3
#
#
#
# Elastic Constant Matrix: (Units=GPa)
#
#
# Indices 1 2 3 4 5 6 
#
# 1 82.6063 41.2660 27.0968 0.0000 6.0608 0.0000
# 2 41.2660 84.1112 49.1867 0.0000 15.3378 0.0000
# 3 27.0968 49.1867 96.4311 0.0000 11.0753 0.0000
# 4 0.0000 0.0000 0.0000 46.9535 0.0000 3.7092
# 5 6.0608 15.3378 11.0753 0.0000 42.7759 0.0000
# 6 0.0000 0.0000 0.0000 3.7092 0.0000 29.9001
#
#
#
# Elastic Compliance Matrix: (Units=1/GPa)
#
#
# Indices 1 2 3 4 5 6 
#
# 1 0.016085 -0.007582 -0.000724 0.000000 0.000627 0.000000
# 2 -0.007582 0.021192 -0.008173 0.000000 -0.004408 0.000000
# 3 -0.000724 -0.008173 0.014835 0.000000 -0.000808 0.000000
# 4 0.000000 0.000000 0.000000 0.021508 0.000000 -0.002668
# 5 0.000627 -0.004408 -0.000808 0.000000 0.025079 0.000000
# 6 0.000000 0.000000 0.000000 -0.002668 0.000000 0.033776
#
#
# Mechanical properties :
#
#
# Convention : Reuss Voigt Hill
#
# Bulk Modulus (GPa) = 52.20936 55.36084 53.78510
# Shear Modulus (GPa) = 29.10063 33.63251 31.36657
#
# Velocity S-wave (km/s) = 3.79843 4.08350 3.94354
# Velocity P-wave (km/s) = 6.71735 7.04848 6.88491
#
# Compressibility (1/GPa) = 0.01915365
#
# Stress axis : x y z
#
# Youngs Moduli (GPa) = 62.17010 47.18762 67.40801
#
# Poissons Ratio (x) = 0.35779 0.04883
# Poissons Ratio (y) = 0.47139 0.55089
# Poissons Ratio (z) = 0.04503 0.38564
#
# Static dielectric constant tensor:
#      x y z
#    x 3.649980 0.000000 -0.031450 
#    y 0.000000 3.432430 0.000000 
#    z -0.031450 0.000000 3.977910 
# 
# 
# High freq. dielectric constant tensor:
#      x y z
#    x 1.787780 0.000000 -0.004030 
#    y 0.000000 1.763520 0.000000 
#    z -0.004030 0.000000 1.808370 
# 
# From -- ./inp_files/291571.got.cif
#   From: 2010.06.25/outbox.cif.g09.slc.cpg/sg15_146_cif.got.tgz:291571.got - 2010.06.28 07:06:18.
