data_PCOD8137107
_publ_section_title
;
Structure prediction by ZEFSAII (Michael W. Deem and Ramdas Pophale) SiO2 
 PCOD8137107
Probable space group: C 2/C
;
_chemical_formula_sum "Si O2"
_cell_formula_units_Z 60
_cell_length_a 26.440280
_cell_length_b 11.273206
_cell_length_c 10.881174
_cell_angle_alpha 90.000000
_cell_angle_beta 119.137565
_cell_angle_gamma 90.000000
_cell_volume 2832.884560
_symmetry_space_group_name_H-M "C 2/C"
_symmetry_group_IT_number 15
_symmetry_cell_setting 'monoclinic'
loop_
_space_group_symop_operation_xyz
x,y,z
-x,y,1/2-z
-x,-y,-z
x,-y,1/2+z
1/2+x,1/2+y,z
1/2-x,1/2+y,1/2-z
1/2-x,1/2-y,-z
1/2+x,1/2-y,1/2+z
loop_
_atom_site_type_symbol
_atom_site_label
_atom_site_fract_x
_atom_site_fract_y
_atom_site_fract_z
Si Si1 0.356526 0.124637 0.188511
Si Si2 0.030217 0.475987 0.164274
Si Si3 0.255314 0.573368 0.566284
Si Si4 0.386329 0.612237 0.076237
Si Si5 0.500000 0.748870 0.250000
Si Si6 0.854959 0.144837 0.527887
Si Si7 0.689383 0.658060 0.285196
Si Si8 0.796806 0.764351 0.311376
O O1 0.406635 0.030752 0.268005
O O2 0.375545 0.246504 0.139951
O O3 0.331562 0.151777 0.295718
O O4 0.310714 0.052306 0.050929
O O5 0.000000 0.534309 0.250000
O O6 0.029483 0.332812 0.180558
O O7 0.000000 0.500000 0.000000
O O8 0.291483 0.594962 0.485375
O O9 0.283018 0.472073 0.682357
O O10 0.259198 0.691463 0.651385
O O11 0.449730 0.668024 0.132281
O O12 0.396599 0.470137 0.098396
O O13 0.353481 0.675150 0.151362
O O14 0.345068 0.641783 0.912052
O O15 0.851391 0.181915 0.381271
O O16 0.747753 0.739678 0.357209
#
# Coordination Sequence:
#
# PCOD8137107 Si02
#       8
#     8   8   8   8   4   8   8   8
#     4  11  21  39  70  91 129 175 212 266 338 392
#     4  10  25  48  68  93 129 175 230 283 325 386
#     4  10  20  35  60  94 132 169 196 260 332 398
#     4  11  24  41  62  90 126 179 212 276 328 380
#     4  10  26  50  62  86 132 170 238 284 322 376
#     4  10  20  40  60  97 130 160 210 257 324 407
#     4  11  21  36  60  98 133 162 211 264 326 413
#     4  11  20  38  63  94 136 163 204 264 343 402
#
# _framework density 21.179825000000001
#
# number of rings (size 3 to 8) (size 9 to 14) (size 15 to 20)
#    0.400    1.067    4.000    2.000    1.867    1.067 
#    3.600    0.667    0.000    0.000    0.000    0.000 
#    0.000    0.000    0.000    0.000    0.000    0.000 
#
# Total GULP energy -371714.188045 kJ/mol
# GULP energy per Si atom -12390.472935 kJ/mol
# Density = 2.113162 g / cm^3
# Si number density = 21.179825 Si / 1000 Ang^3
#
#
#
# Elastic Constant Matrix: (Units=GPa)
#
#
# Indices 1 2 3 4 5 6 
#
# 1 83.1587 29.8698 40.1801 0.0000 17.6532 0.0000
# 2 29.8698 78.1121 20.9148 0.0000 22.3862 0.0000
# 3 40.1801 20.9148 108.6521 0.0000 10.4686 0.0000
# 4 0.0000 0.0000 0.0000 21.1589 0.0000 8.7450
# 5 17.6532 22.3862 10.4686 0.0000 37.5791 0.0000
# 6 0.0000 0.0000 0.0000 8.7450 0.0000 40.7594
#
#
#
# Elastic Compliance Matrix: (Units=1/GPa)
#
#
# Indices 1 2 3 4 5 6 
#
# 1 0.016730 -0.003855 -0.005044 0.000000 -0.004157 0.000000
# 2 -0.003855 0.016828 -0.001050 0.000000 -0.007921 0.000000
# 3 -0.005044 -0.001050 0.011286 0.000000 -0.000149 0.000000
# 4 0.000000 0.000000 0.000000 0.051860 0.000000 -0.011127
# 5 -0.004157 -0.007921 -0.000149 0.000000 0.033323 0.000000
# 6 0.000000 0.000000 0.000000 -0.011127 0.000000 0.026922
#
#
# Mechanical properties :
#
#
# Convention : Reuss Voigt Hill
#
# Bulk Modulus (GPa) = 40.09097 50.20581 45.14839
# Shear Modulus (GPa) = 27.00344 31.83001 29.41673
#
# Velocity S-wave (km/s) = 3.57453 3.88086 3.73084
# Velocity P-wave (km/s) = 6.00053 6.62099 6.31838
#
# Compressibility (1/GPa) = 0.02494327
#
# Stress axis : x y z
#
# Youngs Moduli (GPa) = 59.77405 59.42608 88.60924
#
# Poissons Ratio (x) = 0.22911 0.44695
# Poissons Ratio (y) = 0.23045 0.09307
# Poissons Ratio (z) = 0.30150 0.06242
#
# Static dielectric constant tensor:
#      x y z
#    x 3.773320 0.000000 0.032330 
#    y 0.000000 3.875040 0.000000 
#    z 0.032330 0.000000 3.997540 
# 
# 
# High freq. dielectric constant tensor:
#      x y z
#    x 1.809700 0.000000 -0.009330 
#    y 0.000000 1.824460 0.000000 
#    z -0.009330 0.000000 1.830420 
# 
# From -- ./inp_files/122677.got.cif
#   From: 2010.06.25/outbox.cif.g09.slc.cpg/sg15_62_cif.got.tgz:122677.got - 2010.06.28 07:06:18.
