data_PCOD8137976
_publ_section_title
;
Structure prediction by ZEFSAII (Michael W. Deem and Ramdas Pophale) SiO2 
 PCOD8137976
Probable space group: C 2/C
;
_chemical_formula_sum "Si O2"
_cell_formula_units_Z 44
_cell_length_a 9.009637
_cell_length_b 10.640858
_cell_length_c 32.367456
_cell_angle_alpha 90.000000
_cell_angle_beta 50.004030
_cell_angle_gamma 90.000000
_cell_volume 2377.234936
_symmetry_space_group_name_H-M "C 2/C"
_symmetry_group_IT_number 15
_symmetry_cell_setting 'monoclinic'
loop_
_space_group_symop_operation_xyz
x,y,z
-x,y,1/2-z
-x,-y,-z
x,-y,1/2+z
1/2+x,1/2+y,z
1/2-x,1/2+y,1/2-z
1/2-x,1/2-y,-z
1/2+x,1/2-y,1/2+z
loop_
_atom_site_type_symbol
_atom_site_label
_atom_site_fract_x
_atom_site_fract_y
_atom_site_fract_z
Si Si1 0.060971 0.420788 0.928408
Si Si2 0.500000 0.630107 0.750000
Si Si3 0.437464 0.817139 0.483736
Si Si4 0.650032 0.785158 0.607817
Si Si5 0.475483 0.522001 0.839615
Si Si6 0.671339 0.130504 0.192640
O O1 0.272508 0.450574 0.872945
O O2 0.947505 0.545922 0.961516
O O3 0.937862 0.353407 0.915557
O O4 0.078556 0.327732 0.964048
O O5 0.554755 0.543568 0.779048
O O6 0.318610 0.721747 0.794866
O O7 0.250000 0.750000 0.500000
O O8 0.621966 0.733543 0.439213
O O9 0.542873 0.651645 0.632096
O O10 0.618067 0.872704 0.653698
O O11 0.624624 0.434813 0.837144
O O12 0.500000 0.062839 0.250000
#
# Coordination Sequence:
#
# PCOD8137976 Si02
#       6
#     8   4   8   8   8   8
#     4  10  22  36  58  85 112 147 187 226 281 335
#     4   8  20  34  54  74 108 142 182 234 274 322
#     4  10  21  38  59  84 114 150 183 230 280 333
#     4  10  21  38  55  84 115 144 186 236 276 331
#     4  10  20  37  55  77 113 144 183 232 279 329
#     4   9  20  38  53  79 111 143 189 232 275 333
#
# _framework density 18.508897999999999
#
# number of rings (size 3 to 8) (size 9 to 14) (size 15 to 20)
#    0.545    1.818    0.000    1.636    2.545    2.182 
#    3.273    0.000    0.000    0.000    0.000    0.000 
#    0.000    0.000    0.000    0.000    0.000    0.000 
#
# Total GULP energy -272781.290359 kJ/mol
# GULP energy per Si atom -12399.149562 kJ/mol
# Density = 1.846677 g / cm^3
# Si number density = 18.508898 Si / 1000 Ang^3
#
#
#
# Elastic Constant Matrix: (Units=GPa)
#
#
# Indices 1 2 3 4 5 6 
#
# 1 142.4640 70.4422 74.1699 0.0000 16.9799 0.0000
# 2 70.4422 67.0744 42.4795 0.0000 7.0052 0.0000
# 3 74.1699 42.4795 109.8072 0.0001 21.9382 0.0000
# 4 0.0000 0.0000 0.0001 17.0676 0.0000 0.4886
# 5 16.9799 7.0052 21.9382 0.0000 32.2953 0.0000
# 6 0.0000 0.0000 0.0000 0.4886 0.0000 36.7234
#
#
#
# Elastic Compliance Matrix: (Units=1/GPa)
#
#
# Indices 1 2 3 4 5 6 
#
# 1 0.017380 -0.014390 -0.005751 0.000000 -0.002110 0.000000
# 2 -0.014390 0.031692 -0.003099 0.000000 0.002797 0.000000
# 3 -0.005751 -0.003099 0.015564 0.000000 -0.006877 0.000000
# 4 0.000000 0.000000 0.000000 0.058613 0.000000 -0.000780
# 5 -0.002110 0.002797 -0.006877 0.000000 0.036138 0.000000
# 6 0.000000 0.000000 0.000000 -0.000780 0.000000 0.027241
#
#
# Mechanical properties :
#
#
# Convention : Reuss Voigt Hill
#
# Bulk Modulus (GPa) = 55.07857 77.05875 66.06866
# Shear Modulus (GPa) = 20.90629 26.03418 23.47024
#
# Velocity S-wave (km/s) = 3.36449 3.75450 3.56483
# Velocity P-wave (km/s) = 6.70191 7.77938 7.26066
#
# Compressibility (1/GPa) = 0.01815588
#
# Stress axis : x y z
#
# Youngs Moduli (GPa) = 57.53609 31.55331 64.24956
#
# Poissons Ratio (x) = 0.45407 0.36951
# Poissons Ratio (y) = 0.82797 0.19911
# Poissons Ratio (z) = 0.33090 0.09779
#
# Static dielectric constant tensor:
#      x y z
#    x 3.109710 0.000000 0.085260 
#    y 0.000000 3.307720 0.000000 
#    z 0.085260 0.000000 3.639550 
# 
# 
# High freq. dielectric constant tensor:
#      x y z
#    x 1.708230 0.000000 0.009180 
#    y 0.000000 1.705640 0.000000 
#    z 0.009180 0.000000 1.736550 
# 
# From -- ./inp_files/263043.got.cif
#   From: 2010.06.25/outbox.cif.g09.slc.cpg/sg15_132_cif.got.tgz:263043.got - 2010.06.28 07:06:18.
