data_PCOD8137986
_publ_section_title
;
Structure prediction by ZEFSAII (Michael W. Deem and Ramdas Pophale) SiO2 
 PCOD8137986
Probable space group: C 2/C
;
_chemical_formula_sum "Si O2"
_cell_formula_units_Z 60
_cell_length_a 16.906863
_cell_length_b 9.140270
_cell_length_c 23.865425
_cell_angle_alpha 90.000000
_cell_angle_beta 123.406046
_cell_angle_gamma 90.000000
_cell_volume 3078.706933
_symmetry_space_group_name_H-M "C 2/C"
_symmetry_group_IT_number 15
_symmetry_cell_setting 'monoclinic'
loop_
_space_group_symop_operation_xyz
x,y,z
-x,y,1/2-z
-x,-y,-z
x,-y,1/2+z
1/2+x,1/2+y,z
1/2-x,1/2+y,1/2-z
1/2-x,1/2-y,-z
1/2+x,1/2-y,1/2+z
loop_
_atom_site_type_symbol
_atom_site_label
_atom_site_fract_x
_atom_site_fract_y
_atom_site_fract_z
Si Si1 0.284347 0.123139 0.435133
Si Si2 0.881385 0.899854 0.276252
Si Si3 0.681855 0.053779 0.361188
Si Si4 0.775357 0.337490 0.371421
Si Si5 0.377915 0.801739 0.080953
Si Si6 0.500000 0.790189 0.750000
Si Si7 0.748296 0.691415 0.682678
Si Si8 0.093441 0.779084 0.676255
O O1 0.364691 0.180727 0.509192
O O2 0.180061 0.158853 0.420257
O O3 0.294473 0.204100 0.380526
O O4 0.306793 0.953438 0.430865
O O5 0.810665 0.918231 0.195531
O O6 0.826926 0.793431 0.297252
O O7 0.975145 0.815590 0.292633
O O8 0.909447 0.045001 0.321363
O O9 0.741590 0.200391 0.396209
O O10 0.582252 0.100258 0.297700
O O11 0.666890 0.947835 0.408346
O O12 0.741373 0.972448 0.336122
O O13 0.857730 0.285883 0.360733
O O14 0.487520 0.783589 0.138423
O O15 0.852108 0.734279 0.745935
#
# Coordination Sequence:
#
# PCOD8137986 Si02
#       8
#     8   8   8   8   8   4   8   8
#     4  10  22  42  60  85 121 168 189 247 297 357
#     4  10  21  35  57  95 119 149 191 251 299 351
#     4  10  20  37  55  89 114 160 188 251 290 352
#     4  10  21  37  61  83 121 155 199 235 307 350
#     4  10  24  39  62  86 123 153 210 239 297 345
#     4  10  22  32  58  88 128 140 196 248 304 332
#     4  10  20  38  63  83 124 151 198 237 303 345
#     4  11  21  36  63  92 111 156 201 249 284 362
#
# _framework density 19.488703000000001
#
# number of rings (size 3 to 8) (size 9 to 14) (size 15 to 20)
#    0.000    1.867    2.667    0.800    3.733    3.733 
#    0.000    0.667    0.000    0.000    0.000    0.000 
#    0.000    0.000    0.000    0.000    0.000    0.000 
#
# Total GULP energy -371831.286078 kJ/mol
# GULP energy per Si atom -12394.376203 kJ/mol
# Density = 1.944435 g / cm^3
# Si number density = 19.488703 Si / 1000 Ang^3
#
#
#
# Elastic Constant Matrix: (Units=GPa)
#
#
# Indices 1 2 3 4 5 6 
#
# 1 92.4888 41.0080 31.6541 0.0000 -5.7097 0.0000
# 2 41.0080 103.3279 35.2149 0.0000 -0.6081 0.0000
# 3 31.6541 35.2149 84.6425 0.0000 -12.1326 0.0000
# 4 0.0000 0.0000 0.0000 26.0393 0.0000 -8.3657
# 5 -5.7097 -0.6081 -12.1326 0.0000 14.5810 0.0000
# 6 0.0000 0.0000 0.0000 -8.3657 0.0000 12.7484
#
#
#
# Elastic Compliance Matrix: (Units=1/GPa)
#
#
# Indices 1 2 3 4 5 6 
#
# 1 0.014008 -0.004540 -0.002941 0.000000 0.002848 0.000000
# 2 -0.004540 0.012947 -0.004390 0.000000 -0.004890 0.000000
# 3 -0.002941 -0.004390 0.016520 0.000000 0.012411 0.000000
# 4 0.000000 0.000000 0.000000 0.048663 0.000000 0.031933
# 5 0.002848 -0.004890 0.012411 0.000000 0.079820 0.000000
# 6 0.000000 0.000000 0.000000 0.031933 0.000000 0.099396
#
#
# Mechanical properties :
#
#
# Convention : Reuss Voigt Hill
#
# Bulk Modulus (GPa) = 50.67861 55.13479 52.90670
# Shear Modulus (GPa) = 16.57424 22.17924 19.37674
#
# Velocity S-wave (km/s) = 2.91942 3.37717 3.15660
# Velocity P-wave (km/s) = 6.11756 6.59993 6.36332
#
# Compressibility (1/GPa) = 0.01973219
#
# Stress axis : x y z
#
# Youngs Moduli (GPa) = 71.38980 77.23806 60.53409
#
# Poissons Ratio (x) = 0.35066 0.17805
# Poissons Ratio (y) = 0.32411 0.26572
# Poissons Ratio (z) = 0.20998 0.33905
#
# Static dielectric constant tensor:
#      x y z
#    x 3.557480 0.000000 -0.110560 
#    y 0.000000 3.638480 0.000000 
#    z -0.110560 0.000000 3.345690 
# 
# 
# High freq. dielectric constant tensor:
#      x y z
#    x 1.758450 0.000000 -0.011740 
#    y 0.000000 1.768470 0.000000 
#    z -0.011740 0.000000 1.735320 
# 
# From -- ./inp_files/247419.got.cif
#   From: 2010.06.25/outbox.cif.g09.slc.cpg/sg15_124_cif.got.tgz:247419.got - 2010.06.28 07:06:18.
