data_PCOD8137908
_publ_section_title
;
Structure prediction by ZEFSAII (Michael W. Deem and Ramdas Pophale) SiO2 
 PCOD8137908
Probable space group: C 2/C
;
_chemical_formula_sum "Si O2"
_cell_formula_units_Z 48
_cell_length_a 22.050430
_cell_length_b 12.780410
_cell_length_c 14.538763
_cell_angle_alpha 90.000000
_cell_angle_beta 34.643010
_cell_angle_gamma 90.000000
_cell_volume 2329.111888
_symmetry_space_group_name_H-M "C 2/C"
_symmetry_group_IT_number 15
_symmetry_cell_setting 'monoclinic'
loop_
_space_group_symop_operation_xyz
x,y,z
-x,y,1/2-z
-x,-y,-z
x,-y,1/2+z
1/2+x,1/2+y,z
1/2-x,1/2+y,1/2-z
1/2-x,1/2-y,-z
1/2+x,1/2-y,1/2+z
loop_
_atom_site_type_symbol
_atom_site_label
_atom_site_fract_x
_atom_site_fract_y
_atom_site_fract_z
Si Si1 0.395722 0.201992 0.546614
Si Si2 0.171459 0.046536 0.568334
Si Si3 0.500000 0.630692 0.250000
Si Si4 0.557247 0.259179 0.491457
Si Si5 0.000000 0.779739 0.250000
Si Si6 0.240634 0.386417 0.719987
Si Si7 0.785737 0.931589 0.279168
O O1 0.444842 0.230684 0.583862
O O2 0.486454 0.204100 0.355060
O O3 0.307279 0.282546 0.623224
O O4 0.327745 0.095054 0.629455
O O5 0.099694 0.148161 0.647618
O O6 0.260884 0.050599 0.375826
O O7 0.230768 0.054961 0.591581
O O8 0.101173 0.940779 0.650668
O O9 0.466727 0.706886 0.374688
O O10 0.624970 0.151131 0.400926
O O11 0.615845 0.354850 0.366122
O O12 0.308074 0.454416 0.709283
#
# Coordination Sequence:
#
# PCOD8137908 Si02
#       7
#     8   8   4   8   4   8   8
#     4  10  22  36  62  88 123 159 203 260 316 369
#     4  10  20  36  66  90 122 155 215 260 311 364
#     4  11  22  40  67  96 120 176 211 260 313 378
#     4  11  23  41  63  89 131 163 213 261 316 380
#     4   9  18  32  57  94 108 146 197 252 313 350
#     4  10  23  40  58  96 123 165 207 261 322 373
#     4  11  22  40  61  90 125 166 207 268 314 374
#
# _framework density 20.608712000000001
#
# number of rings (size 3 to 8) (size 9 to 14) (size 15 to 20)
#    0.000    1.667    3.333    1.000    2.333    4.000 
#    3.000    3.333    0.000    0.000    0.000    0.000 
#    0.000    0.000    0.000    0.000    0.000    0.000 
#
# Total GULP energy -297448.917303 kJ/mol
# GULP energy per Si atom -12393.704888 kJ/mol
# Density = 2.056181 g / cm^3
# Si number density = 20.608712 Si / 1000 Ang^3
#
#
#
# Elastic Constant Matrix: (Units=GPa)
#
#
# Indices 1 2 3 4 5 6 
#
# 1 111.2762 24.1834 49.3655 0.0000 18.0967 0.0000
# 2 24.1834 46.8993 33.1435 0.0000 6.9040 0.0000
# 3 49.3655 33.1435 117.4917 0.0000 24.3393 0.0000
# 4 0.0000 0.0000 0.0000 27.5775 0.0000 4.7720
# 5 18.0967 6.9040 24.3393 0.0000 35.2248 0.0000
# 6 0.0000 0.0000 0.0000 4.7720 0.0000 23.7643
#
#
#
# Elastic Compliance Matrix: (Units=1/GPa)
#
#
# Indices 1 2 3 4 5 6 
#
# 1 0.011671 -0.003185 -0.003375 0.000000 -0.003039 0.000000
# 2 -0.003185 0.027501 -0.006584 0.000000 0.000796 0.000000
# 3 -0.003375 -0.006584 0.013025 0.000000 -0.005975 0.000000
# 4 0.000000 0.000000 0.000000 0.037567 0.000000 -0.007544
# 5 -0.003039 0.000796 -0.005975 0.000000 0.033923 0.000000
# 6 0.000000 0.000000 0.000000 -0.007544 0.000000 0.043595
#
#
# Mechanical properties :
#
#
# Convention : Reuss Voigt Hill
#
# Bulk Modulus (GPa) = 38.60095 54.33911 46.47003
# Shear Modulus (GPa) = 24.72734 28.57831 26.65283
#
# Velocity S-wave (km/s) = 3.46764 3.72790 3.60012
# Velocity P-wave (km/s) = 5.89947 6.70477 6.31497
#
# Compressibility (1/GPa) = 0.02590610
#
# Stress axis : x y z
#
# Youngs Moduli (GPa) = 85.68571 36.36283 76.77762
#
# Poissons Ratio (x) = 0.11582 0.25916
# Poissons Ratio (y) = 0.27291 0.50553
# Poissons Ratio (z) = 0.28923 0.23943
#
# Static dielectric constant tensor:
#      x y z
#    x 3.533240 0.000000 0.045200 
#    y 0.000000 3.729350 0.000000 
#    z 0.045200 0.000000 4.028630 
# 
# 
# High freq. dielectric constant tensor:
#      x y z
#    x 1.797120 0.000000 0.012530 
#    y 0.000000 1.794090 0.000000 
#    z 0.012530 0.000000 1.803900 
# 
# From -- ./inp_files/96253.got.cif
#   From: 2010.06.25/outbox.cif.g09.slc.cpg/sg15_49_cif.got.tgz:96253.got - 2010.06.28 07:06:18.
