data_PCOD8137720
_publ_section_title
;
Structure prediction by ZEFSAII (Michael W. Deem and Ramdas Pophale) SiO2 
 PCOD8137720
Probable space group: C 2/C
;
_chemical_formula_sum "Si O2"
_cell_formula_units_Z 52
_cell_length_a 12.677467
_cell_length_b 29.400413
_cell_length_c 8.791120
_cell_angle_alpha 90.000000
_cell_angle_beta 58.618325
_cell_angle_gamma 90.000000
_cell_volume 2797.333560
_symmetry_space_group_name_H-M "C 2/C"
_symmetry_group_IT_number 15
_symmetry_cell_setting 'monoclinic'
loop_
_space_group_symop_operation_xyz
x,y,z
-x,y,1/2-z
-x,-y,-z
x,-y,1/2+z
1/2+x,1/2+y,z
1/2-x,1/2+y,1/2-z
1/2-x,1/2-y,-z
1/2+x,1/2-y,1/2+z
loop_
_atom_site_type_symbol
_atom_site_label
_atom_site_fract_x
_atom_site_fract_y
_atom_site_fract_z
Si Si1 0.937438 0.682804 0.133384
Si Si2 0.151690 0.465003 0.988441
Si Si3 0.122294 0.446769 0.356533
Si Si4 0.248969 0.373852 0.876295
Si Si5 0.500000 0.674322 0.250000
Si Si6 0.339941 0.152651 0.729440
Si Si7 0.666888 0.270330 0.424228
O O1 0.824301 0.647004 0.212064
O O2 0.876022 0.732152 0.160486
O O3 0.000000 0.678553 0.250000
O O4 0.031152 0.673670 0.923378
O O5 0.188351 0.516458 0.915890
O O6 0.254832 0.428522 0.858395
O O7 0.144683 0.465276 0.172890
O O8 0.025019 0.447513 0.003546
O O9 0.178442 0.396216 0.342330
O O10 0.388784 0.356945 0.774958
O O11 0.167445 0.357998 0.084697
O O12 0.456276 0.706623 0.418457
O O13 0.237501 0.191082 0.772067
O O14 0.750000 0.250000 0.500000
#
# Coordination Sequence:
#
# PCOD8137720 Si02
#       7
#     8   8   8   8   4   8   8
#     4  12  24  35  54  87 117 143 184 246 294 330
#     4   9  17  30  52  79 110 140 178 229 286 332
#     4   9  17  30  52  81 108 141 178 230 283 343
#     4  10  20  37  59  84 109 151 190 235 274 346
#     4  10  20  36  62  82 102 146 212 228 262 340
#     4  10  20  37  59  76 114 153 190 229 281 342
#     4  11  21  36  60  79 109 156 198 235 271 346
#
# _framework density 18.589129
#
# number of rings (size 3 to 8) (size 9 to 14) (size 15 to 20)
#    0.000    1.846    4.615    1.385    0.000    1.846 
#    0.000    0.000    0.000    8.308    0.000    0.000 
#    0.000    0.000    0.000    0.000    0.000    0.000 
#
# Total GULP energy -322190.127355 kJ/mol
# GULP energy per Si atom -12391.927975 kJ/mol
# Density = 1.854682 g / cm^3
# Si number density = 18.589129 Si / 1000 Ang^3
#
#
#
# Elastic Constant Matrix: (Units=GPa)
#
#
# Indices 1 2 3 4 5 6 
#
# 1 90.8432 44.7836 38.2045 0.0000 -2.1610 0.0000
# 2 44.7836 160.3455 39.7102 0.0000 -8.2738 0.0000
# 3 38.2045 39.7102 44.9011 0.0000 -16.1533 0.0000
# 4 0.0000 0.0000 0.0000 29.8581 0.0000 -4.5692
# 5 -2.1610 -8.2738 -16.1533 0.0000 20.0570 0.0000
# 6 0.0000 0.0000 0.0000 -4.5692 0.0000 30.6187
#
#
#
# Elastic Compliance Matrix: (Units=1/GPa)
#
#
# Indices 1 2 3 4 5 6 
#
# 1 0.020570 -0.001024 -0.022458 0.000000 -0.016293 0.000000
# 2 -0.001024 0.008202 -0.007328 0.000000 -0.002629 0.000000
# 3 -0.022458 -0.007328 0.064627 0.000000 0.046606 0.000000
# 4 0.000000 0.000000 0.000000 0.034274 0.000000 0.005115
# 5 -0.016293 -0.002629 0.046606 0.000000 0.084553 0.000000
# 6 0.000000 0.000000 0.000000 0.005115 0.000000 0.033423
#
#
# Mechanical properties :
#
#
# Convention : Reuss Voigt Hill
#
# Bulk Modulus (GPa) = 31.46733 60.16515 45.81624
# Shear Modulus (GPa) = 15.73005 27.66620 21.69812
#
# Velocity S-wave (km/s) = 2.91210 3.86203 3.42021
# Velocity P-wave (km/s) = 5.31711 7.23347 6.34802
#
# Compressibility (1/GPa) = 0.03177899
#
# Stress axis : x y z
#
# Youngs Moduli (GPa) = 48.61431 121.92634 15.47331
#
# Poissons Ratio (x) = 0.12485 0.34750
# Poissons Ratio (y) = 0.04978 0.11339
# Poissons Ratio (z) = 1.09179 0.89347
#
# Static dielectric constant tensor:
#      x y z
#    x 3.101020 0.000000 -0.119710 
#    y 0.000000 3.855340 0.000000 
#    z -0.119710 0.000000 3.234860 
# 
# 
# High freq. dielectric constant tensor:
#      x y z
#    x 1.681150 0.000000 -0.005990 
#    y 0.000000 1.745360 0.000000 
#    z -0.005990 0.000000 1.696750 
# 
# From -- ./inp_files/35086.got.cif
#   From: 2010.06.25/outbox.cif.g09.slc.cpg/sg15_18_cif.got.tgz:35086.got - 2010.06.28 07:06:18.
