data_PCOD8137500
_publ_section_title
;
Structure prediction by ZEFSAII (Michael W. Deem and Ramdas Pophale) SiO2 
 PCOD8137500
Probable space group: C 2/C
;
_chemical_formula_sum "Si O2"
_cell_formula_units_Z 52
_cell_length_a 9.778844
_cell_length_b 27.375133
_cell_length_c 11.061404
_cell_angle_alpha 90.000000
_cell_angle_beta 59.780916
_cell_angle_gamma 90.000000
_cell_volume 2558.713371
_symmetry_space_group_name_H-M "C 2/C"
_symmetry_group_IT_number 15
_symmetry_cell_setting 'monoclinic'
loop_
_space_group_symop_operation_xyz
x,y,z
-x,y,1/2-z
-x,-y,-z
x,-y,1/2+z
1/2+x,1/2+y,z
1/2-x,1/2+y,1/2-z
1/2-x,1/2-y,-z
1/2+x,1/2-y,1/2+z
loop_
_atom_site_type_symbol
_atom_site_label
_atom_site_fract_x
_atom_site_fract_y
_atom_site_fract_z
Si Si1 0.586215 0.223043 0.090076
Si Si2 0.056195 0.610665 0.596053
Si Si3 0.500000 0.032542 0.250000
Si Si4 0.449223 0.560195 0.902537
Si Si5 0.909633 0.279209 0.416737
Si Si6 0.721444 0.531980 0.949782
Si Si7 0.862937 0.387566 0.959725
O O1 0.500000 0.244309 0.250000
O O2 0.605790 0.165544 0.108946
O O3 0.750000 0.250000 0.000000
O O4 0.501348 0.233063 0.999908
O O5 0.136337 0.663733 0.565768
O O6 0.187413 0.569740 0.501492
O O7 0.000000 0.592234 0.750000
O O8 0.896291 0.613281 0.588094
O O9 0.510689 0.070508 0.133859
O O10 0.656907 0.999015 0.188759
O O11 0.500000 0.578446 0.750000
O O12 0.599739 0.563087 0.922930
O O13 0.378953 0.505418 0.924048
O O14 0.313003 0.597878 0.004060
O O15 0.750000 0.250000 0.500000
O O16 0.000000 0.265330 0.250000
#
# Coordination Sequence:
#
# PCOD8137500 Si02
#       7
#     8   8   4   8   8   8   8
#     4  11  23  41  66  97 126 164 212 261 317 377
#     4  10  20  36  59  85 112 152 209 240 293 366
#     4  10  20  36  62  80 114 156 206 238 292 362
#     4  10  22  35  51  81 120 149 195 247 299 351
#     4  10  22  41  63  92 126 164 206 259 314 376
#     4  10  21  35  54  84 111 155 197 243 299 347
#     4  10  22  38  60  84 117 160 198 247 299 365
#
# _framework density 20.322714999999999
#
# number of rings (size 3 to 8) (size 9 to 14) (size 15 to 20)
#    0.000    1.846    1.538    1.846    2.154    3.077 
#    0.000    0.769    0.000    0.000    0.000    0.000 
#    0.000    0.000    0.000    0.000    0.000    0.000 
#
# Total GULP energy -322119.695990 kJ/mol
# GULP energy per Si atom -12389.219077 kJ/mol
# Density = 2.027646 g / cm^3
# Si number density = 20.322715 Si / 1000 Ang^3
#
#
#
# Elastic Constant Matrix: (Units=GPa)
#
#
# Indices 1 2 3 4 5 6 
#
# 1 123.5873 54.2889 43.3921 0.0000 -10.2629 0.0000
# 2 54.2889 90.1792 30.4368 0.0000 -13.3047 0.0000
# 3 43.3921 30.4368 111.9707 0.0000 -0.1688 0.0000
# 4 0.0000 0.0000 0.0000 19.4883 0.0000 0.9496
# 5 -10.2629 -13.3047 -0.1688 0.0000 32.3366 0.0000
# 6 0.0000 0.0000 0.0000 0.9496 0.0000 17.0763
#
#
#
# Elastic Compliance Matrix: (Units=1/GPa)
#
#
# Indices 1 2 3 4 5 6 
#
# 1 0.011854 -0.005939 -0.002977 0.000000 0.001303 0.000000
# 2 -0.005939 0.016053 -0.002055 0.000000 0.004709 0.000000
# 3 -0.002977 -0.002055 0.010641 0.000000 -0.001735 0.000000
# 4 0.000000 0.000000 0.000000 0.051452 0.000000 -0.002861
# 5 0.001303 0.004709 -0.001735 0.000000 0.033267 0.000000
# 6 0.000000 0.000000 0.000000 -0.002861 0.000000 0.058720
#
#
# Mechanical properties :
#
#
# Convention : Reuss Voigt Hill
#
# Bulk Modulus (GPa) = 60.22409 64.66365 62.44387
# Shear Modulus (GPa) = 23.87050 26.95487 25.41269
#
# Velocity S-wave (km/s) = 3.43092 3.64585 3.54002
# Velocity P-wave (km/s) = 6.73745 7.04347 6.89216
#
# Compressibility (1/GPa) = 0.01660465
#
# Stress axis : x y z
#
# Youngs Moduli (GPa) = 84.36045 62.29465 93.97870
#
# Poissons Ratio (x) = 0.36997 0.27981
# Poissons Ratio (y) = 0.50102 0.19312
# Poissons Ratio (z) = 0.25117 0.12801
#
# Static dielectric constant tensor:
#      x y z
#    x 3.547170 0.000000 -0.340830 
#    y 0.000000 3.777260 0.000000 
#    z -0.340830 0.000000 3.319000 
# 
# 
# High freq. dielectric constant tensor:
#      x y z
#    x 1.792460 0.000000 -0.002770 
#    y 0.000000 1.796910 0.000000 
#    z -0.002770 0.000000 1.786510 
# 
# From -- ./inp_files/81177.got.cif
#   From: 2010.06.25/outbox.cif.g09.slc.cpg/sg15_41_cif.got.tgz:81177.got - 2010.06.28 07:06:18.
