data_PCOD8137600
_publ_section_title
;
Structure prediction by ZEFSAII (Michael W. Deem and Ramdas Pophale) SiO2 
 PCOD8137600
Probable space group: C 2/C
;
_chemical_formula_sum "Si O2"
_cell_formula_units_Z 48
_cell_length_a 22.586228
_cell_length_b 7.476925
_cell_length_c 35.873390
_cell_angle_alpha 90.000000
_cell_angle_beta 154.060345
_cell_angle_gamma 90.000000
_cell_volume 2649.976568
_symmetry_space_group_name_H-M "C 2/C"
_symmetry_group_IT_number 15
_symmetry_cell_setting 'monoclinic'
loop_
_space_group_symop_operation_xyz
x,y,z
-x,y,1/2-z
-x,-y,-z
x,-y,1/2+z
1/2+x,1/2+y,z
1/2-x,1/2+y,1/2-z
1/2-x,1/2-y,-z
1/2+x,1/2-y,1/2+z
loop_
_atom_site_type_symbol
_atom_site_label
_atom_site_fract_x
_atom_site_fract_y
_atom_site_fract_z
Si Si1 0.084277 0.956010 0.261317
Si Si2 0.650429 0.750003 0.498671
Si Si3 0.584288 0.956252 0.761326
Si Si4 0.452527 0.250105 0.640336
Si Si5 0.876515 0.044551 0.456632
Si Si6 0.876510 0.455409 0.456626
O O1 0.059535 0.749874 0.236921
O O2 0.240840 0.999483 0.357026
O O3 0.000000 0.011370 0.250000
O O4 0.034012 0.073057 0.198293
O O5 0.556386 0.749938 0.409149
O O6 0.806831 0.750035 0.576848
O O7 0.614307 0.572853 0.501149
O O8 0.614316 0.927149 0.501160
O O9 0.500000 0.011651 0.750000
O O10 0.740856 0.999632 0.857043
O O11 0.534088 0.073346 0.698335
O O12 0.878183 0.249981 0.470482
O O13 0.000000 0.000000 0.500000
O O14 0.000000 0.500000 0.500000
#
# Coordination Sequence:
#
# PCOD8137600 Si02
#       6
#     8   8   8   8   8   8
#     4  10  20  36  60  88 111 152 202 239 283 339
#     4  11  23  38  57  94 116 154 192 235 302 339
#     4  10  20  36  60  88 111 152 202 239 283 339
#     4  11  22  37  62  85 126 150 186 244 293 352
#     4  11  22  38  63  85 114 152 201 243 283 345
#     4  11  22  38  63  85 114 152 201 243 283 345
#
# _framework density 18.113365999999999
#
# number of rings (size 3 to 8) (size 9 to 14) (size 15 to 20)
#    0.000    1.333    5.000    1.500    0.000    1.333 
#    0.000    5.000    0.000    0.000    0.000    0.000 
#    0.000    0.000    0.000    0.000    0.000    0.000 
#
# Total GULP energy -297728.575293 kJ/mol
# GULP energy per Si atom -12405.357304 kJ/mol
# Density = 1.807214 g / cm^3
# Si number density = 18.113366 Si / 1000 Ang^3
#
#
#
# Elastic Constant Matrix: (Units=GPa)
#
#
# Indices 1 2 3 4 5 6 
#
# 1 113.8394 60.3109 78.8911 -0.0052 -2.3482 0.0091
# 2 60.3109 140.6419 84.5801 0.0148 -23.8382 -0.0063
# 3 78.8911 84.5801 143.7535 0.0026 -10.0831 0.0119
# 4 -0.0052 0.0148 0.0026 25.9823 0.0054 6.7680
# 5 -2.3482 -23.8382 -10.0831 0.0054 38.9127 -0.0131
# 6 0.0091 -0.0063 0.0119 6.7680 -0.0131 20.8936
#
#
#
# Elastic Compliance Matrix: (Units=1/GPa)
#
#
# Indices 1 2 3 4 5 6 
#
# 1 0.014835 -0.002767 -0.006691 0.000008 -0.002534 -0.000008
# 2 -0.002767 0.012640 -0.005486 -0.000013 0.006154 0.000016
# 3 -0.006691 -0.005486 0.013844 0.000002 -0.000178 -0.000008
# 4 0.000008 -0.000013 0.000002 0.042035 -0.000017 -0.013616
# 5 -0.002534 0.006154 -0.000178 -0.000017 0.029270 0.000027
# 6 -0.000008 0.000016 -0.000008 -0.013616 0.000027 0.052272
#
#
# Mechanical properties :
#
#
# Convention : Reuss Voigt Hill
#
# Bulk Modulus (GPa) = 87.49473 93.97766 90.73620
# Shear Modulus (GPa) = 25.17704 28.78789 26.98247
#
# Velocity S-wave (km/s) = 3.73228 3.99095 3.86378
# Velocity P-wave (km/s) = 8.18425 8.55760 8.37301
#
# Compressibility (1/GPa) = 0.01142926
#
# Stress axis : x y z
#
# Youngs Moduli (GPa) = 67.40863 79.11705 72.23451
#
# Poissons Ratio (x) = 0.21894 0.48331
# Poissons Ratio (y) = 0.18654 0.39630
# Poissons Ratio (z) = 0.45102 0.43406
#
# Static dielectric constant tensor:
#      x y z
#    x 3.289320 -0.000040 0.117650 
#    y -0.000040 3.578020 0.000020 
#    z 0.117650 0.000020 3.437330 
# 
# 
# High freq. dielectric constant tensor:
#      x y z
#    x 1.689120 0.000000 0.014900 
#    y 0.000000 1.721330 0.000000 
#    z 0.014900 0.000000 1.703430 
# 
# From -- ./inp_files/251473.got.cif
#   From: 2010.06.25/outbox.cif.g09.slc.cpg/sg15_126_cif.got.tgz:251473.got - 2010.06.28 07:06:18.
