data_PCOD8137834
_publ_section_title
;
Structure prediction by ZEFSAII (Michael W. Deem and Ramdas Pophale) SiO2 
 PCOD8137834
Probable space group: C 2/C
;
_chemical_formula_sum "Si O2"
_cell_formula_units_Z 60
_cell_length_a 14.134636
_cell_length_b 14.636965
_cell_length_c 28.457369
_cell_angle_alpha 90.000000
_cell_angle_beta 29.226727
_cell_angle_gamma 90.000000
_cell_volume 2874.667408
_symmetry_space_group_name_H-M "C 2/C"
_symmetry_group_IT_number 15
_symmetry_cell_setting 'monoclinic'
loop_
_space_group_symop_operation_xyz
x,y,z
-x,y,1/2-z
-x,-y,-z
x,-y,1/2+z
1/2+x,1/2+y,z
1/2-x,1/2+y,1/2-z
1/2-x,1/2-y,-z
1/2+x,1/2-y,1/2+z
loop_
_atom_site_type_symbol
_atom_site_label
_atom_site_fract_x
_atom_site_fract_y
_atom_site_fract_z
Si Si1 0.127633 0.168937 0.913650
Si Si2 0.717475 0.018944 0.168147
Si Si3 0.135273 0.378021 0.355097
Si Si4 0.500000 0.688797 0.750000
Si Si5 0.776807 0.719180 0.041076
Si Si6 0.612578 0.066984 0.313288
Si Si7 0.352913 0.735912 0.236476
Si Si8 0.290770 0.167469 0.401315
O O1 0.133314 0.059421 0.910793
O O2 0.156553 0.197927 0.954892
O O3 0.295529 0.207356 0.807440
O O4 0.913650 0.200792 0.988001
O O5 0.500000 0.986551 0.250000
O O6 0.741277 0.039247 0.212871
O O7 0.769590 0.112542 0.119457
O O8 0.325716 0.373351 0.305533
O O9 0.103878 0.480862 0.351390
O O10 0.153532 0.304665 0.305091
O O11 0.944295 0.357835 0.469716
O O12 0.573420 0.749310 0.674003
O O13 0.564278 0.689017 0.151374
O O14 0.750000 0.750000 0.000000
O O15 0.704467 0.153244 0.298794
O O16 0.397910 0.098977 0.390625
#
# Coordination Sequence:
#
# PCOD8137834 Si02
#       8
#     8   8   8   4   8   8   8   8
#     4  12  23  40  65 103 132 178 224 291 351 409
#     4  10  20  36  63  96 133 163 218 292 348 394
#     4  11  23  45  69  97 135 184 234 278 354 421
#     4  12  20  46  68  90 136 188 218 284 338 422
#     4  10  24  39  67  95 133 181 224 272 348 422
#     4  11  23  42  66  99 133 182 227 285 346 409
#     4  11  23  43  67  95 140 173 227 289 347 408
#     4  11  22  38  69  96 135 169 231 287 349 398
#
# _framework density 20.871980000000001
#
# number of rings (size 3 to 8) (size 9 to 14) (size 15 to 20)
#    0.000    1.067    6.000    1.600    7.467    1.600 
#    2.400    0.667    0.000    0.000    0.000    0.000 
#    0.000    0.000    0.000    0.000    0.000    0.000 
#
# Total GULP energy -371923.978989 kJ/mol
# GULP energy per Si atom -12397.465966 kJ/mol
# Density = 2.082447 g / cm^3
# Si number density = 20.871980 Si / 1000 Ang^3
#
#
#
# Elastic Constant Matrix: (Units=GPa)
#
#
# Indices 1 2 3 4 5 6 
#
# 1 96.3236 34.1550 37.5234 -0.0026 -12.5708 -0.0016
# 2 34.1550 75.2013 20.3637 -0.0132 5.3672 -0.0044
# 3 37.5234 20.3637 116.7801 -0.0242 -16.1440 -0.0131
# 4 -0.0026 -0.0132 -0.0242 16.1592 -0.0031 -5.9845
# 5 -12.5708 5.3672 -16.1440 -0.0031 28.6886 0.0029
# 6 -0.0016 -0.0044 -0.0131 -5.9845 0.0029 36.6320
#
#
#
# Elastic Compliance Matrix: (Units=1/GPa)
#
#
# Indices 1 2 3 4 5 6 
#
# 1 0.014435 -0.006243 -0.002726 -0.000007 0.005959 -0.000003
# 2 -0.006243 0.017168 -0.001962 0.000010 -0.007052 0.000003
# 3 -0.002726 -0.001962 0.010482 0.000017 0.005071 0.000006
# 4 -0.000007 0.000010 0.000017 0.065869 0.000011 0.010761
# 5 0.005959 -0.007052 0.005071 0.000011 0.041641 0.000000
# 6 -0.000003 0.000003 0.000006 0.010761 0.000000 0.029057
#
#
# Mechanical properties :
#
#
# Convention : Reuss Voigt Hill
#
# Bulk Modulus (GPa) = 49.45063 52.48769 50.96916
# Shear Modulus (GPa) = 24.12470 29.38016 26.75243
#
# Velocity S-wave (km/s) = 3.40346 3.75592 3.58402
# Velocity P-wave (km/s) = 6.26007 6.63410 6.44980
#
# Compressibility (1/GPa) = 0.02022219
#
# Stress axis : x y z
#
# Youngs Moduli (GPa) = 69.27599 58.24791 95.39963
#
# Poissons Ratio (x) = 0.36366 0.26003
# Poissons Ratio (y) = 0.43252 0.18722
# Poissons Ratio (z) = 0.18882 0.11431
#
# Static dielectric constant tensor:
#      x y z
#    x 3.717740 0.000000 -0.176970 
#    y 0.000000 3.557600 0.000000 
#    z -0.176970 0.000000 4.202590 
# 
# 
# High freq. dielectric constant tensor:
#      x y z
#    x 1.811090 0.000000 -0.013160 
#    y 0.000000 1.796380 0.000000 
#    z -0.013160 0.000000 1.826950 
# 
# From -- ./inp_files/313972.got.cif
#   From: 2010.06.25/outbox.cif.g09.slc.cpg/sg15_157_cif.got.tgz:313972.got - 2010.06.28 07:06:18.
