data_PCOD8137815
_publ_section_title
;
Structure prediction by ZEFSAII (Michael W. Deem and Ramdas Pophale) SiO2 
 PCOD8137815
Probable space group: C 2/C
;
_chemical_formula_sum "Si O2"
_cell_formula_units_Z 52
_cell_length_a 7.858103
_cell_length_b 19.693731
_cell_length_c 16.961083
_cell_angle_alpha 90.000000
_cell_angle_beta 122.268790
_cell_angle_gamma 90.000000
_cell_volume 2219.422677
_symmetry_space_group_name_H-M "C 2/C"
_symmetry_group_IT_number 15
_symmetry_cell_setting 'monoclinic'
loop_
_space_group_symop_operation_xyz
x,y,z
-x,y,1/2-z
-x,-y,-z
x,-y,1/2+z
1/2+x,1/2+y,z
1/2-x,1/2+y,1/2-z
1/2-x,1/2-y,-z
1/2+x,1/2-y,1/2+z
loop_
_atom_site_type_symbol
_atom_site_label
_atom_site_fract_x
_atom_site_fract_y
_atom_site_fract_z
Si Si1 0.124587 0.159419 0.532484
Si Si2 0.918484 0.653189 0.311224
Si Si3 0.121804 0.197084 0.708246
Si Si4 0.052552 0.716042 0.590673
Si Si5 0.696487 0.539350 0.448462
Si Si6 0.500000 0.601360 0.250000
Si Si7 0.110691 0.406815 0.006536
O O1 0.130216 0.154534 0.629297
O O2 0.329128 0.188545 0.547276
O O3 0.087093 0.082590 0.490936
O O4 0.953248 0.209989 0.454084
O O5 0.986666 0.731432 0.338848
O O6 0.676551 0.648797 0.259580
O O7 0.000000 0.623526 0.250000
O O8 0.028742 0.606622 0.400248
O O9 0.341667 0.216873 0.797625
O O10 0.000000 0.160134 0.750000
O O11 0.176659 0.663643 0.564813
O O12 0.588630 0.553908 0.339618
O O13 0.696940 0.457149 0.456524
O O14 0.931551 0.559706 0.512512
#
# Coordination Sequence:
#
# PCOD8137815 Si02
#       7
#     8   8   8   8   8   4   8
#     4  10  20  37  61  97 121 165 230 269 337 405
#     4  10  21  38  61  92 127 170 220 269 340 405
#     4  11  23  37  57  93 132 167 209 278 341 395
#     4  10  20  36  63  90 127 170 212 285 335 401
#     4   9  19  36  64  92 124 171 218 266 334 407
#     4  10  20  38  64  94 124 168 220 278 322 408
#     4   9  18  39  60  87 132 171 208 273 338 402
#
# _framework density 23.429518000000002
#
# number of rings (size 3 to 8) (size 9 to 14) (size 15 to 20)
#    0.000    2.154    1.538    1.385    4.308    0.615 
#    4.154    6.923    0.000    0.000    0.000    0.000 
#    0.000    0.000    0.000    0.000    0.000    0.000 
#
# Total GULP energy -322188.050436 kJ/mol
# GULP energy per Si atom -12391.848094 kJ/mol
# Density = 2.337619 g / cm^3
# Si number density = 23.429518 Si / 1000 Ang^3
#
#
#
# Elastic Constant Matrix: (Units=GPa)
#
#
# Indices 1 2 3 4 5 6 
#
# 1 71.2477 39.0702 42.1664 0.0000 -28.4259 0.0000
# 2 39.0702 136.4218 60.2606 0.0000 -17.6276 0.0000
# 3 42.1664 60.2606 138.5934 0.0000 -13.4159 0.0000
# 4 0.0000 0.0000 0.0000 12.2897 0.0000 -3.5212
# 5 -28.4259 -17.6276 -13.4159 0.0000 26.7701 0.0000
# 6 0.0000 0.0000 0.0000 -3.5212 0.0000 23.4439
#
#
#
# Elastic Compliance Matrix: (Units=1/GPa)
#
#
# Indices 1 2 3 4 5 6 
#
# 1 0.029157 -0.002634 -0.005146 0.000000 0.026647 0.000000
# 2 -0.002634 0.009784 -0.003258 0.000000 0.002013 0.000000
# 3 -0.005146 -0.003258 0.009943 0.000000 -0.002627 0.000000
# 4 0.000000 0.000000 0.000000 0.085028 0.000000 0.012771
# 5 0.026647 0.002013 -0.002627 0.000000 0.065660 0.000000
# 6 0.000000 0.000000 0.000000 0.012771 0.000000 0.044573
#
#
# Mechanical properties :
#
#
# Convention : Reuss Voigt Hill
#
# Bulk Modulus (GPa) = 37.30204 69.91749 53.60977
# Shear Modulus (GPa) = 18.17147 26.15180 22.16164
#
# Velocity S-wave (km/s) = 2.78795 3.34457 3.07886
# Velocity P-wave (km/s) = 5.13021 6.69487 5.96407
#
# Compressibility (1/GPa) = 0.02680819
#
# Stress axis : x y z
#
# Youngs Moduli (GPa) = 34.29695 102.21122 100.57052
#
# Poissons Ratio (x) = 0.26922 0.51756
# Poissons Ratio (y) = 0.09034 0.32763
# Poissons Ratio (z) = 0.17650 0.33298
#
# Static dielectric constant tensor:
#      x y z
#    x 4.382500 0.000000 0.053420 
#    y 0.000000 4.273650 0.000000 
#    z 0.053420 0.000000 4.200630 
# 
# 
# High freq. dielectric constant tensor:
#      x y z
#    x 1.921190 0.000000 0.000710 
#    y 0.000000 1.908770 0.000000 
#    z 0.000710 0.000000 1.932850 
# 
# From -- ./inp_files/137537.got.cif
#   From: 2010.06.25/outbox.cif.g09.slc.cpg/sg15_69_cif.got.tgz:137537.got - 2010.06.28 07:06:18.
