data_PCOD8137949
_publ_section_title
;
Structure prediction by ZEFSAII (Michael W. Deem and Ramdas Pophale) SiO2 
 PCOD8137949
Probable space group: C 2/C
;
_chemical_formula_sum "Si O2"
_cell_formula_units_Z 60
_cell_length_a 21.314224
_cell_length_b 16.493930
_cell_length_c 26.913228
_cell_angle_alpha 90.000000
_cell_angle_beta 162.326376
_cell_angle_gamma 90.000000
_cell_volume 2872.455597
_symmetry_space_group_name_H-M "C 2/C"
_symmetry_group_IT_number 15
_symmetry_cell_setting 'monoclinic'
loop_
_space_group_symop_operation_xyz
x,y,z
-x,y,1/2-z
-x,-y,-z
x,-y,1/2+z
1/2+x,1/2+y,z
1/2-x,1/2+y,1/2-z
1/2-x,1/2-y,-z
1/2+x,1/2-y,1/2+z
loop_
_atom_site_type_symbol
_atom_site_label
_atom_site_fract_x
_atom_site_fract_y
_atom_site_fract_z
Si Si1 0.500000 0.265040 0.750000
Si Si2 0.591883 0.416783 0.268256
Si Si3 0.536657 0.660283 0.625928
Si Si4 0.106217 0.823008 0.993448
Si Si5 0.416597 0.600430 0.260092
Si Si6 0.561761 0.592046 0.048715
Si Si7 0.509057 0.833843 0.046680
Si Si8 0.964566 0.660059 0.400867
O O1 0.681416 0.203993 0.871746
O O2 0.455890 0.327292 0.671397
O O3 0.500000 0.381367 0.250000
O O4 0.475398 0.375864 0.133326
O O5 0.533244 0.511773 0.221859
O O6 0.834245 0.396771 0.451665
O O7 0.396689 0.627681 0.475200
O O8 0.521909 0.757403 0.621094
O O9 0.766065 0.625665 0.785618
O O10 0.967120 0.743892 0.899455
O O11 0.985045 0.888442 0.868569
O O12 0.128253 0.865173 0.064406
O O13 0.169152 0.608654 0.065706
O O14 0.773148 0.605796 0.238661
O O15 0.500000 0.500000 0.000000
O O16 0.438245 0.809867 0.937624
#
# Coordination Sequence:
#
# PCOD8137949 Si02
#       8
#     4   8   8   8   8   8   8   8
#     4  10  24  38  64  98 134 182 208 254 318 406
#     4  11  26  45  66  92 130 178 220 277 333 397
#     4  11  22  41  68  95 127 162 225 280 329 391
#     4  11  21  40  64  97 138 170 219 254 330 382
#     4  11  21  41  63  96 135 171 221 260 314 401
#     4  12  24  39  64 103 134 167 213 285 330 372
#     4  10  20  36  69  95 126 172 212 266 314 399
#     4  11  22  44  66  96 126 168 227 268 334 396
#
# _framework density 20.888051000000001
#
# number of rings (size 3 to 8) (size 9 to 14) (size 15 to 20)
#    0.000    1.067    4.667    2.000    3.733    1.600 
#    2.400    0.667    0.000    0.000    0.000    0.000 
#    0.000    0.000    0.000    0.000    0.000    0.000 
#
# Total GULP energy -371789.419860 kJ/mol
# GULP energy per Si atom -12392.980662 kJ/mol
# Density = 2.084051 g / cm^3
# Si number density = 20.888051 Si / 1000 Ang^3
#
#
#
# Elastic Constant Matrix: (Units=GPa)
#
#
# Indices 1 2 3 4 5 6 
#
# 1 124.6029 27.6392 34.4364 0.0973 -2.6445 -0.0062
# 2 27.6392 102.0847 27.2319 0.3045 0.8655 0.0593
# 3 34.4364 27.2319 70.2751 -0.5104 -8.2357 0.0620
# 4 0.0973 0.3045 -0.5104 24.5490 -0.0632 -4.8021
# 5 -2.6445 0.8655 -8.2357 -0.0632 29.5270 0.0547
# 6 -0.0062 0.0593 0.0620 -4.8021 0.0547 32.3438
#
#
#
# Elastic Compliance Matrix: (Units=1/GPa)
#
#
# Indices 1 2 3 4 5 6 
#
# 1 0.009481 -0.001469 -0.004107 -0.000106 -0.000254 -0.000003
# 2 -0.001469 0.011223 -0.003809 -0.000225 -0.001523 -0.000044
# 3 -0.004107 -0.003809 0.018290 0.000462 0.004846 0.000032
# 4 -0.000106 -0.000225 0.000462 0.041967 0.000204 0.006230
# 5 -0.000254 -0.001523 0.004846 0.000204 0.035242 -0.000036
# 6 -0.000003 -0.000044 0.000032 0.006230 -0.000036 0.031843
#
#
# Mechanical properties :
#
#
# Convention : Reuss Voigt Hill
#
# Bulk Modulus (GPa) = 49.44822 52.84196 51.14509
# Shear Modulus (GPa) = 28.80884 31.12763 29.96823
#
# Velocity S-wave (km/s) = 3.71779 3.86451 3.79186
# Velocity P-wave (km/s) = 6.49258 6.72794 6.61131
#
# Compressibility (1/GPa) = 0.02022317
#
# Stress axis : x y z
#
# Youngs Moduli (GPa) = 105.47256 89.10040 54.67505
#
# Poissons Ratio (x) = 0.13088 0.22457
# Poissons Ratio (y) = 0.15493 0.20828
# Poissons Ratio (z) = 0.43320 0.33942
#
# Static dielectric constant tensor:
#      x y z
#    x 4.085080 -0.000080 -0.138350 
#    y -0.000080 3.643880 -0.000400 
#    z -0.138350 -0.000400 3.602380 
# 
# 
# High freq. dielectric constant tensor:
#      x y z
#    x 1.828820 -0.000010 -0.013410 
#    y -0.000010 1.811610 -0.000040 
#    z -0.013410 -0.000040 1.796370 
# 
# From -- ./inp_files/61955.got.cif
#   From: 2010.06.25/outbox.cif.g09.slc.cpg/sg15_31_cif.got.tgz:61955.got - 2010.06.28 07:06:18.
