data_PCOD8137220
_publ_section_title
;
Structure prediction by ZEFSAII (Michael W. Deem and Ramdas Pophale) SiO2 
 PCOD8137220
Probable space group: C 2/C
;
_chemical_formula_sum "Si O2"
_cell_formula_units_Z 40
_cell_length_a 27.508597
_cell_length_b 15.493085
_cell_length_c 8.997790
_cell_angle_alpha 90.000000
_cell_angle_beta 140.993802
_cell_angle_gamma 90.000000
_cell_volume 2413.637309
_symmetry_space_group_name_H-M "C 2/C"
_symmetry_group_IT_number 15
_symmetry_cell_setting 'monoclinic'
loop_
_space_group_symop_operation_xyz
x,y,z
-x,y,1/2-z
-x,-y,-z
x,-y,1/2+z
1/2+x,1/2+y,z
1/2-x,1/2+y,1/2-z
1/2-x,1/2-y,-z
1/2+x,1/2-y,1/2+z
loop_
_atom_site_type_symbol
_atom_site_label
_atom_site_fract_x
_atom_site_fract_y
_atom_site_fract_z
Si Si1 0.721404 0.237292 0.598835
Si Si2 0.202434 0.080899 0.552534
Si Si3 0.297602 0.596986 0.286007
Si Si4 0.023524 0.914079 0.638337
Si Si5 0.064067 0.197335 0.789083
O O1 0.750000 0.250000 0.500000
O O2 0.749892 0.321633 0.759416
O O3 0.627352 0.231749 0.387150
O O4 0.753405 0.150360 0.744017
O O5 0.230364 0.082536 0.448517
O O6 0.113423 0.105199 0.343847
O O7 0.220993 0.987412 0.662586
O O8 0.390003 0.618082 0.518934
O O9 0.000000 0.924278 0.750000
O O10 0.977684 0.834416 0.458645
O O11 0.000000 0.000000 0.500000
O O12 0.000000 0.235766 0.750000
#
# Coordination Sequence:
#
# PCOD8137220 Si02
#       5
#     8   8   8   8   8
#     4  10  21  37  53  78 113 150 189 229 274 332
#     4  12  20  34  54  80 113 150 182 226 279 329
#     4  10  22  32  53  80 112 144 188 218 279 328
#     4  12  19  28  47  75 108 141 171 218 272 333
#     4  10  20  36  50  78 114 144 182 224 274 331
#
# _framework density 16.572499000000001
#
# number of rings (size 3 to 8) (size 9 to 14) (size 15 to 20)
#    1.200    0.000    4.000    4.800    0.000    0.000 
#    0.000    0.000    0.000    0.000    0.000   14.000 
#    0.000    0.000    0.000    0.000    0.000    0.000 
#
# Total GULP energy -247900.001927 kJ/mol
# GULP energy per Si atom -12395.000096 kJ/mol
# Density = 1.653478 g / cm^3
# Si number density = 16.572499 Si / 1000 Ang^3
#
#
#
# Elastic Constant Matrix: (Units=GPa)
#
#
# Indices 1 2 3 4 5 6 
#
# 1 122.0363 24.7765 31.6167 0.0000 -13.1047 0.0000
# 2 24.7765 66.9026 17.1321 0.0000 9.1304 0.0000
# 3 31.6167 17.1321 52.9783 0.0000 -1.7298 0.0000
# 4 0.0000 0.0000 0.0000 36.8983 0.0000 -1.8809
# 5 -13.1047 9.1304 -1.7298 0.0000 35.9240 0.0000
# 6 0.0000 0.0000 0.0000 -1.8809 0.0000 29.5938
#
#
#
# Elastic Compliance Matrix: (Units=1/GPa)
#
#
# Indices 1 2 3 4 5 6 
#
# 1 0.010672 -0.003236 -0.005177 0.000000 0.004466 0.000000
# 2 -0.003236 0.018004 -0.004085 0.000000 -0.005953 0.000000
# 3 -0.005177 -0.004085 0.023295 0.000000 0.000272 0.000000
# 4 0.000000 0.000000 0.000000 0.027190 0.000000 0.001728
# 5 0.004466 -0.005953 0.000272 0.000000 0.030992 0.000000
# 6 0.000000 0.000000 0.000000 0.001728 0.000000 0.033901
#
#
# Mechanical properties :
#
#
# Convention : Reuss Voigt Hill
#
# Bulk Modulus (GPa) = 37.07123 43.21864 40.14494
# Shear Modulus (GPa) = 28.08339 31.70934 29.89637
#
# Velocity S-wave (km/s) = 4.12099 4.37896 4.25193
# Velocity P-wave (km/s) = 6.71276 7.19042 6.95569
#
# Compressibility (1/GPa) = 0.02697510
#
# Stress axis : x y z
#
# Youngs Moduli (GPa) = 93.70273 55.54268 42.92778
#
# Poissons Ratio (x) = 0.17975 0.22222
# Poissons Ratio (y) = 0.30324 0.17537
# Poissons Ratio (z) = 0.48506 0.22691
#
# Static dielectric constant tensor:
#      x y z
#    x 3.170080 0.000000 -0.122400 
#    y 0.000000 2.891520 0.000000 
#    z -0.122400 0.000000 3.234080 
# 
# 
# High freq. dielectric constant tensor:
#      x y z
#    x 1.646670 0.000000 -0.020920 
#    y 0.000000 1.614380 0.000000 
#    z -0.020920 0.000000 1.632200 
# 
# From -- ./inp_files/46708.got.cif
#   From: 2010.06.25/outbox.cif.g09.slc.cpg/sg15_24_cif.got.tgz:46708.got - 2010.06.28 07:06:18.
