data_PCOD8137333
_publ_section_title
;
Structure prediction by ZEFSAII (Michael W. Deem and Ramdas Pophale) SiO2 
 PCOD8137333
Probable space group: C 2/C
;
_chemical_formula_sum "Si O2"
_cell_formula_units_Z 64
_cell_length_a 12.139127
_cell_length_b 25.330125
_cell_length_c 11.317571
_cell_angle_alpha 90.000000
_cell_angle_beta 103.350490
_cell_angle_gamma 90.000000
_cell_volume 3385.946108
_symmetry_space_group_name_H-M "C 2/C"
_symmetry_group_IT_number 15
_symmetry_cell_setting 'monoclinic'
loop_
_space_group_symop_operation_xyz
x,y,z
-x,y,1/2-z
-x,-y,-z
x,-y,1/2+z
1/2+x,1/2+y,z
1/2-x,1/2+y,1/2-z
1/2-x,1/2-y,-z
1/2+x,1/2-y,1/2+z
loop_
_atom_site_type_symbol
_atom_site_label
_atom_site_fract_x
_atom_site_fract_y
_atom_site_fract_z
Si Si1 0.884456 0.855432 0.663865
Si Si2 0.317422 0.094402 0.495482
Si Si3 0.886501 0.320543 0.182219
Si Si4 0.534986 0.881762 0.888270
Si Si5 0.924369 0.765511 0.506370
Si Si6 0.132153 0.273896 0.929252
Si Si7 0.065809 0.503192 0.391592
Si Si8 0.244162 0.263742 0.726082
O O1 0.798372 0.903552 0.610177
O O2 0.914376 0.825106 0.550204
O O3 0.823743 0.815550 0.741506
O O4 0.000000 0.878404 0.750000
O O5 0.306578 0.139081 0.593319
O O6 0.423706 0.108200 0.438901
O O7 0.330973 0.038066 0.565903
O O8 0.816581 0.290275 0.269695
O O9 0.000000 0.352303 0.250000
O O10 0.940980 0.273347 0.119382
O O11 0.500000 0.862430 0.750000
O O12 0.609404 0.834739 0.964163
O O13 0.607969 0.935995 0.894742
O O14 0.809954 0.745582 0.415437
O O15 0.032351 0.763962 0.447183
O O16 0.141064 0.272165 0.789772
O O17 0.250000 0.250000 0.000000
O O18 0.000000 0.490477 0.250000
O O19 0.000000 0.500000 0.500000
#
# Coordination Sequence:
#
# PCOD8137333 Si02
#       8
#     8   8   8   8   8   8   8   8
#     4  11  20  33  51  77 112 153 196 235 279 341
#     4  11  19  35  57  82 114 148 190 243 295 340
#     4  11  19  31  50  74 108 143 178 226 289 337
#     4  10  20  36  57  79 112 148 186 235 294 346
#     4  11  19  34  46  70 109 150 189 226 278 345
#     4  12  22  32  49  79 110 149 192 223 284 351
#     4   9  20  37  60  91 116 146 194 245 299 356
#     4  11  20  33  49  72 107 154 192 232 278 343
#
# _framework density 18.901658999999999
#
# number of rings (size 3 to 8) (size 9 to 14) (size 15 to 20)
#    0.000    1.250    3.750    6.000    0.000    0.000 
#    0.000    0.000    0.000    0.000    0.000   24.500 
#    0.000    0.000    1.000    0.000    0.000    0.000 
#
# Total GULP energy -396430.167815 kJ/mol
# GULP energy per Si atom -12388.442744 kJ/mol
# Density = 1.885864 g / cm^3
# Si number density = 18.901659 Si / 1000 Ang^3
#
#
#
# Elastic Constant Matrix: (Units=GPa)
#
#
# Indices 1 2 3 4 5 6 
#
# 1 92.5341 45.1560 25.8637 0.0000 8.4695 0.0000
# 2 45.1560 105.5825 28.9466 0.0000 12.9227 0.0000
# 3 25.8637 28.9466 64.8340 0.0000 6.5412 0.0000
# 4 0.0000 0.0000 0.0000 22.1016 0.0000 5.6811
# 5 8.4695 12.9227 6.5412 0.0000 43.2602 0.0000
# 6 0.0000 0.0000 0.0000 5.6811 0.0000 23.6858
#
#
#
# Elastic Compliance Matrix: (Units=1/GPa)
#
#
# Indices 1 2 3 4 5 6 
#
# 1 0.014305 -0.005106 -0.003349 0.000000 -0.000769 0.000000
# 2 -0.005106 0.012895 -0.003486 0.000000 -0.002325 0.000000
# 3 -0.003349 -0.003486 0.018426 0.000000 -0.001089 0.000000
# 4 0.000000 0.000000 0.000000 0.048218 0.000000 -0.011565
# 5 -0.000769 -0.002325 -0.001089 0.000000 0.024126 0.000000
# 6 0.000000 0.000000 0.000000 -0.011565 0.000000 0.044993
#
#
# Mechanical properties :
#
#
# Convention : Reuss Voigt Hill
#
# Bulk Modulus (GPa) = 45.98870 51.43146 48.71008
# Shear Modulus (GPa) = 25.76069 28.67514 27.21792
#
# Velocity S-wave (km/s) = 3.69573 3.89918 3.79882
# Velocity P-wave (km/s) = 6.52645 6.89497 6.71324
#
# Compressibility (1/GPa) = 0.02174447
#
# Stress axis : x y z
#
# Youngs Moduli (GPa) = 69.90626 77.54834 54.26977
#
# Poissons Ratio (x) = 0.39593 0.18177
# Poissons Ratio (y) = 0.35691 0.18919
# Poissons Ratio (z) = 0.23415 0.27034
#
# Static dielectric constant tensor:
#      x y z
#    x 3.794140 0.000000 -0.171710 
#    y 0.000000 3.595730 0.000000 
#    z -0.171710 0.000000 3.759670 
# 
# 
# High freq. dielectric constant tensor:
#      x y z
#    x 1.718340 0.000000 -0.001730 
#    y 0.000000 1.705080 0.000000 
#    z -0.001730 0.000000 1.744110 
# 
# From -- ./inp_files/91826.got.cif
#   From: 2010.06.25/outbox.cif.g09.slc.cpg/sg15_46_cif.got.tgz:91826.got - 2010.06.28 07:06:18.
