data_PCOD8137562
_publ_section_title
;
Structure prediction by ZEFSAII (Michael W. Deem and Ramdas Pophale) SiO2 
 PCOD8137562
Probable space group: C 2/C
;
_chemical_formula_sum "Si O2"
_cell_formula_units_Z 52
_cell_length_a 17.352941
_cell_length_b 16.756993
_cell_length_c 8.739446
_cell_angle_alpha 90.000000
_cell_angle_beta 101.077552
_cell_angle_gamma 90.000000
_cell_volume 2493.934148
_symmetry_space_group_name_H-M "C 2/C"
_symmetry_group_IT_number 15
_symmetry_cell_setting 'monoclinic'
loop_
_space_group_symop_operation_xyz
x,y,z
-x,y,1/2-z
-x,-y,-z
x,-y,1/2+z
1/2+x,1/2+y,z
1/2-x,1/2+y,1/2-z
1/2-x,1/2-y,-z
1/2+x,1/2-y,1/2+z
loop_
_atom_site_type_symbol
_atom_site_label
_atom_site_fract_x
_atom_site_fract_y
_atom_site_fract_z
Si Si1 0.085950 0.078931 0.016346
Si Si2 0.816428 0.304880 0.603807
Si Si3 0.968377 0.757271 0.071154
Si Si4 0.500000 0.507599 0.250000
Si Si5 0.250354 0.537769 0.301900
Si Si6 0.243175 0.614977 0.971721
Si Si7 0.140447 0.750505 0.045591
O O1 0.016341 0.060551 0.108162
O O2 0.160411 0.036984 0.113916
O O3 0.088827 0.173844 0.013632
O O4 0.071006 0.048581 0.836960
O O5 0.750000 0.250000 0.500000
O O6 0.902254 0.312233 0.552378
O O7 0.792279 0.396910 0.608252
O O8 0.828513 0.265055 0.773120
O O9 0.000000 0.779627 0.250000
O O10 0.045292 0.743267 0.994831
O O11 0.241726 0.559526 0.121610
O O12 0.223143 0.446244 0.324950
O O13 0.175266 0.682297 0.946926
O O14 0.327301 0.661488 0.990851
#
# Coordination Sequence:
#
# PCOD8137562 Si02
#       7
#     8   8   8   4   8   8   8
#     4  11  21  34  50  82 116 151 189 234 296 357
#     4  10  20  37  58  92 118 153 199 244 292 354
#     4  10  20  36  60  81 116 158 194 239 292 357
#     4  10  24  32  46  80 122 148 186 236 298 356
#     4  11  23  36  61  88 116 155 198 250 294 351
#     4  10  23  41  62  87 120 157 198 247 299 355
#     4   9  22  41  61  84 122 162 194 240 308 350
#
# _framework density 20.850591999999999
#
# number of rings (size 3 to 8) (size 9 to 14) (size 15 to 20)
#    0.000    1.846    2.308    0.923    8.615    0.000 
#    0.000    0.769    0.000    0.000    0.000    0.000 
#    0.000    0.000    0.000    0.000    0.000    0.000 
#
# Total GULP energy -322099.990893 kJ/mol
# GULP energy per Si atom -12388.461188 kJ/mol
# Density = 2.080314 g / cm^3
# Si number density = 20.850592 Si / 1000 Ang^3
#
#
#
# Elastic Constant Matrix: (Units=GPa)
#
#
# Indices 1 2 3 4 5 6 
#
# 1 121.9413 40.8958 3.1040 0.0000 -12.0036 0.0000
# 2 40.8958 123.4711 18.6951 0.0000 -13.3678 0.0000
# 3 3.1040 18.6951 46.6521 0.0000 -3.8229 0.0000
# 4 0.0000 0.0000 0.0000 88.4851 0.0000 -0.5523
# 5 -12.0036 -13.3678 -3.8229 0.0000 20.7680 0.0000
# 6 0.0000 0.0000 0.0000 -0.5523 0.0000 23.6040
#
#
#
# Elastic Compliance Matrix: (Units=1/GPa)
#
#
# Indices 1 2 3 4 5 6 
#
# 1 0.009515 -0.002865 0.000827 0.000000 0.003808 0.000000
# 2 -0.002865 0.010026 -0.003486 0.000000 0.004156 0.000000
# 3 0.000827 -0.003486 0.022979 0.000000 0.002464 0.000000
# 4 0.000000 0.000000 0.000000 0.011303 0.000000 0.000264
# 5 0.003808 0.004156 0.002464 0.000000 0.053481 0.000000
# 6 0.000000 0.000000 0.000000 0.000264 0.000000 0.042372
#
#
# Mechanical properties :
#
#
# Convention : Reuss Voigt Hill
#
# Bulk Modulus (GPa) = 31.77438 46.38379 39.07909
# Shear Modulus (GPa) = 29.20313 41.86272 35.53292
#
# Velocity S-wave (km/s) = 3.74651 4.48565 4.13264
# Velocity P-wave (km/s) = 5.82986 7.00872 6.44629
#
# Compressibility (1/GPa) = 0.03147190
#
# Stress axis : x y z
#
# Youngs Moduli (GPa) = 105.09549 99.74387 43.51740
#
# Poissons Ratio (x) = 0.28572 -0.03598
# Poissons Ratio (y) = 0.30105 0.15172
# Poissons Ratio (z) = -0.08690 0.34776
#
# Static dielectric constant tensor:
#      x y z
#    x 4.082580 0.000000 -0.238850 
#    y 0.000000 3.795930 0.000000 
#    z -0.238850 0.000000 3.692110 
# 
# 
# High freq. dielectric constant tensor:
#      x y z
#    x 1.813270 0.000000 -0.010810 
#    y 0.000000 1.810000 0.000000 
#    z -0.010810 0.000000 1.803180 
# 
# From -- ./inp_files/48645.got.cif
#   From: 2010.06.25/outbox.cif.g09.slc.cpg/sg15_25_cif.got.tgz:48645.got - 2010.06.28 07:06:18.
