data_PCOD8137165
_publ_section_title
;
Structure prediction by ZEFSAII (Michael W. Deem and Ramdas Pophale) SiO2 
 PCOD8137165
Probable space group: C 2/C
;
_chemical_formula_sum "Si O2"
_cell_formula_units_Z 48
_cell_length_a 9.239385
_cell_length_b 21.125303
_cell_length_c 13.438115
_cell_angle_alpha 90.000000
_cell_angle_beta 116.561468
_cell_angle_gamma 90.000000
_cell_volume 2346.080646
_symmetry_space_group_name_H-M "C 2/C"
_symmetry_group_IT_number 15
_symmetry_cell_setting 'monoclinic'
loop_
_space_group_symop_operation_xyz
x,y,z
-x,y,1/2-z
-x,-y,-z
x,-y,1/2+z
1/2+x,1/2+y,z
1/2-x,1/2+y,1/2-z
1/2-x,1/2-y,-z
1/2+x,1/2-y,1/2+z
loop_
_atom_site_type_symbol
_atom_site_label
_atom_site_fract_x
_atom_site_fract_y
_atom_site_fract_z
Si Si1 0.000000 0.309366 0.250000
Si Si2 0.000000 0.495769 0.750000
Si Si3 0.885117 0.792116 0.486055
Si Si4 0.407935 0.776170 0.601667
Si Si5 0.797977 0.212656 0.280343
Si Si6 0.842085 0.597961 0.574634
Si Si7 0.106426 0.606418 0.133052
O O1 0.837604 0.267435 0.211656
O O2 0.984239 0.352078 0.146485
O O3 0.137803 0.536857 0.848811
O O4 0.095765 0.453772 0.700569
O O5 0.750000 0.750000 0.500000
O O6 0.826323 0.864997 0.455126
O O7 0.935371 0.761849 0.393381
O O8 0.045941 0.794155 0.602396
O O9 0.250000 0.750000 0.500000
O O10 0.366311 0.770627 0.707642
O O11 0.443018 0.850560 0.589012
O O12 0.764226 0.147448 0.211811
O O13 0.864871 0.578710 0.467770
#
# Coordination Sequence:
#
# PCOD8137165 Si02
#       7
#     4   4   8   8   8   8   8
#     4  11  20  36  62 102 126 161 208 268 340 377
#     4  11  26  42  62  88 126 187 226 256 316 393
#     4  11  19  38  64 103 132 162 209 275 337 380
#     4  10  20  35  62  97 130 163 204 270 335 383
#     4  11  21  34  64  99 133 169 207 268 337 392
#     4  11  23  39  62  91 128 167 221 266 312 391
#     4  12  21  41  62  91 128 169 225 266 314 390
#
# _framework density 20.459654
#
# number of rings (size 3 to 8) (size 9 to 14) (size 15 to 20)
#    0.000    1.000    5.000    3.500    0.000    0.000 
#    0.000    0.833    0.000    0.000    0.000    0.000 
#    0.000    0.000    0.000    0.000    0.000    0.000 
#
# Total GULP energy -297494.464663 kJ/mol
# GULP energy per Si atom -12395.602694 kJ/mol
# Density = 2.041309 g / cm^3
# Si number density = 20.459654 Si / 1000 Ang^3
#
#
#
# Elastic Constant Matrix: (Units=GPa)
#
#
# Indices 1 2 3 4 5 6 
#
# 1 126.1496 49.8563 53.1944 0.0000 -8.7634 0.0000
# 2 49.8563 132.6775 60.0710 0.0000 -12.0307 0.0000
# 3 53.1944 60.0710 117.8739 0.0000 -27.6225 0.0000
# 4 0.0000 0.0000 0.0000 40.1535 0.0000 -2.0956
# 5 -8.7634 -12.0307 -27.6225 0.0000 46.9050 0.0000
# 6 0.0000 0.0000 0.0000 -2.0956 0.0000 30.7493
#
#
#
# Elastic Compliance Matrix: (Units=1/GPa)
#
#
# Indices 1 2 3 4 5 6 
#
# 1 0.010329 -0.002285 -0.003691 0.000000 -0.000830 0.000000
# 2 -0.002285 0.010313 -0.004298 0.000000 -0.000313 0.000000
# 3 -0.003691 -0.004298 0.013828 0.000000 0.006351 0.000000
# 4 0.000000 0.000000 0.000000 0.024993 0.000000 0.001703
# 5 -0.000830 -0.000313 0.006351 0.000000 0.024825 0.000000
# 6 0.000000 0.000000 0.000000 0.001703 0.000000 0.032637
#
#
# Mechanical properties :
#
#
# Convention : Reuss Voigt Hill
#
# Bulk Modulus (GPa) = 71.83030 78.10496 74.96763
# Shear Modulus (GPa) = 35.18268 37.80016 36.49142
#
# Velocity S-wave (km/s) = 4.15132 4.30297 4.22783
# Velocity P-wave (km/s) = 7.62643 7.93381 7.78164
#
# Compressibility (1/GPa) = 0.01392170
#
# Stress axis : x y z
#
# Youngs Moduli (GPa) = 96.81329 96.96117 72.31677
#
# Poissons Ratio (x) = 0.22160 0.26693
# Poissons Ratio (y) = 0.22126 0.31081
# Poissons Ratio (z) = 0.35736 0.41672
#
# Static dielectric constant tensor:
#      x y z
#    x 4.054070 0.000000 -0.056110 
#    y 0.000000 3.637570 0.000000 
#    z -0.056110 0.000000 4.335010 
# 
# 
# High freq. dielectric constant tensor:
#      x y z
#    x 1.799970 0.000000 -0.000070 
#    y 0.000000 1.768970 0.000000 
#    z -0.000070 0.000000 1.847560 
# 
# From -- ./inp_files/136225.got.cif
#   From: 2010.06.25/outbox.cif.g09.slc.cpg/sg15_69_cif.got.tgz:136225.got - 2010.06.28 07:06:18.
