data_PCOD8137557
_publ_section_title
;
Structure prediction by ZEFSAII (Michael W. Deem and Ramdas Pophale) SiO2 
 PCOD8137557
Probable space group: C 2/C
;
_chemical_formula_sum "Si O2"
_cell_formula_units_Z 48
_cell_length_a 28.374997
_cell_length_b 9.650950
_cell_length_c 12.880420
_cell_angle_alpha 90.000000
_cell_angle_beta 139.443040
_cell_angle_gamma 90.000000
_cell_volume 2293.429189
_symmetry_space_group_name_H-M "C 2/C"
_symmetry_group_IT_number 15
_symmetry_cell_setting 'monoclinic'
loop_
_space_group_symop_operation_xyz
x,y,z
-x,y,1/2-z
-x,-y,-z
x,-y,1/2+z
1/2+x,1/2+y,z
1/2-x,1/2+y,1/2-z
1/2-x,1/2-y,-z
1/2+x,1/2-y,1/2+z
loop_
_atom_site_type_symbol
_atom_site_label
_atom_site_fract_x
_atom_site_fract_y
_atom_site_fract_z
Si Si1 0.405366 0.900258 0.303325
Si Si2 0.320163 0.329798 0.574533
Si Si3 0.247238 0.737717 0.336846
Si Si4 0.778552 0.547715 0.743813
Si Si5 0.852723 0.128231 0.684562
Si Si6 0.523472 0.832033 0.668700
O O1 0.385600 0.780640 0.187035
O O2 0.334919 0.956889 0.244331
O O3 0.456773 0.833982 0.477171
O O4 0.434756 0.025160 0.283188
O O5 0.250000 0.250000 0.500000
O O6 0.298665 0.385630 0.424177
O O7 0.351428 0.461333 0.692674
O O8 0.230086 0.609840 0.229279
O O9 0.301131 0.851881 0.376124
O O10 0.171751 0.808467 0.245761
O O11 0.288588 0.665760 0.499245
O O12 0.928899 0.194821 0.776244
O O13 0.500000 0.827030 0.750000
#
# Coordination Sequence:
#
# PCOD8137557 Si02
#       6
#     8   8   8   8   8   8
#     4  10  22  41  59  91 122 158 212 249 298 367
#     4   9  21  38  61  88 122 153 193 257 312 355
#     4  10  21  34  61  91 122 154 198 251 315 363
#     4  10  20  36  59  94 119 153 200 249 313 365
#     4  10  21  40  58  89 125 161 199 255 302 362
#     4  11  23  41  64  84 122 170 207 247 297 361
#
# _framework density 20.929358000000001
#
# number of rings (size 3 to 8) (size 9 to 14) (size 15 to 20)
#    0.000    2.000    1.667    1.000    7.000    2.000 
#    0.000    0.833    0.000    0.000    0.000    0.000 
#    0.000    0.000    0.000    0.000    0.000    0.000 
#
# Total GULP energy -297315.800774 kJ/mol
# GULP energy per Si atom -12388.158366 kJ/mol
# Density = 2.088172 g / cm^3
# Si number density = 20.929358 Si / 1000 Ang^3
#
#
#
# Elastic Constant Matrix: (Units=GPa)
#
#
# Indices 1 2 3 4 5 6 
#
# 1 92.7640 43.2476 13.8176 0.0000 1.4608 0.0000
# 2 43.2476 164.8476 33.1691 0.0000 9.6328 0.0000
# 3 13.8176 33.1691 58.6420 0.0000 16.6791 0.0000
# 4 0.0000 0.0000 0.0000 34.6423 0.0000 2.7269
# 5 1.4608 9.6328 16.6791 0.0000 15.3699 0.0000
# 6 0.0000 0.0000 0.0000 2.7269 0.0000 30.7773
#
#
#
# Elastic Compliance Matrix: (Units=1/GPa)
#
#
# Indices 1 2 3 4 5 6 
#
# 1 0.012451 -0.003024 -0.002062 0.000000 0.002950 0.000000
# 2 -0.003024 0.007580 -0.003335 0.000000 -0.000844 0.000000
# 3 -0.002062 -0.003335 0.027156 0.000000 -0.027184 0.000000
# 4 0.000000 0.000000 0.000000 0.029069 0.000000 -0.002576
# 5 0.002950 -0.000844 -0.027184 0.000000 0.094810 0.000000
# 6 0.000000 0.000000 0.000000 -0.002576 0.000000 0.032720
#
#
# Mechanical properties :
#
#
# Convention : Reuss Voigt Hill
#
# Bulk Modulus (GPa) = 32.95425 55.19134 44.07280
# Shear Modulus (GPa) = 21.66919 31.22585 26.44752
#
# Velocity S-wave (km/s) = 3.22118 3.86679 3.55865
# Velocity P-wave (km/s) = 5.44190 6.80908 6.16352
#
# Compressibility (1/GPa) = 0.03034510
#
# Stress axis : x y z
#
# Youngs Moduli (GPa) = 80.31804 131.92958 36.82387
#
# Poissons Ratio (x) = 0.39893 0.07594
# Poissons Ratio (y) = 0.24286 0.12279
# Poissons Ratio (z) = 0.16564 0.43994
#
# Static dielectric constant tensor:
#      x y z
#    x 3.526380 0.000000 0.009440 
#    y 0.000000 4.376050 0.000000 
#    z 0.009440 0.000000 3.880600 
# 
# 
# High freq. dielectric constant tensor:
#      x y z
#    x 1.794900 0.000000 -0.005420 
#    y 0.000000 1.845580 0.000000 
#    z -0.005420 0.000000 1.803380 
# 
# From -- ./inp_files/176850.got.cif
#   From: 2010.06.25/outbox.cif.g09.slc.cpg/sg15_89_cif.got.tgz:176850.got - 2010.06.28 07:06:18.
