data_PCOD8137436
_publ_section_title
;
Structure prediction by ZEFSAII (Michael W. Deem and Ramdas Pophale) SiO2 
 PCOD8137436
Probable space group: C 2/C
;
_chemical_formula_sum "Si O2"
_cell_formula_units_Z 56
_cell_length_a 15.499324
_cell_length_b 9.090816
_cell_length_c 18.209982
_cell_angle_alpha 90.000000
_cell_angle_beta 79.258798
_cell_angle_gamma 90.000000
_cell_volume 2520.858273
_symmetry_space_group_name_H-M "C 2/C"
_symmetry_group_IT_number 15
_symmetry_cell_setting 'monoclinic'
loop_
_space_group_symop_operation_xyz
x,y,z
-x,y,1/2-z
-x,-y,-z
x,-y,1/2+z
1/2+x,1/2+y,z
1/2-x,1/2+y,1/2-z
1/2-x,1/2-y,-z
1/2+x,1/2-y,1/2+z
loop_
_atom_site_type_symbol
_atom_site_label
_atom_site_fract_x
_atom_site_fract_y
_atom_site_fract_z
Si Si1 0.792951 0.427267 0.782740
Si Si2 0.742473 0.269702 0.087349
Si Si3 0.123650 0.351251 0.874787
Si Si4 0.440428 0.642230 0.503503
Si Si5 0.564243 0.164079 0.889696
Si Si6 0.641439 0.747270 0.239431
Si Si7 0.814005 0.085126 0.400818
O O1 0.806323 0.366393 0.863771
O O2 0.861187 0.349232 0.715232
O O3 0.697154 0.381682 0.769686
O O4 0.801369 0.603277 0.780446
O O5 0.840086 0.281057 0.102337
O O6 0.684522 0.411725 0.117051
O O7 0.750000 0.250000 0.000000
O O8 0.059574 0.488839 0.901532
O O9 0.214213 0.361162 0.906715
O O10 0.076786 0.203286 0.911611
O O11 0.500000 0.500000 0.500000
O O12 0.487790 0.767639 0.449258
O O13 0.348117 0.606046 0.478589
O O14 0.557102 0.212361 0.803916
O O15 0.619634 0.677334 0.163194
#
# Coordination Sequence:
#
# PCOD8137436 Si02
#       7
#     8   8   8   8   8   8   8
#     4   9  18  34  60  86 112 150 196 243 286 340
#     4  10  20  36  58  86 116 149 192 239 285 340
#     4   9  20  40  60  80 111 155 198 231 283 357
#     4  12  24  36  56  88 120 151 189 243 296 336
#     4   9  20  37  57  80 114 153 186 231 293 349
#     4   9  18  35  58  86 114 150 194 238 289 347
#     4  10  22  38  59  86 115 152 198 240 285 346
#
# _framework density 22.214656000000002
#
# number of rings (size 3 to 8) (size 9 to 14) (size 15 to 20)
#    0.000    2.286    0.000    4.286    0.000   10.857 
#    0.000    1.429    0.000    6.000    0.000    0.000 
#    0.000    0.000    0.000    0.000    0.000    0.000 
#
# Total GULP energy -346940.965030 kJ/mol
# GULP energy per Si atom -12390.748751 kJ/mol
# Density = 2.216409 g / cm^3
# Si number density = 22.214656 Si / 1000 Ang^3
#
#
#
# Elastic Constant Matrix: (Units=GPa)
#
#
# Indices 1 2 3 4 5 6 
#
# 1 25.5724 15.8856 14.9625 0.0000 -2.8549 0.0000
# 2 15.8856 85.1487 36.3634 0.0000 1.7136 0.0000
# 3 14.9625 36.3634 113.7631 0.0000 9.5218 0.0000
# 4 0.0000 0.0000 0.0000 42.8159 0.0000 -4.4789
# 5 -2.8549 1.7136 9.5218 0.0000 24.5958 0.0000
# 6 0.0000 0.0000 0.0000 -4.4789 0.0000 24.0343
#
#
#
# Elastic Compliance Matrix: (Units=1/GPa)
#
#
# Indices 1 2 3 4 5 6 
#
# 1 0.046979 -0.006955 -0.004602 0.000000 0.007719 0.000000
# 2 -0.006955 0.014644 -0.003734 0.000000 -0.000382 0.000000
# 3 -0.004602 -0.003734 0.010967 0.000000 -0.004520 0.000000
# 4 0.000000 0.000000 0.000000 0.023820 0.000000 0.004439
# 5 0.007719 -0.000382 -0.004520 0.000000 0.043330 0.000000
# 6 0.000000 0.000000 0.000000 0.004439 0.000000 0.042434
#
#
# Mechanical properties :
#
#
# Convention : Reuss Voigt Hill
#
# Bulk Modulus (GPa) = 23.80436 39.87858 31.84147
# Shear Modulus (GPa) = 22.04978 28.77403 25.41191
#
# Velocity S-wave (km/s) = 3.15394 3.60289 3.38587
# Velocity P-wave (km/s) = 4.89918 5.94123 5.44519
#
# Compressibility (1/GPa) = 0.04200912
#
# Stress axis : x y z
#
# Youngs Moduli (GPa) = 21.28597 68.28720 91.17961
#
# Poissons Ratio (x) = 0.47491 0.41961
# Poissons Ratio (y) = 0.14804 0.34048
# Poissons Ratio (z) = 0.09796 0.25500
#
# Static dielectric constant tensor:
#      x y z
#    x 3.525870 0.000000 0.204020 
#    y 0.000000 4.180240 0.000000 
#    z 0.204020 0.000000 3.832250 
# 
# 
# High freq. dielectric constant tensor:
#      x y z
#    x 1.833330 0.000000 0.000810 
#    y 0.000000 1.881290 0.000000 
#    z 0.000810 0.000000 1.886250 
# 
# From -- ./inp_files/209543.got.cif
#   From: 2010.06.25/outbox.cif.g09.slc.cpg/sg15_105_cif.got.tgz:209543.got - 2010.06.28 07:06:18.
