data_PCOD8137907
_publ_section_title
;
Structure prediction by ZEFSAII (Michael W. Deem and Ramdas Pophale) SiO2 
 PCOD8137907
Probable space group: C 2/C
;
_chemical_formula_sum "Si O2"
_cell_formula_units_Z 60
_cell_length_a 29.309696
_cell_length_b 9.646348
_cell_length_c 22.605553
_cell_angle_alpha 90.000000
_cell_angle_beta 29.864191
_cell_angle_gamma 90.000000
_cell_volume 3182.522538
_symmetry_space_group_name_H-M "C 2/C"
_symmetry_group_IT_number 15
_symmetry_cell_setting 'monoclinic'
loop_
_space_group_symop_operation_xyz
x,y,z
-x,y,1/2-z
-x,-y,-z
x,-y,1/2+z
1/2+x,1/2+y,z
1/2-x,1/2+y,1/2-z
1/2-x,1/2-y,-z
1/2+x,1/2-y,1/2+z
loop_
_atom_site_type_symbol
_atom_site_label
_atom_site_fract_x
_atom_site_fract_y
_atom_site_fract_z
Si Si1 0.025584 0.343313 0.982400
Si Si2 0.766283 0.937314 0.110975
Si Si3 0.405712 0.195931 0.966716
Si Si4 0.238185 0.001033 0.137715
Si Si5 0.722522 0.217961 0.218213
Si Si6 0.500000 0.714675 0.250000
Si Si7 0.804397 0.105700 0.441302
Si Si8 0.159721 0.771792 0.800169
O O1 0.036511 0.319549 0.039476
O O2 0.940261 0.246757 0.058461
O O3 0.113528 0.301598 0.845325
O O4 0.000000 0.500000 0.000000
O O5 0.677553 0.848731 0.231287
O O6 0.772595 0.080543 0.138966
O O7 0.856038 0.845031 0.022820
O O8 0.761713 0.972546 0.046245
O O9 0.473326 0.186951 0.834795
O O10 0.336027 0.068924 0.040157
O O11 0.242713 0.840641 0.149739
O O12 0.211987 0.014431 0.098469
O O13 0.164896 0.078791 0.262500
O O14 0.761919 0.249052 0.238662
O O15 0.413495 0.622247 0.327010
O O16 0.750000 0.250000 0.500000
#
# Coordination Sequence:
#
# PCOD8137907 Si02
#       8
#     8   8   8   8   8   4   8   8
#     4  12  23  37  64  92 122 165 210 247 307 365
#     4  10  21  40  63  86 121 159 194 257 306 359
#     4  10  21  38  65  92 114 160 210 250 304 362
#     4  11  22  39  64  88 124 160 205 256 307 367
#     4  12  24  41  59  92 131 159 197 259 313 366
#     4  10  20  36  66  90 114 150 210 270 282 362
#     4  11  20  40  63  92 113 158 211 251 305 363
#     4  11  21  39  63  87 121 160 204 251 298 373
#
# _framework density 18.852969999999999
#
# number of rings (size 3 to 8) (size 9 to 14) (size 15 to 20)
#    0.000    1.067    8.000    2.400    0.000    1.067 
#    4.800    0.000    0.000    0.800    0.000    0.000 
#    0.000    0.000    0.000    0.000    0.000    0.000 
#
# Total GULP energy -372014.412543 kJ/mol
# GULP energy per Si atom -12400.480418 kJ/mol
# Density = 1.881006 g / cm^3
# Si number density = 18.852970 Si / 1000 Ang^3
#
#
#
# Elastic Constant Matrix: (Units=GPa)
#
#
# Indices 1 2 3 4 5 6 
#
# 1 86.2859 34.9922 28.4602 0.0006 11.0866 0.0002
# 2 34.9922 104.5762 45.4575 0.0050 8.5446 -0.0008
# 3 28.4602 45.4575 110.3151 0.0089 1.5333 -0.0027
# 4 0.0006 0.0050 0.0089 20.5864 -0.0052 4.2866
# 5 11.0866 8.5446 1.5333 -0.0052 36.7043 0.0008
# 6 0.0002 -0.0008 -0.0027 4.2866 0.0008 17.5595
#
#
#
# Elastic Compliance Matrix: (Units=1/GPa)
#
#
# Indices 1 2 3 4 5 6 
#
# 1 0.014163 -0.003528 -0.002153 0.000001 -0.003367 -0.000001
# 2 -0.003528 0.012764 -0.004326 -0.000002 -0.001725 0.000000
# 3 -0.002153 -0.004326 0.011386 -0.000004 0.001182 0.000002
# 4 0.000001 -0.000002 -0.000004 0.051177 0.000008 -0.012493
# 5 -0.003367 -0.001725 0.001182 0.000008 0.028614 -0.000003
# 6 -0.000001 0.000000 0.000002 -0.012493 -0.000003 0.059999
#
#
# Mechanical properties :
#
#
# Convention : Reuss Voigt Hill
#
# Bulk Modulus (GPa) = 54.64532 57.66635 56.15584
# Shear Modulus (GPa) = 24.48375 27.78787 26.13581
#
# Velocity S-wave (km/s) = 3.60761 3.84334 3.72734
# Velocity P-wave (km/s) = 6.81183 7.09569 6.95521
#
# Compressibility (1/GPa) = 0.01829983
#
# Stress axis : x y z
#
# Youngs Moduli (GPa) = 70.60696 78.34487 87.82350
#
# Poissons Ratio (x) = 0.27640 0.18911
# Poissons Ratio (y) = 0.24910 0.37988
# Poissons Ratio (z) = 0.15204 0.33888
#
# Static dielectric constant tensor:
#      x y z
#    x 3.554110 0.000010 0.136680 
#    y 0.000010 3.223680 0.000010 
#    z 0.136680 0.000010 3.705810 
# 
# 
# High freq. dielectric constant tensor:
#      x y z
#    x 1.739370 0.000000 0.006250 
#    y 0.000000 1.706600 0.000000 
#    z 0.006250 0.000000 1.741960 
# 
# From -- ./inp_files/284281.got.cif
#   From: 2010.06.25/outbox.cif.g09.slc.cpg/sg15_143_cif.got.tgz:284281.got - 2010.06.28 07:06:18.
