data_PCOD8137190
_publ_section_title
;
Structure prediction by ZEFSAII (Michael W. Deem and Ramdas Pophale) SiO2 
 PCOD8137190
Probable space group: C 2/C
;
_chemical_formula_sum "Si O2"
_cell_formula_units_Z 60
_cell_length_a 8.780921
_cell_length_b 25.065617
_cell_length_c 21.713545
_cell_angle_alpha 90.000000
_cell_angle_beta 39.424332
_cell_angle_gamma 90.000000
_cell_volume 3035.030184
_symmetry_space_group_name_H-M "C 2/C"
_symmetry_group_IT_number 15
_symmetry_cell_setting 'monoclinic'
loop_
_space_group_symop_operation_xyz
x,y,z
-x,y,1/2-z
-x,-y,-z
x,-y,1/2+z
1/2+x,1/2+y,z
1/2-x,1/2+y,1/2-z
1/2-x,1/2-y,-z
1/2+x,1/2-y,1/2+z
loop_
_atom_site_type_symbol
_atom_site_label
_atom_site_fract_x
_atom_site_fract_y
_atom_site_fract_z
Si Si1 0.731603 0.987680 0.064380
Si Si2 0.813679 0.698114 0.942228
Si Si3 0.320347 0.347261 0.750547
Si Si4 0.500000 0.075981 0.750000
Si Si5 0.307771 0.265819 0.257523
Si Si6 0.101998 0.838365 0.380422
Si Si7 0.953279 0.897983 0.928587
Si Si8 0.186234 0.395261 0.570926
O O1 0.574433 0.960778 0.168289
O O2 0.613353 0.043145 0.079001
O O3 0.774314 0.948204 0.993339
O O4 0.000000 0.000000 0.000000
O O5 0.687830 0.692524 0.914867
O O6 0.098901 0.694444 0.844619
O O7 0.750000 0.750000 0.000000
O O8 0.729745 0.650565 0.011260
O O9 0.500000 0.340000 0.750000
O O10 0.313305 0.291148 0.717527
O O11 0.419307 0.395750 0.677384
O O12 0.052816 0.360828 0.854349
O O13 0.719024 0.115013 0.698064
O O14 0.500000 0.257422 0.250000
O O15 0.432262 0.292235 0.159308
O O16 0.849474 0.868253 0.467799
O O17 0.168798 0.894106 0.910384
#
# Coordination Sequence:
#
# PCOD8137190 Si02
#       8
#     8   8   8   4   8   8   8   8
#     4  10  20  35  64 102 122 163 204 264 310 363
#     4  11  20  37  62  89 124 165 202 255 317 380
#     4  12  26  41  61  90 130 171 209 268 325 379
#     4  12  18  36  66  98 130 160 210 258 320 380
#     4  12  25  40  62  91 125 170 214 260 319 380
#     4  11  22  41  63  92 132 165 212 263 313 388
#     4  10  20  39  64  92 125 160 213 256 315 378
#     4  10  23  40  63  98 122 162 215 261 314 372
#
# _framework density 19.769161
#
# number of rings (size 3 to 8) (size 9 to 14) (size 15 to 20)
#    0.000    1.067    6.667    2.000    5.600    1.600 
#    0.000    0.667    0.000    4.000    0.000    0.000 
#    0.000    0.000    0.000    0.000    0.000    0.000 
#
# Total GULP energy -371834.072997 kJ/mol
# GULP energy per Si atom -12394.469100 kJ/mol
# Density = 1.972417 g / cm^3
# Si number density = 19.769161 Si / 1000 Ang^3
#
#
#
# Elastic Constant Matrix: (Units=GPa)
#
#
# Indices 1 2 3 4 5 6 
#
# 1 80.4739 31.5465 39.5780 0.0001 -3.2721 0.0000
# 2 31.5465 116.8914 50.7404 0.0001 0.1745 0.0000
# 3 39.5780 50.7404 139.6141 -0.0002 -5.9000 0.0000
# 4 0.0001 0.0001 -0.0002 41.9948 -0.0001 2.7996
# 5 -3.2721 0.1745 -5.9000 -0.0001 28.4202 0.0000
# 6 0.0000 0.0000 0.0000 2.7996 0.0000 22.2309
#
#
#
# Elastic Compliance Matrix: (Units=1/GPa)
#
#
# Indices 1 2 3 4 5 6 
#
# 1 0.015124 -0.002662 -0.003274 0.000000 0.001078 0.000000
# 2 -0.002662 0.010646 -0.003158 0.000000 -0.001027 0.000000
# 3 -0.003274 -0.003158 0.009305 0.000000 0.001574 0.000000
# 4 0.000000 0.000000 0.000000 0.024014 0.000000 -0.003024
# 5 0.001078 -0.001027 0.001574 0.000000 0.035643 0.000000
# 6 0.000000 0.000000 0.000000 -0.003024 0.000000 0.045363
#
#
# Mechanical properties :
#
#
# Convention : Reuss Voigt Hill
#
# Bulk Modulus (GPa) = 59.21896 64.52324 61.87110
# Shear Modulus (GPa) = 30.50403 32.87011 31.68707
#
# Velocity S-wave (km/s) = 3.93238 4.08204 4.00791
# Velocity P-wave (km/s) = 7.11607 7.41125 7.26516
#
# Compressibility (1/GPa) = 0.01688648
#
# Stress axis : x y z
#
# Youngs Moduli (GPa) = 66.11954 93.93535 107.46904
#
# Poissons Ratio (x) = 0.25005 0.35190
# Poissons Ratio (y) = 0.17601 0.33936
# Poissons Ratio (z) = 0.21650 0.29663
#
# Static dielectric constant tensor:
#      x y z
#    x 3.176660 0.000000 -0.039550 
#    y 0.000000 6.427420 0.000000 
#    z -0.039550 0.000000 3.955160 
# 
# 
# High freq. dielectric constant tensor:
#      x y z
#    x 1.726440 0.000000 -0.007260 
#    y 0.000000 1.785010 0.000000 
#    z -0.007260 0.000000 1.794160 
# 
# From -- ./inp_files/234550.got.cif
#   From: 2010.06.25/outbox.cif.g09.slc.cpg/sg15_118_cif.got.tgz:234550.got - 2010.06.28 07:06:18.
