data_PCOD8137227
_publ_section_title
;
Structure prediction by ZEFSAII (Michael W. Deem and Ramdas Pophale) SiO2 
 PCOD8137227
Probable space group: C 2/C
;
_chemical_formula_sum "Si O2"
_cell_formula_units_Z 56
_cell_length_a 17.592573
_cell_length_b 24.507472
_cell_length_c 9.186465
_cell_angle_alpha 90.000000
_cell_angle_beta 42.205721
_cell_angle_gamma 90.000000
_cell_volume 2660.803367
_symmetry_space_group_name_H-M "C 2/C"
_symmetry_group_IT_number 15
_symmetry_cell_setting 'monoclinic'
loop_
_space_group_symop_operation_xyz
x,y,z
-x,y,1/2-z
-x,-y,-z
x,-y,1/2+z
1/2+x,1/2+y,z
1/2-x,1/2+y,1/2-z
1/2-x,1/2-y,-z
1/2+x,1/2-y,1/2+z
loop_
_atom_site_type_symbol
_atom_site_label
_atom_site_fract_x
_atom_site_fract_y
_atom_site_fract_z
Si Si1 0.941489 0.569848 0.101411
Si Si2 0.807457 0.814137 0.065044
Si Si3 0.842183 0.214428 0.204327
Si Si4 0.291084 0.827533 0.856036
Si Si5 0.700810 0.927443 0.237985
Si Si6 0.652017 0.011188 0.539280
Si Si7 0.909649 0.218266 0.703140
O O1 0.856343 0.615940 0.281402
O O2 0.910753 0.552942 0.980383
O O3 0.935448 0.519149 0.223760
O O4 0.069331 0.591229 0.922148
O O5 0.693059 0.777558 0.223829
O O6 0.777205 0.875114 0.156766
O O7 0.899086 0.788468 0.044005
O O8 0.863325 0.815183 0.826968
O O9 0.741019 0.182583 0.266796
O O10 0.957730 0.211878 0.944104
O O11 0.368088 0.778490 0.810607
O O12 0.172042 0.827877 0.111971
O O13 0.724247 0.968843 0.339281
O O14 0.732659 0.955072 0.036341
#
# Coordination Sequence:
#
# PCOD8137227 Si02
#       7
#     8   8   8   8   8   8   8
#     4  11  19  33  51  77 108 136 166 208 255 308
#     4  10  21  33  54  79 103 138 173 200 256 306
#     4  10  20  36  52  77 108 135 169 212 246 300
#     4  10  21  33  54  79 103 138 173 200 256 306
#     4  11  19  33  51  77 108 136 166 208 255 308
#     4  10  21  32  50  76 107 136 167 208 260 308
#     4  10  20  36  52  77 108 135 169 212 246 300
#
# _framework density 21.046275000000001
#
# number of rings (size 3 to 8) (size 9 to 14) (size 15 to 20)
#    0.000    1.714    0.000    6.857    0.000    0.000 
#    0.000    8.571    0.000    0.000    0.000   70.000 
#    0.000    0.000    0.000    0.000    0.000    0.000 
#
# Total GULP energy -347139.363452 kJ/mol
# GULP energy per Si atom -12397.834409 kJ/mol
# Density = 2.099837 g / cm^3
# Si number density = 21.046275 Si / 1000 Ang^3
#
#
#
# Elastic Constant Matrix: (Units=GPa)
#
#
# Indices 1 2 3 4 5 6 
#
# 1 39.2985 8.3041 6.2530 0.0000 4.8948 0.0000
# 2 8.3041 78.2278 20.2235 0.0000 -11.6291 0.0000
# 3 6.2530 20.2235 75.4573 0.0000 -0.4612 0.0000
# 4 0.0000 0.0000 0.0000 30.5879 0.0000 4.8395
# 5 4.8948 -11.6291 -0.4612 0.0000 41.6854 0.0000
# 6 0.0000 0.0000 0.0000 4.8395 0.0000 22.7209
#
#
#
# Elastic Compliance Matrix: (Units=1/GPa)
#
#
# Indices 1 2 3 4 5 6 
#
# 1 0.026824 -0.003078 -0.001423 0.000000 -0.004024 0.000000
# 2 -0.003078 0.014714 -0.003662 0.000000 0.004426 0.000000
# 3 -0.001423 -0.003662 0.014348 0.000000 -0.000696 0.000000
# 4 0.000000 0.000000 0.000000 0.033833 0.000000 -0.007206
# 5 -0.004024 0.004426 -0.000696 0.000000 0.025689 0.000000
# 6 0.000000 0.000000 0.000000 -0.007206 0.000000 0.045547
#
#
# Mechanical properties :
#
#
# Convention : Reuss Voigt Hill
#
# Bulk Modulus (GPa) = 25.27667 29.17163 27.22415
# Shear Modulus (GPa) = 26.25135 29.54570 27.89853
#
# Velocity S-wave (km/s) = 3.53557 3.75086 3.64480
# Velocity P-wave (km/s) = 5.35753 5.71396 5.53861
#
# Compressibility (1/GPa) = 0.03956217
#
# Stress axis : x y z
#
# Youngs Moduli (GPa) = 37.27973 67.96055 69.69852
#
# Poissons Ratio (x) = 0.20918 0.09915
# Poissons Ratio (y) = 0.11474 0.25520
# Poissons Ratio (z) = 0.05303 0.24884
#
# Static dielectric constant tensor:
#      x y z
#    x 3.788270 0.000000 0.409850 
#    y 0.000000 3.651520 0.000000 
#    z 0.409850 0.000000 3.721490 
# 
# 
# High freq. dielectric constant tensor:
#      x y z
#    x 1.823020 0.000000 0.037680 
#    y 0.000000 1.806820 0.000000 
#    z 0.037680 0.000000 1.815430 
# 
# From -- ./inp_files/51579.got.cif
#   From: 2010.06.25/outbox.cif.g09.slc.cpg/sg15_26_cif.got.tgz:51579.got - 2010.06.28 07:06:18.
