data_PCOD8137734
_publ_section_title
;
Structure prediction by ZEFSAII (Michael W. Deem and Ramdas Pophale) SiO2 
 PCOD8137734
Probable space group: C 2/C
;
_chemical_formula_sum "Si O2"
_cell_formula_units_Z 48
_cell_length_a 25.025390
_cell_length_b 11.785111
_cell_length_c 13.881968
_cell_angle_alpha 90.000000
_cell_angle_beta 33.677104
_cell_angle_gamma 90.000000
_cell_volume 2270.264516
_symmetry_space_group_name_H-M "C 2/C"
_symmetry_group_IT_number 15
_symmetry_cell_setting 'monoclinic'
loop_
_space_group_symop_operation_xyz
x,y,z
-x,y,1/2-z
-x,-y,-z
x,-y,1/2+z
1/2+x,1/2+y,z
1/2-x,1/2+y,1/2-z
1/2-x,1/2-y,-z
1/2+x,1/2-y,1/2+z
loop_
_atom_site_type_symbol
_atom_site_label
_atom_site_fract_x
_atom_site_fract_y
_atom_site_fract_z
Si Si1 0.791122 0.490031 0.929187
Si Si2 0.905763 0.914982 0.220405
Si Si3 0.909098 0.323948 0.624401
Si Si4 0.313187 0.972612 0.621016
Si Si5 0.128870 0.341607 0.330065
Si Si6 0.386891 0.593654 0.091686
O O1 0.868107 0.400657 0.772864
O O2 0.797653 0.606510 0.858859
O O3 0.685792 0.431166 0.072077
O O4 0.815046 0.522442 0.003136
O O5 0.886116 0.807721 0.179695
O O6 0.913074 0.032069 0.151754
O O7 0.009649 0.897199 0.120211
O O8 0.864573 0.360675 0.588028
O O9 0.022196 0.345472 0.447059
O O10 0.201212 0.971679 0.828017
O O11 0.366009 0.084128 0.580421
O O12 0.158455 0.215126 0.313375
#
# Coordination Sequence:
#
# PCOD8137734 Si02
#       6
#     8   8   8   8   8   8
#     4  10  20  36  62  87 114 153 198 235 288 350
#     4   9  19  37  58  84 113 155 187 243 291 343
#     4  10  21  38  59  85 122 148 190 243 295 335
#     4  10  21  34  61  85 110 153 195 233 288 351
#     4  10  22  39  57  86 121 151 187 249 288 339
#     4   9  20  37  59  81 117 152 193 234 296 340
#
# _framework density 21.142911000000002
#
# number of rings (size 3 to 8) (size 9 to 14) (size 15 to 20)
#    0.000    2.333    0.000    2.500    4.667    5.333 
#    0.000    3.333    0.000    0.000    0.000    0.000 
#    0.000    0.000    0.000    0.000    0.000    0.000 
#
# Total GULP energy -297340.423163 kJ/mol
# GULP energy per Si atom -12389.184298 kJ/mol
# Density = 2.109479 g / cm^3
# Si number density = 21.142911 Si / 1000 Ang^3
#
#
#
# Elastic Constant Matrix: (Units=GPa)
#
#
# Indices 1 2 3 4 5 6 
#
# 1 50.1449 -6.8583 34.7294 0.0000 -6.5423 0.0000
# 2 -6.8583 102.7985 36.2025 0.0000 -2.6147 0.0000
# 3 34.7294 36.2025 84.1650 0.0000 -3.9423 0.0000
# 4 0.0000 0.0000 0.0000 35.1742 0.0000 -6.0228
# 5 -6.5423 -2.6147 -3.9423 0.0000 38.2772 0.0000
# 6 0.0000 0.0000 0.0000 -6.0228 0.0000 11.7080
#
#
#
# Elastic Compliance Matrix: (Units=1/GPa)
#
#
# Indices 1 2 3 4 5 6 
#
# 1 0.033701 0.008469 -0.017336 0.000000 0.004553 0.000000
# 2 0.008469 0.013596 -0.009276 0.000000 0.001421 0.000000
# 3 -0.017336 -0.009276 0.022967 0.000000 -0.001231 0.000000
# 4 0.000000 0.000000 0.000000 0.031176 0.000000 0.016037
# 5 0.004553 0.001421 -0.001231 0.000000 0.026874 0.000000
# 6 0.000000 0.000000 0.000000 0.016037 0.000000 0.093661
#
#
# Mechanical properties :
#
#
# Convention : Reuss Voigt Hill
#
# Bulk Modulus (GPa) = 29.43033 40.58395 35.00714
# Shear Modulus (GPa) = 18.54686 28.56753 23.55719
#
# Velocity S-wave (km/s) = 2.96499 3.67981 3.34157
# Velocity P-wave (km/s) = 5.06671 6.10666 5.61083
#
# Compressibility (1/GPa) = 0.03397855
#
# Stress axis : x y z
#
# Youngs Moduli (GPa) = 29.67248 73.55219 43.54019
#
# Poissons Ratio (x) = -0.62295 0.75482
# Poissons Ratio (y) = -0.25131 0.40389
# Poissons Ratio (z) = 0.51440 0.68229
#
# Static dielectric constant tensor:
#      x y z
#    x 3.652030 0.000000 -0.475820 
#    y 0.000000 3.973510 0.000000 
#    z -0.475820 0.000000 4.182040 
# 
# 
# High freq. dielectric constant tensor:
#      x y z
#    x 1.809520 0.000000 -0.029910 
#    y 0.000000 1.837930 0.000000 
#    z -0.029910 0.000000 1.829720 
# 
# From -- ./inp_files/177761.got.cif
#   From: 2010.06.25/outbox.cif.g09.slc.cpg/sg15_89_cif.got.tgz:177761.got - 2010.06.28 07:06:18.
