data_PCOD8137130
_publ_section_title
;
Structure prediction by ZEFSAII (Michael W. Deem and Ramdas Pophale) SiO2 
 PCOD8137130
Probable space group: C 2/C
;
_chemical_formula_sum "Si O2"
_cell_formula_units_Z 52
_cell_length_a 8.064258
_cell_length_b 28.247085
_cell_length_c 13.517283
_cell_angle_alpha 90.000000
_cell_angle_beta 50.260733
_cell_angle_gamma 90.000000
_cell_volume 2367.729641
_symmetry_space_group_name_H-M "C 2/C"
_symmetry_group_IT_number 15
_symmetry_cell_setting 'monoclinic'
loop_
_space_group_symop_operation_xyz
x,y,z
-x,y,1/2-z
-x,-y,-z
x,-y,1/2+z
1/2+x,1/2+y,z
1/2-x,1/2+y,1/2-z
1/2-x,1/2-y,-z
1/2+x,1/2-y,1/2+z
loop_
_atom_site_type_symbol
_atom_site_label
_atom_site_fract_x
_atom_site_fract_y
_atom_site_fract_z
Si Si1 0.031590 0.356865 0.512577
Si Si2 0.374192 0.957153 0.500985
Si Si3 0.062816 0.040994 0.403209
Si Si4 0.564996 0.642647 0.496648
Si Si5 0.000000 0.495519 0.250000
Si Si6 0.703791 0.798450 0.743964
Si Si7 0.297743 0.308133 0.254411
O O1 0.233766 0.358759 0.507390
O O2 0.092695 0.330995 0.387146
O O3 0.957570 0.409398 0.517152
O O4 0.840409 0.328357 0.639660
O O5 0.114216 0.960709 0.618264
O O6 0.500000 0.000000 0.500000
O O7 0.417497 0.960364 0.366700
O O8 0.029007 0.090552 0.470293
O O9 0.311665 0.030731 0.277439
O O10 0.000000 0.000000 0.500000
O O11 0.600290 0.677866 0.390762
O O12 0.354721 0.661126 0.635585
O O13 0.500000 0.798149 0.750000
O O14 0.764225 0.745248 0.753022
O O15 0.500000 0.307062 0.250000
#
# Coordination Sequence:
#
# PCOD8137130 Si02
#       7
#     8   8   8   8   4   8   8
#     4  10  20  35  61  91 126 164 214 263 318 384
#     4  11  25  43  62  95 128 170 216 262 319 391
#     4  10  23  41  65  90 124 165 210 261 318 384
#     4  10  20  35  61  90 126 167 213 264 321 376
#     4  10  24  44  68  88 128 166 212 268 330 374
#     4   9  18  33  58  88 126 165 212 267 317 374
#     4   9  18  33  56  92 124 165 215 266 315 374
#
# _framework density 21.961967999999999
#
# number of rings (size 3 to 8) (size 9 to 14) (size 15 to 20)
#    0.000    2.154    0.000    2.769    9.692    4.308 
#    2.769    0.000    0.000    5.538    0.000    0.000 
#    0.000    0.000    0.000    0.000    0.000    0.000 
#
# Total GULP energy -322291.963322 kJ/mol
# GULP energy per Si atom -12395.844743 kJ/mol
# Density = 2.191198 g / cm^3
# Si number density = 21.961968 Si / 1000 Ang^3
#
#
#
# Elastic Constant Matrix: (Units=GPa)
#
#
# Indices 1 2 3 4 5 6 
#
# 1 56.2188 33.0338 37.5232 0.0000 -11.7617 0.0000
# 2 33.0338 171.9952 47.9683 0.0000 -10.7757 0.0000
# 3 37.5232 47.9683 128.2699 0.0000 -12.3488 0.0000
# 4 0.0000 0.0000 0.0000 39.5094 0.0000 6.2477
# 5 -11.7617 -10.7757 -12.3488 0.0000 11.3828 0.0000
# 6 0.0000 0.0000 0.0000 6.2477 0.0000 27.8399
#
#
#
# Elastic Compliance Matrix: (Units=1/GPa)
#
#
# Indices 1 2 3 4 5 6 
#
# 1 0.026732 -0.002503 -0.004972 0.000000 0.019858 0.000000
# 2 -0.002503 0.006886 -0.001635 0.000000 0.002158 0.000000
# 3 -0.004972 -0.001635 0.010293 0.000000 0.004482 0.000000
# 4 0.000000 0.000000 0.000000 0.026242 0.000000 -0.005889
# 5 0.019858 0.002158 0.004482 0.000000 0.115276 0.000000
# 6 0.000000 0.000000 0.000000 -0.005889 0.000000 0.037241
#
#
# Mechanical properties :
#
#
# Convention : Reuss Voigt Hill
#
# Bulk Modulus (GPa) = 38.92505 65.94828 52.43666
# Shear Modulus (GPa) = 20.04377 31.61032 25.82705
#
# Velocity S-wave (km/s) = 3.02430 3.79795 3.43299
# Velocity P-wave (km/s) = 5.47335 7.02326 6.29618
#
# Compressibility (1/GPa) = 0.02569040
#
# Stress axis : x y z
#
# Youngs Moduli (GPa) = 37.40881 145.21898 97.14920
#
# Poissons Ratio (x) = 0.36354 0.48303
# Poissons Ratio (y) = 0.09365 0.15884
# Poissons Ratio (z) = 0.18600 0.23744
#
# Static dielectric constant tensor:
#      x y z
#    x 4.001730 0.000000 -0.164430 
#    y 0.000000 3.473730 0.000000 
#    z -0.164430 0.000000 4.332950 
# 
# 
# High freq. dielectric constant tensor:
#      x y z
#    x 1.838700 0.000000 -0.000970 
#    y 0.000000 1.874700 0.000000 
#    z -0.000970 0.000000 1.870240 
# 
# From -- ./inp_files/138444.got.cif
#   From: 2010.06.25/outbox.cif.g09.slc.cpg/sg15_70_cif.got.tgz:138444.got - 2010.06.28 07:06:18.
