data_PCOD8137101
_publ_section_title
;
Structure prediction by ZEFSAII (Michael W. Deem and Ramdas Pophale) SiO2 
 PCOD8137101
Probable space group: C 2/C
;
_chemical_formula_sum "Si O2"
_cell_formula_units_Z 56
_cell_length_a 23.440458
_cell_length_b 18.410434
_cell_length_c 9.122056
_cell_angle_alpha 90.000000
_cell_angle_beta 45.440175
_cell_angle_gamma 90.000000
_cell_volume 2804.909299
_symmetry_space_group_name_H-M "C 2/C"
_symmetry_group_IT_number 15
_symmetry_cell_setting 'monoclinic'
loop_
_space_group_symop_operation_xyz
x,y,z
-x,y,1/2-z
-x,-y,-z
x,-y,1/2+z
1/2+x,1/2+y,z
1/2-x,1/2+y,1/2-z
1/2-x,1/2-y,-z
1/2+x,1/2-y,1/2+z
loop_
_atom_site_type_symbol
_atom_site_label
_atom_site_fract_x
_atom_site_fract_y
_atom_site_fract_z
Si Si1 0.296558 0.409598 0.534508
Si Si2 0.688647 0.448813 0.667868
Si Si3 0.620241 0.067037 0.392061
Si Si4 0.363258 0.082409 0.800697
Si Si5 0.555223 0.318269 0.285238
Si Si6 0.999668 0.655486 0.084981
Si Si7 0.478978 0.572313 0.123411
O O1 0.321284 0.449990 0.639455
O O2 0.310295 0.466524 0.378677
O O3 0.202621 0.389150 0.708429
O O4 0.351431 0.337484 0.415358
O O5 0.767871 0.403876 0.478046
O O6 0.614493 0.407981 0.726449
O O7 0.603574 0.066503 0.596020
O O8 0.549135 0.104642 0.434835
O O9 0.622863 0.984805 0.332662
O O10 0.409482 0.151719 0.644832
O O11 0.500000 0.344787 0.250000
O O12 0.541196 0.234004 0.341512
O O13 0.530533 0.360173 0.475537
O O14 0.000000 0.625067 0.250000
O O15 0.500000 0.556344 0.250000
O O16 0.500000 0.500000 0.000000
#
# Coordination Sequence:
#
# PCOD8137101 Si02
#       7
#     8   8   8   8   8   8   8
#     4  10  20  36  61  92 120 154 194 252 299 356
#     4  10  20  35  60  92 121 148 198 246 303 346
#     4  10  21  38  66  91 120 149 200 249 303 360
#     4  10  21  39  64  92 118 152 196 254 301 356
#     4  11  23  40  60  82 122 163 204 241 295 357
#     4  11  24  41  60  83 121 163 202 247 299 359
#     4  12  22  35  59  89 118 160 200 245 296 356
#
# _framework density 19.964994999999998
#
# number of rings (size 3 to 8) (size 9 to 14) (size 15 to 20)
#    0.000    1.429    2.857    3.000    0.000    2.857 
#    0.000    0.714    0.000    0.000    0.000    0.000 
#    0.000    0.000    0.000    0.000    0.000    0.000 
#
# Total GULP energy -347146.820591 kJ/mol
# GULP energy per Si atom -12398.100735 kJ/mol
# Density = 1.991955 g / cm^3
# Si number density = 19.964995 Si / 1000 Ang^3
#
#
#
# Elastic Constant Matrix: (Units=GPa)
#
#
# Indices 1 2 3 4 5 6 
#
# 1 107.9878 19.1498 50.7253 0.0000 5.7291 0.0000
# 2 19.1498 63.6800 47.2509 0.0000 -2.7027 0.0000
# 3 50.7253 47.2509 121.4936 0.0000 7.3301 0.0000
# 4 0.0000 0.0000 0.0000 28.1135 0.0000 -6.1374
# 5 5.7291 -2.7027 7.3301 0.0000 43.2147 0.0000
# 6 0.0000 0.0000 0.0000 -6.1374 0.0000 27.0376
#
#
#
# Elastic Compliance Matrix: (Units=1/GPa)
#
#
# Indices 1 2 3 4 5 6 
#
# 1 0.011542 0.000060 -0.004799 0.000000 -0.000712 0.000000
# 2 0.000060 0.022431 -0.008924 0.000000 0.002909 0.000000
# 3 -0.004799 -0.008924 0.013842 0.000000 -0.002270 0.000000
# 4 0.000000 0.000000 0.000000 0.037425 0.000000 0.008495
# 5 -0.000712 0.002909 -0.002270 0.000000 0.023802 0.000000
# 6 0.000000 0.000000 0.000000 0.008495 0.000000 0.038914
#
#
# Mechanical properties :
#
#
# Convention : Reuss Voigt Hill
#
# Bulk Modulus (GPa) = 48.80911 58.60148 53.70529
# Shear Modulus (GPa) = 27.45572 31.40884 29.43228
#
# Velocity S-wave (km/s) = 3.71238 3.97066 3.84369
# Velocity P-wave (km/s) = 6.54799 7.10192 6.83057
#
# Compressibility (1/GPa) = 0.02048798
#
# Stress axis : x y z
#
# Youngs Moduli (GPa) = 86.64155 44.58167 72.24213
#
# Poissons Ratio (x) = -0.00267 0.34671
# Poissons Ratio (y) = -0.00519 0.64470
# Poissons Ratio (z) = 0.41581 0.39786
#
# Static dielectric constant tensor:
#      x y z
#    x 3.967750 0.000000 -0.098520 
#    y 0.000000 3.318090 0.000000 
#    z -0.098520 0.000000 4.089400 
# 
# 
# High freq. dielectric constant tensor:
#      x y z
#    x 1.795560 0.000000 -0.002530 
#    y 0.000000 1.736040 0.000000 
#    z -0.002530 0.000000 1.798220 
# 
# From -- ./inp_files/62656.got.cif
#   From: 2010.06.25/outbox.cif.g09.slc.cpg/sg15_32_cif.got.tgz:62656.got - 2010.06.28 07:06:18.
