data_PCOD8137273
_publ_section_title
;
Structure prediction by ZEFSAII (Michael W. Deem and Ramdas Pophale) SiO2 
 PCOD8137273
Probable space group: C 2/C
;
_chemical_formula_sum "Si O2"
_cell_formula_units_Z 56
_cell_length_a 20.912637
_cell_length_b 16.660095
_cell_length_c 24.413680
_cell_angle_alpha 90.000000
_cell_angle_beta 19.140906
_cell_angle_gamma 90.000000
_cell_volume 2789.015615
_symmetry_space_group_name_H-M "C 2/C"
_symmetry_group_IT_number 15
_symmetry_cell_setting 'monoclinic'
loop_
_space_group_symop_operation_xyz
x,y,z
-x,y,1/2-z
-x,-y,-z
x,-y,1/2+z
1/2+x,1/2+y,z
1/2-x,1/2+y,1/2-z
1/2-x,1/2-y,-z
1/2+x,1/2-y,1/2+z
loop_
_atom_site_type_symbol
_atom_site_label
_atom_site_fract_x
_atom_site_fract_y
_atom_site_fract_z
Si Si1 0.748453 0.659832 0.791636
Si Si2 0.939628 0.191209 0.666585
Si Si3 0.291964 0.161112 0.446140
Si Si4 0.381819 0.140312 0.486845
Si Si5 0.623324 0.636448 0.203257
Si Si6 0.465786 0.022556 0.965151
Si Si7 0.917338 0.779424 0.965785
O O1 0.590615 0.663824 0.871164
O O2 0.862454 0.577125 0.696311
O O3 0.889509 0.735640 0.668949
O O4 0.651328 0.663325 0.929654
O O5 0.124787 0.139132 0.537789
O O6 0.968708 0.287239 0.646919
O O7 0.758666 0.169570 0.851291
O O8 0.500000 0.149637 0.250000
O O9 0.250000 0.250000 0.500000
O O10 0.274924 0.112354 0.516890
O O11 0.496760 0.061674 0.410591
O O12 0.500000 0.607181 0.250000
O O13 0.463920 0.663331 0.377056
O O14 0.756594 0.564723 0.120840
O O15 0.755427 0.713354 0.080024
O O16 0.500000 0.000000 0.000000
#
# Coordination Sequence:
#
# PCOD8137273 Si02
#       7
#     8   8   8   8   8   8   8
#     4  10  20  38  62  95 124 160 200 254 309 369
#     4  11  20  35  62  86 111 161 210 243 303 358
#     4  10  20  36  55  87 115 149 201 254 292 349
#     4  11  22  38  62  82 121 158 205 259 304 362
#     4  10  21  40  66  94 125 164 207 254 318 371
#     4  11  24  43  57  91 131 164 198 258 317 373
#     4   9  20  37  66  96 124 155 211 256 299 372
#
# _framework density 20.078769000000001
#
# number of rings (size 3 to 8) (size 9 to 14) (size 15 to 20)
#    0.000    1.714    1.429    5.143    4.000    1.143 
#    0.000    5.000    0.000    0.000    0.000    0.000 
#    0.000    0.000    0.000    0.000    0.000    0.000 
#
# Total GULP energy -347049.725250 kJ/mol
# GULP energy per Si atom -12394.633045 kJ/mol
# Density = 2.003307 g / cm^3
# Si number density = 20.078769 Si / 1000 Ang^3
#
#
#
# Elastic Constant Matrix: (Units=GPa)
#
#
# Indices 1 2 3 4 5 6 
#
# 1 171.3831 55.9080 44.2068 -0.0335 -8.6538 0.0098
# 2 55.9080 99.1718 33.4646 -0.1069 3.8980 0.0180
# 3 44.2068 33.4646 74.7581 -0.2431 8.6779 0.0803
# 4 -0.0335 -0.1069 -0.2431 22.4106 0.0352 0.3041
# 5 -8.6538 3.8980 8.6779 0.0352 33.0437 0.0014
# 6 0.0098 0.0180 0.0803 0.3041 0.0014 29.1038
#
#
#
# Elastic Compliance Matrix: (Units=1/GPa)
#
#
# Indices 1 2 3 4 5 6 
#
# 1 0.008077 -0.003466 -0.003629 -0.000049 0.003477 0.000010
# 2 -0.003466 0.013365 -0.003759 0.000020 -0.001497 0.000003
# 3 -0.003629 -0.003759 0.017807 0.000179 -0.005184 -0.000047
# 4 -0.000049 0.000020 0.000179 0.044630 -0.000110 -0.000467
# 5 0.003477 -0.001497 -0.005184 -0.000110 0.032712 0.000014
# 6 0.000010 0.000003 -0.000047 -0.000467 0.000014 0.034365
#
#
# Mechanical properties :
#
#
# Convention : Reuss Voigt Hill
#
# Bulk Modulus (GPa) = 57.00683 68.05244 62.52963
# Shear Modulus (GPa) = 28.00963 31.02719 29.51841
#
# Velocity S-wave (km/s) = 3.73900 3.93526 3.83839
# Velocity P-wave (km/s) = 6.86247 7.39017 7.13120
#
# Compressibility (1/GPa) = 0.01754176
#
# Stress axis : x y z
#
# Youngs Moduli (GPa) = 123.80899 74.82392 56.15656
#
# Poissons Ratio (x) = 0.25931 0.20377
# Poissons Ratio (y) = 0.42908 0.21111
# Poissons Ratio (z) = 0.44925 0.28129
#
# Static dielectric constant tensor:
#      x y z
#    x 4.321350 -0.009320 -0.052290 
#    y -0.009320 -0.546330 -0.000670 
#    z -0.052290 -0.000670 3.701140 
# 
# 
# High freq. dielectric constant tensor:
#      x y z
#    x 1.805710 -0.000010 0.001810 
#    y -0.000010 1.757940 0.000030 
#    z 0.001810 0.000030 1.780750 
# 
# From -- ./inp_files/280407.got.cif
#   From: 2010.06.25/outbox.cif.g09.slc.cpg/sg15_141_cif.got.tgz:280407.got - 2010.06.28 07:06:18.
