data_PCOD8137360
_publ_section_title
;
Structure prediction by ZEFSAII (Michael W. Deem and Ramdas Pophale) SiO2 
 PCOD8137360
Probable space group: C 2/C
;
_chemical_formula_sum "Si O2"
_cell_formula_units_Z 56
_cell_length_a 15.310527
_cell_length_b 13.007071
_cell_length_c 14.821723
_cell_angle_alpha 90.000000
_cell_angle_beta 74.138264
_cell_angle_gamma 90.000000
_cell_volume 2839.285915
_symmetry_space_group_name_H-M "C 2/C"
_symmetry_group_IT_number 15
_symmetry_cell_setting 'monoclinic'
loop_
_space_group_symop_operation_xyz
x,y,z
-x,y,1/2-z
-x,-y,-z
x,-y,1/2+z
1/2+x,1/2+y,z
1/2-x,1/2+y,1/2-z
1/2-x,1/2-y,-z
1/2+x,1/2-y,1/2+z
loop_
_atom_site_type_symbol
_atom_site_label
_atom_site_fract_x
_atom_site_fract_y
_atom_site_fract_z
Si Si1 0.972938 0.468558 0.656284
Si Si2 0.180828 0.670263 0.556182
Si Si3 0.894109 0.295310 0.954645
Si Si4 0.225075 0.848100 0.114264
Si Si5 0.187945 0.736101 0.735905
Si Si6 0.482401 0.802383 0.108486
Si Si7 0.781088 0.567255 0.130631
O O1 0.983355 0.572938 0.595520
O O2 0.868150 0.434568 0.672759
O O3 0.000000 0.498788 0.750000
O O4 0.042222 0.378577 0.610802
O O5 0.250000 0.750000 0.500000
O O6 0.205024 0.645626 0.654835
O O7 0.181702 0.577706 0.483829
O O8 0.085515 0.731768 0.590925
O O9 0.870073 0.199317 0.894948
O O10 0.799661 0.346023 0.013535
O O11 0.946179 0.250813 0.026690
O O12 0.252555 0.780476 0.192605
O O13 0.219044 0.965188 0.150336
O O14 0.081128 0.733644 0.791274
O O15 0.214439 0.843750 0.682997
#
# Coordination Sequence:
#
# PCOD8137360 Si02
#       7
#     8   8   8   8   8   8   8
#     4  12  21  33  60  95 123 158 205 260 316 370
#     4  10  21  36  60  84 118 157 206 260 306 364
#     4  10  20  36  57  85 131 156 193 264 310 371
#     4  10  21  38  56  91 126 164 204 248 325 372
#     4  10  21  37  57  88 123 164 207 258 302 380
#     4  11  20  37  58  91 120 152 209 253 313 367
#     4  11  21  38  59  90 129 165 209 254 324 377
#
# _framework density 19.723268999999998
#
# number of rings (size 3 to 8) (size 9 to 14) (size 15 to 20)
#    0.000    1.429    4.286    3.429    0.000    0.000 
#    7.714    0.000    0.000   13.714    0.000    0.000 
#    0.000    0.000    0.000    0.000    0.000    0.000 
#
# Total GULP energy -346888.459971 kJ/mol
# GULP energy per Si atom -12388.873570 kJ/mol
# Density = 1.967838 g / cm^3
# Si number density = 19.723269 Si / 1000 Ang^3
#
#
#
# Elastic Constant Matrix: (Units=GPa)
#
#
# Indices 1 2 3 4 5 6 
#
# 1 104.6578 53.6133 44.7317 0.0000 -3.3155 0.0000
# 2 53.6133 98.4887 41.0223 0.0000 -2.5388 0.0000
# 3 44.7317 41.0223 97.6385 0.0000 6.8552 0.0000
# 4 0.0000 0.0000 0.0000 23.9606 0.0000 -3.5533
# 5 -3.3155 -2.5388 6.8552 0.0000 33.0332 0.0000
# 6 0.0000 0.0000 0.0000 -3.5533 0.0000 33.1280
#
#
#
# Elastic Compliance Matrix: (Units=1/GPa)
#
#
# Indices 1 2 3 4 5 6 
#
# 1 0.014553 -0.006112 -0.004231 0.000000 0.001869 0.000000
# 2 -0.006112 0.015012 -0.003598 0.000000 0.001287 0.000000
# 3 -0.004231 -0.003598 0.013944 0.000000 -0.003595 0.000000
# 4 0.000000 0.000000 0.000000 0.042410 0.000000 0.004549
# 5 0.001869 0.001287 -0.003595 0.000000 0.031305 0.000000
# 6 0.000000 0.000000 0.000000 0.004549 0.000000 0.030674
#
#
# Mechanical properties :
#
#
# Convention : Reuss Voigt Hill
#
# Bulk Modulus (GPa) = 63.98317 64.39106 64.18712
# Shear Modulus (GPa) = 27.62607 28.78553 28.20580
#
# Velocity S-wave (km/s) = 3.74663 3.82445 3.78574
# Velocity P-wave (km/s) = 7.15732 7.22634 7.19191
#
# Compressibility (1/GPa) = 0.01562911
#
# Stress axis : x y z
#
# Youngs Moduli (GPa) = 68.71248 66.61266 71.71539
#
# Poissons Ratio (x) = 0.40713 0.30341
# Poissons Ratio (y) = 0.41997 0.25800
# Poissons Ratio (z) = 0.29071 0.23964
#
# Static dielectric constant tensor:
#      x y z
#    x 3.849120 0.000000 0.300280 
#    y 0.000000 3.413960 0.000000 
#    z 0.300280 0.000000 4.348100 
# 
# 
# High freq. dielectric constant tensor:
#      x y z
#    x 1.768740 0.000000 0.013330 
#    y 0.000000 1.733990 0.000000 
#    z 0.013330 0.000000 1.787450 
# 
# From -- ./inp_files/160826.got.cif
#   From: 2010.06.25/outbox.cif.g09.slc.cpg/sg15_81_cif.got.tgz:160826.got - 2010.06.28 07:06:18.
