data_PCOD8137813
_publ_section_title
;
Structure prediction by ZEFSAII (Michael W. Deem and Ramdas Pophale) SiO2 
 PCOD8137813
Probable space group: C 2/C
;
_chemical_formula_sum "Si O2"
_cell_formula_units_Z 64
_cell_length_a 11.493088
_cell_length_b 28.049223
_cell_length_c 13.332745
_cell_angle_alpha 90.000000
_cell_angle_beta 134.323742
_cell_angle_gamma 90.000000
_cell_volume 3074.879198
_symmetry_space_group_name_H-M "C 2/C"
_symmetry_group_IT_number 15
_symmetry_cell_setting 'monoclinic'
loop_
_space_group_symop_operation_xyz
x,y,z
-x,y,1/2-z
-x,-y,-z
x,-y,1/2+z
1/2+x,1/2+y,z
1/2-x,1/2+y,1/2-z
1/2-x,1/2-y,-z
1/2+x,1/2-y,1/2+z
loop_
_atom_site_type_symbol
_atom_site_label
_atom_site_fract_x
_atom_site_fract_y
_atom_site_fract_z
Si Si1 0.663334 0.204389 0.403292
Si Si2 0.002563 0.666159 0.009072
Si Si3 0.159302 0.165423 0.179780
Si Si4 0.474486 0.535649 0.849486
Si Si5 0.983818 0.525446 0.355613
Si Si6 0.366123 0.560201 0.359995
Si Si7 0.874725 0.567432 0.876032
Si Si8 0.057040 0.252304 0.390631
O O1 0.500000 0.222188 0.250000
O O2 0.750000 0.250000 0.500000
O O3 0.615494 0.169057 0.465331
O O4 0.781761 0.177256 0.397659
O O5 0.189969 0.664747 0.153504
O O6 0.983734 0.712876 0.930091
O O7 0.946204 0.620582 0.909745
O O8 0.078521 0.113282 0.134900
O O9 0.019383 0.200660 0.133120
O O10 0.500000 0.548786 0.750000
O O11 0.474950 0.478496 0.866910
O O12 0.305813 0.562018 0.778252
O O13 0.614863 0.554991 0.007597
O O14 0.124238 0.550502 0.506262
O O15 0.000000 0.536689 0.250000
O O16 0.816845 0.551021 0.287278
O O17 0.987921 0.468860 0.380521
O O18 0.250000 0.250000 0.500000
O O19 0.000000 0.272243 0.250000
#
# Coordination Sequence:
#
# PCOD8137813 Si02
#       8
#     8   8   8   8   8   8   8   8
#     4  10  22  40  66  95 124 161 204 268 323 375
#     4  11  23  43  67  97 130 163 218 267 325 390
#     4  11  23  43  68  97 127 168 219 261 328 389
#     4  10  22  40  58  92 134 166 206 268 316 370
#     4  10  20  36  63  89 127 163 208 261 312 379
#     4  10  22  40  63  91 124 171 216 254 320 391
#     4  10  22  38  61  96 120 164 214 258 318 377
#     4  12  26  45  69  94 129 175 216 270 322 384
#
# _framework density 20.813825000000001
#
# number of rings (size 3 to 8) (size 9 to 14) (size 15 to 20)
#    0.000    1.500    3.750    0.750    3.500    2.000 
#    2.250    1.250    0.000    0.000    0.000    0.000 
#    0.000    0.000    0.000    0.000    0.000    0.000 
#
# Total GULP energy -396747.507304 kJ/mol
# GULP energy per Si atom -12398.359603 kJ/mol
# Density = 2.076645 g / cm^3
# Si number density = 20.813825 Si / 1000 Ang^3
#
#
#
# Elastic Constant Matrix: (Units=GPa)
#
#
# Indices 1 2 3 4 5 6 
#
# 1 57.6844 15.8201 12.3977 0.0000 -0.1704 0.0000
# 2 15.8201 144.9118 31.1421 0.0000 10.6656 0.0000
# 3 12.3977 31.1421 91.4010 0.0000 0.1765 0.0000
# 4 0.0000 0.0000 0.0000 32.8709 0.0000 -0.6151
# 5 -0.1704 10.6656 0.1765 0.0000 32.6134 0.0000
# 6 0.0000 0.0000 0.0000 -0.6151 0.0000 15.2898
#
#
#
# Elastic Compliance Matrix: (Units=1/GPa)
#
#
# Indices 1 2 3 4 5 6 
#
# 1 0.018194 -0.001621 -0.001917 0.000000 0.000636 0.000000
# 2 -0.001621 0.007787 -0.002428 0.000000 -0.002542 0.000000
# 3 -0.001917 -0.002428 0.012027 0.000000 0.000719 0.000000
# 4 0.000000 0.000000 0.000000 0.030445 0.000000 0.001225
# 5 0.000636 -0.002542 0.000719 0.000000 0.031493 0.000000
# 6 0.000000 0.000000 0.000000 0.001225 0.000000 0.065452
#
#
# Mechanical properties :
#
#
# Convention : Reuss Voigt Hill
#
# Bulk Modulus (GPa) = 38.35052 45.85745 42.10398
# Shear Modulus (GPa) = 26.87857 31.79730 29.33794
#
# Velocity S-wave (km/s) = 3.59748 3.91282 3.75846
# Velocity P-wave (km/s) = 5.97673 6.51871 6.25359
#
# Compressibility (1/GPa) = 0.02607526
#
# Stress axis : x y z
#
# Youngs Moduli (GPa) = 54.96280 128.42490 83.14794
#
# Poissons Ratio (x) = 0.20819 0.15937
# Poissons Ratio (y) = 0.08910 0.20191
# Poissons Ratio (z) = 0.10535 0.31185
#
# Static dielectric constant tensor:
#      x y z
#    x 3.598110 0.000000 -0.091590 
#    y 0.000000 3.722590 0.000000 
#    z -0.091590 0.000000 3.942750 
# 
# 
# High freq. dielectric constant tensor:
#      x y z
#    x 1.796700 0.000000 -0.007280 
#    y 0.000000 1.812280 0.000000 
#    z -0.007280 0.000000 1.828000 
# 
# From -- ./inp_files/148795.got.cif
#   From: 2010.06.25/outbox.cif.g09.slc.cpg/sg15_75_cif.got.tgz:148795.got - 2010.06.28 07:06:18.
