data_PCOD8137063
_publ_section_title
;
Structure prediction by ZEFSAII (Michael W. Deem and Ramdas Pophale) SiO2 
 PCOD8137063
Probable space group: C 2/C
;
_chemical_formula_sum "Si O2"
_cell_formula_units_Z 48
_cell_length_a 11.211322
_cell_length_b 25.178540
_cell_length_c 10.229302
_cell_angle_alpha 90.000000
_cell_angle_beta 51.107436
_cell_angle_gamma 90.000000
_cell_volume 2247.471276
_symmetry_space_group_name_H-M "C 2/C"
_symmetry_group_IT_number 15
_symmetry_cell_setting 'monoclinic'
loop_
_space_group_symop_operation_xyz
x,y,z
-x,y,1/2-z
-x,-y,-z
x,-y,1/2+z
1/2+x,1/2+y,z
1/2-x,1/2+y,1/2-z
1/2-x,1/2-y,-z
1/2+x,1/2-y,1/2+z
loop_
_atom_site_type_symbol
_atom_site_label
_atom_site_fract_x
_atom_site_fract_y
_atom_site_fract_z
Si Si1 0.973999 0.547072 0.916860
Si Si2 0.726383 0.852418 0.658557
Si Si3 0.343044 0.398317 0.825299
Si Si4 0.904719 0.363089 0.010422
Si Si5 0.194561 0.742722 0.803030
Si Si6 0.119025 0.209945 0.048151
O O1 0.000000 0.528375 0.750000
O O2 0.798516 0.564510 0.046909
O O3 0.000000 0.500000 0.000000
O O4 0.094466 0.594391 0.871300
O O5 0.852559 0.879769 0.665552
O O6 0.567430 0.869852 0.830888
O O7 0.729087 0.873319 0.506257
O O8 0.744201 0.788426 0.642528
O O9 0.500000 0.430170 0.750000
O O10 0.342210 0.347616 0.922039
O O11 0.899453 0.302795 0.060663
O O12 0.341401 0.713309 0.634830
O O13 0.061868 0.772275 0.802286
O O14 0.250000 0.250000 0.000000
#
# Coordination Sequence:
#
# PCOD8137063 Si02
#       6
#     8   8   8   8   8   8
#     4  11  26  47  75  99 122 169 226 280 336 398
#     4  10  20  35  59  91 127 181 206 254 320 385
#     4  11  21  40  65  97 133 173 219 272 335 389
#     4  10  22  39  61  91 132 166 220 266 318 386
#     4  12  20  35  56  90 132 175 223 255 315 389
#     4  12  20  32  55  88 130 174 218 260 311 382
#
# _framework density 21.357336
#
# number of rings (size 3 to 8) (size 9 to 14) (size 15 to 20)
#    0.000    1.000    5.000    3.000    4.667    0.000 
#    0.000    0.833    0.000    0.000    0.000    0.000 
#    0.000    0.000    0.000    0.000    0.000    0.000 
#
# Total GULP energy -297317.645046 kJ/mol
# GULP energy per Si atom -12388.235210 kJ/mol
# Density = 2.130873 g / cm^3
# Si number density = 21.357336 Si / 1000 Ang^3
#
#
#
# Elastic Constant Matrix: (Units=GPa)
#
#
# Indices 1 2 3 4 5 6 
#
# 1 142.4455 57.4298 47.9843 0.0000 10.8129 0.0000
# 2 57.4298 85.8947 36.5724 0.0000 5.2177 0.0000
# 3 47.9843 36.5724 78.8725 0.0000 -3.3585 0.0000
# 4 0.0000 0.0000 0.0000 27.2491 0.0000 5.1724
# 5 10.8129 5.2177 -3.3585 0.0000 38.3050 0.0000
# 6 0.0000 0.0000 0.0000 5.1724 0.0000 38.6677
#
#
#
# Elastic Compliance Matrix: (Units=1/GPa)
#
#
# Indices 1 2 3 4 5 6 
#
# 1 0.010759 -0.005226 -0.004237 0.000000 -0.002697 0.000000
# 2 -0.005226 0.017302 -0.004899 0.000000 -0.001311 0.000000
# 3 -0.004237 -0.004899 0.017674 0.000000 0.003413 0.000000
# 4 0.000000 0.000000 0.000000 0.037655 0.000000 -0.005037
# 5 -0.002697 -0.001311 0.003413 0.000000 0.027345 0.000000
# 6 0.000000 0.000000 0.000000 -0.005037 0.000000 0.026535
#
#
# Mechanical properties :
#
#
# Convention : Reuss Voigt Hill
#
# Bulk Modulus (GPa) = 58.78916 65.68731 62.23823
# Shear Modulus (GPa) = 29.12659 31.85944 30.49302
#
# Velocity S-wave (km/s) = 3.69694 3.86649 3.78266
# Velocity P-wave (km/s) = 6.76826 7.12433 6.94857
#
# Compressibility (1/GPa) = 0.01700994
#
# Stress axis : x y z
#
# Youngs Moduli (GPa) = 92.94386 57.79765 56.58112
#
# Poissons Ratio (x) = 0.30203 0.23976
# Poissons Ratio (y) = 0.48569 0.27721
# Poissons Ratio (z) = 0.39384 0.28317
#
# Static dielectric constant tensor:
#      x y z
#    x 4.622290 0.000000 0.490520 
#    y 0.000000 3.328070 0.000000 
#    z 0.490520 0.000000 2.880880 
# 
# 
# High freq. dielectric constant tensor:
#      x y z
#    x 1.857750 0.000000 0.011490 
#    y 0.000000 1.804370 0.000000 
#    z 0.011490 0.000000 1.826980 
# 
# From -- ./inp_files/90618.got.cif
#   From: 2010.06.25/outbox.cif.g09.slc.cpg/sg15_46_cif.got.tgz:90618.got - 2010.06.28 07:06:18.
