data_PCOD8137983
_publ_section_title
;
Structure prediction by ZEFSAII (Michael W. Deem and Ramdas Pophale) SiO2 
 PCOD8137983
Probable space group: C 2/C
;
_chemical_formula_sum "Si O2"
_cell_formula_units_Z 52
_cell_length_a 19.740791
_cell_length_b 18.060682
_cell_length_c 21.375261
_cell_angle_alpha 90.000000
_cell_angle_beta 159.238318
_cell_angle_gamma 90.000000
_cell_volume 2701.493558
_symmetry_space_group_name_H-M "C 2/C"
_symmetry_group_IT_number 15
_symmetry_cell_setting 'monoclinic'
loop_
_space_group_symop_operation_xyz
x,y,z
-x,y,1/2-z
-x,-y,-z
x,-y,1/2+z
1/2+x,1/2+y,z
1/2-x,1/2+y,1/2-z
1/2-x,1/2-y,-z
1/2+x,1/2-y,1/2+z
loop_
_atom_site_type_symbol
_atom_site_label
_atom_site_fract_x
_atom_site_fract_y
_atom_site_fract_z
Si Si1 0.500000 0.061405 0.250000
Si Si2 0.634500 0.665184 0.145727
Si Si3 0.231009 0.673132 0.375178
Si Si4 0.295088 0.517466 0.596099
Si Si5 0.357912 0.665455 0.718192
Si Si6 0.782213 0.328427 0.265000
Si Si7 0.608526 0.061011 0.052217
O O1 0.575864 0.113361 0.260215
O O2 0.657319 0.008529 0.417223
O O3 0.757826 0.668320 0.189536
O O4 0.662039 0.744085 0.203953
O O5 0.722481 0.599780 0.262763
O O6 0.412074 0.649140 0.938697
O O7 0.424252 0.651520 0.576287
O O8 0.170919 0.756423 0.341551
O O9 0.500000 0.487398 0.750000
O O10 0.300023 0.603847 0.618570
O O11 0.217776 0.472177 0.587736
O O12 0.231270 0.661626 0.671679
O O13 0.953181 0.381527 0.390841
O O14 0.500000 0.000000 0.000000
#
# Coordination Sequence:
#
# PCOD8137983 Si02
#       7
#     4   8   8   8   8   8   8
#     4  12  24  38  58  82 120 176 208 238 298 374
#     4  10  21  39  66  95 128 157 208 260 312 366
#     4  10  21  33  58  88 121 164 209 239 288 368
#     4  12  26  42  57  85 129 163 203 251 315 364
#     4  10  20  37  55  87 126 161 202 246 290 365
#     4  10  20  39  66  97 124 161 204 260 310 370
#     4  12  24  40  66  96 129 163 207 262 318 369
#
# _framework density 19.248611
#
# number of rings (size 3 to 8) (size 9 to 14) (size 15 to 20)
#    0.000    1.231    4.615    1.846    3.231    3.077 
#    0.000    0.000    0.000    0.923    0.000    0.000 
#    0.000    0.000    0.000    0.000    0.000    0.000 
#
# Total GULP energy -322470.412236 kJ/mol
# GULP energy per Si atom -12402.708163 kJ/mol
# Density = 1.920480 g / cm^3
# Si number density = 19.248611 Si / 1000 Ang^3
#
#
#
# Elastic Constant Matrix: (Units=GPa)
#
#
# Indices 1 2 3 4 5 6 
#
# 1 88.7379 49.0492 53.1856 -0.0057 9.0536 -0.0108
# 2 49.0492 83.6228 47.8294 0.0269 -4.5735 -0.0223
# 3 53.1856 47.8294 129.2645 0.0251 -6.9715 -0.0316
# 4 -0.0057 0.0269 0.0251 26.4975 0.0032 -6.6313
# 5 9.0536 -4.5735 -6.9715 0.0032 30.9896 -0.0235
# 6 -0.0108 -0.0223 -0.0316 -6.6313 -0.0235 26.0751
#
#
#
# Elastic Compliance Matrix: (Units=1/GPa)
#
#
# Indices 1 2 3 4 5 6 
#
# 1 0.020661 -0.009467 -0.005466 0.000018 -0.008663 -0.000009
# 2 -0.009467 0.019536 -0.003066 -0.000017 0.004959 0.000009
# 3 -0.005466 -0.003066 0.011318 -0.000007 0.003690 0.000010
# 4 0.000018 -0.000017 -0.000007 0.040305 -0.000006 0.010250
# 5 -0.008663 0.004959 0.003690 -0.000006 0.036362 0.000036
# 6 -0.000009 0.000009 0.000010 0.010250 0.000036 0.040958
#
#
# Mechanical properties :
#
#
# Convention : Reuss Voigt Hill
#
# Bulk Modulus (GPa) = 64.43590 66.86151 65.64871
# Shear Modulus (GPa) = 23.77446 26.81651 25.29548
#
# Velocity S-wave (km/s) = 3.51825 3.73656 3.62905
# Velocity P-wave (km/s) = 7.07477 7.30938 7.19303
#
# Compressibility (1/GPa) = 0.01551930
#
# Stress axis : x y z
#
# Youngs Moduli (GPa) = 48.39930 51.18722 88.35199
#
# Poissons Ratio (x) = 0.48458 0.48289
# Poissons Ratio (y) = 0.45818 0.27089
# Poissons Ratio (z) = 0.26453 0.15694
#
# Static dielectric constant tensor:
#      x y z
#    x 3.307220 -0.000090 0.075410 
#    y -0.000090 3.443540 -0.000330 
#    z 0.075410 -0.000330 3.686360 
# 
# 
# High freq. dielectric constant tensor:
#      x y z
#    x 1.721910 0.000000 -0.001390 
#    y 0.000000 1.731720 -0.000020 
#    z -0.001390 -0.000020 1.772920 
# 
# From -- ./inp_files/280385.got.cif
#   From: 2010.06.25/outbox.cif.g09.slc.cpg/sg15_141_cif.got.tgz:280385.got - 2010.06.28 07:06:18.
