data_PCOD8137673
_publ_section_title
;
Structure prediction by ZEFSAII (Michael W. Deem and Ramdas Pophale) SiO2 
 PCOD8137673
Probable space group: C 2/C
;
_chemical_formula_sum "Si O2"
_cell_formula_units_Z 64
_cell_length_a 9.529069
_cell_length_b 26.731000
_cell_length_c 14.470630
_cell_angle_alpha 90.000000
_cell_angle_beta 118.537473
_cell_angle_gamma 90.000000
_cell_volume 3238.152368
_symmetry_space_group_name_H-M "C 2/C"
_symmetry_group_IT_number 15
_symmetry_cell_setting 'monoclinic'
loop_
_space_group_symop_operation_xyz
x,y,z
-x,y,1/2-z
-x,-y,-z
x,-y,1/2+z
1/2+x,1/2+y,z
1/2-x,1/2+y,1/2-z
1/2-x,1/2-y,-z
1/2+x,1/2-y,1/2+z
loop_
_atom_site_type_symbol
_atom_site_label
_atom_site_fract_x
_atom_site_fract_y
_atom_site_fract_z
Si Si1 0.055292 0.292637 0.663248
Si Si2 0.230636 0.357093 0.996431
Si Si3 0.312866 0.392167 0.495799
Si Si4 0.823763 0.103704 0.715626
Si Si5 0.162560 0.931112 0.618698
Si Si6 0.321150 0.034358 0.681660
Si Si7 0.579277 0.683372 0.608942
Si Si8 0.318380 0.368654 0.701844
O O1 0.919207 0.320482 0.561971
O O2 0.000000 0.281183 0.750000
O O3 0.106996 0.242090 0.627962
O O4 0.215319 0.325197 0.715519
O O5 0.221078 0.384925 0.091913
O O6 0.390093 0.324393 0.042677
O O7 0.226471 0.398279 0.914073
O O8 0.477876 0.422633 0.535716
O O9 0.180839 0.424676 0.401010
O O10 0.335463 0.337289 0.457043
O O11 0.253258 0.385228 0.581450
O O12 0.733783 0.060200 0.741290
O O13 0.843542 0.154698 0.779984
O O14 0.000000 0.082335 0.750000
O O15 0.192576 0.916371 0.734620
O O16 0.205465 0.988805 0.619508
O O17 0.500000 0.013961 0.750000
O O18 0.500000 0.349128 0.750000
#
# Coordination Sequence:
#
# PCOD8137673 Si02
#       8
#     8   8   8   8   8   8   8   8
#     4  12  22  35  63  92 122 156 203 254 304 342
#     4  10  20  36  61  88 122 150 197 253 302 342
#     4   9  21  43  62  81 123 164 199 239 305 369
#     4   9  20  41  59  83 120 158 197 244 295 368
#     4  10  21  40  61  85 118 160 198 247 292 368
#     4  11  24  37  62  91 120 150 202 253 308 351
#     4   9  20  39  62  90 116 156 204 248 291 366
#     4  10  23  41  59  84 124 161 198 242 300 363
#
# _framework density 19.764357
#
# number of rings (size 3 to 8) (size 9 to 14) (size 15 to 20)
#    0.000    2.000    1.250    2.625    3.500    3.000 
#    0.000    3.750    0.000    0.000    0.000    0.000 
#    0.000    0.000    0.000    0.000    0.000    0.000 
#
# Total GULP energy -396890.041359 kJ/mol
# GULP energy per Si atom -12402.813792 kJ/mol
# Density = 1.971937 g / cm^3
# Si number density = 19.764357 Si / 1000 Ang^3
#
#
#
# Elastic Constant Matrix: (Units=GPa)
#
#
# Indices 1 2 3 4 5 6 
#
# 1 47.2701 26.9321 25.6897 0.0000 -2.9567 0.0000
# 2 26.9321 98.4536 25.7165 0.0000 -0.0918 0.0000
# 3 25.6897 25.7165 107.9055 0.0000 -18.8121 0.0000
# 4 0.0000 0.0000 0.0000 21.0801 0.0000 3.7904
# 5 -2.9567 -0.0918 -18.8121 0.0000 29.8012 0.0000
# 6 0.0000 0.0000 0.0000 3.7904 0.0000 18.0428
#
#
#
# Elastic Compliance Matrix: (Units=1/GPa)
#
#
# Indices 1 2 3 4 5 6 
#
# 1 0.027433 -0.006157 -0.005160 0.000000 -0.000555 0.000000
# 2 -0.006157 0.012299 -0.001759 0.000000 -0.001683 0.000000
# 3 -0.005160 -0.001759 0.012164 0.000000 0.007161 0.000000
# 4 0.000000 0.000000 0.000000 0.049300 0.000000 -0.010357
# 5 -0.000555 -0.001683 0.007161 0.000000 0.038016 0.000000
# 6 0.000000 0.000000 0.000000 -0.010357 0.000000 0.057599
#
#
# Mechanical properties :
#
#
# Convention : Reuss Voigt Hill
#
# Bulk Modulus (GPa) = 38.84537 45.58954 42.21745
# Shear Modulus (GPa) = 21.59415 25.47088 23.53252
#
# Velocity S-wave (km/s) = 3.30901 3.59378 3.45433
# Velocity P-wave (km/s) = 5.85630 6.35114 6.10873
#
# Compressibility (1/GPa) = 0.02574309
#
# Stress axis : x y z
#
# Youngs Moduli (GPa) = 36.45286 81.30667 82.21289
#
# Poissons Ratio (x) = 0.50059 0.42426
# Poissons Ratio (y) = 0.22443 0.14460
# Poissons Ratio (z) = 0.18811 0.14301
#
# Static dielectric constant tensor:
#      x y z
#    x 3.477330 0.000000 -0.114160 
#    y 0.000000 3.379330 0.000000 
#    z -0.114160 0.000000 3.711350 
# 
# 
# High freq. dielectric constant tensor:
#      x y z
#    x 1.758520 0.000000 -0.005960 
#    y 0.000000 1.759440 0.000000 
#    z -0.005960 0.000000 1.783130 
# 
# From -- ./inp_files/138668.got.cif
#   From: 2010.06.25/outbox.cif.g09.slc.cpg/sg15_70_cif.got.tgz:138668.got - 2010.06.28 07:06:18.
