data_PCOD8137568
_publ_section_title
;
Structure prediction by ZEFSAII (Michael W. Deem and Ramdas Pophale) SiO2 
 PCOD8137568
Probable space group: C 2/C
;
_chemical_formula_sum "Si O2"
_cell_formula_units_Z 52
_cell_length_a 21.671448
_cell_length_b 15.549048
_cell_length_c 8.701060
_cell_angle_alpha 90.000000
_cell_angle_beta 62.683136
_cell_angle_gamma 90.000000
_cell_volume 2605.029398
_symmetry_space_group_name_H-M "C 2/C"
_symmetry_group_IT_number 15
_symmetry_cell_setting 'monoclinic'
loop_
_space_group_symop_operation_xyz
x,y,z
-x,y,1/2-z
-x,-y,-z
x,-y,1/2+z
1/2+x,1/2+y,z
1/2-x,1/2+y,1/2-z
1/2-x,1/2-y,-z
1/2+x,1/2-y,1/2+z
loop_
_atom_site_type_symbol
_atom_site_label
_atom_site_fract_x
_atom_site_fract_y
_atom_site_fract_z
Si Si1 0.234195 0.090549 0.700584
Si Si2 0.035253 0.578534 0.375169
Si Si3 0.420800 0.411122 0.091517
Si Si4 0.200069 0.566383 0.203792
Si Si5 0.947617 0.262086 0.444822
Si Si6 0.709094 0.231167 0.393263
Si Si7 0.000000 0.011714 0.250000
O O1 0.155791 0.055720 0.782871
O O2 0.265530 0.087638 0.496749
O O3 0.229779 0.189527 0.759451
O O4 0.277963 0.028339 0.763127
O O5 0.117764 0.565742 0.268433
O O6 0.019055 0.658414 0.503703
O O7 0.000000 0.592475 0.250000
O O8 0.000000 0.500000 0.500000
O O9 0.474173 0.452799 0.144169
O O10 0.434975 0.309826 0.089916
O O11 0.437815 0.432071 0.892889
O O12 0.226872 0.640135 0.291129
O O13 0.871054 0.277659 0.463430
O O14 0.000000 0.234781 0.250000
O O15 0.750000 0.250000 0.500000
#
# Coordination Sequence:
#
# PCOD8137568 Si02
#       7
#     8   8   8   8   8   8   4
#     4  11  22  39  62  87 125 159 203 251 308 366
#     4  11  24  41  64  90 120 156 204 254 311 369
#     4  10  21  38  58  89 119 160 200 244 298 357
#     4  11  23  41  64  91 125 161 206 255 312 370
#     4  10  22  41  60  88 123 157 202 253 304 368
#     4  10  23  41  61  91 122 162 208 255 306 371
#     4  10  20  36  60  82 124 152 204 244 290 354
#
# _framework density 19.961387999999999
#
# number of rings (size 3 to 8) (size 9 to 14) (size 15 to 20)
#    0.000    1.538    0.769    3.692    1.077    6.154 
#    2.769    0.000    0.000    0.000    0.000    0.000 
#    0.000    0.000    0.000    0.000    0.000    0.000 
#
# Total GULP energy -322268.485929 kJ/mol
# GULP energy per Si atom -12394.941767 kJ/mol
# Density = 1.991596 g / cm^3
# Si number density = 19.961388 Si / 1000 Ang^3
#
#
#
# Elastic Constant Matrix: (Units=GPa)
#
#
# Indices 1 2 3 4 5 6 
#
# 1 113.0892 45.3189 58.8198 0.0000 4.5648 0.0000
# 2 45.3189 102.8092 30.9157 0.0000 0.9157 0.0000
# 3 58.8198 30.9157 139.5428 0.0000 -11.0302 0.0000
# 4 0.0000 0.0000 0.0000 31.9311 0.0000 -0.0944
# 5 4.5648 0.9157 -11.0302 0.0000 35.7676 0.0000
# 6 0.0000 0.0000 0.0000 -0.0944 0.0000 33.7156
#
#
#
# Elastic Compliance Matrix: (Units=1/GPa)
#
#
# Indices 1 2 3 4 5 6 
#
# 1 0.013236 -0.004346 -0.004860 0.000000 -0.003077 0.000000
# 2 -0.004346 0.011883 -0.000801 0.000000 0.000004 0.000000
# 3 -0.004860 -0.000801 0.009679 0.000000 0.003625 0.000000
# 4 0.000000 0.000000 0.000000 0.031318 0.000000 0.000088
# 5 -0.003077 0.000004 0.003625 0.000000 0.029469 0.000000
# 6 0.000000 0.000000 0.000000 0.000088 0.000000 0.029660
#
#
# Mechanical properties :
#
#
# Convention : Reuss Voigt Hill
#
# Bulk Modulus (GPa) = 67.63265 69.50556 68.56910
# Shear Modulus (GPa) = 33.29241 34.97531 34.13386
#
# Velocity S-wave (km/s) = 4.08835 4.19041 4.13969
# Velocity P-wave (km/s) = 7.49943 7.63599 7.56802
#
# Compressibility (1/GPa) = 0.01478576
#
# Stress axis : x y z
#
# Youngs Moduli (GPa) = 75.55283 84.15313 103.32085
#
# Poissons Ratio (x) = 0.36571 0.50209
# Poissons Ratio (y) = 0.32833 0.08272
# Poissons Ratio (z) = 0.36715 0.06737
#
# Static dielectric constant tensor:
#      x y z
#    x 3.650680 0.000000 -0.183910 
#    y 0.000000 3.858220 0.000000 
#    z -0.183910 0.000000 4.035990 
# 
# 
# High freq. dielectric constant tensor:
#      x y z
#    x 1.778170 0.000000 -0.007890 
#    y 0.000000 1.794590 0.000000 
#    z -0.007890 0.000000 1.790650 
# 
# From -- ./inp_files/61443.got.cif
#   From: 2010.06.25/outbox.cif.g09.slc.cpg/sg15_31_cif.got.tgz:61443.got - 2010.06.28 07:06:18.
