data_PCOD8137280
_publ_section_title
;
Structure prediction by ZEFSAII (Michael W. Deem and Ramdas Pophale) SiO2 
 PCOD8137280
Probable space group: C 2/C
;
_chemical_formula_sum "Si O2"
_cell_formula_units_Z 56
_cell_length_a 21.098320
_cell_length_b 14.275640
_cell_length_c 23.788186
_cell_angle_alpha 90.000000
_cell_angle_beta 25.312945
_cell_angle_gamma 90.000000
_cell_volume 3063.402089
_symmetry_space_group_name_H-M "C 2/C"
_symmetry_group_IT_number 15
_symmetry_cell_setting 'monoclinic'
loop_
_space_group_symop_operation_xyz
x,y,z
-x,y,1/2-z
-x,-y,-z
x,-y,1/2+z
1/2+x,1/2+y,z
1/2-x,1/2+y,1/2-z
1/2-x,1/2-y,-z
1/2+x,1/2-y,1/2+z
loop_
_atom_site_type_symbol
_atom_site_label
_atom_site_fract_x
_atom_site_fract_y
_atom_site_fract_z
Si Si1 0.684511 0.571214 0.883975
Si Si2 0.649042 0.425600 0.823628
Si Si3 0.663142 0.150116 0.633671
Si Si4 0.666821 0.364296 0.616020
Si Si5 0.351643 0.953169 0.563159
Si Si6 0.706348 0.265694 0.276848
Si Si7 0.445146 0.852342 0.015441
O O1 0.721541 0.475720 0.820461
O O2 0.798766 0.589348 0.842160
O O3 0.688468 0.658420 0.839290
O O4 0.524729 0.558325 0.039945
O O5 0.718259 0.473330 0.713314
O O6 0.680681 0.315562 0.795637
O O7 0.500000 0.114869 0.750000
O O8 0.662905 0.260911 0.646526
O O9 0.779544 0.131920 0.490907
O O10 0.500000 0.406397 0.750000
O O11 0.784617 0.422625 0.557667
O O12 0.466570 0.876242 0.496732
O O13 0.433586 0.052566 0.488522
O O14 0.542128 0.220539 0.400011
O O15 0.781884 0.310880 0.160666
#
# Coordination Sequence:
#
# PCOD8137280 Si02
#       7
#     8   8   8   8   8   8   8
#     4  11  21  35  53  80 121 143 181 228 278 327
#     4  10  21  33  55  83 107 149 182 225 286 330
#     4  10  22  33  52  77 111 151 179 215 267 330
#     4  10  21  37  53  79 109 149 189 214 265 331
#     4  10  20  36  56  78 112 143 189 228 265 336
#     4  11  20  35  52  80 114 143 176 224 282 331
#     4  10  21  33  54  82 108 147 178 223 291 315
#
# _framework density 18.280329999999999
#
# number of rings (size 3 to 8) (size 9 to 14) (size 15 to 20)
#    0.000    1.714    2.857    2.571    2.000    1.143 
#    0.000    0.000    0.000    0.000    0.000    5.000 
#    0.000    0.000    0.000    0.000    0.000    0.000 
#
# Total GULP energy -347084.359572 kJ/mol
# GULP energy per Si atom -12395.869985 kJ/mol
# Density = 1.823872 g / cm^3
# Si number density = 18.280330 Si / 1000 Ang^3
#
#
#
# Elastic Constant Matrix: (Units=GPa)
#
#
# Indices 1 2 3 4 5 6 
#
# 1 61.8063 19.5980 8.0370 0.0014 -16.7708 -0.0001
# 2 19.5980 63.1838 32.6763 -0.0043 -11.4266 -0.0003
# 3 8.0370 32.6763 92.7131 0.0015 1.0277 0.0010
# 4 0.0014 -0.0043 0.0015 22.8178 0.0006 -3.3982
# 5 -16.7708 -11.4266 1.0277 0.0006 17.9649 -0.0002
# 6 -0.0001 -0.0003 0.0010 -3.3982 -0.0002 21.7990
#
#
#
# Elastic Compliance Matrix: (Units=1/GPa)
#
#
# Indices 1 2 3 4 5 6 
#
# 1 0.022452 -0.002911 -0.001133 -0.000002 0.019173 0.000000
# 2 -0.002911 0.023143 -0.008042 0.000005 0.012463 0.000002
# 3 -0.001133 -0.008042 0.013796 -0.000002 -0.006962 -0.000001
# 4 -0.000002 0.000005 -0.000002 0.044867 0.000000 0.006994
# 5 0.019173 0.012463 -0.006962 0.000000 0.081888 0.000001
# 6 0.000000 0.000002 -0.000001 0.006994 0.000001 0.046964
#
#
# Mechanical properties :
#
#
# Convention : Reuss Voigt Hill
#
# Bulk Modulus (GPa) = 28.39393 37.59175 32.99284
# Shear Modulus (GPa) = 18.58583 23.00915 20.79749
#
# Velocity S-wave (km/s) = 3.19205 3.55164 3.37664
# Velocity P-wave (km/s) = 5.39924 6.11781 5.76972
#
# Compressibility (1/GPa) = 0.03521879
#
# Stress axis : x y z
#
# Youngs Moduli (GPa) = 44.53852 43.21007 72.48554
#
# Poissons Ratio (x) = 0.12578 0.08212
# Poissons Ratio (y) = 0.12964 0.58296
# Poissons Ratio (z) = 0.05046 0.34751
#
# Static dielectric constant tensor:
#      x y z
#    x 2.990580 0.000000 -0.032350 
#    y 0.000000 3.421280 0.000030 
#    z -0.032350 0.000030 3.736000 
# 
# 
# High freq. dielectric constant tensor:
#      x y z
#    x 1.656940 0.000000 0.000000 
#    y 0.000000 1.699640 0.000000 
#    z 0.000000 0.000000 1.738260 
# 
# From -- ./inp_files/126753.got.cif
#   From: 2010.06.25/outbox.cif.g09.slc.cpg/sg15_64_cif.got.tgz:126753.got - 2010.06.28 07:06:18.
