data_PCOD8137413
_publ_section_title
;
Structure prediction by ZEFSAII (Michael W. Deem and Ramdas Pophale) SiO2 
 PCOD8137413
Probable space group: C 2/C
;
_chemical_formula_sum "Si O2"
_cell_formula_units_Z 44
_cell_length_a 15.576490
_cell_length_b 9.632440
_cell_length_c 13.404144
_cell_angle_alpha 90.000000
_cell_angle_beta 82.154818
_cell_angle_gamma 90.000000
_cell_volume 1992.329115
_symmetry_space_group_name_H-M "C 2/C"
_symmetry_group_IT_number 15
_symmetry_cell_setting 'monoclinic'
loop_
_space_group_symop_operation_xyz
x,y,z
-x,y,1/2-z
-x,-y,-z
x,-y,1/2+z
1/2+x,1/2+y,z
1/2-x,1/2+y,1/2-z
1/2-x,1/2-y,-z
1/2+x,1/2-y,1/2+z
loop_
_atom_site_type_symbol
_atom_site_label
_atom_site_fract_x
_atom_site_fract_y
_atom_site_fract_z
Si Si1 0.712018 0.035192 0.876153
Si Si2 0.167930 0.032682 0.474550
Si Si3 0.500000 0.091981 0.750000
Si Si4 0.869278 0.286170 0.520137
Si Si5 0.058808 0.285003 0.438691
Si Si6 0.678307 0.950916 0.160976
O O1 0.638407 0.114231 0.954472
O O2 0.717780 0.092099 0.762694
O O3 0.805487 0.056631 0.913795
O O4 0.681804 0.873703 0.887241
O O5 0.141635 0.875250 0.456745
O O6 0.255558 0.064640 0.395325
O O7 0.087925 0.127362 0.455429
O O8 0.461071 0.197230 0.675044
O O9 0.421052 0.995438 0.804357
O O10 0.828941 0.322620 0.416787
O O11 0.971722 0.321719 0.513188
#
# Coordination Sequence:
#
# PCOD8137413 Si02
#       6
#     8   8   4   8   8   8
#     4  10  20  36  59  82 111 153 192 232 274 332
#     4  11  22  36  59  89 117 146 183 239 290 332
#     4   8  18  36  58  78 110 160 192 224 276 340
#     4  10  21  39  59  82 115 154 189 227 284 342
#     4  10  20  36  58  84 115 150 191 233 278 334
#     4   9  19  35  58  83 109 147 195 226 270 336
#
# _framework density 22.084705
#
# number of rings (size 3 to 8) (size 9 to 14) (size 15 to 20)
#    0.000    2.182    0.000    3.818    0.000    8.727 
#    0.000    0.000    0.000   10.909    0.000    0.000 
#    0.000    0.000    0.000    0.000    0.000    0.000 
#
# Total GULP energy -272539.095248 kJ/mol
# GULP energy per Si atom -12388.140693 kJ/mol
# Density = 2.203444 g / cm^3
# Si number density = 22.084705 Si / 1000 Ang^3
#
#
#
# Elastic Constant Matrix: (Units=GPa)
#
#
# Indices 1 2 3 4 5 6 
#
# 1 65.4552 -1.2046 14.3951 0.0000 8.5119 0.0000
# 2 -1.2046 61.6513 1.7111 0.0000 13.1267 0.0000
# 3 14.3951 1.7111 71.8036 0.0000 2.4923 0.0000
# 4 0.0000 0.0000 0.0000 16.0677 0.0000 6.3760
# 5 8.5119 13.1267 2.4923 0.0000 26.9000 0.0000
# 6 0.0000 0.0000 0.0000 6.3760 0.0000 41.0844
#
#
#
# Elastic Compliance Matrix: (Units=1/GPa)
#
#
# Indices 1 2 3 4 5 6 
#
# 1 0.016768 0.001655 -0.003199 0.000000 -0.005817 0.000000
# 2 0.001655 0.018265 -0.000441 0.000000 -0.009396 0.000000
# 3 -0.003199 -0.000441 0.014583 0.000000 -0.000124 0.000000
# 4 0.000000 0.000000 0.000000 0.066321 0.000000 -0.010293
# 5 -0.005817 -0.009396 -0.000124 0.000000 0.043612 0.000000
# 6 0.000000 0.000000 0.000000 -0.010293 0.000000 0.025937
#
#
# Mechanical properties :
#
#
# Convention : Reuss Voigt Hill
#
# Bulk Modulus (GPa) = 21.90755 25.41258 23.66007
# Shear Modulus (GPa) = 24.42922 29.07764 26.75343
#
# Velocity S-wave (km/s) = 3.32951 3.63249 3.48429
# Velocity P-wave (km/s) = 4.97214 5.39678 5.18880
#
# Compressibility (1/GPa) = 0.04564637
#
# Stress axis : x y z
#
# Youngs Moduli (GPa) = 59.63695 54.74830 68.57276
#
# Poissons Ratio (x) = -0.09061 0.21938
# Poissons Ratio (y) = -0.09870 0.03024
# Poissons Ratio (z) = 0.19079 0.02414
#
# Static dielectric constant tensor:
#      x y z
#    x 4.471150 0.000000 -0.131530 
#    y 0.000000 3.537420 0.000000 
#    z -0.131530 0.000000 3.948720 
# 
# 
# High freq. dielectric constant tensor:
#      x y z
#    x 1.887580 0.000000 0.006800 
#    y 0.000000 1.828510 0.000000 
#    z 0.006800 0.000000 1.856640 
# 
# From -- ./inp_files/159340.got.cif
#   From: 2010.06.25/outbox.cif.g09.slc.cpg/sg15_80_cif.got.tgz:159340.got - 2010.06.28 07:06:18.
