data_PCOD8137968
_publ_section_title
;
Structure prediction by ZEFSAII (Michael W. Deem and Ramdas Pophale) SiO2 
 PCOD8137968
Probable space group: C 2/C
;
_chemical_formula_sum "Si O2"
_cell_formula_units_Z 56
_cell_length_a 21.316828
_cell_length_b 24.484000
_cell_length_c 17.480453
_cell_angle_alpha 90.000000
_cell_angle_beta 159.682738
_cell_angle_gamma 90.000000
_cell_volume 3167.817243
_symmetry_space_group_name_H-M "C 2/C"
_symmetry_group_IT_number 15
_symmetry_cell_setting 'monoclinic'
loop_
_space_group_symop_operation_xyz
x,y,z
-x,y,1/2-z
-x,-y,-z
x,-y,1/2+z
1/2+x,1/2+y,z
1/2-x,1/2+y,1/2-z
1/2-x,1/2-y,-z
1/2+x,1/2-y,1/2+z
loop_
_atom_site_type_symbol
_atom_site_label
_atom_site_fract_x
_atom_site_fract_y
_atom_site_fract_z
Si Si1 0.381710 0.171937 0.777065
Si Si2 0.817849 0.866937 0.585182
Si Si3 0.147395 0.579082 0.639147
Si Si4 0.935573 0.042742 0.864419
Si Si5 0.650267 0.776361 0.487750
Si Si6 0.215842 0.474307 0.821355
Si Si7 0.787513 0.483993 0.014992
O O1 0.345009 0.132433 0.662636
O O2 0.382312 0.137575 0.855212
O O3 0.575254 0.198880 0.981375
O O4 0.231967 0.218969 0.605550
O O5 0.799022 0.818796 0.626097
O O6 0.814957 0.926812 0.618567
O O7 0.000000 0.855023 0.750000
O O8 0.319538 0.588069 0.778990
O O9 0.188422 0.531642 0.746948
O O10 0.962395 0.563253 0.384006
O O11 0.783070 0.021459 0.633052
O O12 0.116231 0.060224 0.024156
O O13 0.000000 0.000000 0.000000
O O14 0.500000 0.767002 0.250000
O O15 0.266575 0.489186 0.966114
O O16 0.000000 0.475907 0.250000
#
# Coordination Sequence:
#
# PCOD8137968 Si02
#       7
#     8   8   8   8   8   8   8
#     4  11  20  37  50  76 105 149 187 236 284 326
#     4  11  21  31  51  77 104 151 194 230 271 331
#     4  10  21  36  54  76 114 147 187 236 288 320
#     4  10  22  36  52  80 112 147 187 236 278 334
#     4  10  21  35  51  71 107 143 196 243 271 330
#     4  10  20  37  54  80 110 146 193 235 269 347
#     4  12  21  35  56  82 115 154 194 225 280 346
#
# _framework density 17.677786999999999
#
# number of rings (size 3 to 8) (size 9 to 14) (size 15 to 20)
#    0.000    1.429    2.857    5.571    2.000    0.000 
#    2.571    0.000    0.000    0.000    0.000    0.000 
#    0.000    4.571    0.000    0.000    0.000    0.000 
#
# Total GULP energy -346994.232265 kJ/mol
# GULP energy per Si atom -12392.651152 kJ/mol
# Density = 1.763755 g / cm^3
# Si number density = 17.677787 Si / 1000 Ang^3
#
#
#
# Elastic Constant Matrix: (Units=GPa)
#
#
# Indices 1 2 3 4 5 6 
#
# 1 96.8477 44.7893 40.0951 -0.0002 18.9495 -0.0001
# 2 44.7893 69.6496 26.6378 -0.0002 5.3825 -0.0001
# 3 40.0951 26.6378 76.5975 -0.0011 18.5375 -0.0007
# 4 -0.0002 -0.0002 -0.0011 15.7311 -0.0004 -0.7918
# 5 18.9495 5.3825 18.5375 -0.0004 42.3450 -0.0003
# 6 -0.0001 -0.0001 -0.0007 -0.7918 -0.0003 29.3841
#
#
#
# Elastic Compliance Matrix: (Units=1/GPa)
#
#
# Indices 1 2 3 4 5 6 
#
# 1 0.017370 -0.008952 -0.004892 0.000000 -0.004494 0.000000
# 2 -0.008952 0.021182 -0.003354 0.000000 0.002782 0.000000
# 3 -0.004892 -0.003354 0.018063 0.000001 -0.005292 0.000000
# 4 0.000000 0.000000 0.000001 0.063655 0.000000 0.001715
# 5 -0.004494 0.002782 -0.005292 0.000000 0.027590 0.000000
# 6 0.000000 0.000000 0.000000 0.001715 0.000000 0.034078
#
#
# Mechanical properties :
#
#
# Convention : Reuss Voigt Hill
#
# Bulk Modulus (GPa) = 45.00377 51.79324 48.39850
# Shear Modulus (GPa) = 22.34755 26.26355 24.30555
#
# Velocity S-wave (km/s) = 3.55936 3.85863 3.71201
# Velocity P-wave (km/s) = 6.51192 7.01528 6.76828
#
# Compressibility (1/GPa) = 0.02222036
#
# Stress axis : x y z
#
# Youngs Moduli (GPa) = 57.57097 47.21024 55.36245
#
# Poissons Ratio (x) = 0.42262 0.27081
# Poissons Ratio (y) = 0.51537 0.18566
# Poissons Ratio (z) = 0.28161 0.15832
#
# Static dielectric constant tensor:
#      x y z
#    x 3.529440 0.000000 0.381070 
#    y 0.000000 3.014800 0.000000 
#    z 0.381070 0.000000 3.428450 
# 
# 
# High freq. dielectric constant tensor:
#      x y z
#    x 1.681960 0.000000 0.032980 
#    y 0.000000 1.644030 0.000000 
#    z 0.032980 0.000000 1.684970 
# 
# From -- ./inp_files/157210.got.cif
#   From: 2010.06.25/outbox.cif.g09.slc.cpg/sg15_79_cif.got.tgz:157210.got - 2010.06.28 07:06:18.
