data_PCOD8137608
_publ_section_title
;
Structure prediction by ZEFSAII (Michael W. Deem and Ramdas Pophale) SiO2 
 PCOD8137608
Probable space group: C 2/C
;
_chemical_formula_sum "Si O2"
_cell_formula_units_Z 44
_cell_length_a 17.443650
_cell_length_b 17.142617
_cell_length_c 8.099688
_cell_angle_alpha 90.000000
_cell_angle_beta 129.751348
_cell_angle_gamma 90.000000
_cell_volume 1862.135516
_symmetry_space_group_name_H-M "C 2/C"
_symmetry_group_IT_number 15
_symmetry_cell_setting 'monoclinic'
loop_
_space_group_symop_operation_xyz
x,y,z
-x,y,1/2-z
-x,-y,-z
x,-y,1/2+z
1/2+x,1/2+y,z
1/2-x,1/2+y,1/2-z
1/2-x,1/2-y,-z
1/2+x,1/2-y,1/2+z
loop_
_atom_site_type_symbol
_atom_site_label
_atom_site_fract_x
_atom_site_fract_y
_atom_site_fract_z
Si Si1 0.386417 0.881407 0.949398
Si Si2 0.000000 0.980655 0.250000
Si Si3 0.631375 0.423583 0.155649
Si Si4 0.936994 0.337478 0.509992
Si Si5 0.840390 0.474164 0.558134
Si Si6 0.763954 0.236136 0.713292
O O1 0.495009 0.843373 0.061803
O O2 0.355026 0.939230 0.758613
O O3 0.306228 0.812789 0.859453
O O4 0.381807 0.936215 0.106346
O O5 0.958062 0.924347 0.334478
O O6 0.090854 0.035214 0.435537
O O7 0.724575 0.472618 0.351979
O O8 0.660094 0.334899 0.154706
O O9 0.902031 0.423903 0.510842
O O10 0.842288 0.281953 0.347084
O O11 0.000000 0.301584 0.750000
O O12 0.750000 0.250000 0.500000
#
# Coordination Sequence:
#
# PCOD8137608 Si02
#       6
#     8   4   8   8   8   8
#     4  11  21  38  64  92 124 160 208 256 313 364
#     4  10  22  40  62  92 118 172 206 258 310 380
#     4  10  21  38  62  89 126 159 215 257 313 375
#     4   9  18  34  58  87 118 154 200 254 297 369
#     4  10  20  36  60  88 121 159 207 261 299 369
#     4  11  20  37  60  94 125 159 204 262 310 370
#
# _framework density 23.628786000000002
#
# number of rings (size 3 to 8) (size 9 to 14) (size 15 to 20)
#    0.000    1.818    5.455    1.636    0.000    1.455 
#    3.273    0.000   10.000    3.273    0.000    0.000 
#    0.000    0.000    0.000    0.000    0.000    0.000 
#
# Total GULP energy -272828.901330 kJ/mol
# GULP energy per Si atom -12401.313697 kJ/mol
# Density = 2.357501 g / cm^3
# Si number density = 23.628786 Si / 1000 Ang^3
#
#
#
# Elastic Constant Matrix: (Units=GPa)
#
#
# Indices 1 2 3 4 5 6 
#
# 1 91.2755 66.1461 32.7134 0.0000 25.8090 0.0000
# 2 66.1461 148.6337 30.9115 0.0000 18.8101 0.0000
# 3 32.7134 30.9115 61.7648 0.0000 26.1097 0.0000
# 4 0.0000 0.0000 0.0000 35.8181 0.0000 1.5271
# 5 25.8090 18.8101 26.1097 0.0000 33.2082 0.0000
# 6 0.0000 0.0000 0.0000 1.5271 0.0000 26.9696
#
#
#
# Elastic Compliance Matrix: (Units=1/GPa)
#
#
# Indices 1 2 3 4 5 6 
#
# 1 0.019633 -0.006959 -0.003193 0.000000 -0.008806 0.000000
# 2 -0.006959 0.010061 -0.001837 0.000000 0.001154 0.000000
# 3 -0.003193 -0.001837 0.025931 0.000000 -0.016865 0.000000
# 4 0.000000 0.000000 0.000000 0.027986 0.000000 -0.001585
# 5 -0.008806 0.001154 -0.016865 0.000000 0.049564 0.000000
# 6 0.000000 0.000000 0.000000 -0.001585 0.000000 0.037169
#
#
# Mechanical properties :
#
#
# Convention : Reuss Voigt Hill
#
# Bulk Modulus (GPa) = 31.59949 62.35735 46.97842
# Shear Modulus (GPa) = 24.40552 30.65935 27.53243
#
# Velocity S-wave (km/s) = 3.21732 3.60605 3.41722
# Velocity P-wave (km/s) = 5.21573 6.61709 5.95776
#
# Compressibility (1/GPa) = 0.03164608
#
# Stress axis : x y z
#
# Youngs Moduli (GPa) = 50.93359 99.39495 38.56416
#
# Poissons Ratio (x) = 0.69167 0.12315
# Poissons Ratio (y) = 0.35444 0.07086
# Poissons Ratio (z) = 0.16265 0.18263
#
# Static dielectric constant tensor:
#      x y z
#    x 4.353290 0.000000 0.319920 
#    y 0.000000 4.233430 0.000000 
#    z 0.319920 0.000000 4.262030 
# 
# 
# High freq. dielectric constant tensor:
#      x y z
#    x 1.937890 0.000000 0.018580 
#    y 0.000000 1.921670 0.000000 
#    z 0.018580 0.000000 1.931910 
# 
# From -- ./inp_files/49286.got.cif
#   From: 2010.06.25/outbox.cif.g09.slc.cpg/sg15_25_cif.got.tgz:49286.got - 2010.06.28 07:06:18.
