data_PCOD8137932
_publ_section_title
;
Structure prediction by ZEFSAII (Michael W. Deem and Ramdas Pophale) SiO2 
 PCOD8137932
Probable space group: C 2/C
;
_chemical_formula_sum "Si O2"
_cell_formula_units_Z 64
_cell_length_a 19.558914
_cell_length_b 9.113207
_cell_length_c 21.238778
_cell_angle_alpha 90.000000
_cell_angle_beta 60.092262
_cell_angle_gamma 90.000000
_cell_volume 3281.550860
_symmetry_space_group_name_H-M "C 2/C"
_symmetry_group_IT_number 15
_symmetry_cell_setting 'monoclinic'
loop_
_space_group_symop_operation_xyz
x,y,z
-x,y,1/2-z
-x,-y,-z
x,-y,1/2+z
1/2+x,1/2+y,z
1/2-x,1/2+y,1/2-z
1/2-x,1/2-y,-z
1/2+x,1/2-y,1/2+z
loop_
_atom_site_type_symbol
_atom_site_label
_atom_site_fract_x
_atom_site_fract_y
_atom_site_fract_z
Si Si1 0.974036 0.201419 0.690463
Si Si2 0.411639 0.445711 0.029396
Si Si3 0.810973 0.309219 0.184386
Si Si4 0.838352 0.029424 0.695594
Si Si5 0.783437 0.603529 0.558019
Si Si6 0.954424 0.525098 0.117525
Si Si7 0.591782 0.873634 0.995894
Si Si8 0.136349 0.847180 0.051026
O O1 0.903698 0.081964 0.716729
O O2 0.946460 0.361022 0.678576
O O3 0.000000 0.217637 0.750000
O O4 0.047411 0.148973 0.615444
O O5 0.368830 0.416834 0.114546
O O6 0.408313 0.298391 0.989353
O O7 0.500000 0.500000 0.000000
O O8 0.360036 0.561842 0.014910
O O9 0.743255 0.387306 0.255453
O O10 0.787373 0.308212 0.121781
O O11 0.891266 0.397700 0.157041
O O12 0.824859 0.145298 0.204142
O O13 0.820385 0.441296 0.546622
O O14 0.833401 0.685391 0.480709
O O15 0.692813 0.585925 0.578969
O O16 0.946113 0.610399 0.055676
O O17 0.040450 0.450053 0.074426
#
# Coordination Sequence:
#
# PCOD8137932 Si02
#       8
#     8   8   8   8   8   8   8   8
#     4  12  24  42  65  91 129 174 213 262 329 394
#     4  12  22  39  68  96 125 164 217 271 315 380
#     4  11  24  40  65  92 126 164 212 269 319 381
#     4  12  24  41  64  97 126 169 216 264 326 386
#     4  10  22  40  63  93 127 164 207 262 313 384
#     4  10  20  39  63  95 122 161 212 262 315 382
#     4  10  20  36  67  94 123 158 213 268 311 369
#     4  11  22  40  63  94 127 167 215 255 321 381
#
# _framework density 19.502973000000001
#
# number of rings (size 3 to 8) (size 9 to 14) (size 15 to 20)
#    0.000    1.000    5.000    2.250    3.500    0.500 
#    0.000    0.625    2.750    0.000    0.000    0.000 
#    0.000    0.000    0.000    0.000    0.000    0.000 
#
# Total GULP energy -396859.666672 kJ/mol
# GULP energy per Si atom -12401.864584 kJ/mol
# Density = 1.945858 g / cm^3
# Si number density = 19.502973 Si / 1000 Ang^3
#
#
#
# Elastic Constant Matrix: (Units=GPa)
#
#
# Indices 1 2 3 4 5 6 
#
# 1 95.7985 54.8261 27.5508 0.0000 6.8624 0.0000
# 2 54.8261 123.3976 26.1846 0.0002 -3.4498 0.0004
# 3 27.5508 26.1846 83.9744 0.0000 -3.4075 0.0001
# 4 0.0000 0.0002 0.0000 30.3689 0.0000 -3.3106
# 5 6.8624 -3.4498 -3.4075 0.0000 37.0898 0.0001
# 6 0.0000 0.0004 0.0001 -3.3106 0.0001 25.6169
#
#
#
# Elastic Compliance Matrix: (Units=1/GPa)
#
#
# Indices 1 2 3 4 5 6 
#
# 1 0.015142 -0.006151 -0.003198 0.000000 -0.003667 0.000000
# 2 -0.006151 0.011189 -0.001387 0.000000 0.002051 0.000000
# 3 -0.003198 -0.001387 0.013459 0.000000 0.001699 0.000000
# 4 0.000000 0.000000 0.000000 0.033399 0.000000 0.004316
# 5 -0.003667 0.002051 0.001699 0.000000 0.027987 0.000000
# 6 0.000000 0.000000 0.000000 0.004316 0.000000 0.039595
#
#
# Mechanical properties :
#
#
# Convention : Reuss Voigt Hill
#
# Bulk Modulus (GPa) = 54.59944 57.81038 56.20491
# Shear Modulus (GPa) = 29.70010 31.58905 30.64458
#
# Velocity S-wave (km/s) = 3.90660 4.02892 3.96823
# Velocity P-wave (km/s) = 6.95737 7.16583 7.06237
#
# Compressibility (1/GPa) = 0.01831521
#
# Stress axis : x y z
#
# Youngs Moduli (GPa) = 66.04337 89.37601 74.29780
#
# Poissons Ratio (x) = 0.54978 0.23764
# Poissons Ratio (y) = 0.40625 0.10308
# Poissons Ratio (z) = 0.21124 0.12400
#
# Static dielectric constant tensor:
#      x y z
#    x 3.595760 0.000000 -0.099640 
#    y 0.000000 3.608860 0.000000 
#    z -0.099640 0.000000 3.559080 
# 
# 
# High freq. dielectric constant tensor:
#      x y z
#    x 1.757200 0.000000 -0.014740 
#    y 0.000000 1.761990 0.000000 
#    z -0.014740 0.000000 1.755460 
# 
# From -- ./inp_files/251864.got.cif
#   From: 2010.06.25/outbox.cif.g09.slc.cpg/sg15_126_cif.got.tgz:251864.got - 2010.06.28 07:06:18.
