data_PCOD8137875
_publ_section_title
;
Structure prediction by ZEFSAII (Michael W. Deem and Ramdas Pophale) SiO2 
 PCOD8137875
Probable space group: C 2/C
;
_chemical_formula_sum "Si O2"
_cell_formula_units_Z 52
_cell_length_a 24.626885
_cell_length_b 7.925071
_cell_length_c 15.380627
_cell_angle_alpha 90.000000
_cell_angle_beta 133.919678
_cell_angle_gamma 90.000000
_cell_volume 2162.259883
_symmetry_space_group_name_H-M "C 2/C"
_symmetry_group_IT_number 15
_symmetry_cell_setting 'monoclinic'
loop_
_space_group_symop_operation_xyz
x,y,z
-x,y,1/2-z
-x,-y,-z
x,-y,1/2+z
1/2+x,1/2+y,z
1/2-x,1/2+y,1/2-z
1/2-x,1/2-y,-z
1/2+x,1/2-y,1/2+z
loop_
_atom_site_type_symbol
_atom_site_label
_atom_site_fract_x
_atom_site_fract_y
_atom_site_fract_z
Si Si1 0.390706 0.894171 0.847071
Si Si2 0.000000 0.567261 0.750000
Si Si3 0.364889 0.152069 0.127091
Si Si4 0.980238 0.722110 0.908189
Si Si5 0.751394 0.099347 0.793652
Si Si6 0.158959 0.083111 0.238191
Si Si7 0.794842 0.995229 0.022620
O O1 0.395721 0.808781 0.757823
O O2 0.435444 0.069076 0.902076
O O3 0.304172 0.935188 0.776814
O O4 0.434285 0.764916 0.960164
O O5 0.070735 0.447001 0.854683
O O6 0.018794 0.692577 0.693402
O O7 0.343162 0.326658 0.057126
O O8 0.292196 0.034754 0.052165
O O9 0.931154 0.891217 0.873585
O O10 0.702569 0.267687 0.736409
O O11 0.810268 0.087997 0.776313
O O12 0.798632 0.099048 0.936881
O O13 0.173780 0.091679 0.358202
#
# Coordination Sequence:
#
# PCOD8137875 Si02
#       7
#     8   4   8   8   8   8   8
#     4   8  17  36  57  86 121 164 213 267 305 392
#     4  10  20  36  64  96 122 178 214 260 326 404
#     4   9  20  36  64  92 121 170 221 263 328 387
#     4   9  19  37  60  91 129 163 221 263 316 385
#     4  10  23  38  65  94 127 173 220 260 342 380
#     4  11  24  41  65 101 130 172 218 276 329 396
#     4  10  22  41  62  93 138 163 216 285 327 389
#
# _framework density 24.048912999999999
#
# number of rings (size 3 to 8) (size 9 to 14) (size 15 to 20)
#    0.000    2.462    0.000    1.385    8.615    3.692 
#    0.000    1.538    0.000    0.000    0.000    0.000 
#    0.000    0.000    0.000    0.000    0.000    0.000 
#
# Total GULP energy -322267.135151 kJ/mol
# GULP energy per Si atom -12394.889813 kJ/mol
# Density = 2.399418 g / cm^3
# Si number density = 24.048913 Si / 1000 Ang^3
#
#
#
# Elastic Constant Matrix: (Units=GPa)
#
#
# Indices 1 2 3 4 5 6 
#
# 1 92.2968 15.3813 19.6700 0.0000 -1.4094 0.0000
# 2 15.3813 12.4344 -0.5046 0.0000 2.4834 0.0000
# 3 19.6700 -0.5046 106.2864 0.0000 4.0485 0.0000
# 4 0.0000 0.0000 0.0000 24.2675 0.0000 0.4599
# 5 -1.4094 2.4834 4.0485 0.0000 24.0518 0.0000
# 6 0.0000 0.0000 0.0000 0.4599 0.0000 34.6967
#
#
#
# Elastic Compliance Matrix: (Units=1/GPa)
#
#
# Indices 1 2 3 4 5 6 
#
# 1 0.014662 -0.018915 -0.002929 0.000000 0.003305 0.000000
# 2 -0.018915 0.106573 0.004497 0.000000 -0.012869 0.000000
# 3 -0.002929 0.004497 0.010061 0.000000 -0.002329 0.000000
# 4 0.000000 0.000000 0.000000 0.041218 0.000000 -0.000546
# 5 0.003305 -0.012869 -0.002329 0.000000 0.043492 0.000000
# 6 0.000000 0.000000 0.000000 -0.000546 0.000000 0.028828
#
#
# Mechanical properties :
#
#
# Convention : Reuss Voigt Hill
#
# Bulk Modulus (GPa) = 10.35198 31.12343 20.73770
# Shear Modulus (GPa) = 16.03963 28.36792 22.20378
#
# Velocity S-wave (km/s) = 2.58536 3.43825 3.04184
# Velocity P-wave (km/s) = 3.63675 5.36021 4.58028
#
# Compressibility (1/GPa) = 0.09659992
#
# Stress axis : x y z
#
# Youngs Moduli (GPa) = 68.20563 9.38326 99.39682
#
# Poissons Ratio (x) = 0.17749 0.29114
# Poissons Ratio (y) = 1.29013 -0.44696
# Poissons Ratio (z) = 0.19978 -0.04219
#
# Static dielectric constant tensor:
#      x y z
#    x 4.327860 0.000000 0.295170 
#    y 0.000000 4.033070 0.000000 
#    z 0.295170 0.000000 4.554400 
# 
# 
# High freq. dielectric constant tensor:
#      x y z
#    x 1.947590 0.000000 0.010590 
#    y 0.000000 1.936700 0.000000 
#    z 0.010590 0.000000 1.955840 
# 
# From -- ./inp_files/176710.got.cif
#   From: 2010.06.25/outbox.cif.g09.slc.cpg/sg15_89_cif.got.tgz:176710.got - 2010.06.28 07:06:18.
