data_PCOD8137441
_publ_section_title
;
Structure prediction by ZEFSAII (Michael W. Deem and Ramdas Pophale) SiO2 
 PCOD8137441
Probable space group: C 2/C
;
_chemical_formula_sum "Si O2"
_cell_formula_units_Z 60
_cell_length_a 9.040682
_cell_length_b 16.190800
_cell_length_c 21.559280
_cell_angle_alpha 90.000000
_cell_angle_beta 106.945029
_cell_angle_gamma 90.000000
_cell_volume 3018.750648
_symmetry_space_group_name_H-M "C 2/C"
_symmetry_group_IT_number 15
_symmetry_cell_setting 'monoclinic'
loop_
_space_group_symop_operation_xyz
x,y,z
-x,y,1/2-z
-x,-y,-z
x,-y,1/2+z
1/2+x,1/2+y,z
1/2-x,1/2+y,1/2-z
1/2-x,1/2-y,-z
1/2+x,1/2-y,1/2+z
loop_
_atom_site_type_symbol
_atom_site_label
_atom_site_fract_x
_atom_site_fract_y
_atom_site_fract_z
Si Si1 0.629162 0.856521 0.591969
Si Si2 0.500000 0.099586 0.750000
Si Si3 0.353604 0.033687 0.851014
Si Si4 0.357734 0.092036 0.544308
Si Si5 0.890603 0.860535 0.129506
Si Si6 0.646344 0.555733 0.006592
Si Si7 0.789288 0.297003 0.566933
Si Si8 0.769365 0.817244 0.354897
O O1 0.659781 0.859345 0.522110
O O2 0.449917 0.843835 0.580511
O O3 0.726877 0.780998 0.633009
O O4 0.679657 0.940043 0.633028
O O5 0.429722 0.037545 0.792433
O O6 0.371401 0.160752 0.707063
O O7 0.464130 0.083427 0.912640
O O8 0.187872 0.081307 0.828357
O O9 0.250244 0.138080 0.581300
O O10 0.299867 0.998821 0.528786
O O11 0.802982 0.770986 0.122999
O O12 0.074057 0.848571 0.159977
O O13 0.859715 0.903526 0.060616
O O14 0.661211 0.629915 0.060141
O O15 0.500000 0.500000 0.000000
O O16 0.750000 0.250000 0.500000
#
# Coordination Sequence:
#
# PCOD8137441 Si02
#       8
#     8   4   8   8   8   8   8   8
#     4  11  20  36  64  94 119 156 203 246 302 363
#     4  10  26  48  60  78 118 164 208 254 314 344
#     4  11  22  40  65  87 119 163 202 252 296 366
#     4  11  19  34  60  95 132 158 184 243 314 362
#     4  10  20  36  58  87 114 160 199 241 298 352
#     4  11  18  30  52  91 134 155 185 232 295 370
#     4   9  19  32  50  84 129 157 185 225 286 366
#     4  10  23  41  61  86 125 161 200 250 300 363
#
# _framework density 19.875771
#
# number of rings (size 3 to 8) (size 9 to 14) (size 15 to 20)
#    0.000    1.600    4.000    2.400    0.000    0.533 
#    4.800    4.000    0.000    0.000    0.000    0.000 
#    0.000    0.000    0.000    0.000    0.000    0.000 
#
# Total GULP energy -371814.526123 kJ/mol
# GULP energy per Si atom -12393.817537 kJ/mol
# Density = 1.983053 g / cm^3
# Si number density = 19.875771 Si / 1000 Ang^3
#
#
#
# Elastic Constant Matrix: (Units=GPa)
#
#
# Indices 1 2 3 4 5 6 
#
# 1 83.1582 45.7978 32.5924 0.0000 3.8607 0.0000
# 2 45.7978 116.7502 29.9734 0.0000 10.1827 0.0000
# 3 32.5924 29.9734 80.5359 0.0000 2.5626 0.0000
# 4 0.0000 0.0000 0.0000 13.2623 0.0000 3.3914
# 5 3.8607 10.1827 2.5626 0.0000 21.7897 0.0000
# 6 0.0000 0.0000 0.0000 3.3914 0.0000 38.4037
#
#
#
# Elastic Compliance Matrix: (Units=1/GPa)
#
#
# Indices 1 2 3 4 5 6 
#
# 1 0.016883 -0.005391 -0.004829 0.000000 0.000096 0.000000
# 2 -0.005391 0.011557 -0.001985 0.000000 -0.004212 0.000000
# 3 -0.004829 -0.001985 0.015110 0.000000 0.000006 0.000000
# 4 0.000000 0.000000 0.000000 0.077144 0.000000 -0.006813
# 5 0.000096 -0.004212 0.000006 0.000000 0.047844 0.000000
# 6 0.000000 0.000000 0.000000 -0.006813 0.000000 0.026641
#
#
# Mechanical properties :
#
#
# Convention : Reuss Voigt Hill
#
# Bulk Modulus (GPa) = 52.25087 55.24130 53.74609
# Shear Modulus (GPa) = 22.12697 26.16318 24.14507
#
# Velocity S-wave (km/s) = 3.34018 3.63207 3.48918
# Velocity P-wave (km/s) = 6.42040 6.74113 6.58272
#
# Compressibility (1/GPa) = 0.01913844
#
# Stress axis : x y z
#
# Youngs Moduli (GPa) = 59.23289 86.52594 66.18230
#
# Poissons Ratio (x) = 0.46648 0.31958
# Poissons Ratio (y) = 0.31934 0.13140
# Poissons Ratio (z) = 0.28603 0.17180
#
# Static dielectric constant tensor:
#      x y z
#    x -1.203020 0.000000 0.039950 
#    y 0.000000 3.493710 0.000000 
#    z 0.039950 0.000000 3.322850 
# 
# 
# High freq. dielectric constant tensor:
#      x y z
#    x 1.777090 0.000000 0.009770 
#    y 0.000000 1.791900 0.000000 
#    z 0.009770 0.000000 1.738350 
# 
# From -- ./inp_files/264345.got.cif
#   From: 2010.06.25/outbox.cif.g09.slc.cpg/sg15_133_cif.got.tgz:264345.got - 2010.06.28 07:06:18.
