data_PCOD8137474
_publ_section_title
;
Structure prediction by ZEFSAII (Michael W. Deem and Ramdas Pophale) SiO2 
 PCOD8137474
Probable space group: C 2/C
;
_chemical_formula_sum "Si O2"
_cell_formula_units_Z 60
_cell_length_a 20.819899
_cell_length_b 11.664035
_cell_length_c 11.633480
_cell_angle_alpha 90.000000
_cell_angle_beta 87.102262
_cell_angle_gamma 90.000000
_cell_volume 2821.508843
_symmetry_space_group_name_H-M "C 2/C"
_symmetry_group_IT_number 15
_symmetry_cell_setting 'monoclinic'
loop_
_space_group_symop_operation_xyz
x,y,z
-x,y,1/2-z
-x,-y,-z
x,-y,1/2+z
1/2+x,1/2+y,z
1/2-x,1/2+y,1/2-z
1/2-x,1/2-y,-z
1/2+x,1/2-y,1/2+z
loop_
_atom_site_type_symbol
_atom_site_label
_atom_site_fract_x
_atom_site_fract_y
_atom_site_fract_z
Si Si1 0.139684 0.414954 0.276147
Si Si2 0.000000 0.328385 0.250000
Si Si3 0.359101 0.770302 0.002206
Si Si4 0.048980 0.037773 0.850679
Si Si5 0.248637 0.172977 0.889307
Si Si6 0.680959 0.451731 0.870147
Si Si7 0.992728 0.811017 0.527259
Si Si8 0.301643 0.849266 0.769371
O O1 0.063054 0.404260 0.264613
O O2 0.159846 0.354823 0.392678
O O3 0.180879 0.353340 0.171539
O O4 0.152687 0.550857 0.284643
O O5 0.980392 0.250491 0.361372
O O6 0.337197 0.641387 0.032456
O O7 0.436295 0.767412 0.976998
O O8 0.323512 0.817109 0.894798
O O9 0.000000 0.045277 0.750000
O O10 0.121634 0.008999 0.804186
O O11 0.034715 0.933232 0.935612
O O12 0.045458 0.158257 0.923760
O O13 0.199094 0.234699 0.806032
O O14 0.218329 0.053041 0.932009
O O15 0.250000 0.250000 0.000000
O O16 0.728394 0.395667 0.772613
#
# Coordination Sequence:
#
# PCOD8137474 Si02
#       8
#     8   4   8   8   8   8   8   8
#     4  10  24  43  68  94 127 177 224 266 327 391
#     4  10  20  44  66  88 126 176 220 264 320 390
#     4  10  21  44  66  94 126 173 221 264 334 386
#     4  10  20  36  58  94 129 161 212 268 322 384
#     4  11  26  41  63  99 133 171 217 278 328 390
#     4  10  23  40  64  97 125 174 209 269 335 382
#     4   9  20  36  61  90 122 168 212 263 318 384
#     4  11  24  42  68  94 132 173 220 270 321 399
#
# _framework density 21.265218999999998
#
# number of rings (size 3 to 8) (size 9 to 14) (size 15 to 20)
#    0.000    1.867    2.000    0.400    7.467    1.067 
#    2.400    4.000    0.000    0.000    0.000    0.000 
#    0.000    0.000    0.000    0.000    0.000    0.000 
#
# Total GULP energy -371762.619061 kJ/mol
# GULP energy per Si atom -12392.087302 kJ/mol
# Density = 2.121682 g / cm^3
# Si number density = 21.265219 Si / 1000 Ang^3
#
#
#
# Elastic Constant Matrix: (Units=GPa)
#
#
# Indices 1 2 3 4 5 6 
#
# 1 105.6778 41.8852 46.7247 0.0000 9.3581 0.0000
# 2 41.8852 112.0834 39.8228 0.0000 -2.5368 0.0000
# 3 46.7247 39.8228 97.1323 0.0000 15.1998 0.0000
# 4 0.0000 0.0000 0.0000 21.5616 0.0000 1.3109
# 5 9.3581 -2.5368 15.1998 0.0000 21.2712 0.0000
# 6 0.0000 0.0000 0.0000 1.3109 0.0000 24.1577
#
#
#
# Elastic Compliance Matrix: (Units=1/GPa)
#
#
# Indices 1 2 3 4 5 6 
#
# 1 0.013010 -0.003360 -0.004416 0.000000 -0.002969 0.000000
# 2 -0.003360 0.011774 -0.004123 0.000000 0.005829 0.000000
# 3 -0.004416 -0.004123 0.015631 0.000000 -0.009718 0.000000
# 4 0.000000 0.000000 0.000000 0.046532 0.000000 -0.002525
# 5 -0.002969 0.005829 -0.009718 0.000000 0.055958 0.000000
# 6 0.000000 0.000000 0.000000 -0.002525 0.000000 0.041532
#
#
# Mechanical properties :
#
#
# Convention : Reuss Voigt Hill
#
# Bulk Modulus (GPa) = 60.18123 63.52878 61.85501
# Shear Modulus (GPa) = 23.38917 25.82881 24.60899
#
# Velocity S-wave (km/s) = 3.32004 3.48890 3.40552
# Velocity P-wave (km/s) = 6.56191 6.79479 6.67937
#
# Compressibility (1/GPa) = 0.01661648
#
# Stress axis : x y z
#
# Youngs Moduli (GPa) = 76.86451 84.93022 63.97601
#
# Poissons Ratio (x) = 0.28535 0.28254
# Poissons Ratio (y) = 0.25825 0.26379
# Poissons Ratio (z) = 0.33945 0.35018
#
# Static dielectric constant tensor:
#      x y z
#    x 4.178870 0.000000 -0.222980 
#    y 0.000000 4.071560 0.000000 
#    z -0.222980 0.000000 3.696660 
# 
# 
# High freq. dielectric constant tensor:
#      x y z
#    x 1.836460 0.000000 0.002710 
#    y 0.000000 1.838370 0.000000 
#    z 0.002710 0.000000 1.814210 
# 
# From -- ./inp_files/111644.got.cif
#   From: 2010.06.25/outbox.cif.g09.slc.cpg/sg15_56_cif.got.tgz:111644.got - 2010.06.28 07:06:18.
