data_PCOD8137839
_publ_section_title
;
Structure prediction by ZEFSAII (Michael W. Deem and Ramdas Pophale) SiO2 
 PCOD8137839
Probable space group: C 2/C
;
_chemical_formula_sum "Si O2"
_cell_formula_units_Z 64
_cell_length_a 9.000103
_cell_length_b 29.057892
_cell_length_c 15.460011
_cell_angle_alpha 90.000000
_cell_angle_beta 46.296553
_cell_angle_gamma 90.000000
_cell_volume 2922.906854
_symmetry_space_group_name_H-M "C 2/C"
_symmetry_group_IT_number 15
_symmetry_cell_setting 'monoclinic'
loop_
_space_group_symop_operation_xyz
x,y,z
-x,y,1/2-z
-x,-y,-z
x,-y,1/2+z
1/2+x,1/2+y,z
1/2-x,1/2+y,1/2-z
1/2-x,1/2-y,-z
1/2+x,1/2-y,1/2+z
loop_
_atom_site_type_symbol
_atom_site_label
_atom_site_fract_x
_atom_site_fract_y
_atom_site_fract_z
Si Si1 0.492891 0.297896 0.056754
Si Si2 0.072390 0.694721 0.029227
Si Si3 0.726406 0.931190 0.188994
Si Si4 0.866206 0.375420 0.718487
Si Si5 0.414439 0.380764 0.962960
Si Si6 0.116197 0.428673 0.953668
Si Si7 0.706253 0.652876 0.715663
Si Si8 0.220803 0.979359 0.178363
O O1 0.726479 0.308634 0.990837
O O2 0.342921 0.304740 0.199341
O O3 0.493964 0.244560 0.030048
O O4 0.414847 0.329944 0.007942
O O5 0.114293 0.666430 0.924150
O O6 0.891863 0.674379 0.162526
O O7 0.500000 0.938362 0.250000
O O8 0.717037 0.889657 0.260522
O O9 0.779850 0.979477 0.215782
O O10 0.885604 0.919797 0.048241
O O11 0.630461 0.387141 0.829853
O O12 0.950322 0.410632 0.613320
O O13 0.000000 0.380789 0.750000
O O14 0.236304 0.390064 0.962908
O O15 0.264400 0.472416 0.877158
O O16 0.903448 0.444511 0.080480
O O17 0.500000 0.638693 0.750000
O O18 0.000000 0.956615 0.250000
#
# Coordination Sequence:
#
# PCOD8137839 Si02
#       8
#     8   8   8   8   8   8   8   8
#     4   9  20  36  64  98 136 174 236 288 338 399
#     4  10  20  36  63  99 132 181 233 289 325 412
#     4  11  22  40  69  98 129 172 224 291 349 418
#     4  12  25  40  66  98 138 186 236 283 353 425
#     4  11  23  44  66  97 142 188 222 288 365 420
#     4  11  26  48  68  99 144 182 222 292 362 427
#     4   9  19  35  61  92 130 173 223 282 341 399
#     4  11  24  45  74 100 131 179 237 286 350 421
#
# _framework density 21.89601
#
# number of rings (size 3 to 8) (size 9 to 14) (size 15 to 20)
#    0.000    1.500    2.500    2.250    3.500    1.000 
#    0.000    1.875    0.000    0.000    0.000    0.000 
#    0.000    0.000    0.000    0.000    0.000    0.000 
#
# Total GULP energy -396445.718384 kJ/mol
# GULP energy per Si atom -12388.928700 kJ/mol
# Density = 2.184617 g / cm^3
# Si number density = 21.896010 Si / 1000 Ang^3
#
#
#
# Elastic Constant Matrix: (Units=GPa)
#
#
# Indices 1 2 3 4 5 6 
#
# 1 120.1776 50.3032 47.6956 0.0000 5.5519 0.0000
# 2 50.3032 64.3953 41.2345 0.0000 -0.2118 0.0000
# 3 47.6956 41.2345 128.9068 0.0000 2.3382 0.0000
# 4 0.0000 0.0000 0.0000 -8.7057 0.0000 0.3833
# 5 5.5519 -0.2118 2.3382 0.0000 35.9437 0.0000
# 6 0.0000 0.0000 0.0000 0.3833 0.0000 34.4423
#
#
#
# Elastic Compliance Matrix: (Units=1/GPa)
#
#
# Indices 1 2 3 4 5 6 
#
# 1 0.012862 -0.008839 -0.001897 0.000000 -0.001915 0.000000
# 2 -0.008839 0.025613 -0.004956 0.000000 0.001839 0.000000
# 3 -0.001897 -0.004956 0.010052 0.000000 -0.000390 0.000000
# 4 0.000000 0.000000 0.000000 -0.114811 0.000000 0.001278
# 5 -0.001915 0.001839 -0.000390 0.000000 0.028153 0.000000
# 6 0.000000 0.000000 0.000000 0.001278 0.000000 0.029020
#
#
# Mechanical properties :
#
#
# Convention : Reuss Voigt Hill
#
# Bulk Modulus (GPa) = 58.33156 65.77180 62.05168
# Shear Modulus (GPa) = 178.64744 23.95247 101.29996
#
# Velocity S-wave (km/s) = 9.04246 3.31103 6.80915
# Velocity P-wave (km/s) = 11.64988 6.68736 9.49843
#
# Compressibility (1/GPa) = 0.01714338
#
# Stress axis : x y z
#
# Youngs Moduli (GPa) = 77.74769 39.04204 99.48491
#
# Poissons Ratio (x) = 0.34510 0.18870
# Poissons Ratio (y) = 0.68722 0.49305
# Poissons Ratio (z) = 0.14747 0.19349
#
# Static dielectric constant tensor:
#      x y z
#    x 3.356830 0.000000 -0.348570 
#    y 0.000000 3.932720 0.000000 
#    z -0.348570 0.000000 3.806080 
# 
# 
# High freq. dielectric constant tensor:
#      x y z
#    x 1.853300 0.000000 0.007380 
#    y 0.000000 1.848150 0.000000 
#    z 0.007380 0.000000 1.882440 
# 
# From -- ./inp_files/139796.got.cif
#   From: 2010.06.25/outbox.cif.g09.slc.cpg/sg15_70_cif.got.tgz:139796.got - 2010.06.28 07:06:18.
