data_PCOD8137061
_publ_section_title
;
Structure prediction by ZEFSAII (Michael W. Deem and Ramdas Pophale) SiO2 
 PCOD8137061
Probable space group: C 2/C
;
_chemical_formula_sum "Si O2"
_cell_formula_units_Z 60
_cell_length_a 12.543968
_cell_length_b 19.760939
_cell_length_c 17.603038
_cell_angle_alpha 90.000000
_cell_angle_beta 38.656106
_cell_angle_gamma 90.000000
_cell_volume 2725.606297
_symmetry_space_group_name_H-M "C 2/C"
_symmetry_group_IT_number 15
_symmetry_cell_setting 'monoclinic'
loop_
_space_group_symop_operation_xyz
x,y,z
-x,y,1/2-z
-x,-y,-z
x,-y,1/2+z
1/2+x,1/2+y,z
1/2-x,1/2+y,1/2-z
1/2-x,1/2-y,-z
1/2+x,1/2-y,1/2+z
loop_
_atom_site_type_symbol
_atom_site_label
_atom_site_fract_x
_atom_site_fract_y
_atom_site_fract_z
Si Si1 0.809989 0.527303 0.114716
Si Si2 0.424295 0.350918 0.028069
Si Si3 0.500000 0.030068 0.250000
Si Si4 0.481881 0.767352 0.933349
Si Si5 0.354023 0.331230 0.386333
Si Si6 0.030960 0.051687 0.858274
Si Si7 0.237732 0.053565 0.985222
Si Si8 0.292543 0.874074 0.759990
O O1 0.690673 0.468445 0.216272
O O2 0.805993 0.592065 0.170658
O O3 0.738610 0.557106 0.075453
O O4 0.000000 0.500000 0.000000
O O5 0.603874 0.355772 0.887002
O O6 0.407281 0.271572 0.063180
O O7 0.398098 0.400913 0.114398
O O8 0.280791 0.372812 0.045503
O O9 0.637576 0.076888 0.214003
O O10 0.591067 0.983331 0.137312
O O11 0.371347 0.707681 0.956397
O O12 0.602134 0.804358 0.805595
O O13 0.335818 0.820676 0.043850
O O14 0.500000 0.302925 0.250000
O O15 0.387974 0.410209 0.385994
O O16 0.934343 0.986331 0.945706
#
# Coordination Sequence:
#
# PCOD8137061 Si02
#       8
#     8   8   4   8   8   8   8   8
#     4  12  26  41  64 103 140 179 226 284 345 412
#     4  11  24  43  68  96 134 183 225 274 341 423
#     4  12  24  38  72 104 140 170 222 290 352 408
#     4  10  24  38  59  95 130 176 227 270 332 402
#     4  10  20  35  59  90 129 169 210 276 339 403
#     4  11  22  40  65 100 135 171 218 277 356 411
#     4  12  23  42  65  99 136 178 221 277 346 409
#     4  12  24  43  65  98 138 178 225 283 342 410
#
# _framework density 22.013451
#
# number of rings (size 3 to 8) (size 9 to 14) (size 15 to 20)
#    0.000    0.800    4.000    4.000    6.533    0.000 
#    0.000    0.667    0.000    0.000    0.000    0.000 
#    0.000    0.000    0.000    0.000    0.000    0.000 
#
# Total GULP energy -371938.133706 kJ/mol
# GULP energy per Si atom -12397.937790 kJ/mol
# Density = 2.196335 g / cm^3
# Si number density = 22.013451 Si / 1000 Ang^3
#
#
#
# Elastic Constant Matrix: (Units=GPa)
#
#
# Indices 1 2 3 4 5 6 
#
# 1 72.5477 21.1946 5.0722 0.0146 15.5510 -0.0017
# 2 21.1946 75.9911 16.5345 -0.0030 0.0378 -0.0073
# 3 5.0722 16.5345 94.1076 -0.0358 7.8896 -0.0171
# 4 0.0146 -0.0030 -0.0358 20.7201 0.0054 -1.8832
# 5 15.5510 0.0378 7.8896 0.0054 30.8430 0.0119
# 6 -0.0017 -0.0073 -0.0171 -1.8832 0.0119 28.5401
#
#
#
# Elastic Compliance Matrix: (Units=1/GPa)
#
#
# Indices 1 2 3 4 5 6 
#
# 1 0.017045 -0.004897 0.000676 -0.000009 -0.008761 0.000003
# 2 -0.004897 0.015101 -0.002652 0.000000 0.003129 0.000001
# 3 0.000676 -0.002652 0.011327 0.000020 -0.003235 0.000009
# 4 -0.000009 0.000000 0.000020 0.048554 -0.000010 0.003204
# 5 -0.008761 0.003129 -0.003235 -0.000010 0.037663 -0.000018
# 6 0.000003 0.000001 0.000009 0.003204 -0.000018 0.035250
#
#
# Mechanical properties :
#
#
# Convention : Reuss Voigt Hill
#
# Bulk Modulus (GPa) = 33.63799 36.47211 35.05505
# Shear Modulus (GPa) = 26.51208 29.34365 27.92787
#
# Velocity S-wave (km/s) = 3.47415 3.65497 3.56571
# Velocity P-wave (km/s) = 5.60418 5.86650 5.73684
#
# Compressibility (1/GPa) = 0.02972829
#
# Stress axis : x y z
#
# Youngs Moduli (GPa) = 58.66695 66.22257 88.28633
#
# Poissons Ratio (x) = 0.32428 -0.05970
# Poissons Ratio (y) = 0.28728 0.23409
# Poissons Ratio (z) = -0.03967 0.17559
#
# Static dielectric constant tensor:
#      x y z
#    x 3.925830 0.000000 0.100790 
#    y 0.000000 4.167090 0.000010 
#    z 0.100790 0.000010 3.988570 
# 
# 
# High freq. dielectric constant tensor:
#      x y z
#    x 1.843970 0.000000 0.010830 
#    y 0.000000 1.855510 0.000000 
#    z 0.010830 0.000000 1.880560 
# 
# From -- ./inp_files/200511.got.cif
#   From: 2010.06.25/outbox.cif.g09.slc.cpg/sg15_101_cif.got.tgz:200511.got - 2010.06.28 07:06:18.
