data_PCOD8137086
_publ_section_title
;
Structure prediction by ZEFSAII (Michael W. Deem and Ramdas Pophale) SiO2 
 PCOD8137086
Probable space group: C 2/C
;
_chemical_formula_sum "Si O2"
_cell_formula_units_Z 56
_cell_length_a 17.115769
_cell_length_b 8.886969
_cell_length_c 22.429482
_cell_angle_alpha 90.000000
_cell_angle_beta 56.099983
_cell_angle_gamma 90.000000
_cell_volume 2831.742503
_symmetry_space_group_name_H-M "C 2/C"
_symmetry_group_IT_number 15
_symmetry_cell_setting 'monoclinic'
loop_
_space_group_symop_operation_xyz
x,y,z
-x,y,1/2-z
-x,-y,-z
x,-y,1/2+z
1/2+x,1/2+y,z
1/2-x,1/2+y,1/2-z
1/2-x,1/2-y,-z
1/2+x,1/2-y,1/2+z
loop_
_atom_site_type_symbol
_atom_site_label
_atom_site_fract_x
_atom_site_fract_y
_atom_site_fract_z
Si Si1 0.497014 0.285827 0.458983
Si Si2 0.217338 0.666859 0.668241
Si Si3 0.152108 0.563162 0.422140
Si Si4 0.056872 0.454642 0.170338
Si Si5 0.383454 0.159154 0.670774
Si Si6 0.122765 0.046910 0.392945
Si Si7 0.664037 0.132549 0.032776
O O1 0.554823 0.157309 0.470589
O O2 0.565944 0.399620 0.395528
O O3 0.427453 0.373441 0.531211
O O4 0.434650 0.214563 0.434674
O O5 0.267363 0.824578 0.634323
O O6 0.118714 0.677528 0.674521
O O7 0.197267 0.635367 0.746312
O O8 0.278147 0.518317 0.625048
O O9 0.140170 0.431981 0.378863
O O10 0.181981 0.489182 0.472394
O O11 0.140014 0.555646 0.106049
O O12 0.000000 0.534328 0.250000
O O13 0.986786 0.387963 0.150498
O O14 0.375730 0.337157 0.661862
O O15 0.750000 0.250000 0.000000
#
# Coordination Sequence:
#
# PCOD8137086 Si02
#       7
#     8   8   8   8   8   8   8
#     4  10  20  37  58  88 117 153 199 248 309 353
#     4  10  23  39  58  91 122 159 201 251 312 362
#     4  11  22  39  63  90 119 158 211 251 301 371
#     4  10  23  40  59  85 125 164 199 248 320 371
#     4  11  20  39  64  86 120 162 203 251 304 371
#     4  10  20  35  60  87 117 150 199 254 296 363
#     4  12  23  38  62  92 125 160 209 257 307 360
#
# _framework density 19.775808999999999
#
# number of rings (size 3 to 8) (size 9 to 14) (size 15 to 20)
#    0.000    1.429    2.857    3.000    0.000    1.714 
#    0.000    1.429    0.000    0.000    0.000    0.000 
#    0.000    0.000    0.000    0.000    0.000    0.000 
#
# Total GULP energy -346950.460028 kJ/mol
# GULP energy per Si atom -12391.087858 kJ/mol
# Density = 1.973080 g / cm^3
# Si number density = 19.775809 Si / 1000 Ang^3
#
#
#
# Elastic Constant Matrix: (Units=GPa)
#
#
# Indices 1 2 3 4 5 6 
#
# 1 71.2011 33.1697 40.6301 0.0000 -8.3211 0.0000
# 2 33.1697 112.2632 50.2634 -0.0001 -5.1332 0.0000
# 3 40.6301 50.2634 107.0919 0.0000 -4.5249 -0.0001
# 4 0.0000 -0.0001 0.0000 24.1941 0.0000 -6.0221
# 5 -8.3211 -5.1332 -4.5249 0.0000 25.9573 0.0000
# 6 0.0000 0.0000 -0.0001 -6.0221 0.0000 30.0958
#
#
#
# Elastic Compliance Matrix: (Units=1/GPa)
#
#
# Indices 1 2 3 4 5 6 
#
# 1 0.019201 -0.002898 -0.005731 0.000000 0.004583 0.000000
# 2 -0.002898 0.011760 -0.004393 0.000000 0.000631 0.000000
# 3 -0.005731 -0.004393 0.013560 0.000000 -0.000342 0.000000
# 4 0.000000 0.000000 0.000000 0.043499 0.000000 0.008704
# 5 0.004583 0.000631 -0.000342 0.000000 0.040059 0.000000
# 6 0.000000 0.000000 0.000000 0.008704 0.000000 0.034969
#
#
# Mechanical properties :
#
#
# Convention : Reuss Voigt Hill
#
# Bulk Modulus (GPa) = 54.12444 59.85362 56.98903
# Shear Modulus (GPa) = 25.60828 27.14895 26.37862
#
# Velocity S-wave (km/s) = 3.60242 3.70920 3.65620
# Velocity P-wave (km/s) = 6.68817 6.97682 6.83402
#
# Compressibility (1/GPa) = 0.01847594
#
# Stress axis : x y z
#
# Youngs Moduli (GPa) = 52.08193 85.03652 73.74825
#
# Poissons Ratio (x) = 0.24640 0.42265
# Poissons Ratio (y) = 0.15091 0.32400
# Poissons Ratio (z) = 0.29848 0.37360
#
# Static dielectric constant tensor:
#      x y z
#    x 3.703950 0.000000 -0.166190 
#    y 0.000000 3.858740 0.000000 
#    z -0.166190 0.000000 3.713620 
# 
# 
# High freq. dielectric constant tensor:
#      x y z
#    x 1.770770 0.000000 -0.012350 
#    y 0.000000 1.769710 0.000000 
#    z -0.012350 0.000000 1.780560 
# 
# From -- ./inp_files/276531.got.cif
#   From: 2010.06.25/outbox.cif.g09.slc.cpg/sg15_139_cif.got.tgz:276531.got - 2010.06.28 07:06:18.
