data_PCOD8137953
_publ_section_title
;
Structure prediction by ZEFSAII (Michael W. Deem and Ramdas Pophale) SiO2 
 PCOD8137953
Probable space group: C 2/C
;
_chemical_formula_sum "Si O2"
_cell_formula_units_Z 60
_cell_length_a 25.135569
_cell_length_b 21.148361
_cell_length_c 13.729763
_cell_angle_alpha 90.000000
_cell_angle_beta 23.163746
_cell_angle_gamma 90.000000
_cell_volume 2870.905808
_symmetry_space_group_name_H-M "C 2/C"
_symmetry_group_IT_number 15
_symmetry_cell_setting 'monoclinic'
loop_
_space_group_symop_operation_xyz
x,y,z
-x,y,1/2-z
-x,-y,-z
x,-y,1/2+z
1/2+x,1/2+y,z
1/2-x,1/2+y,1/2-z
1/2-x,1/2-y,-z
1/2+x,1/2-y,1/2+z
loop_
_atom_site_type_symbol
_atom_site_label
_atom_site_fract_x
_atom_site_fract_y
_atom_site_fract_z
Si Si1 0.292029 0.480597 0.093349
Si Si2 0.760648 0.382497 0.879356
Si Si3 0.950386 0.389555 0.021682
Si Si4 0.500000 0.811438 0.750000
Si Si5 0.940967 0.825401 0.119623
Si Si6 0.677895 0.766065 0.220614
Si Si7 0.764667 0.255625 0.778823
Si Si8 0.487603 0.451521 0.932465
O O1 0.300603 0.556286 0.069518
O O2 0.141293 0.452603 0.332483
O O3 0.349857 0.463366 0.102923
O O4 0.383990 0.452915 0.853535
O O5 0.782848 0.331189 0.757283
O O6 0.900533 0.406313 0.691684
O O7 0.659747 0.351803 0.128588
O O8 0.882465 0.335217 0.202075
O O9 0.959518 0.358330 0.902119
O O10 0.624945 0.766148 0.564796
O O11 0.879412 0.775131 0.149910
O O12 0.991660 0.882510 0.969565
O O13 0.069145 0.785810 0.944310
O O14 0.780921 0.767208 0.139179
O O15 0.750000 0.750000 0.000000
O O16 0.500000 0.500000 0.000000
#
# Coordination Sequence:
#
# PCOD8137953 Si02
#       8
#     8   8   8   4   8   8   8   8
#     4  11  26  42  68  96 134 177 221 274 325 402
#     4  12  23  42  67  99 135 167 223 276 333 394
#     4  11  22  43  64 100 133 172 221 268 340 394
#     4  10  20  36  70  96 130 170 216 272 330 396
#     4  12  23  43  72  97 132 176 219 278 332 393
#     4  11  25  42  69  96 136 175 220 278 331 397
#     4  11  23  40  66 102 129 168 219 274 331 391
#     4  11  24  44  66  95 130 175 222 267 329 393
#
# _framework density 20.899328000000001
#
# number of rings (size 3 to 8) (size 9 to 14) (size 15 to 20)
#    0.000    0.800    4.000    4.800    1.867    2.667 
#    0.000    0.000    0.000    0.000    0.000    0.000 
#    0.000    0.000    0.000    0.000    0.000    0.000 
#
# Total GULP energy -371938.870155 kJ/mol
# GULP energy per Si atom -12397.962339 kJ/mol
# Density = 2.085176 g / cm^3
# Si number density = 20.899328 Si / 1000 Ang^3
#
#
#
# Elastic Constant Matrix: (Units=GPa)
#
#
# Indices 1 2 3 4 5 6 
#
# 1 60.6152 11.7403 15.7273 0.0032 1.5891 -0.0039
# 2 11.7403 107.6406 2.9447 0.0015 3.6455 0.0023
# 3 15.7273 2.9447 66.9306 0.0038 2.5395 -0.0018
# 4 0.0032 0.0015 0.0038 28.1144 -0.0030 2.5229
# 5 1.5891 3.6455 2.5395 -0.0030 29.3651 0.0023
# 6 -0.0039 0.0023 -0.0018 2.5229 0.0023 7.3989
#
#
#
# Elastic Compliance Matrix: (Units=1/GPa)
#
#
# Indices 1 2 3 4 5 6 
#
# 1 0.017931 -0.001830 -0.004118 -0.000002 -0.000387 0.000010
# 2 -0.001830 0.009525 0.000052 0.000000 -0.001088 -0.000003
# 3 -0.004118 0.000052 0.015950 -0.000002 -0.001163 0.000003
# 4 -0.000002 0.000000 -0.000002 0.036692 0.000005 -0.012511
# 5 -0.000387 -0.001088 -0.001163 0.000005 0.034311 -0.000013
# 6 0.000010 -0.000003 0.000003 -0.012511 -0.000013 0.139421
#
#
# Mechanical properties :
#
#
# Convention : Reuss Voigt Hill
#
# Bulk Modulus (GPa) = 31.63112 32.89012 32.26062
# Shear Modulus (GPa) = 18.10550 26.62728 22.36639
#
# Velocity S-wave (km/s) = 2.94652 3.57329 3.27494
# Velocity P-wave (km/s) = 5.17145 5.72679 5.45619
#
# Compressibility (1/GPa) = 0.03161444
#
# Stress axis : x y z
#
# Youngs Moduli (GPa) = 55.77058 104.98483 62.69450
#
# Poissons Ratio (x) = 0.19211 0.25818
# Poissons Ratio (y) = 0.10206 -0.00327
# Poissons Ratio (z) = 0.22967 -0.00548
#
# Static dielectric constant tensor:
#      x y z
#    x 3.780390 0.000030 0.015300 
#    y 0.000030 3.688020 -0.000110 
#    z 0.015300 -0.000110 2.728480 
# 
# 
# High freq. dielectric constant tensor:
#      x y z
#    x 1.824390 0.000000 -0.005420 
#    y 0.000000 1.831030 0.000000 
#    z -0.005420 0.000000 1.812880 
# 
# From -- ./inp_files/179091.got.cif
#   From: 2010.06.25/outbox.cif.g09.slc.cpg/sg15_90_cif.got.tgz:179091.got - 2010.06.28 07:06:18.
