data_PCOD8137316
_publ_section_title
;
Structure prediction by ZEFSAII (Michael W. Deem and Ramdas Pophale) SiO2 
 PCOD8137316
Probable space group: C 2/C
;
_chemical_formula_sum "Si O2"
_cell_formula_units_Z 60
_cell_length_a 20.538441
_cell_length_b 6.571844
_cell_length_c 24.787342
_cell_angle_alpha 90.000000
_cell_angle_beta 122.328266
_cell_angle_gamma 90.000000
_cell_volume 2827.095114
_symmetry_space_group_name_H-M "C 2/C"
_symmetry_group_IT_number 15
_symmetry_cell_setting 'monoclinic'
loop_
_space_group_symop_operation_xyz
x,y,z
-x,y,1/2-z
-x,-y,-z
x,-y,1/2+z
1/2+x,1/2+y,z
1/2-x,1/2+y,1/2-z
1/2-x,1/2-y,-z
1/2+x,1/2-y,1/2+z
loop_
_atom_site_type_symbol
_atom_site_label
_atom_site_fract_x
_atom_site_fract_y
_atom_site_fract_z
Si Si1 0.170045 0.467249 0.750704
Si Si2 0.531395 0.403231 0.932934
Si Si3 0.235527 0.212537 0.871881
Si Si4 0.005332 0.423505 0.163814
Si Si5 0.500000 0.400498 0.750000
Si Si6 0.623712 0.487565 0.077665
Si Si7 0.911036 0.186351 0.636332
Si Si8 0.763180 0.677088 0.325215
O O1 0.181807 0.288079 0.798812
O O2 0.084912 0.459704 0.687363
O O3 0.229009 0.443410 0.727392
O O4 0.187698 0.681330 0.788097
O O5 0.533256 0.183082 0.905197
O O6 0.444222 0.427099 0.915082
O O7 0.558790 0.587166 0.905961
O O8 0.590268 0.391894 0.008318
O O9 0.314139 0.340602 0.911747
O O10 0.182088 0.216934 0.902300
O O11 0.256189 0.978013 0.871418
O O12 0.029294 0.246188 0.215792
O O13 0.945825 0.588627 0.160069
O O14 0.432592 0.543931 0.696847
O O15 0.662441 0.314760 0.130601
#
# Coordination Sequence:
#
# PCOD8137316 Si02
#       8
#     8   8   8   8   4   8   8   8
#     4  11  21  35  59  92 127 158 205 251 318 378
#     4  10  24  44  64  89 124 161 220 262 305 378
#     4  11  23  39  61  92 128 159 207 260 318 378
#     4  11  22  37  64  90 125 170 205 256 315 375
#     4  10  20  36  56  88 128 158 204 250 316 382
#     4  10  24  44  64  89 120 167 210 263 315 374
#     4  11  23  39  61  92 125 165 207 263 319 379
#     4  11  22  37  62  92 127 163 200 259 316 373
#
# _framework density 21.223196999999999
#
# number of rings (size 3 to 8) (size 9 to 14) (size 15 to 20)
#    0.000    1.333    1.333    4.400    1.867    6.933 
#    0.000    4.667    0.000    0.000    0.000    0.000 
#    0.000    0.000    0.000    0.000    0.000    0.000 
#
# Total GULP energy -371967.074037 kJ/mol
# GULP energy per Si atom -12398.902468 kJ/mol
# Density = 2.117489 g / cm^3
# Si number density = 21.223197 Si / 1000 Ang^3
#
#
#
# Elastic Constant Matrix: (Units=GPa)
#
#
# Indices 1 2 3 4 5 6 
#
# 1 125.1432 24.7709 17.0082 0.0000 10.2703 0.0000
# 2 24.7709 91.3308 11.8537 0.0001 7.1636 -0.0004
# 3 17.0082 11.8537 63.4360 0.0000 1.8033 0.0000
# 4 0.0000 0.0001 0.0000 20.7383 0.0000 -4.6995
# 5 10.2703 7.1636 1.8033 0.0000 28.0980 0.0000
# 6 0.0000 -0.0004 0.0000 -4.6995 0.0000 27.5922
#
#
#
# Elastic Compliance Matrix: (Units=1/GPa)
#
#
# Indices 1 2 3 4 5 6 
#
# 1 0.008854 -0.001945 -0.001936 0.000000 -0.002616 0.000000
# 2 -0.001945 0.011862 -0.001632 0.000000 -0.002209 0.000000
# 3 -0.001936 -0.001632 0.016586 0.000000 0.000059 0.000000
# 4 0.000000 0.000000 0.000000 0.050156 0.000000 0.008542
# 5 -0.002616 -0.002209 0.000059 0.000000 0.037105 0.000000
# 6 0.000000 0.000000 0.000000 0.008542 0.000000 0.037697
#
#
# Mechanical properties :
#
#
# Convention : Reuss Voigt Hill
#
# Bulk Modulus (GPa) = 38.05830 43.01949 40.53890
# Shear Modulus (GPa) = 27.46581 30.37085 28.91833
#
# Velocity S-wave (km/s) = 3.60132 3.78699 3.69532
# Velocity P-wave (km/s) = 5.93835 6.27979 6.11145
#
# Compressibility (1/GPa) = 0.02627548
#
# Stress axis : x y z
#
# Youngs Moduli (GPa) = 112.94803 84.30449 60.29063
#
# Poissons Ratio (x) = 0.16396 0.11672
# Poissons Ratio (y) = 0.21966 0.09841
# Poissons Ratio (z) = 0.21867 0.13761
#
# Static dielectric constant tensor:
#      x y z
#    x 3.785270 0.000000 0.017710 
#    y 0.000000 3.853650 0.000000 
#    z 0.017710 0.000000 3.680350 
# 
# 
# High freq. dielectric constant tensor:
#      x y z
#    x 1.837700 0.000000 0.003050 
#    y 0.000000 1.841920 0.000000 
#    z 0.003050 0.000000 1.812740 
# 
# From -- ./inp_files/300142.got.cif
#   From: 2010.06.25/outbox.cif.g09.slc.cpg/sg15_151_cif.got.tgz:300142.got - 2010.06.28 07:06:18.
