data_PCOD8137922
_publ_section_title
;
Structure prediction by ZEFSAII (Michael W. Deem and Ramdas Pophale) SiO2 
 PCOD8137922
Probable space group: C 2/C
;
_chemical_formula_sum "Si O2"
_cell_formula_units_Z 64
_cell_length_a 16.141565
_cell_length_b 24.336469
_cell_length_c 13.458594
_cell_angle_alpha 90.000000
_cell_angle_beta 145.814124
_cell_angle_gamma 90.000000
_cell_volume 2970.612931
_symmetry_space_group_name_H-M "C 2/C"
_symmetry_group_IT_number 15
_symmetry_cell_setting 'monoclinic'
loop_
_space_group_symop_operation_xyz
x,y,z
-x,y,1/2-z
-x,-y,-z
x,-y,1/2+z
1/2+x,1/2+y,z
1/2-x,1/2+y,1/2-z
1/2-x,1/2-y,-z
1/2+x,1/2-y,1/2+z
loop_
_atom_site_type_symbol
_atom_site_label
_atom_site_fract_x
_atom_site_fract_y
_atom_site_fract_z
Si Si1 0.293857 0.969948 0.352111
Si Si2 0.627435 0.062718 0.196846
Si Si3 0.228800 0.146777 0.737450
Si Si4 0.564358 0.179652 0.080349
Si Si5 0.156219 0.297760 0.456867
Si Si6 0.335072 0.012082 0.598963
Si Si7 0.842584 0.115348 0.043322
Si Si8 0.624251 0.730898 0.800105
O O1 0.460687 0.950235 0.500936
O O2 0.196435 0.915841 0.238982
O O3 0.260484 0.020693 0.245901
O O4 0.256205 0.997306 0.419196
O O5 0.661651 0.125965 0.205685
O O6 0.650956 0.047673 0.335060
O O7 0.148345 0.151599 0.549618
O O8 0.165125 0.184715 0.760837
O O9 0.398826 0.162436 0.888904
O O10 0.564429 0.217802 0.177185
O O11 0.638106 0.209727 0.058302
O O12 0.250000 0.250000 0.500000
O O13 0.239384 0.354961 0.521711
O O14 0.000000 0.298658 0.250000
O O15 0.500000 0.037263 0.750000
O O16 0.235421 0.056826 0.558380
O O17 0.000000 0.107186 0.250000
O O18 0.500000 0.707174 0.750000
O O19 0.750000 0.750000 0.000000
#
# Coordination Sequence:
#
# PCOD8137922 Si02
#       8
#     8   8   8   8   8   8   8   8
#     4   9  18  34  64  99 130 171 224 281 334 403
#     4   9  18  34  61 101 130 166 226 280 334 397
#     4  11  23  45  71  99 139 182 236 290 342 410
#     4  11  24  41  72 102 137 179 234 288 341 414
#     4  12  25  43  70 101 135 176 225 281 351 415
#     4  10  20  36  66  97 134 175 224 279 343 404
#     4  12  25  43  67 100 142 180 227 280 346 418
#     4  12  27  47  71 101 139 182 233 288 345 404
#
# _framework density 21.544374999999999
#
# number of rings (size 3 to 8) (size 9 to 14) (size 15 to 20)
#    0.000    1.250    3.750    2.250    3.500    1.500 
#    0.000    1.250    0.000    0.000    0.000    0.000 
#    0.000    0.000    0.000    0.000    0.000    0.000 
#
# Total GULP energy -396600.856538 kJ/mol
# GULP energy per Si atom -12393.776767 kJ/mol
# Density = 2.149534 g / cm^3
# Si number density = 21.544375 Si / 1000 Ang^3
#
#
#
# Elastic Constant Matrix: (Units=GPa)
#
#
# Indices 1 2 3 4 5 6 
#
# 1 129.0871 52.3087 42.5809 0.0000 -17.4706 0.0000
# 2 52.3087 120.1903 28.0339 0.0000 -3.5416 0.0000
# 3 42.5809 28.0339 102.9647 0.0000 -4.0921 0.0000
# 4 0.0000 0.0000 0.0000 17.1189 0.0000 -7.6504
# 5 -17.4706 -3.5416 -4.0921 0.0000 34.3211 0.0000
# 6 0.0000 0.0000 0.0000 -7.6504 0.0000 35.1419
#
#
#
# Elastic Compliance Matrix: (Units=1/GPa)
#
#
# Indices 1 2 3 4 5 6 
#
# 1 0.011082 -0.003904 -0.003327 0.000000 0.004841 0.000000
# 2 -0.003904 0.010273 -0.001225 0.000000 -0.001073 0.000000
# 3 -0.003327 -0.001225 0.011403 0.000000 -0.000461 0.000000
# 4 0.000000 0.000000 0.000000 0.064711 0.000000 0.014088
# 5 0.004841 -0.001073 -0.000461 0.000000 0.031435 0.000000
# 6 0.000000 0.000000 0.000000 0.014088 0.000000 0.031523
#
#
# Mechanical properties :
#
#
# Convention : Reuss Voigt Hill
#
# Bulk Modulus (GPa) = 63.11179 66.45433 64.78306
# Shear Modulus (GPa) = 27.37890 32.60430 29.99160
#
# Velocity S-wave (km/s) = 3.56872 3.89441 3.73511
# Velocity P-wave (km/s) = 6.80723 7.15082 6.98114
#
# Compressibility (1/GPa) = 0.01584490
#
# Stress axis : x y z
#
# Youngs Moduli (GPa) = 90.24043 97.33865 87.69327
#
# Poissons Ratio (x) = 0.38002 0.29179
# Poissons Ratio (y) = 0.35231 0.10744
# Poissons Ratio (z) = 0.30026 0.11926
#
# Static dielectric constant tensor:
#      x y z
#    x 4.456630 0.000000 -0.111390 
#    y 0.000000 4.033320 0.000000 
#    z -0.111390 0.000000 3.733250 
# 
# 
# High freq. dielectric constant tensor:
#      x y z
#    x 1.842560 0.000000 -0.029400 
#    y 0.000000 1.851920 0.000000 
#    z -0.029400 0.000000 1.829520 
# 
# From -- ./inp_files/101358.got.cif
#   From: 2010.06.25/outbox.cif.g09.slc.cpg/sg15_51_cif.got.tgz:101358.got - 2010.06.28 07:06:18.
