data_PCOD8137082
_publ_section_title
;
Structure prediction by ZEFSAII (Michael W. Deem and Ramdas Pophale) SiO2 
 PCOD8137082
Probable space group: C 2/C
;
_chemical_formula_sum "Si O2"
_cell_formula_units_Z 48
_cell_length_a 22.662878
_cell_length_b 15.202616
_cell_length_c 12.229858
_cell_angle_alpha 90.000000
_cell_angle_beta 148.413474
_cell_angle_gamma 90.000000
_cell_volume 2207.030583
_symmetry_space_group_name_H-M "C 2/C"
_symmetry_group_IT_number 15
_symmetry_cell_setting 'monoclinic'
loop_
_space_group_symop_operation_xyz
x,y,z
-x,y,1/2-z
-x,-y,-z
x,-y,1/2+z
1/2+x,1/2+y,z
1/2-x,1/2+y,1/2-z
1/2-x,1/2-y,-z
1/2+x,1/2-y,1/2+z
loop_
_atom_site_type_symbol
_atom_site_label
_atom_site_fract_x
_atom_site_fract_y
_atom_site_fract_z
Si Si1 0.892129 0.088829 0.017836
Si Si2 0.793081 0.629344 0.183378
Si Si3 0.253649 0.955850 0.016980
Si Si4 0.619252 0.600052 0.089352
Si Si5 0.987756 0.371664 0.356818
Si Si6 0.937467 0.214796 0.906091
O O1 0.000000 0.126481 0.250000
O O2 0.867810 0.151982 0.877836
O O3 0.786581 0.087688 0.932953
O O4 0.923352 0.992199 0.023813
O O5 0.745191 0.562846 0.015027
O O6 0.698848 0.648852 0.127274
O O7 0.898235 0.583617 0.414412
O O8 0.839690 0.720516 0.201771
O O9 0.384123 0.935324 0.212528
O O10 0.181820 0.917896 0.803361
O O11 0.506936 0.659171 0.926740
O O12 0.970928 0.275825 0.386341
O O13 0.000000 0.353147 0.250000
#
# Coordination Sequence:
#
# PCOD8137082 Si02
#       6
#     8   8   8   8   8   8
#     4  11  23  38  60  86 117 155 206 243 302 354
#     4   9  23  38  57  92 122 151 202 246 299 359
#     4  11  21  38  61  85 119 163 192 245 302 360
#     4  11  22  38  64  86 116 162 200 246 296 363
#     4  10  20  35  60  86 122 149 197 250 297 353
#     4  10  22  36  58  87 120 149 199 250 295 340
#
# _framework density 21.74868
#
# number of rings (size 3 to 8) (size 9 to 14) (size 15 to 20)
#    1.000    0.667    3.333    1.500    2.333    0.667 
#    0.000    0.833    0.000    0.000    0.000    0.000 
#    0.000    0.000    0.000    0.000    0.000    0.000 
#
# Total GULP energy -297379.082397 kJ/mol
# GULP energy per Si atom -12390.795100 kJ/mol
# Density = 2.169918 g / cm^3
# Si number density = 21.748680 Si / 1000 Ang^3
#
#
#
# Elastic Constant Matrix: (Units=GPa)
#
#
# Indices 1 2 3 4 5 6 
#
# 1 102.8137 40.9629 13.6114 0.0000 17.8334 0.0000
# 2 40.9629 90.3671 7.5835 0.0000 11.5295 0.0000
# 3 13.6114 7.5835 45.7548 0.0000 0.1890 0.0000
# 4 0.0000 0.0000 0.0000 3.4237 0.0000 10.8700
# 5 17.8334 11.5295 0.1890 0.0000 22.6625 0.0000
# 6 0.0000 0.0000 0.0000 10.8700 0.0000 18.1822
#
#
#
# Elastic Compliance Matrix: (Units=1/GPa)
#
#
# Indices 1 2 3 4 5 6 
#
# 1 0.013471 -0.004802 -0.003178 0.000000 -0.008131 0.000000
# 2 -0.004802 0.013720 -0.000832 0.000000 -0.003194 0.000000
# 3 -0.003178 -0.000832 0.022928 0.000000 0.002733 0.000000
# 4 0.000000 0.000000 0.000000 -0.325222 0.000000 0.194431
# 5 -0.008131 -0.003194 0.002733 0.000000 0.052126 0.000000
# 6 0.000000 0.000000 0.000000 0.194431 0.000000 -0.061239
#
#
# Mechanical properties :
#
#
# Convention : Reuss Voigt Hill
#
# Bulk Modulus (GPa) = 30.77493 40.36124 35.56808
# Shear Modulus (GPa) = -19.54948 20.63887 0.54469
#
# Velocity S-wave (km/s) = -3.00139 3.08388 0.50099
# Velocity P-wave (km/s) = 1.47305 5.59274 4.08953
#
# Compressibility (1/GPa) = 0.03249398
#
# Stress axis : x y z
#
# Youngs Moduli (GPa) = 74.23594 72.88566 43.61554
#
# Poissons Ratio (x) = 0.35001 0.13860
# Poissons Ratio (y) = 0.35649 0.03630
# Poissons Ratio (z) = 0.23591 0.06066
#
# Static dielectric constant tensor:
#      x y z
#    x 3.989460 0.000000 0.044740 
#    y 0.000000 3.796630 0.000000 
#    z 0.044740 0.000000 3.704380 
# 
# 
# High freq. dielectric constant tensor:
#      x y z
#    x 1.856500 0.000000 0.006720 
#    y 0.000000 1.847330 0.000000 
#    z 0.006720 0.000000 1.844620 
# 
# From -- ./inp_files/178202.got.cif
#   From: 2010.06.25/outbox.cif.g09.slc.cpg/sg15_90_cif.got.tgz:178202.got - 2010.06.28 07:06:18.
