data_PCOD8137355
_publ_section_title
;
Structure prediction by ZEFSAII (Michael W. Deem and Ramdas Pophale) SiO2 
 PCOD8137355
Probable space group: C 2/C
;
_chemical_formula_sum "Si O2"
_cell_formula_units_Z 56
_cell_length_a 23.651115
_cell_length_b 11.384115
_cell_length_c 17.543751
_cell_angle_alpha 90.000000
_cell_angle_beta 36.314987
_cell_angle_gamma 90.000000
_cell_volume 2797.430644
_symmetry_space_group_name_H-M "C 2/C"
_symmetry_group_IT_number 15
_symmetry_cell_setting 'monoclinic'
loop_
_space_group_symop_operation_xyz
x,y,z
-x,y,1/2-z
-x,-y,-z
x,-y,1/2+z
1/2+x,1/2+y,z
1/2-x,1/2+y,1/2-z
1/2-x,1/2-y,-z
1/2+x,1/2-y,1/2+z
loop_
_atom_site_type_symbol
_atom_site_label
_atom_site_fract_x
_atom_site_fract_y
_atom_site_fract_z
Si Si1 0.460724 0.367591 0.376413
Si Si2 0.595935 0.048604 0.427755
Si Si3 0.596189 0.617547 0.015109
Si Si4 0.304742 0.050935 0.809663
Si Si5 0.393708 0.700180 0.655533
Si Si6 0.748387 0.297965 0.917088
Si Si7 0.501011 0.859022 0.161799
O O1 0.500000 0.338331 0.250000
O O2 0.458925 0.506662 0.390818
O O3 0.521447 0.307082 0.376326
O O4 0.357558 0.311698 0.498755
O O5 0.603936 0.182319 0.395119
O O6 0.580116 0.053256 0.536625
O O7 0.500000 0.000000 0.500000
O O8 0.681786 0.973116 0.297071
O O9 0.705846 0.621896 0.927407
O O10 0.599539 0.602783 0.918822
O O11 0.534772 0.725635 0.113286
O O12 0.393479 0.126218 0.745401
O O13 0.302347 0.924241 0.854693
O O14 0.296479 0.699622 0.810454
O O15 0.750000 0.250000 0.000000
O O16 0.500000 0.895151 0.250000
#
# Coordination Sequence:
#
# PCOD8137355 Si02
#       7
#     8   8   8   8   8   8   8
#     4  11  21  37  60  87 120 150 189 253 297 342
#     4   8  17  36  56  77 115 149 188 238 294 339
#     4  10  22  38  60  82 119 159 196 237 298 353
#     4   9  20  39  58  83 122 154 194 251 292 348
#     4  10  20  36  57  85 112 153 201 233 288 368
#     4  10  20  38  57  86 118 152 191 243 305 346
#     4  10  20  38  59  87 114 152 202 238 295 354
#
# _framework density 20.018369
#
# number of rings (size 3 to 8) (size 9 to 14) (size 15 to 20)
#    0.000    2.286    1.429    0.857    0.000    4.000 
#   10.286    2.857    0.000    0.000    0.000    0.000 
#    0.000    0.000    0.000    0.000    0.000    0.000 
#
# Total GULP energy -346881.912006 kJ/mol
# GULP energy per Si atom -12388.639715 kJ/mol
# Density = 1.997281 g / cm^3
# Si number density = 20.018369 Si / 1000 Ang^3
#
#
#
# Elastic Constant Matrix: (Units=GPa)
#
#
# Indices 1 2 3 4 5 6 
#
# 1 99.1158 22.1743 46.3252 0.0000 11.3134 0.0000
# 2 22.1743 25.7250 26.6310 0.0001 -3.5586 -0.0001
# 3 46.3252 26.6310 114.3742 0.0000 11.5648 0.0000
# 4 0.0000 0.0001 0.0000 29.9303 0.0000 -7.1163
# 5 11.3134 -3.5586 11.5648 0.0000 44.6609 0.0000
# 6 0.0000 -0.0001 0.0000 -7.1163 0.0000 22.4123
#
#
#
# Elastic Compliance Matrix: (Units=1/GPa)
#
#
# Indices 1 2 3 4 5 6 
#
# 1 0.014052 -0.009310 -0.003172 0.000000 -0.003480 0.000000
# 2 -0.009310 0.059858 -0.011180 0.000000 0.010023 0.000000
# 3 -0.003172 -0.011180 0.012980 0.000000 -0.003448 0.000000
# 4 0.000000 0.000000 0.000000 0.036139 0.000000 0.011475
# 5 -0.003480 0.010023 -0.003448 0.000000 0.024964 0.000000
# 6 0.000000 0.000000 0.000000 0.011475 0.000000 0.048262
#
#
# Mechanical properties :
#
#
# Convention : Reuss Voigt Hill
#
# Bulk Modulus (GPa) = 25.27439 47.71957 36.49698
# Shear Modulus (GPa) = 19.47291 29.00636 24.23963
#
# Velocity S-wave (km/s) = 3.12228 3.81069 3.48353
# Velocity P-wave (km/s) = 5.06470 6.57658 5.86952
#
# Compressibility (1/GPa) = 0.03956574
#
# Stress axis : x y z
#
# Youngs Moduli (GPa) = 71.16551 16.70618 77.04339
#
# Poissons Ratio (x) = 0.15554 0.24436
# Poissons Ratio (y) = 0.66257 0.86134
# Poissons Ratio (z) = 0.22572 0.18677
#
# Static dielectric constant tensor:
#      x y z
#    x 3.527840 0.000000 0.224780 
#    y 0.000000 3.580700 0.000000 
#    z 0.224780 0.000000 4.394720 
# 
# 
# High freq. dielectric constant tensor:
#      x y z
#    x 1.763180 0.000000 0.008240 
#    y 0.000000 1.767190 0.000000 
#    z 0.008240 0.000000 1.808760 
# 
# From -- ./inp_files/219067.got.cif
#   From: 2010.06.25/outbox.cif.g09.slc.cpg/sg15_110_cif.got.tgz:219067.got - 2010.06.28 07:06:18.
