data_PCOD8137440
_publ_section_title
;
Structure prediction by ZEFSAII (Michael W. Deem and Ramdas Pophale) SiO2 
 PCOD8137440
Probable space group: C 2/C
;
_chemical_formula_sum "Si O2"
_cell_formula_units_Z 60
_cell_length_a 16.185218
_cell_length_b 9.045691
_cell_length_c 22.801195
_cell_angle_alpha 90.000000
_cell_angle_beta 64.672034
_cell_angle_gamma 90.000000
_cell_volume 3017.350295
_symmetry_space_group_name_H-M "C 2/C"
_symmetry_group_IT_number 15
_symmetry_cell_setting 'monoclinic'
loop_
_space_group_symop_operation_xyz
x,y,z
-x,y,1/2-z
-x,-y,-z
x,-y,1/2+z
1/2+x,1/2+y,z
1/2-x,1/2+y,1/2-z
1/2-x,1/2-y,-z
1/2+x,1/2-y,1/2+z
loop_
_atom_site_type_symbol
_atom_site_label
_atom_site_fract_x
_atom_site_fract_y
_atom_site_fract_z
Si Si1 0.412585 0.493213 0.566961
Si Si2 0.626775 0.293148 0.648568
Si Si3 0.479656 0.120010 0.145550
Si Si4 0.000000 0.576508 0.750000
Si Si5 0.838235 0.684321 0.092013
Si Si6 0.032320 0.050959 0.629716
Si Si7 0.301758 0.608173 0.006530
Si Si8 0.131237 0.577274 0.544213
O O1 0.500000 0.500000 0.500000
O O2 0.357834 0.644572 0.580278
O O3 0.446645 0.468165 0.623165
O O4 0.343467 0.369960 0.560270
O O5 0.587663 0.174986 0.706512
O O6 0.729926 0.337820 0.632941
O O7 0.565440 0.442993 0.671625
O O8 0.614586 0.226465 0.586573
O O9 0.388768 0.115586 0.133344
O O10 0.502570 0.286664 0.160135
O O11 0.463384 0.023409 0.208115
O O12 0.562676 0.054956 0.082000
O O13 0.877765 0.604564 0.022208
O O14 0.116747 0.068077 0.560689
O O15 0.233825 0.470132 0.028518
O O16 0.250000 0.750000 0.000000
#
# Coordination Sequence:
#
# PCOD8137440 Si02
#       8
#     8   8   8   4   8   8   8   8
#     4   9  19  32  50  83 129 158 189 232 290 365
#     4  11  22  40  65  86 121 163 206 251 299 359
#     4  10  23  41  61  87 123 163 196 252 302 363
#     4  10  26  48  60  78 118 164 210 256 310 346
#     4  11  20  36  64  94 119 157 202 248 305 365
#     4  10  20  36  58  87 114 158 201 243 301 354
#     4  11  18  30  52  91 130 160 188 231 297 371
#     4  11  19  34  60  95 133 157 187 243 313 364
#
# _framework density 19.884996999999998
#
# number of rings (size 3 to 8) (size 9 to 14) (size 15 to 20)
#    0.000    1.600    4.000    2.400    0.000    0.533 
#    4.800    4.000    0.000    0.000    0.000    0.000 
#    0.000    0.000    0.000    0.000    0.000    0.000 
#
# Total GULP energy -371816.163330 kJ/mol
# GULP energy per Si atom -12393.872111 kJ/mol
# Density = 1.983974 g / cm^3
# Si number density = 19.884997 Si / 1000 Ang^3
#
#
#
# Elastic Constant Matrix: (Units=GPa)
#
#
# Indices 1 2 3 4 5 6 
#
# 1 137.2448 58.4416 43.0412 0.0000 19.0920 0.0000
# 2 58.4416 92.9281 40.5222 0.0000 11.7927 0.0001
# 3 43.0412 40.5222 86.5701 0.0000 12.7170 0.0000
# 4 0.0000 0.0000 0.0000 22.0698 0.0000 2.9615
# 5 19.0920 11.7927 12.7170 0.0000 15.2415 0.0000
# 6 0.0000 0.0001 0.0000 2.9615 0.0000 37.0254
#
#
#
# Elastic Compliance Matrix: (Units=1/GPa)
#
#
# Indices 1 2 3 4 5 6 
#
# 1 0.011279 -0.005168 -0.001938 0.000000 -0.008513 0.000000
# 2 -0.005168 0.016371 -0.004769 0.000000 -0.002215 0.000000
# 3 -0.001938 -0.004769 0.015783 0.000000 -0.007051 0.000000
# 4 0.000000 0.000000 0.000000 0.045802 0.000000 -0.003664
# 5 -0.008513 -0.002215 -0.007051 0.000000 0.083870 0.000000
# 6 0.000000 0.000000 0.000000 -0.003664 0.000000 0.027301
#
#
# Mechanical properties :
#
#
# Convention : Reuss Voigt Hill
#
# Bulk Modulus (GPa) = 50.80231 66.75034 58.77632
# Shear Modulus (GPa) = 21.67152 26.51655 24.09404
#
# Velocity S-wave (km/s) = 3.30486 3.65567 3.48468
# Velocity P-wave (km/s) = 6.33769 7.17353 6.76853
#
# Compressibility (1/GPa) = 0.01968414
#
# Stress axis : x y z
#
# Youngs Moduli (GPa) = 88.66206 61.08233 63.35980
#
# Poissons Ratio (x) = 0.31565 0.12281
# Poissons Ratio (y) = 0.45818 0.30213
# Poissons Ratio (z) = 0.17185 0.29127
#
# Static dielectric constant tensor:
#      x y z
#    x 3.337120 -0.000030 0.034920 
#    y -0.000030 -3.629640 0.000000 
#    z 0.034920 0.000000 3.323980 
# 
# 
# High freq. dielectric constant tensor:
#      x y z
#    x 1.792330 0.000000 0.000010 
#    y 0.000000 1.776680 0.000000 
#    z 0.000010 0.000000 1.739730 
# 
# From -- ./inp_files/276551.got.cif
#   From: 2010.06.25/outbox.cif.g09.slc.cpg/sg15_139_cif.got.tgz:276551.got - 2010.06.28 07:06:18.
