data_PCOD8137193
_publ_section_title
;
Structure prediction by ZEFSAII (Michael W. Deem and Ramdas Pophale) SiO2 
 PCOD8137193
Probable space group: C 2/C
;
_chemical_formula_sum "Si O2"
_cell_formula_units_Z 56
_cell_length_a 12.423338
_cell_length_b 16.296781
_cell_length_c 14.522615
_cell_angle_alpha 90.000000
_cell_angle_beta 76.646754
_cell_angle_gamma 90.000000
_cell_volume 2860.763937
_symmetry_space_group_name_H-M "C 2/C"
_symmetry_group_IT_number 15
_symmetry_cell_setting 'monoclinic'
loop_
_space_group_symop_operation_xyz
x,y,z
-x,y,1/2-z
-x,-y,-z
x,-y,1/2+z
1/2+x,1/2+y,z
1/2-x,1/2+y,1/2-z
1/2-x,1/2-y,-z
1/2+x,1/2-y,1/2+z
loop_
_atom_site_type_symbol
_atom_site_label
_atom_site_fract_x
_atom_site_fract_y
_atom_site_fract_z
Si Si1 0.381514 0.957259 0.510899
Si Si2 0.356159 0.229784 0.042151
Si Si3 0.119167 0.499397 0.189727
Si Si4 0.793695 0.332464 0.881661
Si Si5 0.622654 0.295128 0.262023
Si Si6 0.597555 0.768844 0.466046
Si Si7 0.713022 0.087682 0.844682
O O1 0.364726 0.868366 0.562151
O O2 0.500000 0.000000 0.500000
O O3 0.375972 0.943364 0.402505
O O4 0.289315 0.019103 0.573332
O O5 0.358298 0.287763 0.132150
O O6 0.250000 0.250000 0.000000
O O7 0.470735 0.253862 0.968149
O O8 0.198987 0.574254 0.149543
O O9 0.167120 0.446392 0.260265
O O10 0.000000 0.530754 0.250000
O O11 0.804124 0.279791 0.788096
O O12 0.673021 0.313524 0.949890
O O13 0.890860 0.309528 0.934829
O O14 0.500000 0.283467 0.250000
O O15 0.664548 0.380038 0.206041
O O16 0.636696 0.835369 0.384655
#
# Coordination Sequence:
#
# PCOD8137193 Si02
#       7
#     8   8   8   8   8   8   8
#     4  12  22  39  62  90 129 165 208 269 322 373
#     4  12  24  41  63  95 132 171 206 263 339 393
#     4  12  21  33  60  94 124 157 205 263 322 373
#     4  10  20  35  64  91 115 163 218 259 308 368
#     4  11  23  39  63  89 124 166 220 259 307 387
#     4  10  20  39  61  90 125 161 210 270 311 374
#     4  11  23  38  59  95 125 157 212 272 316 369
#
# _framework density 19.575189999999999
#
# number of rings (size 3 to 8) (size 9 to 14) (size 15 to 20)
#    0.000    0.857    5.714    2.143    0.000    0.000 
#    0.000    3.571    0.000    3.429    0.000    0.000 
#    0.000    0.000    0.000    0.000    0.000    0.000 
#
# Total GULP energy -346940.400671 kJ/mol
# GULP energy per Si atom -12390.728595 kJ/mol
# Density = 1.953064 g / cm^3
# Si number density = 19.575190 Si / 1000 Ang^3
#
#
#
# Elastic Constant Matrix: (Units=GPa)
#
#
# Indices 1 2 3 4 5 6 
#
# 1 106.9746 26.7887 33.9665 0.0000 -1.7110 0.0000
# 2 26.7887 78.4495 30.5724 0.0000 -12.3880 0.0000
# 3 33.9665 30.5724 118.9681 0.0000 6.0287 0.0000
# 4 0.0000 0.0000 0.0000 -83.9605 0.0000 -17.9030
# 5 -1.7110 -12.3880 6.0287 0.0000 31.7587 0.0000
# 6 0.0000 0.0000 0.0000 -17.9030 0.0000 20.1271
#
#
#
# Elastic Compliance Matrix: (Units=1/GPa)
#
#
# Indices 1 2 3 4 5 6 
#
# 1 0.010793 -0.002771 -0.002367 0.000000 -0.000050 0.000000
# 2 -0.002771 0.016235 -0.003730 0.000000 0.006892 0.000000
# 3 -0.002367 -0.003730 0.010218 0.000000 -0.003522 0.000000
# 4 0.000000 0.000000 0.000000 -0.010011 0.000000 -0.008905
# 5 -0.000050 0.006892 -0.003522 0.000000 0.034842 0.000000
# 6 0.000000 0.000000 0.000000 -0.008905 0.000000 0.041763
#
#
# Mechanical properties :
#
#
# Convention : Reuss Voigt Hill
#
# Bulk Modulus (GPa) = 51.25488 54.11637 52.68562
# Shear Modulus (GPa) = 39.03842 7.78935 23.41389
#
# Velocity S-wave (km/s) = 4.47058 1.99696 3.46222
# Velocity P-wave (km/s) = 7.27245 5.74652 6.55405
#
# Compressibility (1/GPa) = 0.01951034
#
# Stress axis : x y z
#
# Youngs Moduli (GPa) = 92.65586 61.59441 97.86241
#
# Poissons Ratio (x) = 0.17068 0.23162
# Poissons Ratio (y) = 0.25675 0.36505
# Poissons Ratio (z) = 0.21929 0.22976
#
# Static dielectric constant tensor:
#      x y z
#    x 3.885990 0.000000 -0.286940 
#    y 0.000000 3.907840 0.000000 
#    z -0.286940 0.000000 3.884860 
# 
# 
# High freq. dielectric constant tensor:
#      x y z
#    x 1.737580 0.000000 -0.004070 
#    y 0.000000 1.751900 0.000000 
#    z -0.004070 0.000000 1.782260 
# 
# From -- ./inp_files/145577.got.cif
#   From: 2010.06.25/outbox.cif.g09.slc.cpg/sg15_73_cif.got.tgz:145577.got - 2010.06.28 07:06:18.
