data_PCOD8137385
_publ_section_title
;
Structure prediction by ZEFSAII (Michael W. Deem and Ramdas Pophale) SiO2 
 PCOD8137385
Probable space group: C 2/C
;
_chemical_formula_sum "Si O2"
_cell_formula_units_Z 40
_cell_length_a 10.243224
_cell_length_b 25.155977
_cell_length_c 18.004636
_cell_angle_alpha 90.000000
_cell_angle_beta 28.886573
_cell_angle_gamma 90.000000
_cell_volume 2241.190398
_symmetry_space_group_name_H-M "C 2/C"
_symmetry_group_IT_number 15
_symmetry_cell_setting 'monoclinic'
loop_
_space_group_symop_operation_xyz
x,y,z
-x,y,1/2-z
-x,-y,-z
x,-y,1/2+z
1/2+x,1/2+y,z
1/2-x,1/2+y,1/2-z
1/2-x,1/2-y,-z
1/2+x,1/2-y,1/2+z
loop_
_atom_site_type_symbol
_atom_site_label
_atom_site_fract_x
_atom_site_fract_y
_atom_site_fract_z
Si Si1 0.724038 0.841436 0.845336
Si Si2 0.209783 0.743921 0.932912
Si Si3 0.780221 0.535718 0.149669
Si Si4 0.212732 0.154550 0.355727
Si Si5 0.212330 0.962975 0.854355
O O1 0.637009 0.902571 0.899785
O O2 0.766145 0.826485 0.739058
O O3 0.000000 0.827857 0.750000
O O4 0.479235 0.805146 0.996881
O O5 0.500000 0.735730 0.750000
O O6 0.064351 0.798223 0.975012
O O7 0.250000 0.750000 0.000000
O O8 0.500000 0.523707 0.250000
O O9 0.753881 0.519537 0.248693
O O10 0.000000 0.500000 0.000000
O O11 0.500000 0.147012 0.250000
O O12 0.078382 0.096172 0.425983
O O13 0.500000 0.967439 0.750000
O O14 0.000000 0.000000 0.000000
#
# Coordination Sequence:
#
# PCOD8137385 Si02
#       5
#     8   8   8   8   8
#     4  10  21  37  57  83 117 149 180 236 293 322
#     4  11  20  38  61  84 110 148 196 230 273 343
#     4  10  21  38  57  83 116 147 185 235 283 332
#     4   9  18  36  57  76 112 148 184 221 283 329
#     4  10  20  36  58  79 109 149 185 225 279 334
#
# _framework density 17.847657999999999
#
# number of rings (size 3 to 8) (size 9 to 14) (size 15 to 20)
#    0.000    2.000    4.000    1.200    0.000    1.600 
#    3.600    1.000    0.000    0.000    0.000    0.000 
#    0.000    0.000    0.000    0.000    0.000    0.000 
#
# Total GULP energy -247881.119584 kJ/mol
# GULP energy per Si atom -12394.055979 kJ/mol
# Density = 1.780704 g / cm^3
# Si number density = 17.847658 Si / 1000 Ang^3
#
#
#
# Elastic Constant Matrix: (Units=GPa)
#
#
# Indices 1 2 3 4 5 6 
#
# 1 143.5176 48.9665 57.2722 0.0627 14.2629 -0.0122
# 2 48.9665 138.0271 83.0880 0.1510 14.0648 -0.0931
# 3 57.2722 83.0880 113.7359 -0.7830 11.7873 0.2295
# 4 0.0627 0.1510 -0.7830 47.4100 -0.1121 -4.4110
# 5 14.2629 14.0648 11.7873 -0.1121 26.4623 0.1166
# 6 -0.0122 -0.0931 0.2295 -4.4110 0.1166 41.0698
#
#
#
# Elastic Compliance Matrix: (Units=1/GPa)
#
#
# Indices 1 2 3 4 5 6 
#
# 1 0.008964 -0.000626 -0.003764 -0.000077 -0.002822 0.000022
# 2 -0.000626 0.013178 -0.009039 -0.000190 -0.002641 0.000067
# 3 -0.003764 -0.009039 0.017388 0.000311 -0.000910 -0.000083
# 4 -0.000077 -0.000190 0.000311 0.021311 0.000084 0.002286
# 5 -0.002822 -0.002641 -0.000910 0.000084 0.041121 -0.000109
# 6 0.000022 0.000067 -0.000083 0.002286 -0.000109 0.024595
#
#
# Mechanical properties :
#
#
# Convention : Reuss Voigt Hill
#
# Bulk Modulus (GPa) = 78.92640 85.99269 82.45955
# Shear Modulus (GPa) = 31.71761 36.71869 34.21815
#
# Velocity S-wave (km/s) = 4.22018 4.54071 4.38337
# Velocity P-wave (km/s) = 8.25014 8.70499 8.48061
#
# Compressibility (1/GPa) = 0.01267003
#
# Stress axis : x y z
#
# Youngs Moduli (GPa) = 111.55395 75.88485 57.51094
#
# Poissons Ratio (x) = 0.04753 0.21650
# Poissons Ratio (y) = 0.06987 0.51985
# Poissons Ratio (z) = 0.41994 0.68594
#
# Static dielectric constant tensor:
#      x y z
#    x 3.537080 0.001110 0.095210 
#    y 0.001110 3.872870 0.000460 
#    z 0.095210 0.000460 3.089910 
# 
# 
# High freq. dielectric constant tensor:
#      x y z
#    x 1.713030 0.000000 0.003900 
#    y 0.000000 1.705260 0.000030 
#    z 0.003900 0.000030 1.659280 
# 
# From -- ./inp_files/24589.got.cif
#   From: 2010.06.25/outbox.cif.g09.slc.cpg/sg15_13_cif.got.tgz:24589.got - 2010.06.28 07:06:18.
