data_PCOD8137138
_publ_section_title
;
Structure prediction by ZEFSAII (Michael W. Deem and Ramdas Pophale) SiO2 
 PCOD8137138
Probable space group: C 2/C
;
_chemical_formula_sum "Si O2"
_cell_formula_units_Z 64
_cell_length_a 14.757151
_cell_length_b 17.462673
_cell_length_c 14.179338
_cell_angle_alpha 90.000000
_cell_angle_beta 120.973655
_cell_angle_gamma 90.000000
_cell_volume 3132.959043
_symmetry_space_group_name_H-M "C 2/C"
_symmetry_group_IT_number 15
_symmetry_cell_setting 'monoclinic'
loop_
_space_group_symop_operation_xyz
x,y,z
-x,y,1/2-z
-x,-y,-z
x,-y,1/2+z
1/2+x,1/2+y,z
1/2-x,1/2+y,1/2-z
1/2-x,1/2-y,-z
1/2+x,1/2-y,1/2+z
loop_
_atom_site_type_symbol
_atom_site_label
_atom_site_fract_x
_atom_site_fract_y
_atom_site_fract_z
Si Si1 0.304559 0.200813 0.447341
Si Si2 0.247632 0.266541 0.222863
Si Si3 0.115616 0.504188 0.721218
Si Si4 0.471865 0.169375 0.842961
Si Si5 0.251347 0.671389 0.448987
Si Si6 0.397573 0.954856 0.585364
Si Si7 0.122388 0.891684 0.328794
Si Si8 0.751169 0.965598 0.634838
O O1 0.250000 0.250000 0.500000
O O2 0.306170 0.251224 0.353074
O O3 0.425184 0.182132 0.537735
O O4 0.237224 0.121953 0.394228
O O5 0.123260 0.277323 0.174097
O O6 0.247727 0.187893 0.161955
O O7 0.305686 0.338368 0.202085
O O8 0.072423 0.585083 0.663138
O O9 0.135647 0.509146 0.843936
O O10 0.222209 0.472976 0.730090
O O11 0.023105 0.444048 0.645768
O O12 0.500000 0.187018 0.750000
O O13 0.250000 0.750000 0.500000
O O14 0.143206 0.630090 0.418616
O O15 0.349499 0.623440 0.545588
O O16 0.348747 0.993777 0.467860
O O17 0.000000 0.873110 0.250000
O O18 0.144135 0.982609 0.323971
#
# Coordination Sequence:
#
# PCOD8137138 Si02
#       8
#     8   8   8   8   8   8   8   8
#     4  12  26  41  65  99 134 173 217 269 332 398
#     4  11  24  44  66  95 135 173 218 275 328 396
#     4  11  20  36  65  97 122 155 212 271 327 379
#     4  12  22  42  67  95 132 175 218 276 332 385
#     4   9  21  41  59  90 129 165 207 269 324 386
#     4  10  20  35  61  93 124 157 203 272 319 375
#     4  10  23  44  67  92 127 176 222 267 323 390
#     4  11  22  40  64  90 126 165 218 258 324 389
#
# _framework density 20.427972
#
# number of rings (size 3 to 8) (size 9 to 14) (size 15 to 20)
#    0.000    1.250    5.000    1.125    1.750    0.000 
#   13.500    0.000    0.000    3.000    0.000    0.000 
#    0.000    0.000    0.000    0.000    0.000    0.000 
#
# Total GULP energy -396591.507159 kJ/mol
# GULP energy per Si atom -12393.484599 kJ/mol
# Density = 2.038148 g / cm^3
# Si number density = 20.427972 Si / 1000 Ang^3
#
#
#
# Elastic Constant Matrix: (Units=GPa)
#
#
# Indices 1 2 3 4 5 6 
#
# 1 79.2509 29.1538 19.3235 0.0000 -2.5128 0.0000
# 2 29.1538 102.3181 14.7188 0.0000 -2.7306 0.0000
# 3 19.3235 14.7188 83.3002 0.0000 -5.8094 0.0000
# 4 0.0000 0.0000 0.0000 30.1945 0.0000 -3.3888
# 5 -2.5128 -2.7306 -5.8094 0.0000 32.6608 0.0000
# 6 0.0000 0.0000 0.0000 -3.3888 0.0000 30.8058
#
#
#
# Elastic Compliance Matrix: (Units=1/GPa)
#
#
# Indices 1 2 3 4 5 6 
#
# 1 0.014683 -0.003784 -0.002714 0.000000 0.000330 0.000000
# 2 -0.003784 0.011013 -0.001037 0.000000 0.000445 0.000000
# 3 -0.002714 -0.001037 0.012958 0.000000 0.002009 0.000000
# 4 0.000000 0.000000 0.000000 0.033533 0.000000 0.003689
# 5 0.000330 0.000445 0.002009 0.000000 0.031038 0.000000
# 6 0.000000 0.000000 0.000000 0.003689 0.000000 0.032867
#
#
# Mechanical properties :
#
#
# Convention : Reuss Voigt Hill
#
# Bulk Modulus (GPa) = 42.40522 43.47348 42.93935
# Shear Modulus (GPa) = 31.44210 32.17709 31.80960
#
# Velocity S-wave (km/s) = 3.92748 3.97312 3.95037
# Velocity P-wave (km/s) = 6.43197 6.50962 6.47091
#
# Compressibility (1/GPa) = 0.02358200
#
# Stress axis : x y z
#
# Youngs Moduli (GPa) = 68.10811 90.80374 77.17372
#
# Poissons Ratio (x) = 0.34363 0.20947
# Poissons Ratio (y) = 0.25774 0.08003
# Poissons Ratio (z) = 0.18486 0.09416
#
# Static dielectric constant tensor:
#      x y z
#    x 3.698200 0.000000 -0.378010 
#    y 0.000000 3.900850 0.000000 
#    z -0.378010 0.000000 4.256200 
# 
# 
# High freq. dielectric constant tensor:
#      x y z
#    x 1.780570 0.000000 -0.015410 
#    y 0.000000 1.798210 0.000000 
#    z -0.015410 0.000000 1.809280 
# 
# From -- ./inp_files/155221.got.cif
#   From: 2010.06.25/outbox.cif.g09.slc.cpg/sg15_78_cif.got.tgz:155221.got - 2010.06.28 07:06:18.
