data_PCOD8137267
_publ_section_title
;
Structure prediction by ZEFSAII (Michael W. Deem and Ramdas Pophale) SiO2 
 PCOD8137267
Probable space group: C 2/C
;
_chemical_formula_sum "Si O2"
_cell_formula_units_Z 60
_cell_length_a 27.542647
_cell_length_b 5.214928
_cell_length_c 20.922024
_cell_angle_alpha 90.000000
_cell_angle_beta 87.443375
_cell_angle_gamma 90.000000
_cell_volume 3002.100228
_symmetry_space_group_name_H-M "C 2/C"
_symmetry_group_IT_number 15
_symmetry_cell_setting 'monoclinic'
loop_
_space_group_symop_operation_xyz
x,y,z
-x,y,1/2-z
-x,-y,-z
x,-y,1/2+z
1/2+x,1/2+y,z
1/2-x,1/2+y,1/2-z
1/2-x,1/2-y,-z
1/2+x,1/2-y,1/2+z
loop_
_atom_site_type_symbol
_atom_site_label
_atom_site_fract_x
_atom_site_fract_y
_atom_site_fract_z
Si Si1 0.219579 0.021346 0.182729
Si Si2 0.191701 0.541673 0.509945
Si Si3 0.903834 0.433594 0.245336
Si Si4 0.000000 0.668978 0.250000
Si Si5 0.774284 0.868392 0.096181
Si Si6 0.316576 0.714894 0.189836
Si Si7 0.153588 0.060006 0.572090
Si Si8 0.083652 0.086577 0.680991
O O1 0.268483 0.880662 0.198945
O O2 0.184120 0.043404 0.245549
O O3 0.190453 0.877401 0.128250
O O4 0.236032 0.299298 0.154287
O O5 0.200407 0.609362 0.434350
O O6 0.244990 0.498236 0.539462
O O7 0.160625 0.281251 0.518173
O O8 0.162662 0.780932 0.542170
O O9 0.885886 0.684580 0.285586
O O10 0.958971 0.492523 0.217195
O O11 0.866318 0.382269 0.188962
O O12 0.904322 0.189698 0.291381
O O13 0.026223 0.845729 0.194166
O O14 0.815628 0.050273 0.124430
O O15 0.099166 0.076750 0.605259
#
# Coordination Sequence:
#
# PCOD8137267 Si02
#       8
#     8   8   8   4   8   8   8   8
#     4  11  23  32  53  80 118 152 188 226 276 338
#     4  10  23  38  52  75 108 156 203 237 258 308
#     4  10  22  34  55  82 116 143 176 222 283 352
#     4   8  22  34  58  78 122 132 178 224 292 350
#     4  10  23  35  51  73 112 156 198 233 268 314
#     4  12  22  33  53  82 115 156 183 225 285 338
#     4  11  21  37  57  77 110 150 194 230 270 322
#     4  10  20  36  55  82 110 144 174 228 281 348
#
# _framework density 19.986008999999999
#
# number of rings (size 3 to 8) (size 9 to 14) (size 15 to 20)
#    0.800    0.800    4.000    1.200    7.467    1.600 
#    0.000    0.000    0.000    0.000    0.000    1.867 
#    0.000    0.000    0.000    0.000    0.000    0.000 
#
# Total GULP energy -371660.486855 kJ/mol
# GULP energy per Si atom -12388.682895 kJ/mol
# Density = 1.994052 g / cm^3
# Si number density = 19.986009 Si / 1000 Ang^3
#
#
#
# Elastic Constant Matrix: (Units=GPa)
#
#
# Indices 1 2 3 4 5 6 
#
# 1 87.0431 7.8694 16.1886 0.0000 -14.6184 0.0000
# 2 7.8694 78.9744 3.3216 0.0000 1.0693 0.0000
# 3 16.1886 3.3216 51.4479 0.0000 -4.5587 0.0000
# 4 0.0000 0.0000 0.0000 21.2591 0.0000 -6.8488
# 5 -14.6184 1.0693 -4.5587 0.0000 18.9742 0.0000
# 6 0.0000 0.0000 0.0000 -6.8488 0.0000 23.9121
#
#
#
# Elastic Compliance Matrix: (Units=1/GPa)
#
#
# Indices 1 2 3 4 5 6 
#
# 1 0.013924 -0.001379 -0.003407 0.000000 0.009987 0.000000
# 2 -0.001379 0.012850 -0.000566 0.000000 -0.001923 0.000000
# 3 -0.003407 -0.000566 0.020758 0.000000 0.002394 0.000000
# 4 0.000000 0.000000 0.000000 0.051820 0.000000 0.014842
# 5 0.009987 -0.001923 0.002394 0.000000 0.061081 0.000000
# 6 0.000000 0.000000 0.000000 0.014842 0.000000 0.046071
#
#
# Mechanical properties :
#
#
# Convention : Reuss Voigt Hill
#
# Bulk Modulus (GPa) = 27.15454 30.24720 28.70087
# Shear Modulus (GPa) = 21.78796 25.50147 23.64472
#
# Velocity S-wave (km/s) = 3.30534 3.57594 3.44330
# Velocity P-wave (km/s) = 5.30879 5.67599 5.49546
#
# Compressibility (1/GPa) = 0.03682625
#
# Stress axis : x y z
#
# Youngs Moduli (GPa) = 71.81732 77.82331 48.17429
#
# Poissons Ratio (x) = 0.10735 0.16415
# Poissons Ratio (y) = 0.09906 0.02726
# Poissons Ratio (z) = 0.24471 0.04404
#
# Static dielectric constant tensor:
#      x y z
#    x 3.518010 0.000000 -0.192620 
#    y 0.000000 3.678370 0.000000 
#    z -0.192620 0.000000 3.652600 
# 
# 
# High freq. dielectric constant tensor:
#      x y z
#    x 1.741870 0.000000 -0.021910 
#    y 0.000000 1.795060 0.000000 
#    z -0.021910 0.000000 1.752790 
# 
# From -- ./inp_files/258308.got.cif
#   From: 2010.06.25/outbox.cif.g09.slc.cpg/sg15_130_cif.got.tgz:258308.got - 2010.06.28 07:06:18.
