data_PCOD8137793
_publ_section_title
;
Structure prediction by ZEFSAII (Michael W. Deem and Ramdas Pophale) SiO2 
 PCOD8137793
Probable space group: C 2/C
;
_chemical_formula_sum "Si O2"
_cell_formula_units_Z 36
_cell_length_a 12.549147
_cell_length_b 31.954340
_cell_length_c 5.088702
_cell_angle_alpha 90.000000
_cell_angle_beta 53.803732
_cell_angle_gamma 90.000000
_cell_volume 1646.735907
_symmetry_space_group_name_H-M "C 2/C"
_symmetry_group_IT_number 15
_symmetry_cell_setting 'monoclinic'
loop_
_space_group_symop_operation_xyz
x,y,z
-x,y,1/2-z
-x,-y,-z
x,-y,1/2+z
1/2+x,1/2+y,z
1/2-x,1/2+y,1/2-z
1/2-x,1/2-y,-z
1/2+x,1/2-y,1/2+z
loop_
_atom_site_type_symbol
_atom_site_label
_atom_site_fract_x
_atom_site_fract_y
_atom_site_fract_z
Si Si1 0.848412 0.027015 0.462171
Si Si2 0.145673 0.859039 0.037838
Si Si3 0.281999 0.111356 0.842627
Si Si4 0.237460 0.721160 0.266152
Si Si5 0.500000 0.162112 0.750000
O O1 0.740109 0.062682 0.695827
O O2 0.000000 0.044219 0.250000
O O3 0.823818 0.990274 0.706684
O O4 0.204490 0.860151 0.245780
O O5 0.000000 0.877775 0.250000
O O6 0.228615 0.887016 0.717765
O O7 0.142022 0.811561 0.930563
O O8 0.430139 0.130813 0.639309
O O9 0.250000 0.750000 0.500000
O O10 0.104832 0.692732 0.455238
O O11 0.250000 0.750000 0.000000
#
# Coordination Sequence:
#
# PCOD8137793 Si02
#       5
#     8   8   8   8   4
#     4  10  20  36  62  97 133 165 210 269 323 372
#     4  11  23  39  64  93 123 163 221 264 326 390
#     4  11  23  42  65  93 132 177 215 264 320 400
#     4  11  25  41  64  90 122 166 210 276 333 381
#     4  10  26  46  66  92 132 176 226 264 332 400
#
# _framework density 21.861429000000001
#
# number of rings (size 3 to 8) (size 9 to 14) (size 15 to 20)
#    0.000    1.333    0.000    6.000    3.111    8.889 
#    0.000    1.111    0.000    0.000    0.000    0.000 
#    0.000    0.000    0.000    0.000    0.000    0.000 
#
# Total GULP energy -223063.076930 kJ/mol
# GULP energy per Si atom -12392.393163 kJ/mol
# Density = 2.181167 g / cm^3
# Si number density = 21.861429 Si / 1000 Ang^3
#
#
#
# Elastic Constant Matrix: (Units=GPa)
#
#
# Indices 1 2 3 4 5 6 
#
# 1 144.4686 48.1682 42.1619 0.0000 1.0972 0.0000
# 2 48.1682 129.8274 33.0631 0.0000 -1.6795 0.0000
# 3 42.1619 33.0631 83.7811 0.0000 10.6657 0.0000
# 4 0.0000 0.0000 0.0000 38.5378 0.0000 -3.2006
# 5 1.0972 -1.6795 10.6657 0.0000 37.0955 0.0000
# 6 0.0000 0.0000 0.0000 -3.2006 0.0000 37.8618
#
#
#
# Elastic Compliance Matrix: (Units=1/GPa)
#
#
# Indices 1 2 3 4 5 6 
#
# 1 0.008731 -0.002324 -0.003561 0.000000 0.000660 0.000000
# 2 -0.002324 0.009253 -0.002641 0.000000 0.001247 0.000000
# 3 -0.003561 -0.002641 0.015333 0.000000 -0.004423 0.000000
# 4 0.000000 0.000000 0.000000 0.026132 0.000000 0.002209
# 5 0.000660 0.001247 -0.004423 0.000000 0.028266 0.000000
# 6 0.000000 0.000000 0.000000 0.002209 0.000000 0.026599
#
#
# Mechanical properties :
#
#
# Convention : Reuss Voigt Hill
#
# Bulk Modulus (GPa) = 61.47749 67.20705 64.34227
# Shear Modulus (GPa) = 36.55307 38.34461 37.44884
#
# Velocity S-wave (km/s) = 4.09349 4.19260 4.14334
# Velocity P-wave (km/s) = 7.10807 7.36521 7.23778
#
# Compressibility (1/GPa) = 0.01626612
#
# Stress axis : x y z
#
# Youngs Moduli (GPa) = 114.53571 108.06735 65.21871
#
# Poissons Ratio (x) = 0.25115 0.23222
# Poissons Ratio (y) = 0.26618 0.17224
# Poissons Ratio (z) = 0.40782 0.28541
#
# Static dielectric constant tensor:
#      x y z
#    x 56.163150 0.000000 0.082370 
#    y 0.000000 4.326090 0.000000 
#    z 0.082370 0.000000 4.030160 
# 
# 
# High freq. dielectric constant tensor:
#      x y z
#    x 1.849470 0.000000 0.017960 
#    y 0.000000 1.865700 0.000000 
#    z 0.017960 0.000000 1.861070 
# 
# From -- ./inp_files/5430.got.cif
#   From: 2010.06.25/outbox.cif.g09.slc.cpg/sg15_3_cif.got.tgz:5430.got - 2010.06.28 07:06:18.
