data_PCOD8137296
_publ_section_title
;
Structure prediction by ZEFSAII (Michael W. Deem and Ramdas Pophale) SiO2 
 PCOD8137296
Probable space group: C 2/C
;
_chemical_formula_sum "Si O2"
_cell_formula_units_Z 40
_cell_length_a 8.849226
_cell_length_b 16.887788
_cell_length_c 10.617547
_cell_angle_alpha 90.000000
_cell_angle_beta 95.772959
_cell_angle_gamma 90.000000
_cell_volume 1578.679713
_symmetry_space_group_name_H-M "C 2/C"
_symmetry_group_IT_number 15
_symmetry_cell_setting 'monoclinic'
loop_
_space_group_symop_operation_xyz
x,y,z
-x,y,1/2-z
-x,-y,-z
x,-y,1/2+z
1/2+x,1/2+y,z
1/2-x,1/2+y,1/2-z
1/2-x,1/2-y,-z
1/2+x,1/2-y,1/2+z
loop_
_atom_site_type_symbol
_atom_site_label
_atom_site_fract_x
_atom_site_fract_y
_atom_site_fract_z
Si Si1 0.000000 0.635194 0.750000
Si Si2 0.823349 0.638935 0.359434
Si Si3 0.267485 0.444616 0.420890
Si Si4 0.500000 0.385837 0.250000
Si Si5 0.662890 0.107614 0.409589
Si Si6 0.246027 0.767056 0.336129
O O1 0.116644 0.580268 0.833570
O O2 0.090554 0.690458 0.656925
O O3 0.704387 0.613907 0.457524
O O4 0.813910 0.583354 0.235276
O O5 0.791730 0.728197 0.306287
O O6 0.989797 0.624485 0.432450
O O7 0.413675 0.441618 0.343430
O O8 0.239427 0.531825 0.483021
O O9 0.616088 0.332819 0.341882
O O10 0.744624 0.194235 0.440890
#
# Coordination Sequence:
#
# PCOD8137296 Si02
#       6
#     4   8   8   4   8   8
#     4  10  22  32  58  90 114 142 194 244 268 326
#     4   9  18  37  67  77 111 161 193 214 299 354
#     4  11  22  36  63  87 112 150 199 236 278 337
#     4  10  20  36  56  82 120 150 182 234 286 336
#     4   9  18  37  63  79 111 149 195 233 275 340
#     4   9  18  40  58  76 120 154 178 233 293 336
#
# _framework density 25.337627000000001
#
# number of rings (size 3 to 8) (size 9 to 14) (size 15 to 20)
#    1.200    1.200    2.000    1.800    0.000    4.000 
#    0.000    2.000    8.800    0.000    0.000    0.000 
#    0.000    0.000    0.000    0.000    0.000    0.000 
#
# Total GULP energy -247762.710906 kJ/mol
# GULP energy per Si atom -12388.135545 kJ/mol
# Density = 2.527996 g / cm^3
# Si number density = 25.337627 Si / 1000 Ang^3
#
#
#
# Elastic Constant Matrix: (Units=GPa)
#
#
# Indices 1 2 3 4 5 6 
#
# 1 97.5952 40.2536 11.2822 0.0000 -30.9144 0.0000
# 2 40.2536 142.0232 -1.6027 0.0000 -4.1438 0.0000
# 3 11.2822 -1.6027 40.8549 0.0000 -10.5387 0.0000
# 4 0.0000 0.0000 0.0000 22.1245 0.0000 -9.0338
# 5 -30.9144 -4.1438 -10.5387 0.0000 28.2413 0.0000
# 6 0.0000 0.0000 0.0000 -9.0338 0.0000 21.3102
#
#
#
# Elastic Compliance Matrix: (Units=1/GPa)
#
#
# Indices 1 2 3 4 5 6 
#
# 1 0.018273 -0.004621 -0.000268 0.000000 0.019224 0.000000
# 2 -0.004621 0.008254 0.000672 0.000000 -0.003597 0.000000
# 3 -0.000268 0.000672 0.027139 0.000000 0.009932 0.000000
# 4 0.000000 0.000000 0.000000 0.054660 0.000000 0.023171
# 5 0.019224 -0.003597 0.009932 0.000000 0.059632 0.000000
# 6 0.000000 0.000000 0.000000 0.023171 0.000000 0.056749
#
#
# Mechanical properties :
#
#
# Convention : Reuss Voigt Hill
#
# Bulk Modulus (GPa) = 22.10879 42.25995 32.18437
# Shear Modulus (GPa) = 20.14355 29.70454 24.92405
#
# Velocity S-wave (km/s) = 2.82264 3.42767 3.13977
# Velocity P-wave (km/s) = 4.40088 5.69036 5.08664
#
# Compressibility (1/GPa) = 0.04523087
#
# Stress axis : x y z
#
# Youngs Moduli (GPa) = 54.72554 121.16012 36.84673
#
# Poissons Ratio (x) = 0.55991 0.00989
# Poissons Ratio (y) = 0.25290 -0.02477
# Poissons Ratio (z) = 0.01469 -0.08144
#
# Static dielectric constant tensor:
#      x y z
#    x 4.292230 0.000000 -0.182510 
#    y 0.000000 4.587270 0.000000 
#    z -0.182510 0.000000 4.463000 
# 
# 
# High freq. dielectric constant tensor:
#      x y z
#    x 1.983440 0.000000 -0.005110 
#    y 0.000000 2.015780 0.000000 
#    z -0.005110 0.000000 2.020510 
# 
# From -- ./inp_files/77690.got.cif
#   From: 2010.06.25/outbox.cif.g09.slc.cpg/sg15_39_cif.got.tgz:77690.got - 2010.06.28 07:06:18.
