data_PCOD8137712
_publ_section_title
;
Structure prediction by ZEFSAII (Michael W. Deem and Ramdas Pophale) SiO2 
 PCOD8137712
Probable space group: C 2/C
;
_chemical_formula_sum "Si O2"
_cell_formula_units_Z 52
_cell_length_a 14.749742
_cell_length_b 17.147714
_cell_length_c 16.435885
_cell_angle_alpha 90.000000
_cell_angle_beta 37.663577
_cell_angle_gamma 90.000000
_cell_volume 2540.048281
_symmetry_space_group_name_H-M "C 2/C"
_symmetry_group_IT_number 15
_symmetry_cell_setting 'monoclinic'
loop_
_space_group_symop_operation_xyz
x,y,z
-x,y,1/2-z
-x,-y,-z
x,-y,1/2+z
1/2+x,1/2+y,z
1/2-x,1/2+y,1/2-z
1/2-x,1/2-y,-z
1/2+x,1/2-y,1/2+z
loop_
_atom_site_type_symbol
_atom_site_label
_atom_site_fract_x
_atom_site_fract_y
_atom_site_fract_z
Si Si1 0.961239 0.319118 0.025707
Si Si2 0.935289 0.572435 0.916591
Si Si3 0.000000 0.702186 0.750000
Si Si4 0.216097 0.338842 0.507907
Si Si5 0.795750 0.215944 0.267076
Si Si6 0.126926 0.067696 0.213541
Si Si7 0.000000 0.075391 0.750000
Si Si8 0.500000 0.942119 0.750000
O O1 0.118772 0.275600 0.902289
O O2 0.898240 0.346835 0.984928
O O3 0.971315 0.398390 0.071588
O O4 0.849196 0.257384 0.147049
O O5 0.019719 0.499419 0.814263
O O6 0.913344 0.647369 0.874609
O O7 0.770836 0.547555 0.057203
O O8 0.125830 0.751017 0.707689
O O9 0.250000 0.250000 0.500000
O O10 0.376128 0.371980 0.376548
O O11 0.142609 0.385588 0.636089
O O12 0.834327 0.122718 0.237022
O O13 0.000000 0.111799 0.250000
O O14 0.062409 0.981021 0.279161
#
# Coordination Sequence:
#
# PCOD8137712 Si02
#       8
#     8   8   4   8   8   8   4   4
#     4  10  25  40  61 100 131 167 213 267 306 374
#     4   9  19  37  62  96 126 157 207 261 318 380
#     4   9  17  30  61  93 134 168 198 247 315 396
#     4  12  27  45  68  85 123 173 223 263 317 379
#     4  10  20  36  61  96 136 167 205 253 321 379
#     4   9  17  33  60  91 123 160 201 249 316 372
#     4  10  22  42  64  90 116 160 218 266 306 382
#     4  11  21  44  69  91 116 170 208 263 329 384
#
# _framework density 20.472052000000001
#
# number of rings (size 3 to 8) (size 9 to 14) (size 15 to 20)
#    0.462    1.538    2.308    0.462    6.462    2.462 
#    2.769    0.000    0.000    1.846    0.000    0.000 
#    0.000    0.000    0.000    0.000    0.000    0.000 
#
# Total GULP energy -322136.899521 kJ/mol
# GULP energy per Si atom -12389.880751 kJ/mol
# Density = 2.042546 g / cm^3
# Si number density = 20.472052 Si / 1000 Ang^3
#
#
#
# Elastic Constant Matrix: (Units=GPa)
#
#
# Indices 1 2 3 4 5 6 
#
# 1 76.9998 33.5031 48.6791 0.0006 -6.5909 -0.0004
# 2 33.5031 136.1208 68.3150 0.0009 -12.0256 -0.0004
# 3 48.6791 68.3150 125.4691 0.0023 -27.6056 -0.0004
# 4 0.0006 0.0009 0.0023 44.5021 -0.0010 -9.7012
# 5 -6.5909 -12.0256 -27.6056 -0.0010 25.0466 0.0004
# 6 -0.0004 -0.0004 -0.0004 -9.7012 0.0004 19.0407
#
#
#
# Elastic Compliance Matrix: (Units=1/GPa)
#
#
# Indices 1 2 3 4 5 6 
#
# 1 0.017603 -0.001135 -0.007013 0.000000 -0.003642 0.000000
# 2 -0.001135 0.010231 -0.005432 0.000000 -0.001374 0.000000
# 3 -0.007013 -0.005432 0.016725 0.000000 0.013980 0.000000
# 4 0.000000 0.000000 0.000000 0.025278 0.000000 0.012879
# 5 -0.003642 -0.001374 0.013980 0.000000 0.053715 -0.000001
# 6 0.000000 0.000000 0.000000 0.012879 -0.000001 0.059081
#
#
# Mechanical properties :
#
#
# Convention : Reuss Voigt Hill
#
# Bulk Modulus (GPa) = 57.47884 71.06489 64.27187
# Shear Modulus (GPa) = 23.19193 30.25738 26.72466
#
# Velocity S-wave (km/s) = 3.36945 3.84863 3.61698
# Velocity P-wave (km/s) = 6.57839 7.38497 6.99332
#
# Compressibility (1/GPa) = 0.01739771
#
# Stress axis : x y z
#
# Youngs Moduli (GPa) = 56.80998 97.74507 59.79224
#
# Poissons Ratio (x) = 0.11091 0.41932
# Poissons Ratio (y) = 0.06446 0.32482
# Poissons Ratio (z) = 0.39840 0.53100
#
# Static dielectric constant tensor:
#      x y z
#    x 3.541550 0.000000 -0.106120 
#    y 0.000000 3.878220 0.000000 
#    z -0.106120 0.000000 3.686570 
# 
# 
# High freq. dielectric constant tensor:
#      x y z
#    x 1.773130 0.000000 -0.018690 
#    y 0.000000 1.817270 0.000000 
#    z -0.018690 0.000000 1.796870 
# 
# From -- ./inp_files/155458.got.cif
#   From: 2010.06.25/outbox.cif.g09.slc.cpg/sg15_78_cif.got.tgz:155458.got - 2010.06.28 07:06:18.
