data_PCOD8137448
_publ_section_title
;
Structure prediction by ZEFSAII (Michael W. Deem and Ramdas Pophale) SiO2 
 PCOD8137448
Probable space group: C 2/C
;
_chemical_formula_sum "Si O2"
_cell_formula_units_Z 28
_cell_length_a 13.148719
_cell_length_b 8.876806
_cell_length_c 12.857921
_cell_angle_alpha 90.000000
_cell_angle_beta 119.763777
_cell_angle_gamma 90.000000
_cell_volume 1302.777989
_symmetry_space_group_name_H-M "C 2/C"
_symmetry_group_IT_number 15
_symmetry_cell_setting 'monoclinic'
loop_
_space_group_symop_operation_xyz
x,y,z
-x,y,1/2-z
-x,-y,-z
x,-y,1/2+z
1/2+x,1/2+y,z
1/2-x,1/2+y,1/2-z
1/2-x,1/2-y,-z
1/2+x,1/2-y,1/2+z
loop_
_atom_site_type_symbol
_atom_site_label
_atom_site_fract_x
_atom_site_fract_y
_atom_site_fract_z
Si Si1 0.459577 0.836465 0.511639
Si Si2 0.262163 0.430199 0.201031
Si Si3 0.197266 0.754706 0.086940
Si Si4 0.500000 0.707088 0.750000
O O1 0.327884 0.815053 0.402565
O O2 0.555724 0.725237 0.507370
O O3 0.462199 0.815446 0.636861
O O4 0.500000 0.000000 0.500000
O O5 0.227978 0.602935 0.165864
O O6 0.253928 0.394726 0.320808
O O7 0.392057 0.400683 0.224519
O O8 0.250000 0.750000 0.000000
#
# Coordination Sequence:
#
# PCOD8137448 Si02
#       4
#     8   8   8   4
#     4   9  20  36  57  82 115 156 192 232 290 352
#     4  10  22  39  59  85 117 155 194 242 290 345
#     4  10  23  40  60  88 118 154 197 239 292 349
#     4  10  20  36  58  88 116 150 200 246 290 338
#
# _framework density 21.492533999999999
#
# number of rings (size 3 to 8) (size 9 to 14) (size 15 to 20)
#    0.000    2.286    0.000    0.857    0.000   19.429 
#    0.000    5.714    0.000    0.000    0.000    0.000 
#    0.000    0.000    0.000    0.000    0.000    0.000 
#
# Total GULP energy -173497.645424 kJ/mol
# GULP energy per Si atom -12392.688959 kJ/mol
# Density = 2.144362 g / cm^3
# Si number density = 21.492534 Si / 1000 Ang^3
#
#
#
# Elastic Constant Matrix: (Units=GPa)
#
#
# Indices 1 2 3 4 5 6 
#
# 1 128.0416 12.1768 64.3599 0.0000 -2.8271 0.0000
# 2 12.1768 59.8143 20.0287 0.0000 -5.1546 0.0000
# 3 64.3599 20.0287 103.9108 0.0000 -10.1227 0.0000
# 4 0.0000 0.0000 0.0000 36.7586 0.0000 -5.0213
# 5 -2.8271 -5.1546 -10.1227 0.0000 53.4196 0.0000
# 6 0.0000 0.0000 0.0000 -5.0213 0.0000 18.6777
#
#
#
# Elastic Compliance Matrix: (Units=1/GPa)
#
#
# Indices 1 2 3 4 5 6 
#
# 1 0.011370 0.000004 -0.007116 0.000000 -0.000746 0.000000
# 2 0.000004 0.017935 -0.003352 0.000000 0.001096 0.000000
# 3 -0.007116 -0.003352 0.014884 0.000000 0.002120 0.000000
# 4 0.000000 0.000000 0.000000 0.028242 0.000000 0.007592
# 5 -0.000746 0.001096 0.002120 0.000000 0.019188 0.000000
# 6 0.000000 0.000000 0.000000 0.007592 0.000000 0.055581
#
#
# Mechanical properties :
#
#
# Convention : Reuss Voigt Hill
#
# Bulk Modulus (GPa) = 42.99352 53.87749 48.43550
# Shear Modulus (GPa) = 28.42849 34.78461 31.60655
#
# Velocity S-wave (km/s) = 3.64086 4.02736 3.83898
# Velocity P-wave (km/s) = 6.14181 6.83730 6.49886
#
# Compressibility (1/GPa) = 0.02325932
#
# Stress axis : x y z
#
# Youngs Moduli (GPa) = 87.95258 55.75811 67.18808
#
# Poissons Ratio (x) = -0.00021 0.47808
# Poissons Ratio (y) = -0.00032 0.22524
# Poissons Ratio (z) = 0.62583 0.18693
#
# Static dielectric constant tensor:
#      x y z
#    x 4.545260 0.000000 0.585230 
#    y 0.000000 3.587730 0.000000 
#    z 0.585230 0.000000 4.387480 
# 
# 
# High freq. dielectric constant tensor:
#      x y z
#    x 1.863190 0.000000 0.011200 
#    y 0.000000 1.817190 0.000000 
#    z 0.011200 0.000000 1.851550 
# 
# From -- ./inp_files/36643.got.cif
#   From: 2010.06.25/outbox.cif.g09.slc.cpg/sg15_19_cif.got.tgz:36643.got - 2010.06.28 07:06:18.
