data_PCOD8137402
_publ_section_title
;
Structure prediction by ZEFSAII (Michael W. Deem and Ramdas Pophale) SiO2 
 PCOD8137402
Probable space group: C 2/C
;
_chemical_formula_sum "Si O2"
_cell_formula_units_Z 48
_cell_length_a 20.747877
_cell_length_b 19.039655
_cell_length_c 19.346030
_cell_angle_alpha 90.000000
_cell_angle_beta 21.192720
_cell_angle_gamma 90.000000
_cell_volume 2762.741386
_symmetry_space_group_name_H-M "C 2/C"
_symmetry_group_IT_number 15
_symmetry_cell_setting 'monoclinic'
loop_
_space_group_symop_operation_xyz
x,y,z
-x,y,1/2-z
-x,-y,-z
x,-y,1/2+z
1/2+x,1/2+y,z
1/2-x,1/2+y,1/2-z
1/2-x,1/2-y,-z
1/2+x,1/2-y,1/2+z
loop_
_atom_site_type_symbol
_atom_site_label
_atom_site_fract_x
_atom_site_fract_y
_atom_site_fract_z
Si Si1 0.702922 0.099164 0.470509
Si Si2 0.203353 0.400727 0.123174
Si Si3 0.795314 0.670643 0.739984
Si Si4 0.999785 0.922399 0.468250
Si Si5 0.999817 0.985972 0.172540
Si Si6 0.704189 0.829486 0.831045
O O1 0.499736 0.073003 0.667694
O O2 0.742733 0.130636 0.507212
O O3 0.824376 0.032043 0.335125
O O4 0.744396 0.158818 0.372356
O O5 0.244628 0.340984 0.138527
O O6 0.325196 0.467714 0.015346
O O7 0.749911 0.750071 0.766201
O O8 0.999694 0.654103 0.517400
O O9 0.676457 0.618360 0.814125
O O10 0.822704 0.881831 0.667740
O O11 0.000000 0.000000 0.500000
O O12 0.999963 0.924606 0.384507
O O13 0.000000 0.953969 0.250000
#
# Coordination Sequence:
#
# PCOD8137402 Si02
#       6
#     8   8   8   8   8   8
#     4   9  18  32  51  80 117 152 187 221 271 339
#     4   9  18  32  51  80 117 152 187 221 271 339
#     4  11  22  36  56  83 119 154 189 233 285 334
#     4  12  22  38  60  88 113 148 195 238 282 338
#     4  10  20  36  58  82 114 146 184 236 286 332
#     4  11  22  36  56  83 119 154 189 233 285 334
#
# _framework density 17.374047999999998
#
# number of rings (size 3 to 8) (size 9 to 14) (size 15 to 20)
#    0.000    1.667    5.000    0.000    0.000    2.667 
#    0.000    0.000    0.000    1.000    0.000    0.000 
#    0.000    0.000    0.000    0.000    0.000    0.000 
#
# Total GULP energy -297580.844999 kJ/mol
# GULP energy per Si atom -12399.201875 kJ/mol
# Density = 1.733450 g / cm^3
# Si number density = 17.374048 Si / 1000 Ang^3
#
#
#
# Elastic Constant Matrix: (Units=GPa)
#
#
# Indices 1 2 3 4 5 6 
#
# 1 110.6047 62.0560 54.6672 0.1043 7.2026 -0.0254
# 2 62.0560 104.1747 50.7476 0.1439 3.6604 -0.0498
# 3 54.6672 50.7476 105.4389 0.4456 -5.2225 -0.1825
# 4 0.1043 0.1439 0.4456 28.3180 -0.0353 -0.5564
# 5 7.2026 3.6604 -5.2225 -0.0353 19.9269 -0.0356
# 6 -0.0254 -0.0498 -0.1825 -0.5564 -0.0356 26.2208
#
#
#
# Elastic Compliance Matrix: (Units=1/GPa)
#
#
# Indices 1 2 3 4 5 6 
#
# 1 0.015728 -0.006596 -0.005270 0.000050 -0.005854 -0.000041
# 2 -0.006596 0.015618 -0.004175 0.000008 -0.001579 -0.000008
# 3 -0.005270 -0.004175 0.014548 -0.000178 0.006485 0.000093
# 4 0.000050 0.000008 -0.000178 0.035331 -0.000003 0.000749
# 5 -0.005854 -0.001579 0.006485 -0.000003 0.054289 0.000110
# 6 -0.000041 -0.000008 0.000093 0.000749 0.000110 0.038154
#
#
# Mechanical properties :
#
#
# Convention : Reuss Voigt Hill
#
# Bulk Modulus (GPa) = 72.40496 72.79553 72.60025
# Shear Modulus (GPa) = 23.76937 25.07630 24.42284
#
# Velocity S-wave (km/s) = 3.70279 3.80323 3.75334
# Velocity P-wave (km/s) = 7.74891 7.82790 7.78850
#
# Compressibility (1/GPa) = 0.01381121
#
# Stress axis : x y z
#
# Youngs Moduli (GPa) = 63.58088 64.02903 68.73705
#
# Poissons Ratio (x) = 0.42235 0.36225
# Poissons Ratio (y) = 0.41939 0.28699
# Poissons Ratio (z) = 0.33508 0.26734
#
# Static dielectric constant tensor:
#      x y z
#    x 3.447720 -0.000020 -0.028860 
#    y -0.000020 2.904730 0.000110 
#    z -0.028860 0.000110 3.541470 
# 
# 
# High freq. dielectric constant tensor:
#      x y z
#    x 1.670800 0.000000 -0.006690 
#    y 0.000000 1.633260 0.000010 
#    z -0.006690 0.000010 1.693560 
# 
# From -- ./inp_files/249718.got.cif
#   From: 2010.06.25/outbox.cif.g09.slc.cpg/sg15_125_cif.got.tgz:249718.got - 2010.06.28 07:06:18.
