data_PCOD8137951
_publ_section_title
;
Structure prediction by ZEFSAII (Michael W. Deem and Ramdas Pophale) SiO2 
 PCOD8137951
Probable space group: C 2/C
;
_chemical_formula_sum "Si O2"
_cell_formula_units_Z 44
_cell_length_a 7.334963
_cell_length_b 18.066410
_cell_length_c 19.816091
_cell_angle_alpha 90.000000
_cell_angle_beta 131.456807
_cell_angle_gamma 90.000000
_cell_volume 1968.037441
_symmetry_space_group_name_H-M "C 2/C"
_symmetry_group_IT_number 15
_symmetry_cell_setting 'monoclinic'
loop_
_space_group_symop_operation_xyz
x,y,z
-x,y,1/2-z
-x,-y,-z
x,-y,1/2+z
1/2+x,1/2+y,z
1/2-x,1/2+y,1/2-z
1/2-x,1/2-y,-z
1/2+x,1/2-y,1/2+z
loop_
_atom_site_type_symbol
_atom_site_label
_atom_site_fract_x
_atom_site_fract_y
_atom_site_fract_z
Si Si1 0.841462 0.844026 0.978458
Si Si2 0.000000 0.121604 0.750000
Si Si3 0.511577 0.515220 0.342926
Si Si4 0.266501 0.928478 0.029617
Si Si5 0.588711 0.054234 0.162792
Si Si6 0.630949 0.811661 0.069950
O O1 0.598081 0.878007 0.885057
O O2 0.929883 0.774644 0.954231
O O3 0.796389 0.828798 0.045461
O O4 0.071954 0.897596 0.034311
O O5 0.224049 0.175261 0.824173
O O6 0.968059 0.069027 0.807623
O O7 0.615061 0.516238 0.443637
O O8 0.243754 0.554514 0.271252
O O9 0.708389 0.559084 0.345936
O O10 0.394399 0.864265 0.016044
O O11 0.457772 0.975186 0.119535
#
# Coordination Sequence:
#
# PCOD8137951 Si02
#       6
#     8   4   8   8   8   8
#     4  11  25  39  65 102 125 175 219 268 328 402
#     4  10  20  40  68  88 122 188 202 264 334 386
#     4  10  20  36  70  89 119 175 216 258 341 372
#     4  12  21  41  69  91 133 172 215 277 329 385
#     4  10  20  39  61  96 127 159 222 275 311 385
#     4  11  23  44  64  90 142 173 215 262 341 399
#
# _framework density 22.357299000000001
#
# number of rings (size 3 to 8) (size 9 to 14) (size 15 to 20)
#    0.000    1.455    5.455    2.727    0.000    2.182 
#    0.000    2.727    0.000    0.000    0.000    0.000 
#    0.000    0.000    0.000    0.000    0.000    0.000 
#
# Total GULP energy -272608.941014 kJ/mol
# GULP energy per Si atom -12391.315501 kJ/mol
# Density = 2.230641 g / cm^3
# Si number density = 22.357299 Si / 1000 Ang^3
#
#
#
# Elastic Constant Matrix: (Units=GPa)
#
#
# Indices 1 2 3 4 5 6 
#
# 1 55.1728 27.9442 27.2433 0.0001 14.3422 0.0000
# 2 27.9442 95.9723 32.9516 0.0000 11.7921 0.0000
# 3 27.2433 32.9516 120.4809 -0.0001 25.5463 0.0000
# 4 0.0001 0.0000 -0.0001 25.3116 0.0000 4.4341
# 5 14.3422 11.7921 25.5463 0.0000 22.9355 0.0000
# 6 0.0000 0.0000 0.0000 4.4341 0.0000 24.2794
#
#
#
# Elastic Compliance Matrix: (Units=1/GPa)
#
#
# Indices 1 2 3 4 5 6 
#
# 1 0.024402 -0.005170 -0.001875 0.000000 -0.010513 0.000000
# 2 -0.005170 0.012772 -0.002117 0.000000 -0.000976 0.000000
# 3 -0.001875 -0.002117 0.011552 0.000000 -0.010606 0.000000
# 4 0.000000 0.000000 0.000000 0.040813 0.000000 -0.007454
# 5 -0.010513 -0.000976 -0.010606 0.000000 0.062489 0.000000
# 6 0.000000 0.000000 0.000000 -0.007454 0.000000 0.042548
#
#
# Mechanical properties :
#
#
# Convention : Reuss Voigt Hill
#
# Bulk Modulus (GPa) = 32.89243 49.76712 41.32978
# Shear Modulus (GPa) = 22.41814 26.73778 24.57796
#
# Velocity S-wave (km/s) = 3.17001 3.46197 3.31921
# Velocity P-wave (km/s) = 5.30497 6.18778 5.76330
#
# Compressibility (1/GPa) = 0.03040213
#
# Stress axis : x y z
#
# Youngs Moduli (GPa) = 40.98064 78.29790 86.56582
#
# Poissons Ratio (x) = 0.40477 0.16229
# Poissons Ratio (y) = 0.21186 0.18328
# Poissons Ratio (z) = 0.07683 0.16578
#
# Static dielectric constant tensor:
#      x y z
#    x 3.845690 0.000000 0.220470 
#    y 0.000000 4.221660 0.000000 
#    z 0.220470 0.000000 4.281150 
# 
# 
# High freq. dielectric constant tensor:
#      x y z
#    x 1.869430 0.000000 0.014300 
#    y 0.000000 1.867270 0.000000 
#    z 0.014300 0.000000 1.889250 
# 
# From -- ./inp_files/265640.got.cif
#   From: 2010.06.25/outbox.cif.g09.slc.cpg/sg15_133_cif.got.tgz:265640.got - 2010.06.28 07:06:18.
