data_PCOD8137046
_publ_section_title
;
Structure prediction by ZEFSAII (Michael W. Deem and Ramdas Pophale) SiO2 
 PCOD8137046
Probable space group: C 2/C
;
_chemical_formula_sum "Si O2"
_cell_formula_units_Z 64
_cell_length_a 22.909166
_cell_length_b 23.195703
_cell_length_c 13.944714
_cell_angle_alpha 90.000000
_cell_angle_beta 155.635615
_cell_angle_gamma 90.000000
_cell_volume 3056.966454
_symmetry_space_group_name_H-M "C 2/C"
_symmetry_group_IT_number 15
_symmetry_cell_setting 'monoclinic'
loop_
_space_group_symop_operation_xyz
x,y,z
-x,y,1/2-z
-x,-y,-z
x,-y,1/2+z
1/2+x,1/2+y,z
1/2-x,1/2+y,1/2-z
1/2-x,1/2-y,-z
1/2+x,1/2-y,1/2+z
loop_
_atom_site_type_symbol
_atom_site_label
_atom_site_fract_x
_atom_site_fract_y
_atom_site_fract_z
Si Si1 0.638465 0.036925 0.186329
Si Si2 0.158338 0.053250 0.172318
Si Si3 0.591466 0.682133 0.105594
Si Si4 0.029707 0.765135 0.903650
Si Si5 0.922453 0.666779 0.375377
Si Si6 0.769073 0.162570 0.584159
Si Si7 0.175979 0.293826 0.134278
Si Si8 0.155899 0.035970 0.834681
O O1 0.711329 0.026969 0.192520
O O2 0.590985 0.102267 0.110679
O O3 0.760275 0.021194 0.443995
O O4 0.500000 0.000000 0.000000
O O5 0.170598 0.121376 0.213935
O O6 0.165501 0.019185 0.281558
O O7 0.010542 0.046042 0.893674
O O8 0.598314 0.703821 0.228129
O O9 0.664275 0.725739 0.140468
O O10 0.427050 0.686153 0.830200
O O11 0.000000 0.747010 0.750000
O O12 0.075186 0.708024 0.029758
O O13 0.161287 0.810045 0.095760
O O14 0.068403 0.668935 0.534907
O O15 0.789705 0.681827 0.107660
O O16 0.660978 0.190748 0.499295
O O17 0.773019 0.093195 0.604510
#
# Coordination Sequence:
#
# PCOD8137046 Si02
#       8
#     8   8   8   8   8   8   8   8
#     4  11  24  41  59  94 128 158 206 260 318 378
#     4  10  20  42  67  89 122 161 214 258 310 372
#     4   9  20  37  61  95 119 158 209 250 310 371
#     4  10  22  41  58  83 123 165 211 257 295 369
#     4  10  22  38  58  87 121 160 200 244 322 371
#     4   9  19  36  60  89 122 150 199 260 308 372
#     4  10  20  35  59  86 121 157 194 251 315 366
#     4   9  21  41  66  89 117 167 211 260 308 366
#
# _framework density 20.935787999999999
#
# number of rings (size 3 to 8) (size 9 to 14) (size 15 to 20)
#    0.000    2.250    0.000    1.500    1.750    8.000 
#    6.750    7.500    0.000    0.000    0.000    0.000 
#    0.000    0.000    0.000    0.000    0.000    0.000 
#
# Total GULP energy -396574.731785 kJ/mol
# GULP energy per Si atom -12392.960368 kJ/mol
# Density = 2.088814 g / cm^3
# Si number density = 20.935788 Si / 1000 Ang^3
#
#
#
# Elastic Constant Matrix: (Units=GPa)
#
#
# Indices 1 2 3 4 5 6 
#
# 1 122.0719 42.4408 36.7994 0.0000 1.4914 0.0000
# 2 42.4408 70.6252 28.1820 0.0000 -11.7085 0.0000
# 3 36.7994 28.1820 59.8899 0.0000 -10.4877 0.0000
# 4 0.0000 0.0000 0.0000 32.6480 0.0000 4.2124
# 5 1.4914 -11.7085 -10.4877 0.0000 35.4314 0.0000
# 6 0.0000 0.0000 0.0000 4.2124 0.0000 29.7581
#
#
#
# Elastic Compliance Matrix: (Units=1/GPa)
#
#
# Indices 1 2 3 4 5 6 
#
# 1 0.011788 -0.005626 -0.005282 0.000000 -0.003919 0.000000
# 2 -0.005626 0.020542 -0.005252 0.000000 0.005471 0.000000
# 3 -0.005282 -0.005252 0.023360 0.000000 0.005401 0.000000
# 4 0.000000 0.000000 0.000000 0.031200 0.000000 -0.004416
# 5 -0.003919 0.005471 0.005401 0.000000 0.031795 0.000000
# 6 0.000000 0.000000 0.000000 -0.004416 0.000000 0.034229
#
#
# Mechanical properties :
#
#
# Convention : Reuss Voigt Hill
#
# Bulk Modulus (GPa) = 42.78755 51.93683 47.36219
# Shear Modulus (GPa) = 25.90345 29.24515 27.57430
#
# Velocity S-wave (km/s) = 3.52132 3.74156 3.63311
# Velocity P-wave (km/s) = 6.08398 6.59752 6.34595
#
# Compressibility (1/GPa) = 0.02337128
#
# Stress axis : x y z
#
# Youngs Moduli (GPa) = 84.83220 48.67958 42.80800
#
# Poissons Ratio (x) = 0.27385 0.22612
# Poissons Ratio (y) = 0.47724 0.22482
# Poissons Ratio (z) = 0.44810 0.25566
#
# Static dielectric constant tensor:
#      x y z
#    x 3.966570 0.000000 0.158400 
#    y 0.000000 3.824720 0.000000 
#    z 0.158400 0.000000 3.778370 
# 
# 
# High freq. dielectric constant tensor:
#      x y z
#    x 1.831550 0.000000 0.010310 
#    y 0.000000 1.814550 0.000000 
#    z 0.010310 0.000000 1.807300 
# 
# From -- ./inp_files/115016.got.cif
#   From: 2010.06.25/outbox.cif.g09.slc.cpg/sg15_58_cif.got.tgz:115016.got - 2010.06.28 07:06:18.
