data_PCOD8137495
_publ_section_title
;
Structure prediction by ZEFSAII (Michael W. Deem and Ramdas Pophale) SiO2 
 PCOD8137495
Probable space group: C 2/C
;
_chemical_formula_sum "Si O2"
_cell_formula_units_Z 64
_cell_length_a 22.392444
_cell_length_b 26.070617
_cell_length_c 5.296211
_cell_angle_alpha 90.000000
_cell_angle_beta 80.505000
_cell_angle_gamma 90.000000
_cell_volume 3049.489335
_symmetry_space_group_name_H-M "C 2/C"
_symmetry_group_IT_number 15
_symmetry_cell_setting 'monoclinic'
loop_
_space_group_symop_operation_xyz
x,y,z
-x,y,1/2-z
-x,-y,-z
x,-y,1/2+z
1/2+x,1/2+y,z
1/2-x,1/2+y,1/2-z
1/2-x,1/2-y,-z
1/2+x,1/2-y,1/2+z
loop_
_atom_site_type_symbol
_atom_site_label
_atom_site_fract_x
_atom_site_fract_y
_atom_site_fract_z
Si Si1 0.648620 0.638776 0.884635
Si Si2 0.941469 0.217004 0.416446
Si Si3 0.671270 0.142178 0.482980
Si Si4 0.147345 0.972186 0.500174
Si Si5 0.652647 0.770270 0.361922
Si Si6 0.785929 0.830053 0.646854
Si Si7 0.061300 0.681583 0.311216
Si Si8 0.708749 0.029528 0.589228
O O1 0.687133 0.635727 0.599176
O O2 0.591845 0.676893 0.875181
O O3 0.619910 0.583470 0.962252
O O4 0.689127 0.654849 0.095214
O O5 0.892289 0.232040 0.246565
O O6 0.965422 0.267762 0.538507
O O7 0.000000 0.190350 0.250000
O O8 0.686640 0.188256 0.665450
O O9 0.714297 0.155336 0.210292
O O10 0.598797 0.144018 0.470757
O O11 0.682769 0.086956 0.596196
O O12 0.219467 0.967229 0.454208
O O13 0.124650 0.008952 0.289406
O O14 0.703293 0.730244 0.431499
O O15 0.613589 0.801635 0.586458
O O16 0.000000 0.653707 0.250000
O O17 0.685285 0.002238 0.861491
#
# Coordination Sequence:
#
# PCOD8137495 Si02
#       8
#     8   8   8   8   8   8   8   8
#     4  11  22  37  61  91 124 164 204 253 305 361
#     4  10  20  38  59  86 121 165 211 248 289 359
#     4  11  25  37  62  90 125 165 197 258 309 370
#     4  10  20  36  59  84 119 159 204 257 306 362
#     4  10  22  38  58  88 127 164 200 244 304 363
#     4  11  23  38  58  93 133 161 199 242 309 381
#     4  11  22  39  62  86 120 164 209 248 294 367
#     4  10  23  40  61  88 119 156 206 253 307 368
#
# _framework density 20.987120000000001
#
# number of rings (size 3 to 8) (size 9 to 14) (size 15 to 20)
#    0.000    1.500    3.750    1.125    7.000    0.500 
#    0.000    0.000    0.000    1.500    0.000    0.000 
#    0.000    0.000    0.000    0.000    0.000    0.000 
#
# Total GULP energy -396604.427591 kJ/mol
# GULP energy per Si atom -12393.888362 kJ/mol
# Density = 2.093935 g / cm^3
# Si number density = 20.987120 Si / 1000 Ang^3
#
#
#
# Elastic Constant Matrix: (Units=GPa)
#
#
# Indices 1 2 3 4 5 6 
#
# 1 53.5306 33.2021 18.3574 0.0000 -6.9291 0.0000
# 2 33.2021 99.4930 23.8566 0.0000 -0.0334 0.0000
# 3 18.3574 23.8566 94.9344 0.0000 5.0895 0.0000
# 4 0.0000 0.0000 0.0000 9.0232 0.0000 -10.7931
# 5 -6.9291 -0.0334 5.0895 0.0000 18.0627 0.0000
# 6 0.0000 0.0000 0.0000 -10.7931 0.0000 -6.5949
#
#
#
# Elastic Compliance Matrix: (Units=1/GPa)
#
#
# Indices 1 2 3 4 5 6 
#
# 1 0.026272 -0.007877 -0.003696 0.000000 0.011105 0.000000
# 2 -0.007877 0.013068 -0.001625 0.000000 -0.002540 0.000000
# 3 -0.003696 -0.001625 0.011913 0.000000 -0.004777 0.000000
# 4 0.000000 0.000000 0.000000 0.037471 0.000000 -0.061325
# 5 0.011105 -0.002540 -0.004777 0.000000 0.060964 0.000000
# 6 0.000000 0.000000 0.000000 -0.061325 0.000000 -0.051269
#
#
# Mechanical properties :
#
#
# Convention : Reuss Voigt Hill
#
# Bulk Modulus (GPa) = 40.23011 44.31003 42.27007
# Shear Modulus (GPa) = 37.56554 15.60099 26.58327
#
# Velocity S-wave (km/s) = 4.23535 2.72942 3.56286
# Velocity P-wave (km/s) = 6.56720 5.57600 6.09180
#
# Compressibility (1/GPa) = 0.02485701
#
# Stress axis : x y z
#
# Youngs Moduli (GPa) = 38.06386 76.52039 83.94426
#
# Poissons Ratio (x) = 0.60277 0.31025
# Poissons Ratio (y) = 0.29984 0.13638
# Poissons Ratio (z) = 0.14068 0.12432
#
# Static dielectric constant tensor:
#      x y z
#    x 3.664500 0.000000 0.121020 
#    y 0.000000 3.843450 0.000000 
#    z 0.121020 0.000000 4.027390 
# 
# 
# High freq. dielectric constant tensor:
#      x y z
#    x 1.796570 0.000000 0.007950 
#    y 0.000000 1.806380 0.000000 
#    z 0.007950 0.000000 1.830830 
# 
# From -- ./inp_files/16139.got.cif
#   From: 2010.06.25/outbox.cif.g09.slc.cpg/sg15_9_cif.got.tgz:16139.got - 2010.06.28 07:06:18.
