data_PCOD8137550
_publ_section_title
;
Structure prediction by ZEFSAII (Michael W. Deem and Ramdas Pophale) SiO2 
 PCOD8137550
Probable space group: C 2/C
;
_chemical_formula_sum "Si O2"
_cell_formula_units_Z 56
_cell_length_a 16.258328
_cell_length_b 14.756849
_cell_length_c 19.015389
_cell_angle_alpha 90.000000
_cell_angle_beta 148.058688
_cell_angle_gamma 90.000000
_cell_volume 2413.635693
_symmetry_space_group_name_H-M "C 2/C"
_symmetry_group_IT_number 15
_symmetry_cell_setting 'monoclinic'
loop_
_space_group_symop_operation_xyz
x,y,z
-x,y,1/2-z
-x,-y,-z
x,-y,1/2+z
1/2+x,1/2+y,z
1/2-x,1/2+y,1/2-z
1/2-x,1/2-y,-z
1/2+x,1/2-y,1/2+z
loop_
_atom_site_type_symbol
_atom_site_label
_atom_site_fract_x
_atom_site_fract_y
_atom_site_fract_z
Si Si1 0.695717 0.997038 0.246779
Si Si2 0.013008 0.766238 0.607898
Si Si3 0.346859 0.691354 0.845036
Si Si4 0.669688 0.063636 0.376225
Si Si5 0.470179 0.633793 0.650576
Si Si6 0.128596 0.939782 0.752902
Si Si7 0.623966 0.915221 0.452231
O O1 0.810992 0.912634 0.333958
O O2 0.514490 0.970196 0.108938
O O3 0.734975 0.053859 0.345058
O O4 0.739753 0.057802 0.212008
O O5 0.191324 0.746965 0.719810
O O6 0.004109 0.860492 0.644574
O O7 0.930740 0.767090 0.473153
O O8 0.931419 0.688978 0.596973
O O9 0.451883 0.699483 0.850756
O O10 0.500000 0.110654 0.250000
O O11 0.784423 0.128265 0.503401
O O12 0.652259 0.962656 0.397586
O O13 0.500000 0.673761 0.750000
O O14 0.536818 0.532659 0.693319
O O15 0.215728 0.919724 0.888774
#
# Coordination Sequence:
#
# PCOD8137550 Si02
#       7
#     8   8   8   8   8   8   8
#     4   9  20  36  62  89 118 156 205 252 288 347
#     4  11  21  39  60  91 125 159 197 239 307 364
#     4  10  22  39  61  87 122 158 201 250 294 359
#     4  10  20  38  59  88 123 150 194 251 299 350
#     4  11  22  40  63  90 117 155 207 255 294 347
#     4  11  20  37  64  90 117 160 202 245 299 358
#     4  10  20  36  59  90 126 155 197 246 299 361
#
# _framework density 23.201512999999998
#
# number of rings (size 3 to 8) (size 9 to 14) (size 15 to 20)
#    0.000    1.714    2.857    2.143    0.000    2.286 
#    0.000    7.143    0.000    2.571    0.000    0.000 
#    0.000    0.000    0.000    0.000    0.000    0.000 
#
# Total GULP energy -347262.960945 kJ/mol
# GULP energy per Si atom -12402.248605 kJ/mol
# Density = 2.314871 g / cm^3
# Si number density = 23.201513 Si / 1000 Ang^3
#
#
#
# Elastic Constant Matrix: (Units=GPa)
#
#
# Indices 1 2 3 4 5 6 
#
# 1 72.9442 -19.5278 9.3676 -0.0022 -6.3141 -0.0014
# 2 -19.5278 24.7972 -6.4288 -0.0001 2.1930 -0.0007
# 3 9.3676 -6.4288 131.7537 -0.0026 0.1947 -0.0036
# 4 -0.0022 -0.0001 -0.0026 15.9211 0.0006 -0.3856
# 5 -6.3141 2.1930 0.1947 0.0006 26.2902 -0.0007
# 6 -0.0014 -0.0007 -0.0036 -0.3856 -0.0007 27.5596
#
#
#
# Elastic Compliance Matrix: (Units=1/GPa)
#
#
# Indices 1 2 3 4 5 6 
#
# 1 0.017665 0.013479 -0.000603 0.000002 0.003123 0.000001
# 2 0.013479 0.051439 0.001553 0.000002 -0.001065 0.000002
# 3 -0.000603 0.001553 0.007709 0.000001 -0.000331 0.000001
# 4 0.000002 0.000002 0.000001 0.062831 -0.000001 0.000879
# 5 0.003123 -0.001065 -0.000331 -0.000001 0.038878 0.000001
# 6 0.000001 0.000002 0.000001 0.000879 0.000001 0.036297
#
#
# Mechanical properties :
#
#
# Convention : Reuss Voigt Hill
#
# Bulk Modulus (GPa) = 9.46330 21.81300 15.63815
# Shear Modulus (GPa) = 22.60550 30.35979 26.48265
#
# Velocity S-wave (km/s) = 3.12478 3.62128 3.38215
# Velocity P-wave (km/s) = 4.13601 5.18718 4.69113
#
# Compressibility (1/GPa) = 0.10567137
#
# Stress axis : x y z
#
# Youngs Moduli (GPa) = 56.60824 19.44063 129.71755
#
# Poissons Ratio (x) = -0.26204 0.07821
# Poissons Ratio (y) = -0.76302 -0.20147
# Poissons Ratio (z) = 0.03413 -0.03019
#
# Static dielectric constant tensor:
#      x y z
#    x 4.276030 0.000000 0.048020 
#    y 0.000000 3.913090 0.000000 
#    z 0.048020 0.000000 4.272900 
# 
# 
# High freq. dielectric constant tensor:
#      x y z
#    x 1.916280 0.000000 0.001780 
#    y 0.000000 1.893550 0.000000 
#    z 0.001780 0.000000 1.930020 
# 
# From -- ./inp_files/62663.got.cif
#   From: 2010.06.25/outbox.cif.g09.slc.cpg/sg15_32_cif.got.tgz:62663.got - 2010.06.28 07:06:18.
