data_PCOD8137431
_publ_section_title
;
Structure prediction by ZEFSAII (Michael W. Deem and Ramdas Pophale) SiO2 
 PCOD8137431
Probable space group: C 2/C
;
_chemical_formula_sum "Si O2"
_cell_formula_units_Z 56
_cell_length_a 17.303256
_cell_length_b 9.701148
_cell_length_c 21.853741
_cell_angle_alpha 90.000000
_cell_angle_beta 52.661673
_cell_angle_gamma 90.000000
_cell_volume 2916.627695
_symmetry_space_group_name_H-M "C 2/C"
_symmetry_group_IT_number 15
_symmetry_cell_setting 'monoclinic'
loop_
_space_group_symop_operation_xyz
x,y,z
-x,y,1/2-z
-x,-y,-z
x,-y,1/2+z
1/2+x,1/2+y,z
1/2-x,1/2+y,1/2-z
1/2-x,1/2-y,-z
1/2+x,1/2-y,1/2+z
loop_
_atom_site_type_symbol
_atom_site_label
_atom_site_fract_x
_atom_site_fract_y
_atom_site_fract_z
Si Si1 0.191051 0.928301 0.905838
Si Si2 0.056054 0.112577 0.285917
Si Si3 0.466387 0.609349 0.912467
Si Si4 0.328265 0.223270 0.689728
Si Si5 0.257490 0.006822 0.145011
Si Si6 0.690919 0.280440 0.087713
Si Si7 0.332163 0.286439 0.137907
O O1 0.150480 0.851143 0.865753
O O2 0.291837 0.849350 0.875264
O O3 0.213310 0.085764 0.877817
O O4 0.112110 0.923999 0.997775
O O5 0.087042 0.261842 0.299426
O O6 0.000000 0.138561 0.250000
O O7 0.154629 0.026780 0.228012
O O8 0.993615 0.032846 0.366436
O O9 0.421150 0.702772 0.879079
O O10 0.554640 0.689568 0.902144
O O11 0.331403 0.078673 0.653037
O O12 0.222438 0.237787 0.771789
O O13 0.235393 0.921642 0.094257
O O14 0.313321 0.150710 0.104768
O O15 0.750000 0.250000 0.000000
#
# Coordination Sequence:
#
# PCOD8137431 Si02
#       7
#     8   8   8   8   8   8   8
#     4  10  21  38  62  87 119 154 196 243 292 349
#     4  11  20  34  61  88 113 151 202 245 283 349
#     4  11  20  37  63  90 113 153 207 238 286 357
#     4  10  20  37  56  85 121 153 189 243 295 347
#     4  10  20  36  58  85 117 151 196 235 298 347
#     4   9  20  38  58  82 120 155 186 242 297 347
#     4  11  20  35  60  90 111 153 200 241 285 355
#
# _framework density 19.200257000000001
#
# number of rings (size 3 to 8) (size 9 to 14) (size 15 to 20)
#    0.000    1.714    4.286    1.286    0.000    0.000 
#    0.000   12.143    0.000    0.000    0.000    0.000 
#    0.000    0.000    0.000    0.000    0.000    0.000 
#
# Total GULP energy -346953.448764 kJ/mol
# GULP energy per Si atom -12391.194599 kJ/mol
# Density = 1.915656 g / cm^3
# Si number density = 19.200257 Si / 1000 Ang^3
#
#
#
# Elastic Constant Matrix: (Units=GPa)
#
#
# Indices 1 2 3 4 5 6 
#
# 1 123.7050 66.7694 24.6973 0.0000 6.9744 0.0000
# 2 66.7694 141.1091 26.8611 0.0000 8.6572 0.0002
# 3 24.6973 26.8611 69.3446 0.0000 8.9998 0.0000
# 4 0.0000 0.0000 0.0000 17.8791 0.0000 1.3986
# 5 6.9744 8.6572 8.9998 0.0000 24.5652 0.0000
# 6 0.0000 0.0002 0.0000 1.3986 0.0000 33.0575
#
#
#
# Elastic Compliance Matrix: (Units=1/GPa)
#
#
# Indices 1 2 3 4 5 6 
#
# 1 0.011139 -0.004846 -0.001996 0.000000 -0.000723 0.000000
# 2 -0.004846 0.009827 -0.001900 0.000000 -0.001391 0.000000
# 3 -0.001996 -0.001900 0.016491 0.000000 -0.004805 0.000000
# 4 0.000000 0.000000 0.000000 0.056117 0.000000 -0.002374
# 5 -0.000723 -0.001391 -0.004805 0.000000 0.043164 0.000000
# 6 0.000000 0.000000 0.000000 -0.002374 0.000000 0.030351
#
#
# Mechanical properties :
#
#
# Convention : Reuss Voigt Hill
#
# Bulk Modulus (GPa) = 50.06898 63.42382 56.74640
# Shear Modulus (GPa) = 26.14646 29.48911 27.81778
#
# Velocity S-wave (km/s) = 3.69423 3.92327 3.81047
# Velocity P-wave (km/s) = 6.65810 7.32306 6.99848
#
# Compressibility (1/GPa) = 0.01997245
#
# Stress axis : x y z
#
# Youngs Moduli (GPa) = 89.77635 101.76182 60.63828
#
# Poissons Ratio (x) = 0.49317 0.12103
# Poissons Ratio (y) = 0.43508 0.11521
# Poissons Ratio (z) = 0.17919 0.19334
#
# Static dielectric constant tensor:
#      x y z
#    x 3.471890 0.000000 0.252010 
#    y 0.000000 3.714270 0.000000 
#    z 0.252010 0.000000 3.398710 
# 
# 
# High freq. dielectric constant tensor:
#      x y z
#    x 1.752440 0.000000 0.016770 
#    y 0.000000 1.737470 0.000000 
#    z 0.016770 0.000000 1.736200 
# 
# From -- ./inp_files/276518.got.cif
#   From: 2010.06.25/outbox.cif.g09.slc.cpg/sg15_139_cif.got.tgz:276518.got - 2010.06.28 07:06:18.
