data_PCOD8137921
_publ_section_title
;
Structure prediction by ZEFSAII (Michael W. Deem and Ramdas Pophale) SiO2 
 PCOD8137921
Probable space group: C 2/C
;
_chemical_formula_sum "Si O2"
_cell_formula_units_Z 56
_cell_length_a 17.811551
_cell_length_b 19.389084
_cell_length_c 8.669109
_cell_angle_alpha 90.000000
_cell_angle_beta 57.865623
_cell_angle_gamma 90.000000
_cell_volume 2535.221146
_symmetry_space_group_name_H-M "C 2/C"
_symmetry_group_IT_number 15
_symmetry_cell_setting 'monoclinic'
loop_
_space_group_symop_operation_xyz
x,y,z
-x,y,1/2-z
-x,-y,-z
x,-y,1/2+z
1/2+x,1/2+y,z
1/2-x,1/2+y,1/2-z
1/2-x,1/2-y,-z
1/2+x,1/2-y,1/2+z
loop_
_atom_site_type_symbol
_atom_site_label
_atom_site_fract_x
_atom_site_fract_y
_atom_site_fract_z
Si Si1 0.090116 0.259561 0.381477
Si Si2 0.000000 0.660271 0.250000
Si Si3 0.806549 0.956221 0.625055
Si Si4 0.648557 0.587607 0.770341
Si Si5 0.969394 0.108467 0.110838
Si Si6 0.220400 0.240181 0.707208
Si Si7 0.000000 0.644070 0.750000
Si Si8 0.874470 0.620862 0.143233
O O1 0.040127 0.189465 0.398849
O O2 0.195416 0.248781 0.274622
O O3 0.055088 0.289538 0.579804
O O4 0.070987 0.311304 0.264999
O O5 0.068941 0.610100 0.262387
O O6 0.831663 0.935062 0.425300
O O7 0.876998 0.927998 0.672004
O O8 0.710578 0.926606 0.768347
O O9 0.801520 0.038298 0.660311
O O10 0.679874 0.664631 0.773508
O O11 0.543296 0.581451 0.910483
O O12 0.000000 0.089295 0.250000
O O13 0.250000 0.250000 0.500000
O O14 0.148424 0.297167 0.836987
O O15 0.061256 0.599182 0.568397
#
# Coordination Sequence:
#
# PCOD8137921 Si02
#       8
#     8   4   8   8   8   8   4   8
#     4  11  21  36  63  99 141 175 228 287 348 400
#     4  10  20  36  66  97 133 178 234 288 334 416
#     4  12  26  46  71  99 140 187 229 286 349 426
#     4  12  26  45  70 102 142 184 235 282 348 418
#     4  12  25  42  65 104 146 190 226 276 349 421
#     4  12  22  42  72 104 129 185 237 289 337 419
#     4  10  24  38  60 103 137 178 220 306 350 410
#     4  11  23  44  71 103 138 178 240 286 360 409
#
# _framework density 22.088802000000001
#
# number of rings (size 3 to 8) (size 9 to 14) (size 15 to 20)
#    0.000    0.571    5.000    3.429    2.000    2.857 
#    0.000    0.000    0.000   14.571    0.000    0.000 
#    0.000    0.000    0.000    0.000    0.000    0.000 
#
# Total GULP energy -347274.159059 kJ/mol
# GULP energy per Si atom -12402.648538 kJ/mol
# Density = 2.203853 g / cm^3
# Si number density = 22.088802 Si / 1000 Ang^3
#
#
#
# Elastic Constant Matrix: (Units=GPa)
#
#
# Indices 1 2 3 4 5 6 
#
# 1 154.7454 34.5813 54.5944 0.0000 -14.1210 0.0000
# 2 34.5813 87.7090 14.7281 0.0000 -14.4359 0.0000
# 3 54.5944 14.7281 114.3878 0.0000 -9.6104 0.0000
# 4 0.0000 0.0000 0.0000 120.7257 0.0000 5.8773
# 5 -14.1210 -14.4359 -9.6104 0.0000 33.6242 0.0000
# 6 0.0000 0.0000 0.0000 5.8773 0.0000 33.1526
#
#
#
# Elastic Compliance Matrix: (Units=1/GPa)
#
#
# Indices 1 2 3 4 5 6 
#
# 1 0.008408 -0.002477 -0.003573 0.000000 0.001447 0.000000
# 2 -0.002477 0.013151 -0.000127 0.000000 0.004570 0.000000
# 3 -0.003573 -0.000127 0.010587 0.000000 0.001471 0.000000
# 4 0.000000 0.000000 0.000000 0.008355 0.000000 -0.001481
# 5 0.001447 0.004570 0.001471 0.000000 0.032730 0.000000
# 6 0.000000 0.000000 0.000000 -0.001481 0.000000 0.030426
#
#
# Mechanical properties :
#
#
# Convention : Reuss Voigt Hill
#
# Bulk Modulus (GPa) = 50.52220 62.73889 56.63055
# Shear Modulus (GPa) = 40.77966 54.36306 47.57136
#
# Velocity S-wave (km/s) = 4.30137 4.96634 4.64577
# Velocity P-wave (km/s) = 6.89862 7.83267 7.38044
#
# Compressibility (1/GPa) = 0.01979328
#
# Stress axis : x y z
#
# Youngs Moduli (GPa) = 118.93146 76.03713 94.45335
#
# Poissons Ratio (x) = 0.18836 0.33744
# Poissons Ratio (y) = 0.29461 0.01201
# Poissons Ratio (z) = 0.42489 0.00967
#
# Static dielectric constant tensor:
#      x y z
#    x 4.217780 0.000000 -0.063270 
#    y 0.000000 3.929870 0.000000 
#    z -0.063270 0.000000 3.910740 
# 
# 
# High freq. dielectric constant tensor:
#      x y z
#    x 1.886180 0.000000 -0.002340 
#    y 0.000000 1.852090 0.000000 
#    z -0.002340 0.000000 1.876970 
# 
# From -- ./inp_files/50149.got.cif
#   From: 2010.06.25/outbox.cif.g09.slc.cpg/sg15_26_cif.got.tgz:50149.got - 2010.06.28 07:06:18.
