data_PCOD8137420
_publ_section_title
;
Structure prediction by ZEFSAII (Michael W. Deem and Ramdas Pophale) SiO2 
 PCOD8137420
Probable space group: C 2/C
;
_chemical_formula_sum "Si O2"
_cell_formula_units_Z 52
_cell_length_a 16.435390
_cell_length_b 12.281495
_cell_length_c 25.557175
_cell_angle_alpha 90.000000
_cell_angle_beta 150.475298
_cell_angle_gamma 90.000000
_cell_volume 2542.223305
_symmetry_space_group_name_H-M "C 2/C"
_symmetry_group_IT_number 15
_symmetry_cell_setting 'monoclinic'
loop_
_space_group_symop_operation_xyz
x,y,z
-x,y,1/2-z
-x,-y,-z
x,-y,1/2+z
1/2+x,1/2+y,z
1/2-x,1/2+y,1/2-z
1/2-x,1/2-y,-z
1/2+x,1/2-y,1/2+z
loop_
_atom_site_type_symbol
_atom_site_label
_atom_site_fract_x
_atom_site_fract_y
_atom_site_fract_z
Si Si1 0.798654 0.483564 0.236841
Si Si2 0.000000 0.569339 0.750000
Si Si3 0.973903 0.447188 0.543396
Si Si4 0.677367 0.743658 0.648304
Si Si5 0.373377 0.525276 0.134799
Si Si6 0.256094 0.268903 0.428461
Si Si7 0.546670 0.624900 0.147027
O O1 0.696901 0.371234 0.188772
O O2 0.663895 0.581856 0.165582
O O3 0.888374 0.497775 0.229861
O O4 0.925469 0.485772 0.356502
O O5 0.890911 0.643423 0.650063
O O6 0.781613 0.445248 0.450126
O O7 0.000000 0.500000 0.500000
O O8 0.023626 0.320223 0.577389
O O9 0.651914 0.712882 0.574346
O O10 0.845148 0.812233 0.749444
O O11 0.500000 0.488868 0.250000
O O12 0.310864 0.648218 0.105913
O O13 0.467273 0.519430 0.131583
O O14 0.398608 0.292462 0.550262
#
# Coordination Sequence:
#
# PCOD8137420 Si02
#       7
#     8   4   8   8   8   8   8
#     4  10  22  40  59  88 124 157 201 251 301 367
#     4  10  20  36  58  84 120 156 200 246 296 364
#     4  11  21  37  61  93 121 159 196 253 311 356
#     4  10  21  38  56  89 123 150 203 245 303 365
#     4  12  19  35  57  90 122 149 198 250 301 356
#     4  11  19  35  59  89 116 153 193 254 303 348
#     4  11  22  35  59  88 116 160 196 244 308 355
#
# _framework density 20.454536000000001
#
# number of rings (size 3 to 8) (size 9 to 14) (size 15 to 20)
#    0.000    1.231    3.846    4.154    0.000    2.462 
#    0.000    0.769    0.000    1.846    2.000    0.000 
#    0.000    0.000    0.000    0.000    0.000    0.000 
#
# Total GULP energy -322147.963759 kJ/mol
# GULP energy per Si atom -12390.306298 kJ/mol
# Density = 2.040798 g / cm^3
# Si number density = 20.454536 Si / 1000 Ang^3
#
#
#
# Elastic Constant Matrix: (Units=GPa)
#
#
# Indices 1 2 3 4 5 6 
#
# 1 64.0649 0.0987 -0.7940 -0.0003 2.4849 -0.0001
# 2 0.0987 38.5828 2.8143 -0.0002 2.9098 0.0000
# 3 -0.7940 2.8143 90.0229 0.0003 6.9800 0.0003
# 4 -0.0003 -0.0002 0.0003 13.0099 0.0001 0.0237
# 5 2.4849 2.9098 6.9800 0.0001 32.9160 0.0001
# 6 -0.0001 0.0000 0.0003 0.0237 0.0001 31.0362
#
#
#
# Elastic Compliance Matrix: (Units=1/GPa)
#
#
# Indices 1 2 3 4 5 6 
#
# 1 0.015660 0.000036 0.000233 0.000000 -0.001235 0.000000
# 2 0.000036 0.026129 -0.000648 0.000000 -0.002175 0.000000
# 3 0.000233 -0.000648 0.011314 0.000000 -0.002359 0.000000
# 4 0.000000 0.000000 0.000000 0.076864 0.000000 -0.000059
# 5 -0.001235 -0.002175 -0.002359 0.000000 0.031166 0.000000
# 6 0.000000 0.000000 0.000000 -0.000059 0.000000 0.032220
#
#
# Mechanical properties :
#
#
# Convention : Reuss Voigt Hill
#
# Bulk Modulus (GPa) = 19.10410 21.87874 20.49142
# Shear Modulus (GPa) = 23.63391 28.09586 25.86489
#
# Velocity S-wave (km/s) = 3.40286 3.71020 3.55985
# Velocity P-wave (km/s) = 4.97989 5.39199 5.19004
#
# Compressibility (1/GPa) = 0.05234477
#
# Stress axis : x y z
#
# Youngs Moduli (GPa) = 63.85735 38.27094 88.38978
#
# Poissons Ratio (x) = -0.00138 -0.02057
# Poissons Ratio (y) = -0.00230 0.05727
# Poissons Ratio (z) = -0.01486 0.02480
#
# Static dielectric constant tensor:
#      x y z
#    x 3.986200 0.000000 0.026070 
#    y 0.000000 3.449330 0.000000 
#    z 0.026070 0.000000 3.898060 
# 
# 
# High freq. dielectric constant tensor:
#      x y z
#    x 1.800020 0.000000 -0.001520 
#    y 0.000000 1.761940 0.000000 
#    z -0.001520 0.000000 1.815370 
# 
# From -- ./inp_files/160786.got.cif
#   From: 2010.06.25/outbox.cif.g09.slc.cpg/sg15_81_cif.got.tgz:160786.got - 2010.06.28 07:06:18.
