data_PCOD8137077
_publ_section_title
;
Structure prediction by ZEFSAII (Michael W. Deem and Ramdas Pophale) SiO2 
 PCOD8137077
Probable space group: C 2/C
;
_chemical_formula_sum "Si O2"
_cell_formula_units_Z 56
_cell_length_a 20.229024
_cell_length_b 19.359237
_cell_length_c 15.689821
_cell_angle_alpha 90.000000
_cell_angle_beta 154.645810
_cell_angle_gamma 90.000000
_cell_volume 2631.120554
_symmetry_space_group_name_H-M "C 2/C"
_symmetry_group_IT_number 15
_symmetry_cell_setting 'monoclinic'
loop_
_space_group_symop_operation_xyz
x,y,z
-x,y,1/2-z
-x,-y,-z
x,-y,1/2+z
1/2+x,1/2+y,z
1/2-x,1/2+y,1/2-z
1/2-x,1/2-y,-z
1/2+x,1/2-y,1/2+z
loop_
_atom_site_type_symbol
_atom_site_label
_atom_site_fract_x
_atom_site_fract_y
_atom_site_fract_z
Si Si1 0.638681 0.234046 0.681936
Si Si2 0.165859 0.084697 0.760925
Si Si3 0.177001 0.662505 0.217213
Si Si4 0.951909 0.015669 0.101632
Si Si5 0.670467 0.988168 0.670607
Si Si6 0.818881 0.175804 0.559095
Si Si7 0.436052 0.340286 0.523162
O O1 0.711352 0.278688 0.689753
O O2 0.501530 0.186232 0.485742
O O3 0.569066 0.282047 0.675762
O O4 0.778545 0.188296 0.883675
O O5 0.221038 0.124982 0.908973
O O6 0.106104 0.140356 0.623417
O O7 0.298847 0.035379 0.876911
O O8 0.025924 0.033166 0.617201
O O9 0.194379 0.593492 0.179994
O O10 0.232672 0.644064 0.377068
O O11 0.000000 0.986961 0.250000
O O12 0.005824 0.095334 0.156388
O O13 0.771350 0.013900 0.869222
O O14 0.500000 0.000000 0.500000
O O15 0.750000 0.250000 0.500000
O O16 0.000000 0.180753 0.750000
#
# Coordination Sequence:
#
# PCOD8137077 Si02
#       7
#     8   8   8   8   8   8   8
#     4  10  20  35  60  84 112 152 196 240 296 361
#     4  11  22  38  60  85 117 162 202 236 296 371
#     4  11  20  36  56  84 118 153 194 246 299 358
#     4  11  22  40  62  85 116 158 201 243 295 360
#     4  11  23  39  62  88 118 157 206 258 301 355
#     4  12  24  37  57  89 127 163 198 243 305 372
#     4  10  20  37  58  83 110 147 193 240 291 351
#
# _framework density 21.283708000000001
#
# number of rings (size 3 to 8) (size 9 to 14) (size 15 to 20)
#    0.000    1.143    0.000   10.714    0.000    1.143 
#    0.000    4.286    0.000    0.000    0.000    0.000 
#    0.000    0.000    0.000    0.000    0.000    0.000 
#
# Total GULP energy -347183.330703 kJ/mol
# GULP energy per Si atom -12399.404668 kJ/mol
# Density = 2.123527 g / cm^3
# Si number density = 21.283708 Si / 1000 Ang^3
#
#
#
# Elastic Constant Matrix: (Units=GPa)
#
#
# Indices 1 2 3 4 5 6 
#
# 1 84.9110 40.8463 43.9753 0.0000 18.2241 0.0000
# 2 40.8463 134.6038 30.8115 0.0000 12.1989 0.0000
# 3 43.9753 30.8115 76.9955 0.0000 23.6250 0.0000
# 4 0.0000 0.0000 0.0000 32.1197 0.0000 -2.3460
# 5 18.2241 12.1989 23.6250 0.0000 29.7347 0.0000
# 6 0.0000 0.0000 0.0000 -2.3460 0.0000 37.5733
#
#
#
# Elastic Compliance Matrix: (Units=1/GPa)
#
#
# Indices 1 2 3 4 5 6 
#
# 1 0.018320 -0.003406 -0.008045 0.000000 -0.003439 0.000000
# 2 -0.003406 0.008834 -0.001479 0.000000 -0.000362 0.000000
# 3 -0.008045 -0.001479 0.021787 0.000000 -0.011773 0.000000
# 4 0.000000 0.000000 0.000000 0.031276 0.000000 0.001953
# 5 -0.003439 -0.000362 -0.011773 0.000000 0.045240 0.000000
# 6 0.000000 0.000000 0.000000 0.001953 0.000000 0.026737
#
#
# Mechanical properties :
#
#
# Convention : Reuss Voigt Hill
#
# Bulk Modulus (GPa) = 43.32617 58.64183 50.98400
# Shear Modulus (GPa) = 26.91815 31.94402 29.43109
#
# Velocity S-wave (km/s) = 3.56016 3.87831 3.72263
# Velocity P-wave (km/s) = 6.10740 6.90415 6.51796
#
# Compressibility (1/GPa) = 0.02308074
#
# Stress axis : x y z
#
# Youngs Moduli (GPa) = 54.58443 113.19764 45.89930
#
# Poissons Ratio (x) = 0.38557 0.36927
# Poissons Ratio (y) = 0.18592 0.06788
# Poissons Ratio (z) = 0.43915 0.16740
#
# Static dielectric constant tensor:
#      x y z
#    x 1.946330 0.000000 1.561370 
#    y 0.000000 4.491870 0.000000 
#    z 1.561370 0.000000 2.764680 
# 
# 
# High freq. dielectric constant tensor:
#      x y z
#    x 1.814380 0.000000 0.025030 
#    y 0.000000 1.864470 0.000000 
#    z 0.025030 0.000000 1.818580 
# 
# From -- ./inp_files/163837.got.cif
#   From: 2010.06.25/outbox.cif.g09.slc.cpg/sg15_82_cif.got.tgz:163837.got - 2010.06.28 07:06:18.
