data_PCOD8137823
_publ_section_title
;
Structure prediction by ZEFSAII (Michael W. Deem and Ramdas Pophale) SiO2 
 PCOD8137823
Probable space group: C 2/C
;
_chemical_formula_sum "Si O2"
_cell_formula_units_Z 52
_cell_length_a 25.933956
_cell_length_b 19.221230
_cell_length_c 14.298549
_cell_angle_alpha 90.000000
_cell_angle_beta 160.479665
_cell_angle_gamma 90.000000
_cell_volume 2381.618487
_symmetry_space_group_name_H-M "C 2/C"
_symmetry_group_IT_number 15
_symmetry_cell_setting 'monoclinic'
loop_
_space_group_symop_operation_xyz
x,y,z
-x,y,1/2-z
-x,-y,-z
x,-y,1/2+z
1/2+x,1/2+y,z
1/2-x,1/2+y,1/2-z
1/2-x,1/2-y,-z
1/2+x,1/2-y,1/2+z
loop_
_atom_site_type_symbol
_atom_site_label
_atom_site_fract_x
_atom_site_fract_y
_atom_site_fract_z
Si Si1 0.513866 0.091212 0.663880
Si Si2 0.000000 0.112003 0.750000
Si Si3 0.414772 0.065302 0.011098
Si Si4 0.856224 0.070987 0.217748
Si Si5 0.084408 0.175187 0.707232
Si Si6 0.611099 0.488821 0.050024
Si Si7 0.080640 0.332297 0.668960
O O1 0.500000 0.112117 0.750000
O O2 0.403856 0.140887 0.412583
O O3 0.468618 0.011281 0.571425
O O4 0.687497 0.104326 0.919753
O O5 0.067481 0.164091 0.789114
O O6 0.877771 0.059877 0.491282
O O7 0.500000 0.089424 0.250000
O O8 0.447470 0.120646 0.986537
O O9 0.230215 0.066617 0.711854
O O10 0.982022 0.124447 0.471235
O O11 0.933978 0.041565 0.253485
O O12 0.834931 0.006203 0.252175
O O13 0.032945 0.251794 0.587815
O O14 0.266291 0.160097 0.005024
#
# Coordination Sequence:
#
# PCOD8137823 Si02
#       7
#     8   4   8   8   8   8   8
#     4  11  23  41  65  96 127 168 218 278 329 372
#     4  10  22  36  66  92 124 162 214 256 320 398
#     4  11  21  37  63  99 128 162 214 275 323 375
#     4  10  21  40  63  89 130 170 212 265 323 384
#     4  10  24  43  62  92 128 178 214 256 322 401
#     4  10  20  36  63  93 128 165 208 267 329 379
#     4  11  25  41  66  92 132 172 220 265 322 392
#
# _framework density 21.833891999999999
#
# number of rings (size 3 to 8) (size 9 to 14) (size 15 to 20)
#    0.000    1.538    3.077    2.308    9.692    0.615 
#    0.000    0.000    1.692    0.000    0.000    0.000 
#    0.000    0.000    0.000    0.000    0.000    0.000 
#
# Total GULP energy -322240.729541 kJ/mol
# GULP energy per Si atom -12393.874213 kJ/mol
# Density = 2.178420 g / cm^3
# Si number density = 21.833892 Si / 1000 Ang^3
#
#
#
# Elastic Constant Matrix: (Units=GPa)
#
#
# Indices 1 2 3 4 5 6 
#
# 1 93.0068 55.0951 27.7633 0.0000 8.0759 0.0000
# 2 55.0951 106.3143 28.0922 0.0000 -0.6732 0.0000
# 3 27.7633 28.0922 78.5398 0.0000 11.0785 0.0000
# 4 0.0000 0.0000 0.0000 20.8433 0.0000 -6.7834
# 5 8.0759 -0.6732 11.0785 0.0000 36.2238 0.0000
# 6 0.0000 0.0000 0.0000 -6.7834 0.0000 26.6264
#
#
#
# Elastic Compliance Matrix: (Units=1/GPa)
#
#
# Indices 1 2 3 4 5 6 
#
# 1 0.016437 -0.007857 -0.002574 0.000000 -0.003024 0.000000
# 2 -0.007857 0.014211 -0.002707 0.000000 0.002844 0.000000
# 3 -0.002574 -0.002707 0.015192 0.000000 -0.004123 0.000000
# 4 0.000000 0.000000 0.000000 0.052315 0.000000 0.013328
# 5 -0.003024 0.002844 -0.004123 0.000000 0.029594 0.000000
# 6 0.000000 0.000000 0.000000 0.013328 0.000000 0.040952
#
#
# Mechanical properties :
#
#
# Convention : Reuss Voigt Hill
#
# Bulk Modulus (GPa) = 51.11149 55.52914 53.32032
# Shear Modulus (GPa) = 24.81421 27.86605 26.34013
#
# Velocity S-wave (km/s) = 3.37486 3.57637 3.47708
# Velocity P-wave (km/s) = 6.21661 6.52240 6.37134
#
# Compressibility (1/GPa) = 0.01956507
#
# Stress axis : x y z
#
# Youngs Moduli (GPa) = 60.83779 70.36717 65.82505
#
# Poissons Ratio (x) = 0.55290 0.16940
# Poissons Ratio (y) = 0.47802 0.17817
# Poissons Ratio (z) = 0.15657 0.19046
#
# Static dielectric constant tensor:
#      x y z
#    x 4.120340 0.000000 0.117630 
#    y 0.000000 3.645810 0.000000 
#    z 0.117630 0.000000 4.028930 
# 
# 
# High freq. dielectric constant tensor:
#      x y z
#    x 1.863800 0.000000 0.005330 
#    y 0.000000 1.827410 0.000000 
#    z 0.005330 0.000000 1.860100 
# 
# From -- ./inp_files/179037.got.cif
#   From: 2010.06.25/outbox.cif.g09.slc.cpg/sg15_90_cif.got.tgz:179037.got - 2010.06.28 07:06:18.
