data_PCOD8137682
_publ_section_title
;
Structure prediction by ZEFSAII (Michael W. Deem and Ramdas Pophale) SiO2 
 PCOD8137682
Probable space group: C 2/C
;
_chemical_formula_sum "Si O2"
_cell_formula_units_Z 60
_cell_length_a 24.603269
_cell_length_b 12.744937
_cell_length_c 9.722104
_cell_angle_alpha 90.000000
_cell_angle_beta 63.707950
_cell_angle_gamma 90.000000
_cell_volume 2733.155040
_symmetry_space_group_name_H-M "C 2/C"
_symmetry_group_IT_number 15
_symmetry_cell_setting 'monoclinic'
loop_
_space_group_symop_operation_xyz
x,y,z
-x,y,1/2-z
-x,-y,-z
x,-y,1/2+z
1/2+x,1/2+y,z
1/2-x,1/2+y,1/2-z
1/2-x,1/2-y,-z
1/2+x,1/2-y,1/2+z
loop_
_atom_site_type_symbol
_atom_site_label
_atom_site_fract_x
_atom_site_fract_y
_atom_site_fract_z
Si Si1 0.381924 0.007916 0.169491
Si Si2 0.566083 0.787295 0.363819
Si Si3 0.354431 0.269114 0.969343
Si Si4 0.195960 0.555329 0.498563
Si Si5 0.000000 0.869747 0.250000
Si Si6 0.107663 0.907664 0.969101
Si Si7 0.063875 0.727642 0.383971
Si Si8 0.829082 0.985594 0.864973
O O1 0.421075 0.107942 0.175296
O O2 0.425652 0.908660 0.110500
O O3 0.324194 0.987339 0.331002
O O4 0.356610 0.023534 0.046269
O O5 0.587449 0.764577 0.185790
O O6 0.605659 0.713904 0.423884
O O7 0.495321 0.763419 0.453907
O O8 0.301048 0.182763 0.009599
O O9 0.328792 0.380745 0.956526
O O10 0.378314 0.275318 0.099612
O O11 0.260301 0.502310 0.388372
O O12 0.051185 0.795902 0.262421
O O13 0.960697 0.940470 0.401379
O O14 0.126018 0.979628 0.817153
O O15 0.152731 0.921946 0.049284
#
# Coordination Sequence:
#
# PCOD8137682 Si02
#       8
#     8   8   8   8   4   8   8   8
#     4  10  21  36  62  90 122 162 196 242 310 371
#     4   9  19  39  57  90 125 157 197 250 302 365
#     4   9  20  37  61  85 118 161 210 247 299 361
#     4  10  21  38  60  89 120 157 206 255 295 358
#     4  10  24  42  58  92 128 154 198 266 306 364
#     4  10  24  40  63  86 121 158 205 254 303 360
#     4  10  20  36  61  89 125 157 197 247 313 371
#     4  11  22  42  62  86 118 164 208 252 302 353
#
# _framework density 21.952652
#
# number of rings (size 3 to 8) (size 9 to 14) (size 15 to 20)
#    0.000    2.133    0.000    2.000    5.600    0.533 
#    7.200    0.667    0.000    0.000    0.000    0.000 
#    0.000    0.000    0.000    0.000    0.000    0.000 
#
# Total GULP energy -371891.300613 kJ/mol
# GULP energy per Si atom -12396.376687 kJ/mol
# Density = 2.190269 g / cm^3
# Si number density = 21.952652 Si / 1000 Ang^3
#
#
#
# Elastic Constant Matrix: (Units=GPa)
#
#
# Indices 1 2 3 4 5 6 
#
# 1 80.1583 18.1318 21.2884 0.0000 2.0634 0.0000
# 2 18.1318 41.0401 8.4324 0.0000 4.8836 0.0000
# 3 21.2884 8.4324 88.5109 0.0000 4.3344 0.0000
# 4 0.0000 0.0000 0.0000 22.0573 0.0000 5.3018
# 5 2.0634 4.8836 4.3344 0.0000 28.8073 0.0000
# 6 0.0000 0.0000 0.0000 5.3018 0.0000 30.4650
#
#
#
# Elastic Compliance Matrix: (Units=1/GPa)
#
#
# Indices 1 2 3 4 5 6 
#
# 1 0.014583 -0.005881 -0.002967 0.000000 0.000399 0.000000
# 2 -0.005881 0.027664 -0.001020 0.000000 -0.004115 0.000000
# 3 -0.002967 -0.001020 0.012180 0.000000 -0.001447 0.000000
# 4 0.000000 0.000000 0.000000 0.047316 0.000000 -0.008234
# 5 0.000399 -0.004115 -0.001447 0.000000 0.035600 0.000000
# 6 0.000000 0.000000 0.000000 -0.008234 0.000000 0.034258
#
#
# Mechanical properties :
#
#
# Convention : Reuss Voigt Hill
#
# Bulk Modulus (GPa) = 28.82491 33.93496 31.37994
# Shear Modulus (GPa) = 24.64286 27.05636 25.84961
#
# Velocity S-wave (km/s) = 3.35408 3.51449 3.43522
# Velocity P-wave (km/s) = 5.30648 5.65337 5.48267
#
# Compressibility (1/GPa) = 0.03469221
#
# Stress axis : x y z
#
# Youngs Moduli (GPa) = 68.57203 36.14841 82.10444
#
# Poissons Ratio (x) = 0.21258 0.24359
# Poissons Ratio (y) = 0.40326 0.08371
# Poissons Ratio (z) = 0.20344 0.03686
#
# Static dielectric constant tensor:
#      x y z
#    x 3.701650 0.000000 -0.003960 
#    y 0.000000 3.998940 0.000000 
#    z -0.003960 0.000000 3.990340 
# 
# 
# High freq. dielectric constant tensor:
#      x y z
#    x 1.850260 0.000000 0.003110 
#    y 0.000000 1.852250 0.000000 
#    z 0.003110 0.000000 1.871190 
# 
# From -- ./inp_files/61545.got.cif
#   From: 2010.06.25/outbox.cif.g09.slc.cpg/sg15_31_cif.got.tgz:61545.got - 2010.06.28 07:06:18.
