data_PCOD8137185
_publ_section_title
;
Structure prediction by ZEFSAII (Michael W. Deem and Ramdas Pophale) SiO2 
 PCOD8137185
Probable space group: C 2/C
;
_chemical_formula_sum "Si O2"
_cell_formula_units_Z 52
_cell_length_a 7.651208
_cell_length_b 22.260690
_cell_length_c 15.678092
_cell_angle_alpha 90.000000
_cell_angle_beta 93.784582
_cell_angle_gamma 90.000000
_cell_volume 2664.487726
_symmetry_space_group_name_H-M "C 2/C"
_symmetry_group_IT_number 15
_symmetry_cell_setting 'monoclinic'
loop_
_space_group_symop_operation_xyz
x,y,z
-x,y,1/2-z
-x,-y,-z
x,-y,1/2+z
1/2+x,1/2+y,z
1/2-x,1/2+y,1/2-z
1/2-x,1/2-y,-z
1/2+x,1/2-y,1/2+z
loop_
_atom_site_type_symbol
_atom_site_label
_atom_site_fract_x
_atom_site_fract_y
_atom_site_fract_z
Si Si1 0.500000 0.824517 0.750000
Si Si2 0.000000 0.186952 0.250000
Si Si3 0.000000 0.005934 0.750000
Si Si4 0.924017 0.566657 0.497833
Si Si5 0.739572 0.649899 0.973159
Si Si6 0.268156 0.595395 0.180922
Si Si7 0.556681 0.554292 0.565066
Si Si8 0.735628 0.764160 0.868887
O O1 0.337112 0.869111 0.750517
O O2 0.537941 0.782079 0.833081
O O3 0.929054 0.142004 0.171659
O O4 0.859410 0.229996 0.289966
O O5 0.961432 0.043120 0.834412
O O6 0.828670 0.967003 0.723635
O O7 0.850619 0.583618 0.403622
O O8 0.760544 0.571324 0.557573
O O9 0.000000 0.500000 0.500000
O O10 0.079831 0.612422 0.524933
O O11 0.569764 0.608421 0.963188
O O12 0.743166 0.694500 0.893123
O O13 0.711447 0.690744 0.054731
O O14 0.500000 0.500000 0.500000
#
# Coordination Sequence:
#
# PCOD8137185 Si02
#       8
#     4   4   4   8   8   8   8   8
#     4  10  20  35  66  92 124 165 218 274 316 388
#     4   9  20  38  64  92 124 164 217 280 320 380
#     4  11  24  41  62  94 130 179 213 274 330 388
#     4  12  23  40  67  96 130 173 215 267 330 392
#     4  11  24  45  64  97 133 173 216 268 330 403
#     4  10  20  35  63  94 120 165 222 268 317 381
#     4  12  25  44  66  95 138 176 216 271 332 391
#     4  10  22  42  66  93 129 168 219 275 328 384
#
# _framework density 19.515946
#
# number of rings (size 3 to 8) (size 9 to 14) (size 15 to 20)
#    0.000    1.231    4.615    0.923    6.462    0.615 
#    8.308    2.308    0.000    0.000    0.000    0.000 
#    0.000    0.000    0.000    0.000    0.000    0.000 
#
# Total GULP energy -322156.822523 kJ/mol
# GULP energy per Si atom -12390.647020 kJ/mol
# Density = 1.947153 g / cm^3
# Si number density = 19.515946 Si / 1000 Ang^3
#
#
#
# Elastic Constant Matrix: (Units=GPa)
#
#
# Indices 1 2 3 4 5 6 
#
# 1 123.1928 60.9938 31.4931 0.0000 5.2222 0.0000
# 2 60.9938 132.6857 47.3403 0.0000 6.8534 0.0000
# 3 31.4931 47.3403 99.5947 0.0000 2.7651 0.0000
# 4 0.0000 0.0000 0.0000 31.4248 0.0000 6.1948
# 5 5.2222 6.8534 2.7651 0.0000 30.0601 0.0000
# 6 0.0000 0.0000 0.0000 6.1948 0.0000 27.7068
#
#
#
# Elastic Compliance Matrix: (Units=1/GPa)
#
#
# Indices 1 2 3 4 5 6 
#
# 1 0.010653 -0.004413 -0.001251 0.000000 -0.000729 0.000000
# 2 -0.004413 0.010989 -0.003789 0.000000 -0.001390 0.000000
# 3 -0.001251 -0.003789 0.012239 0.000000 -0.000045 0.000000
# 4 0.000000 0.000000 0.000000 0.033289 0.000000 -0.007443
# 5 -0.000729 -0.001390 -0.000045 0.000000 0.033714 0.000000
# 6 0.000000 0.000000 0.000000 -0.007443 0.000000 0.037756
#
#
# Mechanical properties :
#
#
# Convention : Reuss Voigt Hill
#
# Bulk Modulus (GPa) = 66.78083 70.56974 68.67528
# Shear Modulus (GPa) = 30.76197 32.21474 31.48835
#
# Velocity S-wave (km/s) = 3.97451 4.06727 4.02116
# Velocity P-wave (km/s) = 7.44010 7.63515 7.53826
#
# Compressibility (1/GPa) = 0.01497436
#
# Stress axis : x y z
#
# Youngs Moduli (GPa) = 93.87045 90.99970 81.70878
#
# Poissons Ratio (x) = 0.40159 0.10219
# Poissons Ratio (y) = 0.41426 0.30962
# Poissons Ratio (z) = 0.11740 0.34483
#
# Static dielectric constant tensor:
#      x y z
#    x 3.855520 0.000000 0.267310 
#    y 0.000000 3.655890 0.000000 
#    z 0.267310 0.000000 3.641780 
# 
# 
# High freq. dielectric constant tensor:
#      x y z
#    x 1.771830 0.000000 0.011670 
#    y 0.000000 1.759160 0.000000 
#    z 0.011670 0.000000 1.757890 
# 
# From -- ./inp_files/136153.got.cif
#   From: 2010.06.25/outbox.cif.g09.slc.cpg/sg15_69_cif.got.tgz:136153.got - 2010.06.28 07:06:18.
