data_PCOD8137661
_publ_section_title
;
Structure prediction by ZEFSAII (Michael W. Deem and Ramdas Pophale) SiO2 
 PCOD8137661
Probable space group: C 2/C
;
_chemical_formula_sum "Si O2"
_cell_formula_units_Z 60
_cell_length_a 15.036061
_cell_length_b 9.881636
_cell_length_c 23.218026
_cell_angle_alpha 90.000000
_cell_angle_beta 61.037676
_cell_angle_gamma 90.000000
_cell_volume 3018.322627
_symmetry_space_group_name_H-M "C 2/C"
_symmetry_group_IT_number 15
_symmetry_cell_setting 'monoclinic'
loop_
_space_group_symop_operation_xyz
x,y,z
-x,y,1/2-z
-x,-y,-z
x,-y,1/2+z
1/2+x,1/2+y,z
1/2-x,1/2+y,1/2-z
1/2-x,1/2-y,-z
1/2+x,1/2-y,1/2+z
loop_
_atom_site_type_symbol
_atom_site_label
_atom_site_fract_x
_atom_site_fract_y
_atom_site_fract_z
Si Si1 0.000000 0.159295 0.250000
Si Si2 0.257803 0.682586 0.080874
Si Si3 0.141358 0.404101 0.924959
Si Si4 0.797972 0.051984 0.952558
Si Si5 0.217662 0.243453 0.208766
Si Si6 0.721297 0.539635 0.313236
Si Si7 0.041900 0.317337 0.442470
Si Si8 0.002135 0.915481 0.875544
O O1 0.104741 0.243631 0.217178
O O2 0.995361 0.068592 0.308685
O O3 0.188420 0.815767 0.092525
O O4 0.221047 0.600126 0.148739
O O5 0.374435 0.729520 0.050163
O O6 0.244667 0.587604 0.029559
O O7 0.226899 0.443219 0.944135
O O8 0.195132 0.307054 0.861973
O O9 0.089291 0.535972 0.911634
O O10 0.053732 0.322743 0.985035
O O11 0.906590 0.989009 0.933494
O O12 0.232023 0.399056 0.222254
O O13 0.225930 0.152028 0.262466
O O14 0.603657 0.510078 0.365791
O O15 0.008156 0.242311 0.394007
#
# Coordination Sequence:
#
# PCOD8137661 Si02
#       8
#     4   8   8   8   8   8   8   8
#     4  10  22  40  56  86 116 156 198 242 310 354
#     4   9  21  39  59  87 123 157 201 246 306 360
#     4  10  21  38  60  88 119 160 201 248 314 361
#     4  10  20  36  61  86 121 159 190 257 298 365
#     4  11  24  41  64  88 119 164 205 257 303 373
#     4  10  25  40  63  87 119 161 208 249 305 370
#     4   9  21  37  60  88 120 156 200 256 296 367
#     4  10  21  37  61  86 119 158 203 246 301 370
#
# _framework density 19.878591
#
# number of rings (size 3 to 8) (size 9 to 14) (size 15 to 20)
#    0.000    2.133    1.333    0.000   11.200    2.667 
#    0.000    1.333    0.000    0.000    0.000    0.000 
#    0.000    0.000    0.000    0.000    0.000    0.000 
#
# Total GULP energy -371902.773763 kJ/mol
# GULP energy per Si atom -12396.759125 kJ/mol
# Density = 1.983335 g / cm^3
# Si number density = 19.878591 Si / 1000 Ang^3
#
#
#
# Elastic Constant Matrix: (Units=GPa)
#
#
# Indices 1 2 3 4 5 6 
#
# 1 65.4401 34.6496 21.9906 0.0000 -2.8724 0.0000
# 2 34.6496 99.7885 33.8404 0.0000 2.5315 0.0000
# 3 21.9906 33.8404 72.2694 0.0000 5.7585 0.0000
# 4 0.0000 0.0000 0.0000 33.1907 0.0000 2.3130
# 5 -2.8724 2.5315 5.7585 0.0000 39.7298 0.0000
# 6 0.0000 0.0000 0.0000 2.3130 0.0000 24.4469
#
#
#
# Elastic Compliance Matrix: (Units=1/GPa)
#
#
# Indices 1 2 3 4 5 6 
#
# 1 0.019550 -0.005667 -0.003477 0.000000 0.002278 0.000000
# 2 -0.005667 0.013556 -0.004574 0.000000 -0.000610 0.000000
# 3 -0.003477 -0.004574 0.017233 0.000000 -0.002458 0.000000
# 4 0.000000 0.000000 0.000000 0.030329 0.000000 -0.002869
# 5 0.002278 -0.000610 -0.002458 0.000000 0.025730 0.000000
# 6 0.000000 0.000000 0.000000 -0.002869 0.000000 0.041176
#
#
# Mechanical properties :
#
#
# Convention : Reuss Voigt Hill
#
# Bulk Modulus (GPa) = 43.66410 46.49546 45.07978
# Shear Modulus (GPa) = 27.37554 29.27464 28.32509
#
# Velocity S-wave (km/s) = 3.71501 3.84170 3.77889
# Velocity P-wave (km/s) = 6.35726 6.56649 6.46272
#
# Compressibility (1/GPa) = 0.02290211
#
# Stress axis : x y z
#
# Youngs Moduli (GPa) = 51.15045 73.76921 58.02870
#
# Poissons Ratio (x) = 0.41806 0.20175
# Poissons Ratio (y) = 0.28988 0.26545
# Poissons Ratio (z) = 0.17784 0.33745
#
# Static dielectric constant tensor:
#      x y z
#    x 3.798270 0.000000 -0.007530 
#    y 0.000000 3.530950 0.000000 
#    z -0.007530 0.000000 3.533820 
# 
# 
# High freq. dielectric constant tensor:
#      x y z
#    x 1.778750 0.000000 0.004400 
#    y 0.000000 1.766370 0.000000 
#    z 0.004400 0.000000 1.770520 
# 
# From -- ./inp_files/273107.got.cif
#   From: 2010.06.25/outbox.cif.g09.slc.cpg/sg15_137_cif.got.tgz:273107.got - 2010.06.28 07:06:18.
