data_PCOD8137216
_publ_section_title
;
Structure prediction by ZEFSAII (Michael W. Deem and Ramdas Pophale) SiO2 
 PCOD8137216
Probable space group: C 2/C
;
_chemical_formula_sum "Si O2"
_cell_formula_units_Z 56
_cell_length_a 8.756601
_cell_length_b 17.945386
_cell_length_c 27.444138
_cell_angle_alpha 90.000000
_cell_angle_beta 140.492046
_cell_angle_gamma 90.000000
_cell_volume 2743.605173
_symmetry_space_group_name_H-M "C 2/C"
_symmetry_group_IT_number 15
_symmetry_cell_setting 'monoclinic'
loop_
_space_group_symop_operation_xyz
x,y,z
-x,y,1/2-z
-x,-y,-z
x,-y,1/2+z
1/2+x,1/2+y,z
1/2-x,1/2+y,1/2-z
1/2-x,1/2-y,-z
1/2+x,1/2-y,1/2+z
loop_
_atom_site_type_symbol
_atom_site_label
_atom_site_fract_x
_atom_site_fract_y
_atom_site_fract_z
Si Si1 0.712750 0.963207 0.582721
Si Si2 0.059856 0.649059 0.126527
Si Si3 0.021731 0.037306 0.443921
Si Si4 0.055360 0.080074 0.709893
Si Si5 0.523502 0.034865 0.199939
Si Si6 0.226299 0.812673 0.173340
Si Si7 0.456078 0.619030 0.518772
O O1 0.646059 0.893290 0.599333
O O2 0.910503 0.932519 0.592675
O O3 0.500000 0.000000 0.500000
O O4 0.830565 0.026964 0.644323
O O5 0.206509 0.724227 0.170188
O O6 0.116972 0.601891 0.189151
O O7 0.777689 0.669187 0.050649
O O8 0.744061 0.013552 0.382291
O O9 0.091877 0.099468 0.501289
O O10 0.153665 0.958040 0.485656
O O11 0.060013 0.149186 0.673617
O O12 0.000000 0.111870 0.750000
O O13 0.305228 0.035887 0.765390
O O14 0.500000 0.061297 0.250000
O O15 0.500000 0.836662 0.250000
O O16 0.141913 0.839598 0.099395
#
# Coordination Sequence:
#
# PCOD8137216 Si02
#       7
#     8   8   8   8   8   8   8
#     4  12  22  39  64 101 127 164 222 279 324 388
#     4  11  25  40  65  96 135 174 214 277 336 387
#     4  10  20  35  68  95 122 166 225 268 323 385
#     4  12  24  41  67  94 131 167 229 274 325 388
#     4  11  21  38  66  96 127 168 223 273 323 389
#     4  12  26  42  63  93 137 180 215 266 339 396
#     4  10  20  41  62  91 127 171 219 267 324 393
#
# _framework density 20.411100999999999
#
# number of rings (size 3 to 8) (size 9 to 14) (size 15 to 20)
#    0.000    0.857    5.714    1.714    2.000    1.714 
#    0.000    2.143    0.000    0.000    0.000    0.000 
#    0.000    0.000    0.000    0.000    0.000    0.000 
#
# Total GULP energy -347164.703736 kJ/mol
# GULP energy per Si atom -12398.739419 kJ/mol
# Density = 2.036464 g / cm^3
# Si number density = 20.411101 Si / 1000 Ang^3
#
#
#
# Elastic Constant Matrix: (Units=GPa)
#
#
# Indices 1 2 3 4 5 6 
#
# 1 93.5607 37.5531 19.0056 -0.0006 -25.9772 -0.0005
# 2 37.5531 90.8655 21.6276 -0.0003 -9.7655 -0.0002
# 3 19.0056 21.6276 80.3224 -0.0007 -6.1816 -0.0005
# 4 -0.0006 -0.0003 -0.0007 31.5980 -0.0004 -3.6337
# 5 -25.9772 -9.7655 -6.1816 -0.0004 41.4310 -0.0003
# 6 -0.0005 -0.0002 -0.0005 -3.6337 -0.0003 25.9207
#
#
#
# Elastic Compliance Matrix: (Units=1/GPa)
#
#
# Indices 1 2 3 4 5 6 
#
# 1 0.015321 -0.005065 -0.001633 0.000000 0.008169 0.000000
# 2 -0.005065 0.013659 -0.002505 0.000000 -0.000330 0.000000
# 3 -0.001633 -0.002505 0.013542 0.000000 0.000406 0.000000
# 4 0.000000 0.000000 0.000000 0.032166 0.000001 0.004509
# 5 0.008169 -0.000330 0.000406 0.000001 0.029241 0.000001
# 6 0.000000 0.000000 0.000000 0.004509 0.000001 0.039211
#
#
# Mechanical properties :
#
#
# Convention : Reuss Voigt Hill
#
# Bulk Modulus (GPa) = 41.46506 46.79125 44.12815
# Shear Modulus (GPa) = 29.48363 32.22743 30.85553
#
# Velocity S-wave (km/s) = 3.80477 3.97787 3.89228
# Velocity P-wave (km/s) = 6.29768 6.63868 6.47043
#
# Compressibility (1/GPa) = 0.02411669
#
# Stress axis : x y z
#
# Youngs Moduli (GPa) = 65.26940 73.20944 73.84515
#
# Poissons Ratio (x) = 0.37084 0.12056
# Poissons Ratio (y) = 0.33062 0.18497
# Poissons Ratio (z) = 0.10656 0.18337
#
# Static dielectric constant tensor:
#      x y z
#    x 3.997320 0.000000 -0.174920 
#    y 0.000000 3.373400 0.000000 
#    z -0.174920 0.000000 3.929570 
# 
# 
# High freq. dielectric constant tensor:
#      x y z
#    x 1.806030 0.000000 -0.008130 
#    y 0.000000 1.762890 0.000000 
#    z -0.008130 0.000000 1.817690 
# 
# From -- ./inp_files/289773.got.cif
#   From: 2010.06.25/outbox.cif.g09.slc.cpg/sg15_145_cif.got.tgz:289773.got - 2010.06.28 07:06:18.
