data_PCOD8137650
_publ_section_title
;
Structure prediction by ZEFSAII (Michael W. Deem and Ramdas Pophale) SiO2 
 PCOD8137650
Probable space group: C 2/C
;
_chemical_formula_sum "Si O2"
_cell_formula_units_Z 56
_cell_length_a 20.206322
_cell_length_b 16.230980
_cell_length_c 22.922034
_cell_angle_alpha 90.000000
_cell_angle_beta 22.198651
_cell_angle_gamma 90.000000
_cell_volume 2840.330938
_symmetry_space_group_name_H-M "C 2/C"
_symmetry_group_IT_number 15
_symmetry_cell_setting 'monoclinic'
loop_
_space_group_symop_operation_xyz
x,y,z
-x,y,1/2-z
-x,-y,-z
x,-y,1/2+z
1/2+x,1/2+y,z
1/2-x,1/2+y,1/2-z
1/2-x,1/2-y,-z
1/2+x,1/2-y,1/2+z
loop_
_atom_site_type_symbol
_atom_site_label
_atom_site_fract_x
_atom_site_fract_y
_atom_site_fract_z
Si Si1 0.289349 0.005198 0.418991
Si Si2 0.073435 0.347000 0.852415
Si Si3 0.897085 0.256638 0.095248
Si Si4 0.805045 0.991823 0.633699
Si Si5 0.739260 0.673559 0.832948
Si Si6 0.296809 0.178320 0.916544
Si Si7 0.147227 0.335152 0.580963
O O1 0.500000 0.002401 0.250000
O O2 0.215701 0.913508 0.497335
O O3 0.204999 0.032956 0.426029
O O4 0.232180 0.082594 0.506725
O O5 0.210023 0.274195 0.724453
O O6 0.186866 0.429857 0.768154
O O7 0.931963 0.349930 0.917645
O O8 0.968235 0.332727 0.998630
O O9 0.877555 0.279015 0.179460
O O10 0.039652 0.183906 0.973538
O O11 0.707231 0.079097 0.716214
O O12 0.000000 0.000000 0.500000
O O13 0.744607 0.707873 0.894436
O O14 0.500000 0.164714 0.750000
O O15 0.250000 0.250000 0.000000
O O16 0.250000 0.250000 0.500000
O O17 0.000000 0.330428 0.750000
#
# Coordination Sequence:
#
# PCOD8137650 Si02
#       7
#     8   8   8   8   8   8   8
#     4   9  19  36  57  86 117 157 202 246 303 381
#     4  11  21  37  59  89 119 160 204 251 306 375
#     4  10  22  37  57  87 122 152 204 252 301 377
#     4  11  20  35  60  86 119 161 204 251 315 373
#     4  10  21  37  58  84 118 155 198 253 313 368
#     4  10  20  36  61  84 109 153 201 247 307 367
#     4  11  21  37  61  86 117 161 201 250 307 361
#
# _framework density 19.716011999999999
#
# number of rings (size 3 to 8) (size 9 to 14) (size 15 to 20)
#    0.000    1.714    4.286    1.714    0.000    0.571 
#    0.000    0.714    0.000    0.000    0.000    0.000 
#    0.000    0.000    0.000    0.000    0.000    0.000 
#
# Total GULP energy -346880.568932 kJ/mol
# GULP energy per Si atom -12388.591748 kJ/mol
# Density = 1.967114 g / cm^3
# Si number density = 19.716012 Si / 1000 Ang^3
#
#
#
# Elastic Constant Matrix: (Units=GPa)
#
#
# Indices 1 2 3 4 5 6 
#
# 1 135.7934 52.5825 40.3896 0.0244 -0.4095 -0.0095
# 2 52.5825 149.9657 39.6490 0.0689 21.9814 -0.0029
# 3 40.3896 39.6490 64.9907 0.0656 9.9408 -0.0199
# 4 0.0244 0.0689 0.0656 44.4991 -0.0208 9.7015
# 5 -0.4095 21.9814 9.9408 -0.0208 33.5233 0.0096
# 6 -0.0095 -0.0029 -0.0199 9.7015 0.0096 38.7080
#
#
#
# Elastic Compliance Matrix: (Units=1/GPa)
#
#
# Indices 1 2 3 4 5 6 
#
# 1 0.009894 -0.002621 -0.005061 0.000008 0.003340 -0.000003
# 2 -0.002621 0.009179 -0.003190 -0.000011 -0.005105 0.000002
# 3 -0.005061 -0.003190 0.021126 -0.000029 -0.004235 0.000018
# 4 0.000008 -0.000011 -0.000029 0.023771 0.000032 -0.005958
# 5 0.003340 -0.005105 -0.004235 0.000032 0.034474 -0.000018
# 6 -0.000003 0.000002 0.000018 -0.005958 -0.000018 0.027328
#
#
# Mechanical properties :
#
#
# Convention : Reuss Voigt Hill
#
# Bulk Modulus (GPa) = 54.18531 68.44357 61.31444
# Shear Modulus (GPa) = 32.53771 37.88798 35.21284
#
# Velocity S-wave (km/s) = 4.06682 4.38846 4.23070
# Velocity P-wave (km/s) = 7.04234 7.77613 7.41831
#
# Compressibility (1/GPa) = 0.01845519
#
# Stress axis : x y z
#
# Youngs Moduli (GPa) = 101.06762 108.94695 47.33476
#
# Poissons Ratio (x) = 0.28552 0.23957
# Poissons Ratio (y) = 0.26487 0.15101
# Poissons Ratio (z) = 0.51151 0.34756
#
# Static dielectric constant tensor:
#      x y z
#    x 3.731240 0.000670 -0.124370 
#    y 0.000670 10.033720 0.002580 
#    z -0.124370 0.002580 3.277390 
# 
# 
# High freq. dielectric constant tensor:
#      x y z
#    x 1.777940 0.000000 -0.015220 
#    y 0.000000 1.782600 0.000020 
#    z -0.015220 0.000020 1.732080 
# 
# From -- ./inp_files/280406.got.cif
#   From: 2010.06.25/outbox.cif.g09.slc.cpg/sg15_141_cif.got.tgz:280406.got - 2010.06.28 07:06:18.
