data_PCOD8137012
_publ_section_title
;
Structure prediction by ZEFSAII (Michael W. Deem and Ramdas Pophale) SiO2 
 PCOD8137012
Probable space group: C 2/C
;
_chemical_formula_sum "Si O2"
_cell_formula_units_Z 48
_cell_length_a 14.048204
_cell_length_b 33.633277
_cell_length_c 14.312148
_cell_angle_alpha 90.000000
_cell_angle_beta 159.790356
_cell_angle_gamma 90.000000
_cell_volume 2336.080209
_symmetry_space_group_name_H-M "C 2/C"
_symmetry_group_IT_number 15
_symmetry_cell_setting 'monoclinic'
loop_
_space_group_symop_operation_xyz
x,y,z
-x,y,1/2-z
-x,-y,-z
x,-y,1/2+z
1/2+x,1/2+y,z
1/2-x,1/2+y,1/2-z
1/2-x,1/2-y,-z
1/2+x,1/2-y,1/2+z
loop_
_atom_site_type_symbol
_atom_site_label
_atom_site_fract_x
_atom_site_fract_y
_atom_site_fract_z
Si Si1 0.734636 0.481082 0.543669
Si Si2 0.821531 0.158681 0.308508
Si Si3 0.839312 0.440104 0.238815
Si Si4 0.079103 0.724525 0.218620
Si Si5 0.574101 0.851779 0.215816
Si Si6 0.762999 0.929982 0.779434
O O1 0.879758 0.522184 0.710197
O O2 0.630442 0.455261 0.534149
O O3 0.000000 0.456740 0.750000
O O4 0.500000 0.487001 0.250000
O O5 0.735131 0.189968 0.307161
O O6 0.739397 0.116672 0.280757
O O7 0.136700 0.160899 0.564266
O O8 0.651679 0.167260 0.058997
O O9 0.966786 0.399515 0.315430
O O10 0.984775 0.446949 0.474602
O O11 0.511394 0.435239 0.936398
O O12 0.288409 0.761967 0.407274
O O13 0.000000 0.709924 0.250000
O O14 0.500000 0.834384 0.250000
#
# Coordination Sequence:
#
# PCOD8137012 Si02
#       6
#     8   8   8   8   8   8
#     4  12  23  34  51  77 108 143 187 237 288 335
#     4  10  21  37  60  86 115 150 186 234 288 338
#     4  10  20  36  55  74 104 148 195 235 275 328
#     4  10  21  39  64  91 116 148 188 228 274 334
#     4  10  20  35  58  86 115 150 194 237 280 331
#     4  10  21  37  54  76 107 146 185 229 288 339
#
# _framework density 20.547239999999999
#
# number of rings (size 3 to 8) (size 9 to 14) (size 15 to 20)
#    0.000    1.667    0.000    5.000    0.000    3.333 
#    0.000    2.500    0.000   10.000    0.000    0.000 
#    0.000    0.000    0.000    0.000    0.000    0.000 
#
# Total GULP energy -297375.442887 kJ/mol
# GULP energy per Si atom -12390.643454 kJ/mol
# Density = 2.050047 g / cm^3
# Si number density = 20.547240 Si / 1000 Ang^3
#
#
#
# Elastic Constant Matrix: (Units=GPa)
#
#
# Indices 1 2 3 4 5 6 
#
# 1 95.5179 51.0786 18.9915 0.0006 -7.5164 0.0008
# 2 51.0786 71.4900 21.8174 0.0000 -9.5659 -0.0001
# 3 18.9915 21.8174 100.8347 0.0007 -9.4777 0.0009
# 4 0.0006 0.0000 0.0007 19.6449 0.0008 5.0485
# 5 -7.5164 -9.5659 -9.4777 0.0008 31.7151 0.0008
# 6 0.0008 -0.0001 0.0009 5.0485 0.0008 13.3088
#
#
#
# Elastic Compliance Matrix: (Units=1/GPa)
#
#
# Indices 1 2 3 4 5 6 
#
# 1 0.016980 -0.011916 -0.000596 0.000000 0.000252 -0.000001
# 2 -0.011916 0.023762 -0.002561 0.000000 0.003578 0.000001
# 3 -0.000596 -0.002561 0.010801 0.000000 0.002314 -0.000001
# 4 0.000000 0.000000 0.000000 0.056402 -0.000001 -0.021395
# 5 0.000252 0.003578 0.002314 -0.000001 0.033361 -0.000002
# 6 -0.000001 0.000001 -0.000001 -0.021395 -0.000002 0.083255
#
#
# Mechanical properties :
#
#
# Convention : Reuss Voigt Hill
#
# Bulk Modulus (GPa) = 46.73561 50.17974 48.45767
# Shear Modulus (GPa) = 19.09569 24.66410 21.87989
#
# Velocity S-wave (km/s) = 3.05184 3.46838 3.26676
# Velocity P-wave (km/s) = 5.93407 6.36508 6.15335
#
# Compressibility (1/GPa) = 0.02139696
#
# Stress axis : x y z
#
# Youngs Moduli (GPa) = 58.89344 42.08376 92.58352
#
# Poissons Ratio (x) = 0.50148 0.05519
# Poissons Ratio (y) = 0.70179 0.23708
# Poissons Ratio (z) = 0.03510 0.10777
#
# Static dielectric constant tensor:
#      x y z
#    x 3.727910 -0.000010 0.061200 
#    y -0.000010 3.522550 0.000000 
#    z 0.061200 0.000000 3.833560 
# 
# 
# High freq. dielectric constant tensor:
#      x y z
#    x 1.804570 0.000000 0.007010 
#    y 0.000000 1.773370 0.000000 
#    z 0.007010 0.000000 1.824170 
# 
# From -- ./inp_files/157599.got.cif
#   From: 2010.06.25/outbox.cif.g09.slc.cpg/sg15_79_cif.got.tgz:157599.got - 2010.06.28 07:06:18.
