data_PCOD8137162
_publ_section_title
;
Structure prediction by ZEFSAII (Michael W. Deem and Ramdas Pophale) SiO2 
 PCOD8137162
Probable space group: C 2/C
;
_chemical_formula_sum "Si O2"
_cell_formula_units_Z 52
_cell_length_a 12.015774
_cell_length_b 28.966419
_cell_length_c 11.644736
_cell_angle_alpha 90.000000
_cell_angle_beta 38.845203
_cell_angle_gamma 90.000000
_cell_volume 2542.114127
_symmetry_space_group_name_H-M "C 2/C"
_symmetry_group_IT_number 15
_symmetry_cell_setting 'monoclinic'
loop_
_space_group_symop_operation_xyz
x,y,z
-x,y,1/2-z
-x,-y,-z
x,-y,1/2+z
1/2+x,1/2+y,z
1/2-x,1/2+y,1/2-z
1/2-x,1/2-y,-z
1/2+x,1/2-y,1/2+z
loop_
_atom_site_type_symbol
_atom_site_label
_atom_site_fract_x
_atom_site_fract_y
_atom_site_fract_z
Si Si1 0.135975 0.097138 0.904733
Si Si2 0.259942 0.196133 0.854160
Si Si3 0.000000 0.413287 0.750000
Si Si4 0.263358 0.118522 0.240881
Si Si5 0.691570 0.543877 0.635796
Si Si6 0.154464 0.704366 0.456536
Si Si7 0.698475 0.437175 0.590768
O O1 0.161651 0.152113 0.880712
O O2 0.224992 0.070243 0.727670
O O3 0.246740 0.071729 0.918723
O O4 0.920993 0.093066 0.075493
O O5 0.452337 0.192872 0.644103
O O6 0.244005 0.196265 0.005141
O O7 0.169756 0.244365 0.891003
O O8 0.911338 0.382830 0.721290
O O9 0.154788 0.445042 0.576971
O O10 0.326081 0.091443 0.074348
O O11 0.252398 0.172030 0.213801
O O12 0.500000 0.561627 0.750000
O O13 0.694880 0.488869 0.642395
O O14 0.500000 0.415900 0.750000
#
# Coordination Sequence:
#
# PCOD8137162 Si02
#       7
#     8   8   4   8   8   8   8
#     4  11  21  41  69  91 126 170 213 267 329 375
#     4  10  20  35  62  95 128 165 205 269 326 379
#     4  12  26  42  62  92 128 176 222 256 322 384
#     4  11  22  40  63  92 130 167 212 265 317 387
#     4  11  24  44  64  90 131 171 217 266 321 387
#     4  10  20  36  59  96 132 159 210 265 325 382
#     4   9  22  38  65  94 123 165 214 270 324 376
#
# _framework density 20.455414999999999
#
# number of rings (size 3 to 8) (size 9 to 14) (size 15 to 20)
#    0.000    1.538    3.077    1.846    2.154    3.692 
#    2.769    0.000    1.692    2.769    0.000    0.000 
#    0.000    0.000    0.000    0.000    0.000    0.000 
#
# Total GULP energy -322183.513811 kJ/mol
# GULP energy per Si atom -12391.673608 kJ/mol
# Density = 2.040886 g / cm^3
# Si number density = 20.455415 Si / 1000 Ang^3
#
#
#
# Elastic Constant Matrix: (Units=GPa)
#
#
# Indices 1 2 3 4 5 6 
#
# 1 118.0818 60.6627 30.2501 0.0000 15.6525 0.0000
# 2 60.6627 133.1495 29.4670 0.0000 14.8765 0.0000
# 3 30.2501 29.4670 82.7597 0.0000 7.9909 0.0000
# 4 0.0000 0.0000 0.0000 27.6008 0.0000 -0.8074
# 5 15.6525 14.8765 7.9909 0.0000 26.7524 0.0000
# 6 0.0000 0.0000 0.0000 -0.8074 0.0000 25.7285
#
#
#
# Elastic Compliance Matrix: (Units=1/GPa)
#
#
# Indices 1 2 3 4 5 6 
#
# 1 0.011869 -0.004460 -0.002388 0.000000 -0.003751 0.000000
# 2 -0.004460 0.010217 -0.001762 0.000000 -0.002546 0.000000
# 3 -0.002388 -0.001762 0.013750 0.000000 -0.001730 0.000000
# 4 0.000000 0.000000 0.000000 0.036264 0.000000 0.001138
# 5 -0.003751 -0.002546 -0.001730 0.000000 0.041507 0.000000
# 6 0.000000 0.000000 0.000000 0.001138 0.000000 0.038903
#
#
# Mechanical properties :
#
#
# Convention : Reuss Voigt Hill
#
# Bulk Modulus (GPa) = 53.71595 63.86117 58.78856
# Shear Modulus (GPa) = 28.41961 30.25709 29.33835
#
# Velocity S-wave (km/s) = 3.73143 3.85017 3.79127
# Velocity P-wave (km/s) = 6.69939 7.14511 6.92584
#
# Compressibility (1/GPa) = 0.01861645
#
# Stress axis : x y z
#
# Youngs Moduli (GPa) = 84.25386 97.88039 72.72505
#
# Poissons Ratio (x) = 0.43653 0.17368
# Poissons Ratio (y) = 0.37576 0.12812
# Poissons Ratio (z) = 0.20121 0.17244
#
# Static dielectric constant tensor:
#      x y z
#    x 3.665770 0.000000 0.052420 
#    y 0.000000 3.635330 0.000000 
#    z 0.052420 0.000000 3.689720 
# 
# 
# High freq. dielectric constant tensor:
#      x y z
#    x 1.779590 0.000000 -0.001930 
#    y 0.000000 1.801700 0.000000 
#    z -0.001930 0.000000 1.799090 
# 
# From -- ./inp_files/52235.got.cif
#   From: 2010.06.25/outbox.cif.g09.slc.cpg/sg15_27_cif.got.tgz:52235.got - 2010.06.28 07:06:18.
