data_PCOD8137735
_publ_section_title
;
Structure prediction by ZEFSAII (Michael W. Deem and Ramdas Pophale) SiO2 
 PCOD8137735
Probable space group: C 2/C
;
_chemical_formula_sum "Si O2"
_cell_formula_units_Z 44
_cell_length_a 13.982511
_cell_length_b 12.055680
_cell_length_c 17.254354
_cell_angle_alpha 90.000000
_cell_angle_beta 46.625656
_cell_angle_gamma 90.000000
_cell_volume 2114.168789
_symmetry_space_group_name_H-M "C 2/C"
_symmetry_group_IT_number 15
_symmetry_cell_setting 'monoclinic'
loop_
_space_group_symop_operation_xyz
x,y,z
-x,y,1/2-z
-x,-y,-z
x,-y,1/2+z
1/2+x,1/2+y,z
1/2-x,1/2+y,1/2-z
1/2-x,1/2-y,-z
1/2+x,1/2-y,1/2+z
loop_
_atom_site_type_symbol
_atom_site_label
_atom_site_fract_x
_atom_site_fract_y
_atom_site_fract_z
Si Si1 0.036575 0.412386 0.315436
Si Si2 0.249507 0.856856 0.053744
Si Si3 0.535685 0.863811 0.886437
Si Si4 0.000000 0.765713 0.250000
Si Si5 0.255181 0.401875 0.991979
Si Si6 0.748261 0.757597 0.134790
O O1 0.094687 0.514186 0.334508
O O2 0.139217 0.310587 0.252762
O O3 0.000000 0.456955 0.250000
O O4 0.900768 0.372582 0.430000
O O5 0.132150 0.841753 0.181133
O O6 0.250000 0.750000 0.000000
O O7 0.395143 0.872576 0.011145
O O8 0.215773 0.967609 0.023291
O O9 0.497568 0.808761 0.826895
O O10 0.636747 0.790635 0.876994
O O11 0.306998 0.352708 0.044828
O O12 0.317400 0.339125 0.882377
#
# Coordination Sequence:
#
# PCOD8137735 Si02
#       6
#     8   8   8   4   8   8
#     4   9  18  37  63  82 119 166 195 238 298 361
#     4   9  20  38  63  86 116 161 195 246 299 352
#     4  10  20  36  62  87 115 156 206 240 293 358
#     4  10  20  38  60  86 116 154 202 248 296 350
#     4   9  20  40  58  84 123 157 196 243 301 359
#     4  10  21  35  60  90 114 155 200 243 293 354
#
# _framework density 20.811961
#
# number of rings (size 3 to 8) (size 9 to 14) (size 15 to 20)
#    0.000    2.545    0.909    0.000    2.545    5.818 
#    8.182    3.636    0.000    0.000    0.000    0.000 
#    0.000    0.000    0.000    0.000    0.000    0.000 
#
# Total GULP energy -272567.646425 kJ/mol
# GULP energy per Si atom -12389.438474 kJ/mol
# Density = 2.076459 g / cm^3
# Si number density = 20.811961 Si / 1000 Ang^3
#
#
#
# Elastic Constant Matrix: (Units=GPa)
#
#
# Indices 1 2 3 4 5 6 
#
# 1 88.1429 41.0550 26.6341 0.0000 -7.0111 0.0000
# 2 41.0550 152.2153 43.0440 0.0000 -8.0538 0.0000
# 3 26.6341 43.0440 94.1737 0.0000 -26.3486 0.0000
# 4 0.0000 0.0000 0.0000 19.1574 0.0000 1.5375
# 5 -7.0111 -8.0538 -26.3486 0.0000 22.2984 0.0000
# 6 0.0000 0.0000 0.0000 1.5375 0.0000 40.7416
#
#
#
# Elastic Compliance Matrix: (Units=1/GPa)
#
#
# Indices 1 2 3 4 5 6 
#
# 1 0.013458 -0.002944 -0.002351 0.000000 0.000389 0.000000
# 2 -0.002944 0.008250 -0.003531 0.000000 -0.002118 0.000000
# 3 -0.002351 -0.003531 0.018425 0.000000 0.019758 0.000000
# 4 0.000000 0.000000 0.000000 0.052358 0.000000 -0.001976
# 5 0.000389 -0.002118 0.019758 0.000000 0.067550 0.000000
# 6 0.000000 0.000000 0.000000 -0.001976 0.000000 0.024620
#
#
# Mechanical properties :
#
#
# Convention : Reuss Voigt Hill
#
# Bulk Modulus (GPa) = 44.48284 61.77757 53.13020
# Shear Modulus (GPa) = 23.83133 31.35939 27.59536
#
# Velocity S-wave (km/s) = 3.38757 3.88596 3.64529
# Velocity P-wave (km/s) = 6.05978 7.06274 6.58040
#
# Compressibility (1/GPa) = 0.02248058
#
# Stress axis : x y z
#
# Youngs Moduli (GPa) = 74.30445 121.20981 54.27266
#
# Poissons Ratio (x) = 0.35688 0.12762
# Poissons Ratio (y) = 0.21878 0.19163
# Poissons Ratio (z) = 0.17473 0.42797
#
# Static dielectric constant tensor:
#      x y z
#    x 3.429290 0.000000 -0.205290 
#    y 0.000000 3.922890 0.000000 
#    z -0.205290 0.000000 4.309280 
# 
# 
# High freq. dielectric constant tensor:
#      x y z
#    x 1.778590 0.000000 -0.002560 
#    y 0.000000 1.824750 0.000000 
#    z -0.002560 0.000000 1.815140 
# 
# From -- ./inp_files/203826.got.cif
#   From: 2010.06.25/outbox.cif.g09.slc.cpg/sg15_102_cif.got.tgz:203826.got - 2010.06.28 07:06:18.
