data_PCOD8137913
_publ_section_title
;
Structure prediction by ZEFSAII (Michael W. Deem and Ramdas Pophale) SiO2 
 PCOD8137913
Probable space group: C 2/C
;
_chemical_formula_sum "Si O2"
_cell_formula_units_Z 60
_cell_length_a 17.506424
_cell_length_b 9.809683
_cell_length_c 21.841905
_cell_angle_alpha 90.000000
_cell_angle_beta 128.848974
_cell_angle_gamma 90.000000
_cell_volume 2921.258816
_symmetry_space_group_name_H-M "C 2/C"
_symmetry_group_IT_number 15
_symmetry_cell_setting 'monoclinic'
loop_
_space_group_symop_operation_xyz
x,y,z
-x,y,1/2-z
-x,-y,-z
x,-y,1/2+z
1/2+x,1/2+y,z
1/2-x,1/2+y,1/2-z
1/2-x,1/2-y,-z
1/2+x,1/2-y,1/2+z
loop_
_atom_site_type_symbol
_atom_site_label
_atom_site_fract_x
_atom_site_fract_y
_atom_site_fract_z
Si Si1 0.500000 0.280331 0.250000
Si Si2 0.302228 0.924011 0.310335
Si Si3 0.816442 0.780912 0.474739
Si Si4 0.481084 0.061857 0.557206
Si Si5 0.787419 0.165760 0.612932
Si Si6 0.483503 0.208256 0.108081
Si Si7 0.191256 0.911044 0.504267
Si Si8 0.196403 0.275049 0.667199
O O1 0.600994 0.364768 0.308854
O O2 0.514715 0.196279 0.194951
O O3 0.417377 0.905300 0.356953
O O4 0.286569 0.870559 0.371026
O O5 0.242779 0.844883 0.229504
O O6 0.266764 0.080443 0.288216
O O7 0.750000 0.750000 0.500000
O O8 0.768397 0.738322 0.385732
O O9 0.917948 0.698548 0.530557
O O10 0.834259 0.943281 0.479649
O O11 0.500000 0.000000 0.500000
O O12 0.430732 0.936066 0.567827
O O13 0.764612 0.071537 0.542243
O O14 0.768935 0.325342 0.584729
O O15 0.410040 0.329109 0.054888
O O16 0.578561 0.231673 0.113047
#
# Coordination Sequence:
#
# PCOD8137913 Si02
#       8
#     4   8   8   8   8   8   8   8
#     4  10  20  36  66  92 130 162 220 270 320 398
#     4  11  23  43  67  93 134 177 224 269 341 402
#     4  12  27  45  66 100 135 171 227 288 341 406
#     4  11  23  45  69  91 134 186 213 273 351 403
#     4  10  21  40  65  98 129 178 212 276 334 405
#     4  10  21  42  66  95 126 172 223 264 335 404
#     4  10  24  37  70  99 127 168 227 271 330 398
#     4  11  25  42  67  96 134 177 217 283 337 404
#
# _framework density 20.539092
#
# number of rings (size 3 to 8) (size 9 to 14) (size 15 to 20)
#    0.000    1.333    4.000    1.600    7.467    1.600 
#    0.000    0.000    0.000    0.000    0.000    0.000 
#    0.000    0.000    0.000    0.000    0.000    0.000 
#
# Total GULP energy -371807.965963 kJ/mol
# GULP energy per Si atom -12393.598865 kJ/mol
# Density = 2.049234 g / cm^3
# Si number density = 20.539092 Si / 1000 Ang^3
#
#
#
# Elastic Constant Matrix: (Units=GPa)
#
#
# Indices 1 2 3 4 5 6 
#
# 1 83.3528 34.1299 35.9735 0.0000 -13.3055 0.0000
# 2 34.1299 137.6424 52.7204 0.0000 6.8697 0.0000
# 3 35.9735 52.7204 94.8808 0.0000 -0.9788 0.0000
# 4 0.0000 0.0000 0.0000 30.5057 0.0000 4.5614
# 5 -13.3055 6.8697 -0.9788 0.0000 38.0486 0.0000
# 6 0.0000 0.0000 0.0000 4.5614 0.0000 33.3607
#
#
#
# Elastic Compliance Matrix: (Units=1/GPa)
#
#
# Indices 1 2 3 4 5 6 
#
# 1 0.015944 -0.002485 -0.004603 0.000000 0.005906 0.000000
# 2 -0.002485 0.009742 -0.004499 0.000000 -0.002744 0.000000
# 3 -0.004603 -0.004499 0.014780 0.000000 -0.000417 0.000000
# 4 0.000000 0.000000 0.000000 0.033465 0.000000 -0.004576
# 5 0.005906 -0.002744 -0.000417 0.000000 0.028832 0.000000
# 6 0.000000 0.000000 0.000000 -0.004576 0.000000 0.030601
#
#
# Mechanical properties :
#
#
# Convention : Reuss Voigt Hill
#
# Bulk Modulus (GPa) = 57.83259 62.39153 60.11206
# Shear Modulus (GPa) = 30.80659 33.25315 32.02987
#
# Velocity S-wave (km/s) = 3.87706 4.02807 3.95328
# Velocity P-wave (km/s) = 6.94698 7.21642 7.08298
#
# Compressibility (1/GPa) = 0.01729129
#
# Stress axis : x y z
#
# Youngs Moduli (GPa) = 62.71855 102.65301 67.65701
#
# Poissons Ratio (x) = 0.25510 0.31145
# Poissons Ratio (y) = 0.15586 0.30439
# Poissons Ratio (z) = 0.28872 0.46183
#
# Static dielectric constant tensor:
#      x y z
#    x 3.938180 0.000000 -0.109980 
#    y 0.000000 3.790920 0.000000 
#    z -0.109980 0.000000 3.848710 
# 
# 
# High freq. dielectric constant tensor:
#      x y z
#    x 1.810500 0.000000 -0.005520 
#    y 0.000000 1.792830 0.000000 
#    z -0.005520 0.000000 1.808760 
# 
# From -- ./inp_files/252143.got.cif
#   From: 2010.06.25/outbox.cif.g09.slc.cpg/sg15_127_cif.got.tgz:252143.got - 2010.06.28 07:06:18.
