data_PCOD8137623
_publ_section_title
;
Structure prediction by ZEFSAII (Michael W. Deem and Ramdas Pophale) SiO2 
 PCOD8137623
Probable space group: C 2/C
;
_chemical_formula_sum "Si O2"
_cell_formula_units_Z 52
_cell_length_a 13.260126
_cell_length_b 11.325580
_cell_length_c 17.195754
_cell_angle_alpha 90.000000
_cell_angle_beta 97.962478
_cell_angle_gamma 90.000000
_cell_volume 2557.537312
_symmetry_space_group_name_H-M "C 2/C"
_symmetry_group_IT_number 15
_symmetry_cell_setting 'monoclinic'
loop_
_space_group_symop_operation_xyz
x,y,z
-x,y,1/2-z
-x,-y,-z
x,-y,1/2+z
1/2+x,1/2+y,z
1/2-x,1/2+y,1/2-z
1/2-x,1/2-y,-z
1/2+x,1/2-y,1/2+z
loop_
_atom_site_type_symbol
_atom_site_label
_atom_site_fract_x
_atom_site_fract_y
_atom_site_fract_z
Si Si1 0.907617 0.131346 0.299790
Si Si2 0.785568 0.299118 0.110245
Si Si3 0.605080 0.111095 0.727582
Si Si4 0.000000 0.763820 0.250000
Si Si5 0.872717 0.882452 0.516273
Si Si6 0.686323 0.874769 0.702686
Si Si7 0.508594 0.567225 0.896136
O O1 0.910817 0.269892 0.324698
O O2 0.796086 0.109910 0.254009
O O3 0.000000 0.106496 0.250000
O O4 0.926586 0.039015 0.371107
O O5 0.822063 0.367168 0.190189
O O6 0.876137 0.226821 0.077736
O O7 0.698882 0.203033 0.126383
O O8 0.734131 0.386657 0.042206
O O9 0.500000 0.063038 0.750000
O O10 0.650952 0.007997 0.678565
O O11 0.898632 0.686068 0.251243
O O12 0.025480 0.846302 0.326205
O O13 0.965037 0.862700 0.465617
O O14 0.885763 0.003687 0.567153
#
# Coordination Sequence:
#
# PCOD8137623 Si02
#       7
#     8   8   8   4   8   8   8
#     4  10  21  35  60  90 116 155 208 254 297 351
#     4  10  21  37  59  88 119 167 207 241 300 377
#     4  10  20  36  60  90 125 156 202 253 300 359
#     4  12  24  38  60  96 122 158 210 256 316 350
#     4  10  21  36  60  87 125 159 201 251 308 361
#     4  11  22  37  61  89 127 154 195 261 307 354
#     4  11  21  38  62  89 120 158 205 263 295 362
#
# _framework density 20.332059000000001
#
# number of rings (size 3 to 8) (size 9 to 14) (size 15 to 20)
#    0.000    1.538    3.077    3.692    2.154    0.000 
#    0.000    0.000    0.000   36.923    0.000    0.000 
#    0.000    0.000    0.000    0.000    0.000    0.000 
#
# Total GULP energy -322153.482284 kJ/mol
# GULP energy per Si atom -12390.518549 kJ/mol
# Density = 2.028578 g / cm^3
# Si number density = 20.332059 Si / 1000 Ang^3
#
#
#
# Elastic Constant Matrix: (Units=GPa)
#
#
# Indices 1 2 3 4 5 6 
#
# 1 100.0425 42.5335 15.6329 0.0000 -5.8199 0.0000
# 2 42.5335 94.5230 20.2461 0.0000 -6.9023 0.0000
# 3 15.6329 20.2461 62.9084 0.0000 -4.6013 0.0000
# 4 0.0000 0.0000 0.0000 13.2633 0.0000 -4.4624
# 5 -5.8199 -6.9023 -4.6013 0.0000 25.1181 0.0000
# 6 0.0000 0.0000 0.0000 -4.4624 0.0000 29.8098
#
#
#
# Elastic Compliance Matrix: (Units=1/GPa)
#
#
# Indices 1 2 3 4 5 6 
#
# 1 0.012508 -0.005255 -0.001328 0.000000 0.001211 0.000000
# 2 -0.005255 0.013726 -0.002964 0.000000 0.002011 0.000000
# 3 -0.001328 -0.002964 0.017330 0.000000 0.002052 0.000000
# 4 0.000000 0.000000 0.000000 0.079395 0.000000 0.011885
# 5 0.001211 0.002011 0.002052 0.000000 0.041021 0.000000
# 6 0.000000 0.000000 0.000000 0.011885 0.000000 0.035325
#
#
# Mechanical properties :
#
#
# Convention : Reuss Voigt Hill
#
# Bulk Modulus (GPa) = 40.86958 46.03322 43.45140
# Shear Modulus (GPa) = 22.06938 25.57568 23.82253
#
# Velocity S-wave (km/s) = 3.29819 3.55053 3.42668
# Velocity P-wave (km/s) = 5.88632 6.28476 6.08880
#
# Compressibility (1/GPa) = 0.02446808
#
# Stress axis : x y z
#
# Youngs Moduli (GPa) = 79.94795 72.85382 57.70207
#
# Poissons Ratio (x) = 0.38288 0.07665
# Poissons Ratio (y) = 0.42017 0.17105
# Poissons Ratio (z) = 0.10620 0.21597
#
# Static dielectric constant tensor:
#      x y z
#    x 3.773780 0.000000 -0.029690 
#    y 0.000000 3.864680 0.000000 
#    z -0.029690 0.000000 3.642530 
# 
# 
# High freq. dielectric constant tensor:
#      x y z
#    x 1.794240 0.000000 0.001770 
#    y 0.000000 1.792250 0.000000 
#    z 0.001770 0.000000 1.776660 
# 
# From -- ./inp_files/203587.got.cif
#   From: 2010.06.25/outbox.cif.g09.slc.cpg/sg15_102_cif.got.tgz:203587.got - 2010.06.28 07:06:18.
