data_PCOD8137741
_publ_section_title
;
Structure prediction by ZEFSAII (Michael W. Deem and Ramdas Pophale) SiO2 
 PCOD8137741
Probable space group: C 2/C
;
_chemical_formula_sum "Si O2"
_cell_formula_units_Z 60
_cell_length_a 19.565515
_cell_length_b 8.450165
_cell_length_c 20.497450
_cell_angle_alpha 90.000000
_cell_angle_beta 60.170622
_cell_angle_gamma 90.000000
_cell_volume 2939.889847
_symmetry_space_group_name_H-M "C 2/C"
_symmetry_group_IT_number 15
_symmetry_cell_setting 'monoclinic'
loop_
_space_group_symop_operation_xyz
x,y,z
-x,y,1/2-z
-x,-y,-z
x,-y,1/2+z
1/2+x,1/2+y,z
1/2-x,1/2+y,1/2-z
1/2-x,1/2-y,-z
1/2+x,1/2-y,1/2+z
loop_
_atom_site_type_symbol
_atom_site_label
_atom_site_fract_x
_atom_site_fract_y
_atom_site_fract_z
Si Si1 0.145398 0.476149 0.628122
Si Si2 0.906361 0.922884 0.598713
Si Si3 0.500000 0.817858 0.750000
Si Si4 0.888523 0.073643 0.740785
Si Si5 0.355104 0.334357 0.871158
Si Si6 0.423232 0.324176 0.981918
Si Si7 0.759211 0.736997 0.649037
Si Si8 0.816138 0.464712 0.534606
O O1 0.150686 0.655174 0.652451
O O2 0.207070 0.358390 0.632259
O O3 0.161347 0.464596 0.544901
O O4 0.055247 0.426001 0.679452
O O5 0.826584 0.830043 0.655614
O O6 0.982427 0.810116 0.552096
O O7 0.922643 0.021732 0.655723
O O8 0.892125 0.029877 0.541055
O O9 0.446039 0.715595 0.728965
O O10 0.798863 0.138979 0.775973
O O11 0.892407 0.941833 0.796314
O O12 0.405650 0.352803 0.913515
O O13 0.267550 0.381577 0.931526
O O14 0.381447 0.163371 0.026796
O O15 0.811446 0.614925 0.583059
#
# Coordination Sequence:
#
# PCOD8137741 Si02
#       8
#     8   8   4   8   8   8   8   8
#     4  10  20  36  62  88 114 147 190 243 286 336
#     4  11  23  39  56  83 119 157 191 229 287 347
#     4  10  22  38  56  88 116 146 194 240 290 334
#     4  10  23  40  60  83 117 154 189 239 286 334
#     4  10  20  39  64  87 110 148 197 240 284 336
#     4  10  22  37  59  84 114 153 191 236 286 342
#     4  10  22  37  57  85 115 150 190 235 286 341
#     4  10  20  37  61  87 113 147 193 242 286 335
#
# _framework density 20.408928
#
# number of rings (size 3 to 8) (size 9 to 14) (size 15 to 20)
#    0.000    1.867    0.000    4.400    0.000   10.667 
#    0.000    5.333    0.000    0.000    0.000    0.000 
#    0.000    0.000    0.000    0.000    0.000    0.000 
#
# Total GULP energy -371894.235316 kJ/mol
# GULP energy per Si atom -12396.474511 kJ/mol
# Density = 2.036248 g / cm^3
# Si number density = 20.408928 Si / 1000 Ang^3
#
#
#
# Elastic Constant Matrix: (Units=GPa)
#
#
# Indices 1 2 3 4 5 6 
#
# 1 71.6636 29.7810 30.3535 0.0000 -13.9864 -0.0007
# 2 29.7810 92.4715 33.7692 0.0001 -5.7641 -0.0001
# 3 30.3535 33.7692 76.2211 0.0001 -17.2874 0.0004
# 4 0.0000 0.0001 0.0001 37.0206 0.0000 -14.8769
# 5 -13.9864 -5.7641 -17.2874 0.0000 31.4644 0.0002
# 6 -0.0007 -0.0001 0.0004 -14.8769 0.0002 31.8223
#
#
#
# Elastic Compliance Matrix: (Units=1/GPa)
#
#
# Indices 1 2 3 4 5 6 
#
# 1 0.018488 -0.004019 -0.004438 0.000000 0.005044 0.000001
# 2 -0.004019 0.013797 -0.004962 0.000000 -0.001986 0.000000
# 3 -0.004438 -0.004962 0.018771 0.000000 0.007432 0.000000
# 4 0.000000 0.000000 0.000000 0.033260 0.000000 0.015549
# 5 0.005044 -0.001986 0.007432 0.000000 0.037743 0.000000
# 6 0.000001 0.000000 0.000000 0.015549 0.000000 0.038694
#
#
# Mechanical properties :
#
#
# Convention : Reuss Voigt Hill
#
# Bulk Modulus (GPa) = 41.29277 47.57371 44.43324
# Shear Modulus (GPa) = 25.55376 29.82496 27.68936
#
# Velocity S-wave (km/s) = 3.54232 3.82693 3.68737
# Velocity P-wave (km/s) = 6.08337 6.54890 6.32042
#
# Compressibility (1/GPa) = 0.02421731
#
# Stress axis : x y z
#
# Youngs Moduli (GPa) = 54.08778 72.47962 53.27323
#
# Poissons Ratio (x) = 0.29131 0.23643
# Poissons Ratio (y) = 0.21739 0.26436
# Poissons Ratio (z) = 0.24004 0.35967
#
# Static dielectric constant tensor:
#      x y z
#    x 3.657710 0.000000 -0.300420 
#    y 0.000000 3.931730 0.000000 
#    z -0.300420 0.000000 3.767760 
# 
# 
# High freq. dielectric constant tensor:
#      x y z
#    x 1.792410 0.000000 -0.020600 
#    y 0.000000 1.805740 0.000000 
#    z -0.020600 0.000000 1.804870 
# 
# From -- ./inp_files/252101.got.cif
#   From: 2010.06.25/outbox.cif.g09.slc.cpg/sg15_127_cif.got.tgz:252101.got - 2010.06.28 07:06:18.
