data_PCOD8137306
_publ_section_title
;
Structure prediction by ZEFSAII (Michael W. Deem and Ramdas Pophale) SiO2 
 PCOD8137306
Probable space group: C 2/C
;
_chemical_formula_sum "Si O2"
_cell_formula_units_Z 40
_cell_length_a 9.725546
_cell_length_b 28.680183
_cell_length_c 9.213405
_cell_angle_alpha 90.000000
_cell_angle_beta 52.358252
_cell_angle_gamma 90.000000
_cell_volume 2034.961386
_symmetry_space_group_name_H-M "C 2/C"
_symmetry_group_IT_number 15
_symmetry_cell_setting 'monoclinic'
loop_
_space_group_symop_operation_xyz
x,y,z
-x,y,1/2-z
-x,-y,-z
x,-y,1/2+z
1/2+x,1/2+y,z
1/2-x,1/2+y,1/2-z
1/2-x,1/2-y,-z
1/2+x,1/2-y,1/2+z
loop_
_atom_site_type_symbol
_atom_site_label
_atom_site_fract_x
_atom_site_fract_y
_atom_site_fract_z
Si Si1 0.193003 0.961321 0.457579
Si Si2 0.333017 0.870162 0.260428
Si Si3 0.071063 0.355644 0.855743
Si Si4 0.805194 0.198208 0.428027
Si Si5 0.781398 0.050140 0.235264
O O1 0.252781 0.921053 0.311915
O O2 0.279688 0.958618 0.560337
O O3 0.988992 0.951760 0.598335
O O4 0.268781 0.009069 0.342586
O O5 0.500000 0.868536 0.250000
O O6 0.205327 0.832134 0.416596
O O7 0.389578 0.861940 0.058917
O O8 0.188204 0.319626 0.869825
O O9 0.186506 0.402108 0.749326
O O10 0.000000 0.334988 0.750000
O O11 0.750000 0.250000 0.500000
O O12 0.000000 0.196263 0.250000
#
# Coordination Sequence:
#
# PCOD8137306 Si02
#       5
#     8   8   8   8   8
#     4  10  20  36  56  85 120 171 222 254 302 367
#     4  10  20  37  59  87 122 161 207 252 305 376
#     4  11  24  40  60  96 131 160 207 266 311 363
#     4  11  22  44  73  94 118 163 206 250 315 387
#     4  10  21  36  56  83 127 169 214 259 304 365
#
# _framework density 19.656393000000001
#
# number of rings (size 3 to 8) (size 9 to 14) (size 15 to 20)
#    0.000    1.600    4.000    3.000    2.800    1.600 
#    0.000    7.000    0.000    0.000    0.000    0.000 
#    0.000    0.000    0.000    0.000    0.000    0.000 
#
# Total GULP energy -247793.027888 kJ/mol
# GULP energy per Si atom -12389.651394 kJ/mol
# Density = 1.961165 g / cm^3
# Si number density = 19.656393 Si / 1000 Ang^3
#
#
#
# Elastic Constant Matrix: (Units=GPa)
#
#
# Indices 1 2 3 4 5 6 
#
# 1 61.2077 33.9120 38.6072 0.0000 18.5730 0.0000
# 2 33.9120 142.3290 39.3468 0.0000 1.5603 0.0000
# 3 38.6072 39.3468 136.7900 0.0000 2.2267 0.0000
# 4 0.0000 0.0000 0.0000 35.7794 0.0000 -3.6729
# 5 18.5730 1.5603 2.2267 0.0000 34.3154 0.0000
# 6 0.0000 0.0000 0.0000 -3.6729 0.0000 27.2561
#
#
#
# Elastic Compliance Matrix: (Units=1/GPa)
#
#
# Indices 1 2 3 4 5 6 
#
# 1 0.026945 -0.004593 -0.006056 0.000000 -0.013982 0.000000
# 2 -0.004593 0.008417 -0.001160 0.000000 0.002178 0.000000
# 3 -0.006056 -0.001160 0.009309 0.000000 0.002727 0.000000
# 4 0.000000 0.000000 0.000000 0.028341 0.000000 0.003819
# 5 -0.013982 0.002178 0.002727 0.000000 0.036433 0.000000
# 6 0.000000 0.000000 0.000000 0.003819 0.000000 0.037204
#
#
# Mechanical properties :
#
#
# Convention : Reuss Voigt Hill
#
# Bulk Modulus (GPa) = 47.49934 62.67319 55.08626
# Shear Modulus (GPa) = 28.20312 34.70088 31.45200
#
# Velocity S-wave (km/s) = 3.79199 4.20619 4.00445
# Velocity P-wave (km/s) = 6.58708 7.45272 7.03323
#
# Compressibility (1/GPa) = 0.02105293
#
# Stress axis : x y z
#
# Youngs Moduli (GPa) = 37.11258 118.80537 107.42076
#
# Poissons Ratio (x) = 0.54562 0.65057
# Poissons Ratio (y) = 0.17044 0.12465
# Poissons Ratio (z) = 0.22476 0.13786
#
# Static dielectric constant tensor:
#      x y z
#    x 3.404100 0.000000 -0.033840 
#    y 0.000000 3.318340 0.000000 
#    z -0.033840 0.000000 5.513810 
# 
# 
# High freq. dielectric constant tensor:
#      x y z
#    x 1.747660 0.000000 -0.008820 
#    y 0.000000 1.760880 0.000000 
#    z -0.008820 0.000000 1.788350 
# 
# From -- ./inp_files/25348.got.cif
#   From: 2010.06.25/outbox.cif.g09.slc.cpg/sg15_13_cif.got.tgz:25348.got - 2010.06.28 07:06:18.
