data_PCOD8137614
_publ_section_title
;
Structure prediction by ZEFSAII (Michael W. Deem and Ramdas Pophale) SiO2 
 PCOD8137614
Probable space group: C 2/C
;
_chemical_formula_sum "Si O2"
_cell_formula_units_Z 48
_cell_length_a 12.721410
_cell_length_b 16.968386
_cell_length_c 11.407645
_cell_angle_alpha 90.000000
_cell_angle_beta 83.412988
_cell_angle_gamma 90.000000
_cell_volume 2446.219428
_symmetry_space_group_name_H-M "C 2/C"
_symmetry_group_IT_number 15
_symmetry_cell_setting 'monoclinic'
loop_
_space_group_symop_operation_xyz
x,y,z
-x,y,1/2-z
-x,-y,-z
x,-y,1/2+z
1/2+x,1/2+y,z
1/2-x,1/2+y,1/2-z
1/2-x,1/2-y,-z
1/2+x,1/2-y,1/2+z
loop_
_atom_site_type_symbol
_atom_site_label
_atom_site_fract_x
_atom_site_fract_y
_atom_site_fract_z
Si Si1 0.877198 0.018259 0.023648
Si Si2 0.713592 0.354133 0.401533
Si Si3 0.638173 0.188613 0.415072
Si Si4 0.779542 0.577268 0.277681
Si Si5 0.764603 0.422866 0.150703
Si Si6 0.444100 0.920808 0.961516
O O1 0.835916 0.065938 0.144907
O O2 0.827379 0.931775 0.030055
O O3 0.840621 0.069450 0.916453
O O4 0.000000 0.000000 0.000000
O O5 0.627704 0.283399 0.409315
O O6 0.815961 0.329318 0.462202
O O7 0.743326 0.368138 0.263403
O O8 0.711796 0.159153 0.295858
O O9 0.524452 0.148500 0.418856
O O10 0.798077 0.510980 0.178695
O O11 0.874098 0.561759 0.356533
O O12 0.863640 0.386133 0.068636
O O13 0.500000 0.000000 0.000000
#
# Coordination Sequence:
#
# PCOD8137614 Si02
#       6
#     8   8   8   8   8   8
#     4  10  21  41  63  85 113 159 213 249 286 362
#     4  10  23  40  60  84 125 161 197 246 307 355
#     4  11  21  40  58  89 129 158 190 252 310 363
#     4  10  20  36  60  89 119 152 196 249 300 355
#     4  10  20  39  61  89 116 157 203 249 297 362
#     4  11  20  34  63  93 119 153 201 246 303 366
#
# _framework density 19.622115000000001
#
# number of rings (size 3 to 8) (size 9 to 14) (size 15 to 20)
#    0.000    1.667    3.333    2.500    0.000    4.667 
#    9.000    1.667    0.000    0.000    0.000    0.000 
#    0.000    0.000    0.000    0.000    0.000    0.000 
#
# Total GULP energy -297447.509152 kJ/mol
# GULP energy per Si atom -12393.646215 kJ/mol
# Density = 1.957745 g / cm^3
# Si number density = 19.622115 Si / 1000 Ang^3
#
#
#
# Elastic Constant Matrix: (Units=GPa)
#
#
# Indices 1 2 3 4 5 6 
#
# 1 113.2746 13.1604 44.9588 0.0000 -16.3201 0.0000
# 2 13.1604 61.7603 28.9026 0.0000 -7.4132 0.0000
# 3 44.9588 28.9026 119.5247 0.0000 -5.0513 0.0000
# 4 0.0000 0.0000 0.0000 28.2263 0.0000 1.1944
# 5 -16.3201 -7.4132 -5.0513 0.0000 21.5477 0.0000
# 6 0.0000 0.0000 0.0000 1.1944 0.0000 22.2359
#
#
#
# Elastic Compliance Matrix: (Units=1/GPa)
#
#
# Indices 1 2 3 4 5 6 
#
# 1 0.011554 0.000414 -0.004111 0.000000 0.007930 0.000000
# 2 0.000414 0.018892 -0.004480 0.000000 0.005762 0.000000
# 3 -0.004111 -0.004480 0.010908 0.000000 -0.002098 0.000000
# 4 0.000000 0.000000 0.000000 0.035509 0.000000 -0.001907
# 5 0.007930 0.005762 -0.002098 0.000000 0.053905 0.000000
# 6 0.000000 0.000000 0.000000 -0.001907 0.000000 0.045075
#
#
# Mechanical properties :
#
#
# Convention : Reuss Voigt Hill
#
# Bulk Modulus (GPa) = 40.00291 52.06698 46.03494
# Shear Modulus (GPa) = 24.93390 28.23784 26.58587
#
# Velocity S-wave (km/s) = 3.56856 3.79764 3.68488
# Velocity P-wave (km/s) = 6.11640 6.76919 6.45106
#
# Compressibility (1/GPa) = 0.02499818
#
# Stress axis : x y z
#
# Youngs Moduli (GPa) = 86.54896 52.93276 91.67978
#
# Poissons Ratio (x) = -0.02189 0.37689
# Poissons Ratio (y) = -0.03580 0.41076
# Poissons Ratio (z) = 0.35580 0.23716
#
# Static dielectric constant tensor:
#      x y z
#    x 3.637200 0.000000 -0.033960 
#    y 0.000000 3.606240 0.000000 
#    z -0.033960 0.000000 3.797060 
# 
# 
# High freq. dielectric constant tensor:
#      x y z
#    x 1.750240 0.000000 0.003570 
#    y 0.000000 1.747210 0.000000 
#    z 0.003570 0.000000 1.784710 
# 
# From -- ./inp_files/87241.got.cif
#   From: 2010.06.25/outbox.cif.g09.slc.cpg/sg15_44_cif.got.tgz:87241.got - 2010.06.28 07:06:18.
