data_PCOD8137260
_publ_section_title
;
Structure prediction by ZEFSAII (Michael W. Deem and Ramdas Pophale) SiO2 
 PCOD8137260
Probable space group: C 2/C
;
_chemical_formula_sum "Si O2"
_cell_formula_units_Z 44
_cell_length_a 12.954711
_cell_length_b 20.946393
_cell_length_c 14.343697
_cell_angle_alpha 90.000000
_cell_angle_beta 33.985012
_cell_angle_gamma 90.000000
_cell_volume 2175.661133
_symmetry_space_group_name_H-M "C 2/C"
_symmetry_group_IT_number 15
_symmetry_cell_setting 'monoclinic'
loop_
_space_group_symop_operation_xyz
x,y,z
-x,y,1/2-z
-x,-y,-z
x,-y,1/2+z
1/2+x,1/2+y,z
1/2-x,1/2+y,1/2-z
1/2-x,1/2-y,-z
1/2+x,1/2-y,1/2+z
loop_
_atom_site_type_symbol
_atom_site_label
_atom_site_fract_x
_atom_site_fract_y
_atom_site_fract_z
Si Si1 0.172371 0.525876 0.972903
Si Si2 0.759397 0.201166 0.132192
Si Si3 0.014497 0.901288 0.942578
Si Si4 0.000000 0.056686 0.250000
Si Si5 0.846327 0.672016 0.491705
Si Si6 0.219965 0.509024 0.723687
O O1 0.333285 0.489591 0.908900
O O2 0.189397 0.501286 0.856000
O O3 0.202462 0.601041 0.942650
O O4 0.982720 0.505042 0.167261
O O5 0.929784 0.168433 0.060314
O O6 0.566281 0.178884 0.318831
O O7 0.768223 0.183839 0.016674
O O8 0.779770 0.278316 0.121668
O O9 0.143171 0.950901 0.904010
O O10 0.043678 0.900172 0.808228
O O11 0.804261 0.922900 0.126378
#
# Coordination Sequence:
#
# PCOD8137260 Si02
#       6
#     8   8   8   4   8   8
#     4  10  20  36  54  88 117 148 189 237 286 354
#     4  10  22  37  55  82 118 150 194 230 284 343
#     4  10  20  38  55  85 115 154 192 237 289 348
#     4  10  24  34  60  86 118 154 190 244 292 338
#     4  10  22  35  56  84 113 155 186 236 283 346
#     4   9  20  34  57  82 115 152 185 235 302 332
#
# _framework density 20.223738000000001
#
# number of rings (size 3 to 8) (size 9 to 14) (size 15 to 20)
#    0.000    2.182    1.818    0.000   10.182    2.182 
#    0.000    0.000    0.000    1.091    0.000    0.000 
#    0.000    0.000    0.000    0.000    0.000    0.000 
#
# Total GULP energy -272664.828251 kJ/mol
# GULP energy per Si atom -12393.855830 kJ/mol
# Density = 2.017771 g / cm^3
# Si number density = 20.223738 Si / 1000 Ang^3
#
#
#
# Elastic Constant Matrix: (Units=GPa)
#
#
# Indices 1 2 3 4 5 6 
#
# 1 76.2091 47.4894 27.3441 -0.0032 -9.5170 0.0009
# 2 47.4894 108.5135 21.5404 -0.0063 -7.7766 0.0009
# 3 27.3441 21.5404 55.9329 0.0060 -12.6466 -0.0050
# 4 -0.0032 -0.0063 0.0060 26.0751 -0.0036 -2.2979
# 5 -9.5170 -7.7766 -12.6466 -0.0036 25.2297 0.0033
# 6 0.0009 0.0009 -0.0050 -2.2979 0.0033 32.7564
#
#
#
# Elastic Compliance Matrix: (Units=1/GPa)
#
#
# Indices 1 2 3 4 5 6 
#
# 1 0.020416 -0.007469 -0.006636 0.000002 0.002073 -0.000001
# 2 -0.007469 0.012748 -0.001135 0.000003 0.000543 0.000000
# 3 -0.006636 -0.001135 0.023588 -0.000005 0.008971 0.000003
# 4 0.000002 0.000003 -0.000005 0.038589 0.000004 0.002707
# 5 0.002073 0.000543 0.008971 0.000004 0.045082 -0.000003
# 6 -0.000001 0.000000 0.000003 0.002707 -0.000003 0.030718
#
#
# Mechanical properties :
#
#
# Convention : Reuss Voigt Hill
#
# Bulk Modulus (GPa) = 38.06303 48.15591 43.10947
# Shear Modulus (GPa) = 23.76662 26.43103 25.09882
#
# Velocity S-wave (km/s) = 3.43182 3.61907 3.52669
# Velocity P-wave (km/s) = 5.87920 6.42860 6.16002
#
# Compressibility (1/GPa) = 0.02627221
#
# Stress axis : x y z
#
# Youngs Moduli (GPa) = 48.98169 78.44116 42.39419
#
# Poissons Ratio (x) = 0.58587 0.28132
# Poissons Ratio (y) = 0.36584 0.04814
# Poissons Ratio (z) = 0.32503 0.08906
#
# Static dielectric constant tensor:
#      x y z
#    x 3.625410 -0.000040 -0.342820 
#    y -0.000040 3.565460 0.000100 
#    z -0.342820 0.000100 3.775710 
# 
# 
# High freq. dielectric constant tensor:
#      x y z
#    x 1.773180 0.000000 -0.010360 
#    y 0.000000 1.765910 0.000010 
#    z -0.010360 0.000010 1.794090 
# 
# From -- ./inp_files/156117.got.cif
#   From: 2010.06.25/outbox.cif.g09.slc.cpg/sg15_79_cif.got.tgz:156117.got - 2010.06.28 07:06:18.
