data_PCOD8137897
_publ_section_title
;
Structure prediction by ZEFSAII (Michael W. Deem and Ramdas Pophale) SiO2 
 PCOD8137897
Probable space group: C 2/C
;
_chemical_formula_sum "Si O2"
_cell_formula_units_Z 36
_cell_length_a 25.458443
_cell_length_b 9.736205
_cell_length_c 13.640206
_cell_angle_alpha 90.000000
_cell_angle_beta 152.110637
_cell_angle_gamma 90.000000
_cell_volume 1581.506143
_symmetry_space_group_name_H-M "C 2/C"
_symmetry_group_IT_number 15
_symmetry_cell_setting 'monoclinic'
loop_
_space_group_symop_operation_xyz
x,y,z
-x,y,1/2-z
-x,-y,-z
x,-y,1/2+z
1/2+x,1/2+y,z
1/2-x,1/2+y,1/2-z
1/2-x,1/2-y,-z
1/2+x,1/2-y,1/2+z
loop_
_atom_site_type_symbol
_atom_site_label
_atom_site_fract_x
_atom_site_fract_y
_atom_site_fract_z
Si Si1 0.500000 0.257833 0.750000
Si Si2 0.820102 0.356523 0.555341
Si Si3 0.354187 0.851646 0.179351
Si Si4 0.128101 0.072390 0.612383
Si Si5 0.484415 0.297007 0.049271
O O1 0.562299 0.163755 0.774698
O O2 0.406202 0.351692 0.543382
O O3 0.750000 0.250000 0.500000
O O4 0.818491 0.490743 0.621744
O O5 0.760985 0.397983 0.353846
O O6 0.942581 0.282970 0.746478
O O7 0.415656 0.822636 0.382558
O O8 0.250000 0.750000 0.000000
O O9 0.061871 0.125566 0.597925
O O10 0.101419 0.910851 0.549023
#
# Coordination Sequence:
#
# PCOD8137897 Si02
#       5
#     4   8   8   8   8
#     4  10  24  40  62  92 134 170 210 270 334 394
#     4  10  20  36  65  97 123 169 222 270 326 401
#     4  11  21  41  67  90 131 175 214 271 340 388
#     4   9  18  38  57  92 130 160 212 270 326 389
#     4   9  18  35  65  89 121 168 215 267 327 387
#
# _framework density 22.763112
#
# number of rings (size 3 to 8) (size 9 to 14) (size 15 to 20)
#    0.000    2.222    2.222    0.667    3.111    0.000 
#    4.000    5.556    0.000    0.000    0.000    0.000 
#    0.000    0.000    0.000    0.000    0.000    0.000 
#
# Total GULP energy -223071.546075 kJ/mol
# GULP energy per Si atom -12392.863671 kJ/mol
# Density = 2.271130 g / cm^3
# Si number density = 22.763112 Si / 1000 Ang^3
#
#
#
# Elastic Constant Matrix: (Units=GPa)
#
#
# Indices 1 2 3 4 5 6 
#
# 1 32.4261 11.1745 9.2600 0.0000 1.6513 0.0000
# 2 11.1745 172.7787 76.0066 0.0000 -5.9934 0.0000
# 3 9.2600 76.0066 208.2858 0.0000 -22.3751 0.0000
# 4 0.0000 0.0000 0.0000 55.9822 0.0000 5.7640
# 5 1.6513 -5.9934 -22.3751 0.0000 21.2062 0.0000
# 6 0.0000 0.0000 0.0000 5.7640 0.0000 8.8620
#
#
#
# Elastic Compliance Matrix: (Units=1/GPa)
#
#
# Indices 1 2 3 4 5 6 
#
# 1 0.031995 -0.001655 -0.001282 0.000000 -0.004312 0.000000
# 2 -0.001655 0.006992 -0.002540 0.000000 -0.000575 0.000000
# 3 -0.001282 -0.002540 0.006449 0.000000 0.006187 0.000000
# 4 0.000000 0.000000 0.000000 0.019145 0.000000 -0.012452
# 5 -0.004312 -0.000575 0.006187 0.000000 0.053857 0.000000
# 6 0.000000 0.000000 0.000000 -0.012452 0.000000 0.120941
#
#
# Mechanical properties :
#
#
# Convention : Reuss Voigt Hill
#
# Bulk Modulus (GPa) = 28.99891 67.37476 48.18683
# Shear Modulus (GPa) = 19.09655 38.34671 28.72163
#
# Velocity S-wave (km/s) = 2.89956 4.10884 3.55598
# Velocity P-wave (km/s) = 4.89664 7.22306 6.17048
#
# Compressibility (1/GPa) = 0.03448405
#
# Stress axis : x y z
#
# Youngs Moduli (GPa) = 31.25464 143.01916 155.05142
#
# Poissons Ratio (x) = 0.23670 0.19873
# Poissons Ratio (y) = 0.05173 0.39378
# Poissons Ratio (z) = 0.04006 0.36322
#
# Static dielectric constant tensor:
#      x y z
#    x 3.590670 0.000000 -0.182170 
#    y 0.000000 4.294780 0.000000 
#    z -0.182170 0.000000 5.299870 
# 
# 
# High freq. dielectric constant tensor:
#      x y z
#    x 1.841050 0.000000 -0.006070 
#    y 0.000000 1.908880 0.000000 
#    z -0.006070 0.000000 1.923420 
# 
# From -- ./inp_files/177062.got.cif
#   From: 2010.06.25/outbox.cif.g09.slc.cpg/sg15_89_cif.got.tgz:177062.got - 2010.06.28 07:06:18.
