data_PCOD8137539
_publ_section_title
;
Structure prediction by ZEFSAII (Michael W. Deem and Ramdas Pophale) SiO2 
 PCOD8137539
Probable space group: C 2/C
;
_chemical_formula_sum "Si O2"
_cell_formula_units_Z 56
_cell_length_a 17.006900
_cell_length_b 17.567481
_cell_length_c 22.899518
_cell_angle_alpha 90.000000
_cell_angle_beta 155.886133
_cell_angle_gamma 90.000000
_cell_volume 2795.166421
_symmetry_space_group_name_H-M "C 2/C"
_symmetry_group_IT_number 15
_symmetry_cell_setting 'monoclinic'
loop_
_space_group_symop_operation_xyz
x,y,z
-x,y,1/2-z
-x,-y,-z
x,-y,1/2+z
1/2+x,1/2+y,z
1/2-x,1/2+y,1/2-z
1/2-x,1/2-y,-z
1/2+x,1/2-y,1/2+z
loop_
_atom_site_type_symbol
_atom_site_label
_atom_site_fract_x
_atom_site_fract_y
_atom_site_fract_z
Si Si1 0.517024 0.822919 0.829947
Si Si2 0.576132 0.206171 0.914010
Si Si3 0.661703 0.921480 0.397781
Si Si4 0.484310 0.520536 0.587666
Si Si5 0.151885 0.093323 0.118146
Si Si6 0.308120 0.297831 0.408027
Si Si7 0.053986 0.852204 0.352328
O O1 0.500000 0.838501 0.750000
O O2 0.353256 0.863243 0.757078
O O3 0.493915 0.733430 0.827589
O O4 0.716424 0.858795 0.986444
O O5 0.589910 0.115011 0.910561
O O6 0.359721 0.232410 0.748776
O O7 0.750000 0.250000 0.000000
O O8 0.595636 0.223609 0.996156
O O9 0.500000 0.966720 0.250000
O O10 0.712016 0.849398 0.391939
O O11 0.842105 0.974403 0.534307
O O12 0.354953 0.543299 0.444647
O O13 0.645116 0.462065 0.671048
O O14 0.555532 0.591758 0.675358
O O15 0.975541 0.152736 0.991195
O O16 0.000000 0.875153 0.250000
#
# Coordination Sequence:
#
# PCOD8137539 Si02
#       7
#     8   8   8   8   8   8   8
#     4  10  20  40  66  88 113 163 211 246 298 362
#     4   9  16  32  53  79 113 153 197 234 281 351
#     4   8  16  29  52  79 106 148 196 234 276 338
#     4  10  20  36  59  89 121 148 197 255 295 351
#     4  10  21  36  60  89 119 156 202 250 301 353
#     4   9  18  32  50  81 117 150 189 241 286 345
#     4  10  22  39  62  91 120 151 204 258 299 355
#
# _framework density 20.034586000000001
#
# number of rings (size 3 to 8) (size 9 to 14) (size 15 to 20)
#    0.000    2.571    1.429    1.286    2.000    1.143 
#    0.000    5.000    0.000    0.000    0.000    0.000 
#    0.000    0.000    0.000    0.000    0.000    0.000 
#
# Total GULP energy -346879.884149 kJ/mol
# GULP energy per Si atom -12388.567291 kJ/mol
# Density = 1.998899 g / cm^3
# Si number density = 20.034586 Si / 1000 Ang^3
#
#
#
# Elastic Constant Matrix: (Units=GPa)
#
#
# Indices 1 2 3 4 5 6 
#
# 1 76.9695 54.7308 49.4119 -0.0124 2.7981 0.0047
# 2 54.7308 85.3910 43.2389 0.0035 4.8373 -0.0384
# 3 49.4119 43.2389 123.3827 -0.0024 3.0080 -0.0014
# 4 -0.0124 0.0035 -0.0024 15.3705 -0.0151 -1.6689
# 5 2.7981 4.8373 3.0080 -0.0151 29.8758 0.0032
# 6 0.0047 -0.0384 -0.0014 -1.6689 0.0032 35.2420
#
#
#
# Elastic Compliance Matrix: (Units=1/GPa)
#
#
# Indices 1 2 3 4 5 6 
#
# 1 0.026849 -0.014323 -0.005742 0.000022 0.000383 -0.000018
# 2 -0.014323 0.021976 -0.001916 -0.000016 -0.002024 0.000025
# 3 -0.005742 -0.001916 0.011083 -0.000003 -0.000268 -0.000001
# 4 0.000022 -0.000016 -0.000003 0.065396 0.000034 0.003097
# 5 0.000383 -0.002024 -0.000268 0.000034 0.033791 -0.000004
# 6 -0.000018 0.000025 -0.000001 0.003097 -0.000004 0.028522
#
#
# Mechanical properties :
#
#
# Convention : Reuss Voigt Hill
#
# Bulk Modulus (GPa) = 62.71533 64.50072 63.60802
# Shear Modulus (GPa) = 21.10648 25.32175 23.21412
#
# Velocity S-wave (km/s) = 3.24929 3.55900 3.40766
# Velocity P-wave (km/s) = 6.74156 7.01093 6.87757
#
# Compressibility (1/GPa) = 0.01594507
#
# Stress axis : x y z
#
# Youngs Moduli (GPa) = 37.24494 45.50456 90.23163
#
# Poissons Ratio (x) = 0.65175 0.51815
# Poissons Ratio (y) = 0.53345 0.17289
# Poissons Ratio (z) = 0.21388 0.08719
#
# Static dielectric constant tensor:
#      x y z
#    x 3.558850 -0.000010 0.015510 
#    y -0.000010 3.826300 0.000110 
#    z 0.015510 0.000110 3.783560 
# 
# 
# High freq. dielectric constant tensor:
#      x y z
#    x 1.759120 0.000000 0.012030 
#    y 0.000000 1.779600 -0.000010 
#    z 0.012030 -0.000010 1.764450 
# 
# From -- ./inp_files/245166.got.cif
#   From: 2010.06.25/outbox.cif.g09.slc.cpg/sg15_123_cif.got.tgz:245166.got - 2010.06.28 07:06:18.
