data_PCOD8137362
_publ_section_title
;
Structure prediction by ZEFSAII (Michael W. Deem and Ramdas Pophale) SiO2 
 PCOD8137362
Probable space group: C 2/C
;
_chemical_formula_sum "Si O2"
_cell_formula_units_Z 56
_cell_length_a 23.118167
_cell_length_b 11.257737
_cell_length_c 24.269934
_cell_angle_alpha 90.000000
_cell_angle_beta 153.509061
_cell_angle_gamma 90.000000
_cell_volume 2817.492363
_symmetry_space_group_name_H-M "C 2/C"
_symmetry_group_IT_number 15
_symmetry_cell_setting 'monoclinic'
loop_
_space_group_symop_operation_xyz
x,y,z
-x,y,1/2-z
-x,-y,-z
x,-y,1/2+z
1/2+x,1/2+y,z
1/2-x,1/2+y,1/2-z
1/2-x,1/2-y,-z
1/2+x,1/2-y,1/2+z
loop_
_atom_site_type_symbol
_atom_site_label
_atom_site_fract_x
_atom_site_fract_y
_atom_site_fract_z
Si Si1 0.936962 0.104373 0.049753
Si Si2 0.100265 0.276139 0.385937
Si Si3 0.660030 0.827043 0.083265
Si Si4 0.464700 0.986086 0.092270
Si Si5 0.204938 0.020542 0.235217
Si Si6 0.070112 0.318637 0.534190
Si Si7 0.753250 0.569458 0.153033
O O1 0.953407 0.170991 0.121579
O O2 0.067908 0.037246 0.147089
O O3 0.898044 0.196742 0.968963
O O4 0.822986 0.006783 0.957921
O O5 0.250000 0.250000 0.500000
O O6 0.098465 0.402509 0.415528
O O7 0.000000 0.281768 0.250000
O O8 0.732180 0.708992 0.125157
O O9 0.744319 0.892845 0.201733
O O10 0.521170 0.794429 0.991409
O O11 0.638298 0.911058 0.011423
O O12 0.595548 0.044627 0.225890
O O13 0.498855 0.912733 0.065727
O O14 0.294662 0.129990 0.329677
O O15 0.193707 0.025192 0.160064
#
# Coordination Sequence:
#
# PCOD8137362 Si02
#       7
#     8   8   8   8   8   8   8
#     4  11  26  36  63  96 128 160 218 274 316 380
#     4  11  26  48  75  96 118 162 226 294 342 367
#     4  11  22  36  57  90 135 181 205 242 309 395
#     4  10  22  41  62  89 126 165 214 268 321 378
#     4  11  22  35  56  89 137 177 211 245 304 397
#     4  10  20  36  57  86 131 177 206 250 312 375
#     4  12  23  35  60  93 137 173 207 245 320 402
#
# _framework density 19.875830000000001
#
# number of rings (size 3 to 8) (size 9 to 14) (size 15 to 20)
#    0.000    1.143    4.286    2.143   14.000    0.000 
#    0.000    0.000    0.000    4.286    0.000    0.000 
#    0.000    0.000    0.000    0.000    0.000    0.000 
#
# Total GULP energy -347307.015028 kJ/mol
# GULP energy per Si atom -12403.821965 kJ/mol
# Density = 1.983059 g / cm^3
# Si number density = 19.875830 Si / 1000 Ang^3
#
#
#
# Elastic Constant Matrix: (Units=GPa)
#
#
# Indices 1 2 3 4 5 6 
#
# 1 72.0530 32.2375 27.0512 -0.0002 -5.3142 -0.0001
# 2 32.2375 134.8317 43.8844 0.0008 -2.7203 -0.0001
# 3 27.0512 43.8844 97.2033 0.0020 1.4240 -0.0001
# 4 -0.0002 0.0008 0.0020 30.8448 0.0004 0.4367
# 5 -5.3142 -2.7203 1.4240 0.0004 31.4691 -0.0003
# 6 -0.0001 -0.0001 -0.0001 0.4367 -0.0003 22.5063
#
#
#
# Elastic Compliance Matrix: (Units=1/GPa)
#
#
# Indices 1 2 3 4 5 6 
#
# 1 0.016611 -0.002813 -0.003393 0.000000 0.002716 0.000000
# 2 -0.002813 0.009198 -0.003377 0.000000 0.000473 0.000000
# 3 -0.003393 -0.003377 0.012778 -0.000001 -0.001443 0.000000
# 4 0.000000 0.000000 -0.000001 0.032429 0.000000 -0.000629
# 5 0.002716 0.000473 -0.001443 0.000000 0.032342 0.000000
# 6 0.000000 0.000000 0.000000 -0.000629 0.000000 0.044444
#
#
# Mechanical properties :
#
#
# Convention : Reuss Voigt Hill
#
# Bulk Modulus (GPa) = 51.48734 56.71490 54.10112
# Shear Modulus (GPa) = 28.82843 30.35837 29.59340
#
# Velocity S-wave (km/s) = 3.81258 3.91244 3.86283
# Velocity P-wave (km/s) = 6.73363 7.00044 6.86833
#
# Compressibility (1/GPa) = 0.01942225
#
# Stress axis : x y z
#
# Youngs Moduli (GPa) = 60.20071 108.72290 78.26251
#
# Poissons Ratio (x) = 0.30579 0.26553
# Poissons Ratio (y) = 0.16932 0.26427
# Poissons Ratio (z) = 0.20425 0.36712
#
# Static dielectric constant tensor:
#      x y z
#    x 3.360200 0.000000 -0.106950 
#    y 0.000000 3.759110 0.000000 
#    z -0.106950 0.000000 3.654500 
# 
# 
# High freq. dielectric constant tensor:
#      x y z
#    x 1.733270 0.000000 -0.000250 
#    y 0.000000 1.785740 0.000000 
#    z -0.000250 0.000000 1.788310 
# 
# From -- ./inp_files/280027.got.cif
#   From: 2010.06.25/outbox.cif.g09.slc.cpg/sg15_141_cif.got.tgz:280027.got - 2010.06.28 07:06:18.
