data_PCOD8137767
_publ_section_title
;
Structure prediction by ZEFSAII (Michael W. Deem and Ramdas Pophale) SiO2 
 PCOD8137767
Probable space group: C 2/C
;
_chemical_formula_sum "Si O2"
_cell_formula_units_Z 56
_cell_length_a 8.848527
_cell_length_b 18.038757
_cell_length_c 27.539593
_cell_angle_alpha 90.000000
_cell_angle_beta 141.243784
_cell_angle_gamma 90.000000
_cell_volume 2751.788451
_symmetry_space_group_name_H-M "C 2/C"
_symmetry_group_IT_number 15
_symmetry_cell_setting 'monoclinic'
loop_
_space_group_symop_operation_xyz
x,y,z
-x,y,1/2-z
-x,-y,-z
x,-y,1/2+z
1/2+x,1/2+y,z
1/2-x,1/2+y,1/2-z
1/2-x,1/2-y,-z
1/2+x,1/2-y,1/2+z
loop_
_atom_site_type_symbol
_atom_site_label
_atom_site_fract_x
_atom_site_fract_y
_atom_site_fract_z
Si Si1 0.710426 0.821674 0.336888
Si Si2 0.018387 0.617040 0.548387
Si Si3 0.680903 0.937804 0.930226
Si Si4 0.985761 0.039145 0.068936
Si Si5 0.090492 0.417707 0.167977
Si Si6 0.519644 0.434150 0.156193
Si Si7 0.472269 0.800683 0.545401
O O1 0.500000 0.791852 0.250000
O O2 0.609222 0.887395 0.345329
O O3 0.924297 0.858243 0.358945
O O4 0.791581 0.748580 0.385701
O O5 0.093669 0.639516 0.622716
O O6 0.228900 0.557817 0.587302
O O7 0.026367 0.682679 0.511583
O O8 0.745917 0.588509 0.477744
O O9 0.539254 0.871027 0.921029
O O10 0.812733 0.916030 0.912025
O O11 0.489461 0.002953 0.873250
O O12 0.898748 0.964800 0.019210
O O13 0.105930 0.008363 0.149033
O O14 0.349068 0.428861 0.258661
O O15 0.250000 0.750000 0.500000
#
# Coordination Sequence:
#
# PCOD8137767 Si02
#       7
#     8   8   8   8   8   8   8
#     4  10  22  43  65  87 123 172 211 251 322 398
#     4  11  23  36  59  95 125 157 210 259 310 370
#     4  10  21  39  61  90 120 160 205 256 311 369
#     4  10  20  36  62  91 123 151 203 262 302 372
#     4  10  23  39  67  90 121 161 216 265 308 383
#     4  11  19  40  65  92 119 161 206 257 324 369
#     4  12  24  41  63  87 129 173 206 259 324 378
#
# _framework density 20.3504
#
# number of rings (size 3 to 8) (size 9 to 14) (size 15 to 20)
#    0.000    1.429    4.286    0.857    6.000    0.571 
#    2.571    0.000    0.000    0.000    0.000    0.000 
#    0.000    0.000    0.000    0.000    0.000    0.000 
#
# Total GULP energy -346941.330746 kJ/mol
# GULP energy per Si atom -12390.761812 kJ/mol
# Density = 2.030408 g / cm^3
# Si number density = 20.350400 Si / 1000 Ang^3
#
#
#
# Elastic Constant Matrix: (Units=GPa)
#
#
# Indices 1 2 3 4 5 6 
#
# 1 91.0525 16.3749 34.8591 0.0000 -13.6587 0.0001
# 2 16.3749 66.1730 35.3977 0.0001 -11.9025 0.0001
# 3 34.8591 35.3977 104.2312 0.0002 -26.4601 0.0004
# 4 0.0000 0.0001 0.0002 29.8104 0.0000 -7.2654
# 5 -13.6587 -11.9025 -26.4601 0.0000 35.3367 0.0002
# 6 0.0001 0.0001 0.0004 -7.2654 0.0002 26.7953
#
#
#
# Elastic Compliance Matrix: (Units=1/GPa)
#
#
# Indices 1 2 3 4 5 6 
#
# 1 0.012774 -0.000960 -0.003426 0.000000 0.002049 0.000000
# 2 -0.000960 0.018641 -0.005568 0.000000 0.001738 0.000000
# 3 -0.003426 -0.005568 0.014592 0.000000 0.007727 0.000000
# 4 0.000000 0.000000 0.000000 0.035919 0.000000 0.009739
# 5 0.002049 0.001738 0.007727 0.000000 0.035463 0.000000
# 6 0.000000 0.000000 0.000000 0.009739 0.000000 0.039961
#
#
# Mechanical properties :
#
#
# Convention : Reuss Voigt Hill
#
# Bulk Modulus (GPa) = 38.31554 48.30222 43.30888
# Shear Modulus (GPa) = 26.88780 30.04347 28.46563
#
# Velocity S-wave (km/s) = 3.63883 3.84644 3.74408
# Velocity P-wave (km/s) = 6.04347 6.59649 6.32603
#
# Compressibility (1/GPa) = 0.02609907
#
# Stress axis : x y z
#
# Youngs Moduli (GPa) = 78.28197 53.64607 68.52835
#
# Poissons Ratio (x) = 0.05149 0.23479
# Poissons Ratio (y) = 0.07514 0.38158
# Poissons Ratio (z) = 0.26821 0.29871
#
# Static dielectric constant tensor:
#      x y z
#    x 6.522730 0.000010 3.531730 
#    y 0.000010 3.754200 0.000020 
#    z 3.531730 0.000020 10.100100 
# 
# 
# High freq. dielectric constant tensor:
#      x y z
#    x 1.816400 0.000000 -0.007020 
#    y 0.000000 1.749440 0.000000 
#    z -0.007020 0.000000 1.796550 
# 
# From -- ./inp_files/289768.got.cif
#   From: 2010.06.25/outbox.cif.g09.slc.cpg/sg15_145_cif.got.tgz:289768.got - 2010.06.28 07:06:18.
