data_PCOD8137032
_publ_section_title
;
Structure prediction by ZEFSAII (Michael W. Deem and Ramdas Pophale) SiO2 
 PCOD8137032
Probable space group: C 2/C
;
_chemical_formula_sum "Si O2"
_cell_formula_units_Z 56
_cell_length_a 21.546158
_cell_length_b 8.895522
_cell_length_c 15.317255
_cell_angle_alpha 90.000000
_cell_angle_beta 117.697106
_cell_angle_gamma 90.000000
_cell_volume 2599.382124
_symmetry_space_group_name_H-M "C 2/C"
_symmetry_group_IT_number 15
_symmetry_cell_setting 'monoclinic'
loop_
_space_group_symop_operation_xyz
x,y,z
-x,y,1/2-z
-x,-y,-z
x,-y,1/2+z
1/2+x,1/2+y,z
1/2-x,1/2+y,1/2-z
1/2-x,1/2-y,-z
1/2+x,1/2-y,1/2+z
loop_
_atom_site_type_symbol
_atom_site_label
_atom_site_fract_x
_atom_site_fract_y
_atom_site_fract_z
Si Si1 0.121134 0.925226 0.887796
Si Si2 0.633121 0.171609 0.774176
Si Si3 0.213541 0.944621 0.106143
Si Si4 0.701604 0.387646 0.296244
Si Si5 0.046434 0.781563 0.392747
Si Si6 0.408766 0.154015 0.253993
Si Si7 0.840487 0.252168 0.396514
O O1 0.093875 0.772657 0.822438
O O2 0.171160 0.999917 0.847730
O O3 0.059706 0.042559 0.875303
O O4 0.163306 0.869170 0.000640
O O5 0.709053 0.118679 0.858822
O O6 0.640939 0.273940 0.692844
O O7 0.588618 0.022745 0.721394
O O8 0.184647 0.926109 0.185091
O O9 0.204306 0.122493 0.084670
O O10 0.668856 0.220517 0.284051
O O11 0.786102 0.391772 0.366056
O O12 0.071965 0.670027 0.334438
O O13 0.086316 0.727884 0.505542
O O14 0.963331 0.750798 0.349697
#
# Coordination Sequence:
#
# PCOD8137032 Si02
#       7
#     8   8   8   8   8   8   8
#     4  10  21  37  62  89 121 159 199 255 297 363
#     4  11  21  36  61  92 125 154 202 251 306 351
#     4  10  20  35  58  97 124 152 201 247 306 362
#     4  10  20  37  62  86 122 161 198 246 308 354
#     4   9  22  41  61  82 118 164 210 238 304 363
#     4  10  21  40  60  83 121 163 198 252 297 365
#     4  10  20  36  61  92 120 156 204 249 294 372
#
# _framework density 21.543581
#
# number of rings (size 3 to 8) (size 9 to 14) (size 15 to 20)
#    0.000    2.000    2.857    0.429    2.000    2.286 
#    2.571    8.571    3.143    0.000    0.000    0.000 
#    0.000    0.000    0.000    0.000    0.000    0.000 
#
# Total GULP energy -346925.778912 kJ/mol
# GULP energy per Si atom -12390.206390 kJ/mol
# Density = 2.149455 g / cm^3
# Si number density = 21.543581 Si / 1000 Ang^3
#
#
#
# Elastic Constant Matrix: (Units=GPa)
#
#
# Indices 1 2 3 4 5 6 
#
# 1 45.4994 16.5501 25.9580 0.0000 16.3755 0.0000
# 2 16.5501 85.7206 28.8414 0.0000 11.6099 0.0000
# 3 25.9580 28.8414 132.6914 0.0000 16.2067 0.0000
# 4 0.0000 0.0000 0.0000 28.0075 0.0000 -3.5154
# 5 16.3755 11.6099 16.2067 0.0000 27.2525 0.0000
# 6 0.0000 0.0000 0.0000 -3.5154 0.0000 19.7768
#
#
#
# Elastic Compliance Matrix: (Units=1/GPa)
#
#
# Indices 1 2 3 4 5 6 
#
# 1 0.030357 -0.002639 -0.003531 0.000000 -0.015017 0.000000
# 2 -0.002639 0.013239 -0.002012 0.000000 -0.002858 0.000000
# 3 -0.003531 -0.002012 0.008951 0.000000 -0.002344 0.000000
# 4 0.000000 0.000000 0.000000 0.036520 0.000000 0.006491
# 5 -0.015017 -0.002858 -0.002344 0.000000 0.048329 0.000000
# 6 0.000000 0.000000 0.000000 0.006491 0.000000 0.051718
#
#
# Mechanical properties :
#
#
# Convention : Reuss Voigt Hill
#
# Bulk Modulus (GPa) = 27.63759 45.17893 36.40826
# Shear Modulus (GPa) = 22.98430 27.84482 25.41456
#
# Velocity S-wave (km/s) = 3.26985 3.59902 3.43837
# Velocity P-wave (km/s) = 5.20696 6.18765 5.71837
#
# Compressibility (1/GPa) = 0.03618261
#
# Stress axis : x y z
#
# Youngs Moduli (GPa) = 32.94085 75.53179 111.72297
#
# Poissons Ratio (x) = 0.19934 0.39448
# Poissons Ratio (y) = 0.08694 0.22483
# Poissons Ratio (z) = 0.11631 0.15200
#
# Static dielectric constant tensor:
#      x y z
#    x 3.646480 0.000000 0.076280 
#    y 0.000000 3.770560 0.000000 
#    z 0.076280 0.000000 4.043410 
# 
# 
# High freq. dielectric constant tensor:
#      x y z
#    x 1.820530 0.000000 -0.001470 
#    y 0.000000 1.833870 0.000000 
#    z -0.001470 0.000000 1.850490 
# 
# From -- ./inp_files/172503.got.cif
#   From: 2010.06.25/outbox.cif.g09.slc.cpg/sg15_87_cif.got.tgz:172503.got - 2010.06.28 07:06:18.
