data_PCOD8137286
_publ_section_title
;
Structure prediction by ZEFSAII (Michael W. Deem and Ramdas Pophale) SiO2 
 PCOD8137286
Probable space group: C 2/C
;
_chemical_formula_sum "Si O2"
_cell_formula_units_Z 48
_cell_length_a 12.515175
_cell_length_b 22.481385
_cell_length_c 8.775848
_cell_angle_alpha 90.000000
_cell_angle_beta 108.491593
_cell_angle_gamma 90.000000
_cell_volume 2341.676959
_symmetry_space_group_name_H-M "C 2/C"
_symmetry_group_IT_number 15
_symmetry_cell_setting 'monoclinic'
loop_
_space_group_symop_operation_xyz
x,y,z
-x,y,1/2-z
-x,-y,-z
x,-y,1/2+z
1/2+x,1/2+y,z
1/2-x,1/2+y,1/2-z
1/2-x,1/2-y,-z
1/2+x,1/2-y,1/2+z
loop_
_atom_site_type_symbol
_atom_site_label
_atom_site_fract_x
_atom_site_fract_y
_atom_site_fract_z
Si Si1 0.972448 0.374337 0.566294
Si Si2 0.383932 0.372874 0.117122
Si Si3 0.708825 0.785853 0.125710
Si Si4 0.211004 0.465010 0.941757
Si Si5 0.205824 0.418401 0.605659
Si Si6 0.618346 0.323493 0.721514
O O1 0.088111 0.384218 0.527162
O O2 0.000000 0.353915 0.750000
O O3 0.907102 0.320342 0.458990
O O4 0.898943 0.434889 0.531808
O O5 0.500000 0.387638 0.250000
O O6 0.309223 0.333112 0.201254
O O7 0.323117 0.435319 0.059952
O O8 0.401669 0.340635 0.963341
O O9 0.685492 0.739824 0.253446
O O10 0.750000 0.750000 0.000000
O O11 0.219431 0.535427 0.973740
O O12 0.202806 0.456682 0.757912
O O13 0.307821 0.371643 0.653856
O O14 0.500000 0.316494 0.750000
#
# Coordination Sequence:
#
# PCOD8137286 Si02
#       6
#     8   8   8   8   8   8
#     4   9  17  33  57  83 106 138 181 226 272 321
#     4   9  19  36  58  79 102 143 190 224 265 327
#     4   9  18  34  55  78 106 141 182 224 266 324
#     4   9  19  34  55  81 109 138 179 224 268 323
#     4  10  20  36  56  80 110 145 179 222 276 325
#     4  10  22  37  52  79 114 143 179 230 275 318
#
# _framework density 20.498131000000001
#
# number of rings (size 3 to 8) (size 9 to 14) (size 15 to 20)
#    0.000    2.667    0.000    3.500    0.000    7.333 
#    0.000   10.000    0.000    0.000    0.000    0.000 
#    0.000    0.000    0.000    0.000    0.000    0.000 
#
# Total GULP energy -297529.451998 kJ/mol
# GULP energy per Si atom -12397.060500 kJ/mol
# Density = 2.045148 g / cm^3
# Si number density = 20.498131 Si / 1000 Ang^3
#
#
#
# Elastic Constant Matrix: (Units=GPa)
#
#
# Indices 1 2 3 4 5 6 
#
# 1 136.0659 43.2463 25.8677 0.0000 9.0547 0.0000
# 2 43.2463 100.5820 19.6695 0.0000 -3.6673 0.0000
# 3 25.8677 19.6695 35.0868 0.0000 18.1652 0.0000
# 4 0.0000 0.0000 0.0000 24.0909 0.0000 1.9014
# 5 9.0547 -3.6673 18.1652 0.0000 30.9276 0.0000
# 6 0.0000 0.0000 0.0000 1.9014 0.0000 23.4767
#
#
#
# Elastic Compliance Matrix: (Units=1/GPa)
#
#
# Indices 1 2 3 4 5 6 
#
# 1 0.009279 -0.002986 -0.005140 0.000000 -0.000052 0.000000
# 2 -0.002986 0.013362 -0.009429 0.000000 0.007997 0.000000
# 3 -0.005140 -0.009429 0.053707 0.000000 -0.031158 0.000000
# 4 0.000000 0.000000 0.000000 0.041777 0.000000 -0.003384
# 5 -0.000052 0.007997 -0.031158 0.000000 0.051597 0.000000
# 6 0.000000 0.000000 0.000000 -0.003384 0.000000 0.042869
#
#
# Mechanical properties :
#
#
# Convention : Reuss Voigt Hill
#
# Bulk Modulus (GPa) = 24.24986 49.92239 37.08613
# Shear Modulus (GPa) = 19.12430 27.89580 23.51005
#
# Velocity S-wave (km/s) = 3.05778 3.69303 3.39032
# Velocity P-wave (km/s) = 4.93180 6.52627 5.78424
#
# Compressibility (1/GPa) = 0.04123735
#
# Stress axis : x y z
#
# Youngs Moduli (GPa) = 107.76806 74.84147 18.61951
#
# Poissons Ratio (x) = 0.22351 0.09571
# Poissons Ratio (y) = 0.32184 0.17556
# Poissons Ratio (z) = 0.55394 0.70566
#
# Static dielectric constant tensor:
#      x y z
#    x 3.802550 0.000000 0.100400 
#    y 0.000000 3.868490 0.000000 
#    z 0.100400 0.000000 3.352640 
# 
# 
# High freq. dielectric constant tensor:
#      x y z
#    x 1.806660 0.000000 0.014050 
#    y 0.000000 1.803670 0.000000 
#    z 0.014050 0.000000 1.769230 
# 
# From -- ./inp_files/32617.got.cif
#   From: 2010.06.25/outbox.cif.g09.slc.cpg/sg15_17_cif.got.tgz:32617.got - 2010.06.28 07:06:18.
