data_PCOD8137497
_publ_section_title
;
Structure prediction by ZEFSAII (Michael W. Deem and Ramdas Pophale) SiO2 
 PCOD8137497
Probable space group: C 2/C
;
_chemical_formula_sum "Si O2"
_cell_formula_units_Z 32
_cell_length_a 10.534463
_cell_length_b 9.218459
_cell_length_c 21.552275
_cell_angle_alpha 90.000000
_cell_angle_beta 126.864592
_cell_angle_gamma 90.000000
_cell_volume 1674.495546
_symmetry_space_group_name_H-M "C 2/C"
_symmetry_group_IT_number 15
_symmetry_cell_setting 'monoclinic'
loop_
_space_group_symop_operation_xyz
x,y,z
-x,y,1/2-z
-x,-y,-z
x,-y,1/2+z
1/2+x,1/2+y,z
1/2-x,1/2+y,1/2-z
1/2-x,1/2-y,-z
1/2+x,1/2-y,1/2+z
loop_
_atom_site_type_symbol
_atom_site_label
_atom_site_fract_x
_atom_site_fract_y
_atom_site_fract_z
Si Si1 0.564273 0.197191 0.837201
Si Si2 0.183952 0.035577 0.053785
Si Si3 0.777312 0.568123 0.451980
Si Si4 0.090796 0.321038 0.087408
O O1 0.500000 0.217069 0.750000
O O2 0.624954 0.350740 0.881155
O O3 0.416034 0.163860 0.839664
O O4 0.703658 0.076871 0.876597
O O5 0.199836 0.190860 0.093137
O O6 0.238810 0.039163 0.998170
O O7 0.000000 0.000000 0.000000
O O8 0.841910 0.473643 0.414737
O O9 0.906777 0.690886 0.509932
#
# Coordination Sequence:
#
# PCOD8137497 Si02
#       4
#     8   8   8   8
#     4  11  23  37  54  83 119 149 181 230 286 330
#     4  11  18  37  64  82 108 149 190 233 272 326
#     4  10  20  36  59  85 107 145 188 232 276 330
#     4  10  20  37  59  83 108 143 194 227 271 334
#
# _framework density 19.110230999999999
#
# number of rings (size 3 to 8) (size 9 to 14) (size 15 to 20)
#    0.000    1.500    5.000    2.250    0.000    2.000 
#    0.000    1.250    0.000    0.000    0.000    0.000 
#    0.000    0.000    0.000    0.000    0.000    0.000 
#
# Total GULP energy -198341.171617 kJ/mol
# GULP energy per Si atom -12396.323226 kJ/mol
# Density = 1.906674 g / cm^3
# Si number density = 19.110231 Si / 1000 Ang^3
#
#
#
# Elastic Constant Matrix: (Units=GPa)
#
#
# Indices 1 2 3 4 5 6 
#
# 1 104.2399 35.2316 41.2739 0.0000 -27.8726 0.0000
# 2 35.2316 72.6678 42.3183 0.0000 -14.5323 0.0000
# 3 41.2739 42.3183 97.8271 0.0000 -34.3255 0.0000
# 4 0.0000 0.0000 0.0000 9.6175 0.0000 -2.2406
# 5 -27.8726 -14.5323 -34.3255 0.0000 33.0698 0.0000
# 6 0.0000 0.0000 0.0000 -2.2406 0.0000 39.1177
#
#
#
# Elastic Compliance Matrix: (Units=1/GPa)
#
#
# Indices 1 2 3 4 5 6 
#
# 1 0.013772 -0.004454 -0.000783 0.000000 0.008838 0.000000
# 2 -0.004454 0.019837 -0.007802 0.000000 -0.003135 0.000000
# 3 -0.000783 -0.007802 0.019649 0.000000 0.016307 0.000000
# 4 0.000000 0.000000 0.000000 0.105384 0.000000 0.006036
# 5 0.008838 -0.003135 0.016307 0.000000 0.053236 0.000000
# 6 0.000000 0.000000 0.000000 0.006036 0.000000 0.025910
#
#
# Mechanical properties :
#
#
# Convention : Reuss Voigt Hill
#
# Bulk Modulus (GPa) = 36.79071 56.93138 46.86105
# Shear Modulus (GPa) = 18.32004 26.75507 22.53755
#
# Velocity S-wave (km/s) = 3.09957 3.74577 3.43788
# Velocity P-wave (km/s) = 5.66599 6.96875 6.35086
#
# Compressibility (1/GPa) = 0.02718077
#
# Stress axis : x y z
#
# Youngs Moduli (GPa) = 72.61355 50.41027 50.89263
#
# Poissons Ratio (x) = 0.22451 0.03984
# Poissons Ratio (y) = 0.32339 0.39707
# Poissons Ratio (z) = 0.05684 0.39331
#
# Static dielectric constant tensor:
#      x y z
#    x 3.800020 0.000000 -0.165880 
#    y 0.000000 3.562710 0.000000 
#    z -0.165880 0.000000 3.194210 
# 
# 
# High freq. dielectric constant tensor:
#      x y z
#    x 1.759000 0.000000 -0.018560 
#    y 0.000000 1.743790 0.000000 
#    z -0.018560 0.000000 1.708010 
# 
# From -- ./inp_files/140545.got.cif
#   From: 2010.06.25/outbox.cif.g09.slc.cpg/sg15_71_cif.got.tgz:140545.got - 2010.06.28 07:06:18.
