data_PCOD8137606
_publ_section_title
;
Structure prediction by ZEFSAII (Michael W. Deem and Ramdas Pophale) SiO2 
 PCOD8137606
Probable space group: C 2/C
;
_chemical_formula_sum "Si O2"
_cell_formula_units_Z 64
_cell_length_a 23.825872
_cell_length_b 17.654975
_cell_length_c 14.353204
_cell_angle_alpha 90.000000
_cell_angle_beta 149.732711
_cell_angle_gamma 90.000000
_cell_volume 3043.162425
_symmetry_space_group_name_H-M "C 2/C"
_symmetry_group_IT_number 15
_symmetry_cell_setting 'monoclinic'
loop_
_space_group_symop_operation_xyz
x,y,z
-x,y,1/2-z
-x,-y,-z
x,-y,1/2+z
1/2+x,1/2+y,z
1/2-x,1/2+y,1/2-z
1/2-x,1/2-y,-z
1/2+x,1/2-y,1/2+z
loop_
_atom_site_type_symbol
_atom_site_label
_atom_site_fract_x
_atom_site_fract_y
_atom_site_fract_z
Si Si1 0.633144 0.112225 0.812146
Si Si2 0.764335 0.691837 0.210835
Si Si3 0.469366 0.129043 0.423708
Si Si4 0.321520 0.956705 0.586027
Si Si5 0.832896 0.654062 0.933865
Si Si6 0.874137 0.058056 0.560071
Si Si7 0.374349 0.766791 0.061546
Si Si8 0.319233 0.603873 0.936164
O O1 0.511552 0.117298 0.590431
O O2 0.676426 0.191318 0.919557
O O3 0.708621 0.087242 0.834332
O O4 0.649806 0.042085 0.908658
O O5 0.870813 0.691106 0.294481
O O6 0.686790 0.759749 0.062712
O O7 0.802403 0.705346 0.371511
O O8 0.693368 0.614006 0.105434
O O9 0.408376 0.054584 0.296351
O O10 0.563730 0.157748 0.488712
O O11 0.355791 0.897665 0.555619
O O12 0.193339 0.946189 0.437832
O O13 0.718749 0.623880 0.722902
O O14 0.000000 0.089418 0.750000
O O15 0.889144 0.973850 0.536365
O O16 0.500000 0.799512 0.250000
O O17 0.381012 0.675456 0.073550
#
# Coordination Sequence:
#
# PCOD8137606 Si02
#       8
#     8   8   8   8   8   8   8   8
#     4  10  20  36  60  88 119 158 197 248 306 355
#     4  10  23  39  59  92 120 157 204 249 290 368
#     4  10  20  39  58  88 128 159 193 249 311 351
#     4  10  22  37  60  90 120 157 207 244 296 368
#     4  10  22  38  60  89 121 162 197 249 299 349
#     4  10  22  41  63  82 121 164 198 245 306 349
#     4  11  20  35  62  90 118 151 202 247 301 357
#     4   9  21  39  58  83 122 157 197 247 302 356
#
# _framework density 21.030753000000001
#
# number of rings (size 3 to 8) (size 9 to 14) (size 15 to 20)
#    0.000    2.000    1.250    1.500    1.750    6.000 
#    0.000    0.625    0.000    0.000    0.000    0.000 
#    0.000    0.000    0.000    0.000    0.000    0.000 
#
# Total GULP energy -396456.363672 kJ/mol
# GULP energy per Si atom -12389.261365 kJ/mol
# Density = 2.098289 g / cm^3
# Si number density = 21.030753 Si / 1000 Ang^3
#
#
#
# Elastic Constant Matrix: (Units=GPa)
#
#
# Indices 1 2 3 4 5 6 
#
# 1 63.6814 41.3268 33.2008 0.0000 3.2610 0.0000
# 2 41.3268 158.6623 53.9198 0.0000 -10.1594 0.0000
# 3 33.2008 53.9198 103.4910 0.0000 3.0896 0.0000
# 4 0.0000 0.0000 0.0000 13.9671 0.0000 -5.3865
# 5 3.2610 -10.1594 3.0896 0.0000 34.3755 0.0000
# 6 0.0000 0.0000 0.0000 -5.3865 0.0000 26.5145
#
#
#
# Elastic Compliance Matrix: (Units=1/GPa)
#
#
# Indices 1 2 3 4 5 6 
#
# 1 0.020826 -0.004083 -0.004471 0.000000 -0.002781 0.000000
# 2 -0.004083 0.008704 -0.003322 0.000000 0.003258 0.000000
# 3 -0.004471 -0.003322 0.012879 0.000000 -0.001715 0.000000
# 4 0.000000 0.000000 0.000000 0.077683 0.000000 0.015781
# 5 -0.002781 0.003258 -0.001715 0.000000 0.030471 0.000000
# 6 0.000000 0.000000 0.000000 0.015781 0.000000 0.040921
#
#
# Mechanical properties :
#
#
# Convention : Reuss Voigt Hill
#
# Bulk Modulus (GPa) = 53.59989 64.74774 59.17381
# Shear Modulus (GPa) = 22.57782 28.13057 25.35420
#
# Velocity S-wave (km/s) = 3.28008 3.66128 3.47591
# Velocity P-wave (km/s) = 6.31562 6.98049 6.65636
#
# Compressibility (1/GPa) = 0.01865675
#
# Stress axis : x y z
#
# Youngs Moduli (GPa) = 48.01605 114.89089 77.64567
#
# Poissons Ratio (x) = 0.46914 0.34714
# Poissons Ratio (y) = 0.19607 0.25795
# Poissons Ratio (z) = 0.21467 0.38168
#
# Static dielectric constant tensor:
#      x y z
#    x 3.567180 0.000000 0.021260 
#    y 0.000000 3.944620 0.000000 
#    z 0.021260 0.000000 3.811780 
# 
# 
# High freq. dielectric constant tensor:
#      x y z
#    x 1.801670 0.000000 0.005670 
#    y 0.000000 1.831530 0.000000 
#    z 0.005670 0.000000 1.822180 
# 
# From -- ./inp_files/155191.got.cif
#   From: 2010.06.25/outbox.cif.g09.slc.cpg/sg15_78_cif.got.tgz:155191.got - 2010.06.28 07:06:18.
