data_PCOD8137558
_publ_section_title
;
Structure prediction by ZEFSAII (Michael W. Deem and Ramdas Pophale) SiO2 
 PCOD8137558
Probable space group: C 2/C
;
_chemical_formula_sum "Si O2"
_cell_formula_units_Z 52
_cell_length_a 12.804676
_cell_length_b 6.340163
_cell_length_c 30.723434
_cell_angle_alpha 90.000000
_cell_angle_beta 61.452353
_cell_angle_gamma 90.000000
_cell_volume 2190.993004
_symmetry_space_group_name_H-M "C 2/C"
_symmetry_group_IT_number 15
_symmetry_cell_setting 'monoclinic'
loop_
_space_group_symop_operation_xyz
x,y,z
-x,y,1/2-z
-x,-y,-z
x,-y,1/2+z
1/2+x,1/2+y,z
1/2-x,1/2+y,1/2-z
1/2-x,1/2-y,-z
1/2+x,1/2-y,1/2+z
loop_
_atom_site_type_symbol
_atom_site_label
_atom_site_fract_x
_atom_site_fract_y
_atom_site_fract_z
Si Si1 0.576498 0.203525 0.593295
Si Si2 0.590267 0.436404 0.817308
Si Si3 0.106722 0.677330 0.372842
Si Si4 0.247459 0.860737 0.934684
Si Si5 0.000000 0.932410 0.250000
Si Si6 0.074354 0.093178 0.541678
Si Si7 0.731069 0.319517 0.162984
O O1 0.539329 0.362911 0.639381
O O2 0.574246 0.340910 0.549353
O O3 0.482277 0.017036 0.613317
O O4 0.705971 0.101805 0.572789
O O5 0.611475 0.675907 0.829258
O O6 0.582486 0.430938 0.766302
O O7 0.695668 0.282404 0.811614
O O8 0.235717 0.566908 0.352066
O O9 0.059641 0.815824 0.423656
O O10 0.335500 0.699000 0.941360
O O11 0.233658 0.807631 0.887038
O O12 0.117956 0.856980 0.983956
O O13 0.908843 0.795502 0.297788
#
# Coordination Sequence:
#
# PCOD8137558 Si02
#       7
#     8   8   8   8   4   8   8
#     4   9  17  37  62  92 131 176 218 274 330 397
#     4  10  24  45  66  94 131 170 224 286 344 414
#     4   9  20  41  63  92 135 170 219 278 329 406
#     4  10  20  36  60 100 137 178 228 276 334 408
#     4  12  26  46  72  98 124 176 232 282 354 408
#     4   9  18  35  65  95 136 185 227 270 330 406
#     4  11  25  43  66  98 136 172 228 287 345 414
#
# _framework density 23.733532
#
# number of rings (size 3 to 8) (size 9 to 14) (size 15 to 20)
#    0.000    2.154    0.000    3.231    2.154    3.077 
#    0.000   10.769    0.000    0.000    0.000    0.000 
#    0.000    0.000    0.000    0.000    0.000    0.000 
#
# Total GULP energy -322229.162043 kJ/mol
# GULP energy per Si atom -12393.429309 kJ/mol
# Density = 2.367951 g / cm^3
# Si number density = 23.733532 Si / 1000 Ang^3
#
#
#
# Elastic Constant Matrix: (Units=GPa)
#
#
# Indices 1 2 3 4 5 6 
#
# 1 80.5164 28.8391 49.2130 -0.0002 -12.3110 -0.0002
# 2 28.8391 126.6047 31.8759 -0.0008 -8.7038 -0.0005
# 3 49.2130 31.8759 134.7373 -0.0002 -4.6064 -0.0002
# 4 -0.0002 -0.0008 -0.0002 20.6544 0.0000 -0.4627
# 5 -12.3110 -8.7038 -4.6064 0.0000 39.4197 -0.0001
# 6 -0.0002 -0.0005 -0.0002 -0.4627 -0.0001 20.6022
#
#
#
# Elastic Compliance Matrix: (Units=1/GPa)
#
#
# Indices 1 2 3 4 5 6 
#
# 1 0.017326 -0.002230 -0.005655 0.000000 0.004258 0.000000
# 2 -0.002230 0.008791 -0.001228 0.000000 0.001101 0.000000
# 3 -0.005655 -0.001228 0.009747 0.000000 -0.000898 0.000000
# 4 0.000000 0.000000 0.000000 0.048440 0.000000 0.001088
# 5 0.004258 0.001101 -0.000898 0.000000 0.026836 0.000000
# 6 0.000000 0.000000 0.000000 0.001088 0.000000 0.048563
#
#
# Mechanical properties :
#
#
# Convention : Reuss Voigt Hill
#
# Bulk Modulus (GPa) = 56.69351 62.41270 59.55310
# Shear Modulus (GPa) = 27.20208 31.59730 29.39969
#
# Velocity S-wave (km/s) = 3.38915 3.65271 3.52339
# Velocity P-wave (km/s) = 6.26534 6.64410 6.45750
#
# Compressibility (1/GPa) = 0.01763870
#
# Stress axis : x y z
#
# Youngs Moduli (GPa) = 57.71598 113.74758 102.59392
#
# Poissons Ratio (x) = 0.25367 0.58020
# Poissons Ratio (y) = 0.12871 0.12595
# Poissons Ratio (z) = 0.32640 0.13964
#
# Static dielectric constant tensor:
#      x y z
#    x 4.227750 0.000000 -0.409800 
#    y 0.000000 4.603510 0.000000 
#    z -0.409800 0.000000 4.317490 
# 
# 
# High freq. dielectric constant tensor:
#      x y z
#    x 1.927260 0.000000 -0.017580 
#    y 0.000000 1.940970 0.000000 
#    z -0.017580 0.000000 1.936830 
# 
# From -- ./inp_files/312311.got.cif
#   From: 2010.06.25/outbox.cif.g09.slc.cpg/sg15_157_cif.got.tgz:312311.got - 2010.06.28 07:06:18.
