data_PCOD8137204
_publ_section_title
;
Structure prediction by ZEFSAII (Michael W. Deem and Ramdas Pophale) SiO2 
 PCOD8137204
Probable space group: C 2/C
;
_chemical_formula_sum "Si O2"
_cell_formula_units_Z 48
_cell_length_a 15.055129
_cell_length_b 8.890075
_cell_length_c 19.025760
_cell_angle_alpha 90.000000
_cell_angle_beta 115.892106
_cell_angle_gamma 90.000000
_cell_volume 2290.815078
_symmetry_space_group_name_H-M "C 2/C"
_symmetry_group_IT_number 15
_symmetry_cell_setting 'monoclinic'
loop_
_space_group_symop_operation_xyz
x,y,z
-x,y,1/2-z
-x,-y,-z
x,-y,1/2+z
1/2+x,1/2+y,z
1/2-x,1/2+y,1/2-z
1/2-x,1/2-y,-z
1/2+x,1/2-y,1/2+z
loop_
_atom_site_type_symbol
_atom_site_label
_atom_site_fract_x
_atom_site_fract_y
_atom_site_fract_z
Si Si1 0.095460 0.967179 0.581808
Si Si2 0.617723 0.879382 0.080986
Si Si3 0.037756 0.431651 0.898317
Si Si4 0.012765 0.892823 0.335845
Si Si5 0.210522 0.610453 0.912368
Si Si6 0.789495 0.939740 0.590416
O O1 0.129383 0.796085 0.598916
O O2 0.189063 0.061287 0.589397
O O3 0.000000 0.000000 0.500000
O O4 0.072120 0.018149 0.652680
O O5 0.549214 0.948443 0.118362
O O6 0.722466 0.966122 0.121890
O O7 0.577245 0.889726 0.988473
O O8 0.998857 0.282115 0.847687
O O9 0.117371 0.499179 0.870491
O O10 0.000000 0.927361 0.250000
O O11 0.118406 0.955886 0.398627
O O12 0.179545 0.774407 0.870340
O O13 0.224024 0.605420 0.000843
#
# Coordination Sequence:
#
# PCOD8137204 Si02
#       6
#     8   8   8   8   8   8
#     4  12  21  37  62  93 119 161 208 252 301 357
#     4  10  20  35  65  93 120 149 210 262 293 353
#     4  10  20  37  61  94 120 158 199 254 311 351
#     4  12  25  41  59  89 131 166 199 248 317 382
#     4  10  20  35  65  93 120 151 211 264 297 353
#     4  10  20  37  61  94 123 160 201 256 310 356
#
# _framework density 20.953241999999999
#
# number of rings (size 3 to 8) (size 9 to 14) (size 15 to 20)
#    0.000    1.333    3.333    3.000    4.667    2.667 
#    0.000   10.000    0.000    0.000    0.000    0.000 
#    0.000    0.000    0.000    0.000    0.000    0.000 
#
# Total GULP energy -297519.443965 kJ/mol
# GULP energy per Si atom -12396.643499 kJ/mol
# Density = 2.090555 g / cm^3
# Si number density = 20.953242 Si / 1000 Ang^3
#
#
#
# Elastic Constant Matrix: (Units=GPa)
#
#
# Indices 1 2 3 4 5 6 
#
# 1 149.0177 47.6747 13.8085 0.0000 -22.2309 0.0000
# 2 47.6747 153.0738 19.0034 0.0000 -10.8063 0.0000
# 3 13.8085 19.0034 35.7022 0.0000 -19.4805 0.0000
# 4 0.0000 0.0000 0.0000 13.8740 0.0000 -8.5061
# 5 -22.2309 -10.8063 -19.4805 0.0000 23.0217 0.0000
# 6 0.0000 0.0000 0.0000 -8.5061 0.0000 45.8066
#
#
#
# Elastic Compliance Matrix: (Units=1/GPa)
#
#
# Indices 1 2 3 4 5 6 
#
# 1 0.008683 -0.002418 0.003501 0.000000 0.010212 0.000000
# 2 -0.002418 0.007669 -0.004564 0.000000 -0.002597 0.000000
# 3 0.003501 -0.004564 0.055287 0.000000 0.048021 0.000000
# 4 0.000000 0.000000 0.000000 0.081338 0.000000 0.015104
# 5 0.010212 -0.002597 0.048021 0.000000 0.092714 0.000000
# 6 0.000000 0.000000 0.000000 0.015104 0.000000 0.024636
#
#
# Mechanical properties :
#
#
# Convention : Reuss Voigt Hill
#
# Bulk Modulus (GPa) = 15.46137 55.41854 35.43995
# Shear Modulus (GPa) = 16.73090 33.69426 25.21258
#
# Velocity S-wave (km/s) = 2.82882 4.01442 3.47259
# Velocity P-wave (km/s) = 4.25025 6.92774 5.74709
#
# Compressibility (1/GPa) = 0.06467733
#
# Stress axis : x y z
#
# Youngs Moduli (GPa) = 115.16313 130.39250 18.08747
#
# Poissons Ratio (x) = 0.31530 -0.06332
# Poissons Ratio (y) = 0.27847 0.08255
# Poissons Ratio (z) = -0.40318 0.59510
#
# Static dielectric constant tensor:
#      x y z
#    x 3.985910 0.000000 -0.133520 
#    y 0.000000 4.080820 0.000000 
#    z -0.133520 0.000000 3.235590 
# 
# 
# High freq. dielectric constant tensor:
#      x y z
#    x 1.838900 0.000000 -0.013210 
#    y 0.000000 1.843530 0.000000 
#    z -0.013210 0.000000 1.757160 
# 
# From -- ./inp_files/242330.got.cif
#   From: 2010.06.25/outbox.cif.g09.slc.cpg/sg15_122_cif.got.tgz:242330.got - 2010.06.28 07:06:18.
