data_PCOD8137376
_publ_section_title
;
Structure prediction by ZEFSAII (Michael W. Deem and Ramdas Pophale) SiO2 
 PCOD8137376
Probable space group: C 2/C
;
_chemical_formula_sum "Si O2"
_cell_formula_units_Z 52
_cell_length_a 26.050394
_cell_length_b 9.459642
_cell_length_c 13.780955
_cell_angle_alpha 90.000000
_cell_angle_beta 57.793391
_cell_angle_gamma 90.000000
_cell_volume 2873.467401
_symmetry_space_group_name_H-M "C 2/C"
_symmetry_group_IT_number 15
_symmetry_cell_setting 'monoclinic'
loop_
_space_group_symop_operation_xyz
x,y,z
-x,y,1/2-z
-x,-y,-z
x,-y,1/2+z
1/2+x,1/2+y,z
1/2-x,1/2+y,1/2-z
1/2-x,1/2-y,-z
1/2+x,1/2-y,1/2+z
loop_
_atom_site_type_symbol
_atom_site_label
_atom_site_fract_x
_atom_site_fract_y
_atom_site_fract_z
Si Si1 0.687858 0.298510 0.294906
Si Si2 0.815240 0.902276 0.414460
Si Si3 0.500000 0.763090 0.250000
Si Si4 0.381619 0.657557 0.441151
Si Si5 0.691124 0.031320 0.799826
Si Si6 0.819578 0.402275 0.977742
Si Si7 0.613419 0.107521 0.706021
O O1 0.665467 0.365733 0.215799
O O2 0.637024 0.320508 0.428384
O O3 0.747050 0.380782 0.272359
O O4 0.702038 0.132958 0.261238
O O5 0.817379 0.766229 0.481539
O O6 0.746711 0.963253 0.486014
O O7 0.861539 0.009619 0.416462
O O8 0.455410 0.666776 0.361036
O O9 0.459008 0.862539 0.220071
O O10 0.353555 0.779410 0.399390
O O11 0.641309 0.111637 0.784649
O O12 0.663184 0.039443 0.934513
O O13 0.871512 0.453055 0.851953
#
# Coordination Sequence:
#
# PCOD8137376 Si02
#       7
#     8   8   4   8   8   8   8
#     4  11  23  36  58  95 121 151 189 237 303 369
#     4  10  22  36  59  89 129 144 188 242 302 358
#     4   8  22  42  60  80 110 162 214 242 272 334
#     4  10  22  40  62  77 119 160 198 242 287 342
#     4  11  22  34  59  92 123 149 193 233 305 359
#     4  10  20  36  57  92 119 154 182 242 300 358
#     4  10  20  39  61  79 116 158 200 243 281 339
#
# _framework density 18.096603000000002
#
# number of rings (size 3 to 8) (size 9 to 14) (size 15 to 20)
#    0.923    0.923    3.077    0.923    8.615    1.231 
#    0.000    4.615    0.000    0.000    0.000    0.000 
#    0.000    0.000    0.000    0.000    0.000    0.000 
#
# Total GULP energy -322227.708338 kJ/mol
# GULP energy per Si atom -12393.373398 kJ/mol
# Density = 1.805541 g / cm^3
# Si number density = 18.096603 Si / 1000 Ang^3
#
#
#
# Elastic Constant Matrix: (Units=GPa)
#
#
# Indices 1 2 3 4 5 6 
#
# 1 77.2359 35.4386 47.5747 0.0000 -16.5823 0.0000
# 2 35.4386 74.8603 24.3990 0.0000 -8.0035 0.0000
# 3 47.5747 24.3990 75.1628 0.0000 -12.3532 0.0000
# 4 0.0000 0.0000 0.0000 28.3470 0.0000 -0.3747
# 5 -16.5823 -8.0035 -12.3532 0.0000 23.8623 0.0000
# 6 0.0000 0.0000 0.0000 -0.3747 0.0000 29.3081
#
#
#
# Elastic Compliance Matrix: (Units=1/GPa)
#
#
# Indices 1 2 3 4 5 6 
#
# 1 0.025976 -0.007216 -0.012603 0.000000 0.009107 0.000000
# 2 -0.007216 0.017108 -0.000948 0.000000 0.000233 0.000000
# 3 -0.012603 -0.000948 0.021966 0.000000 0.002296 0.000000
# 4 0.000000 0.000000 0.000000 0.035283 0.000000 0.000451
# 5 0.009107 0.000233 0.002296 0.000000 0.049502 0.000000
# 6 0.000000 0.000000 0.000000 0.000451 0.000000 0.034126
#
#
# Mechanical properties :
#
#
# Convention : Reuss Voigt Hill
#
# Bulk Modulus (GPa) = 42.52100 49.12036 45.82068
# Shear Modulus (GPa) = 21.42846 24.29327 22.86086
#
# Velocity S-wave (km/s) = 3.44483 3.66788 3.55810
# Velocity P-wave (km/s) = 6.27456 6.71864 6.50040
#
# Compressibility (1/GPa) = 0.02351779
#
# Stress axis : x y z
#
# Youngs Moduli (GPa) = 38.49658 58.45200 45.52391
#
# Poissons Ratio (x) = 0.42178 0.57373
# Poissons Ratio (y) = 0.27779 0.04315
# Poissons Ratio (z) = 0.48516 0.05541
#
# Static dielectric constant tensor:
#      x y z
#    x 3.140550 0.000000 0.166100 
#    y 0.000000 3.319780 0.000000 
#    z 0.166100 0.000000 3.298260 
# 
# 
# High freq. dielectric constant tensor:
#      x y z
#    x 1.678030 0.000000 0.019430 
#    y 0.000000 1.703590 0.000000 
#    z 0.019430 0.000000 1.698720 
# 
# From -- ./inp_files/180478.got.cif
#   From: 2010.06.25/outbox.cif.g09.slc.cpg/sg15_91_cif.got.tgz:180478.got - 2010.06.28 07:06:18.
