data_PCOD8137353
_publ_section_title
;
Structure prediction by ZEFSAII (Michael W. Deem and Ramdas Pophale) SiO2 
 PCOD8137353
Probable space group: C 2/C
;
_chemical_formula_sum "Si O2"
_cell_formula_units_Z 56
_cell_length_a 27.139567
_cell_length_b 11.234395
_cell_length_c 24.197570
_cell_angle_alpha 90.000000
_cell_angle_beta 156.723170
_cell_angle_gamma 90.000000
_cell_volume 2915.498247
_symmetry_space_group_name_H-M "C 2/C"
_symmetry_group_IT_number 15
_symmetry_cell_setting 'monoclinic'
loop_
_space_group_symop_operation_xyz
x,y,z
-x,y,1/2-z
-x,-y,-z
x,-y,1/2+z
1/2+x,1/2+y,z
1/2-x,1/2+y,1/2-z
1/2-x,1/2-y,-z
1/2+x,1/2-y,1/2+z
loop_
_atom_site_type_symbol
_atom_site_label
_atom_site_fract_x
_atom_site_fract_y
_atom_site_fract_z
Si Si1 0.117072 0.091524 0.183047
Si Si2 0.622455 0.860623 0.166164
Si Si3 0.201082 0.679547 0.323977
Si Si4 0.028507 0.421536 0.959659
Si Si5 0.151106 0.979412 0.595063
Si Si6 0.145536 0.352272 0.885503
Si Si7 0.776312 0.560849 0.925680
O O1 0.103246 0.232867 0.174073
O O2 0.175432 0.060232 0.183504
O O3 0.204538 0.049159 0.323749
O O4 0.985937 0.027702 0.055404
O O5 0.502667 0.941598 0.057360
O O6 0.751707 0.916430 0.320513
O O7 0.622913 0.857031 0.099702
O O8 0.328812 0.629249 0.427999
O O9 0.161389 0.605468 0.338470
O O10 0.199959 0.818342 0.336139
O O11 0.096842 0.656676 0.170078
O O12 0.089010 0.422252 0.962208
O O13 0.000000 0.314991 0.750000
O O14 0.250000 0.250000 0.000000
O O15 0.192595 0.455355 0.976945
#
# Coordination Sequence:
#
# PCOD8137353 Si02
#       7
#     8   8   8   8   8   8   8
#     4  11  24  36  57  87 122 157 200 248 302 374
#     4  10  22  36  57  84 120 156 197 242 299 371
#     4  10  22  37  59  85 123 152 199 249 305 367
#     4  10  20  36  57  84 116 160 193 240 301 362
#     4  10  23  37  55  84 117 159 189 248 306 355
#     4  10  21  38  61  91 123 162 203 263 314 369
#     4  11  22  35  60  88 116 156 201 245 313 361
#
# _framework density 19.207692999999999
#
# number of rings (size 3 to 8) (size 9 to 14) (size 15 to 20)
#    0.000    1.714    2.857    0.857    8.000    1.143 
#    0.000    0.000    0.000    3.429    7.429    0.000 
#    0.000    0.000    0.000    0.000    0.000    0.000 
#
# Total GULP energy -346975.400370 kJ/mol
# GULP energy per Si atom -12391.978585 kJ/mol
# Density = 1.916398 g / cm^3
# Si number density = 19.207693 Si / 1000 Ang^3
#
#
#
# Elastic Constant Matrix: (Units=GPa)
#
#
# Indices 1 2 3 4 5 6 
#
# 1 93.3592 17.0181 25.2275 0.0001 -1.0637 0.0001
# 2 17.0181 84.7369 25.2282 0.0001 -8.5557 0.0001
# 3 25.2275 25.2282 79.9865 0.0002 0.6426 0.0001
# 4 0.0001 0.0001 0.0002 23.3763 0.0002 -1.4036
# 5 -1.0637 -8.5557 0.6426 0.0002 26.1489 0.0001
# 6 0.0001 0.0001 0.0001 -1.4036 0.0001 23.0176
#
#
#
# Elastic Compliance Matrix: (Units=1/GPa)
#
#
# Indices 1 2 3 4 5 6 
#
# 1 0.011858 -0.001387 -0.003303 0.000000 0.000110 0.000000
# 2 -0.001387 0.013704 -0.003921 0.000000 0.004524 0.000000
# 3 -0.003303 -0.003921 0.014795 0.000000 -0.001781 0.000000
# 4 0.000000 0.000000 0.000000 0.042935 0.000000 0.002618
# 5 0.000110 0.004524 -0.001781 0.000000 0.039771 0.000000
# 6 0.000000 0.000000 0.000000 0.002618 0.000000 0.043605
#
#
# Mechanical properties :
#
#
# Convention : Reuss Voigt Hill
#
# Bulk Modulus (GPa) = 43.22649 43.67000 43.44824
# Shear Modulus (GPa) = 26.09570 27.21584 26.65577
#
# Velocity S-wave (km/s) = 3.68993 3.76829 3.72931
# Velocity P-wave (km/s) = 6.38026 6.45898 6.41974
#
# Compressibility (1/GPa) = 0.02313396
#
# Stress axis : x y z
#
# Youngs Moduli (GPa) = 84.33105 72.97165 67.59005
#
# Poissons Ratio (x) = 0.10120 0.22328
# Poissons Ratio (y) = 0.11696 0.26504
# Poissons Ratio (z) = 0.27858 0.28614
#
# Static dielectric constant tensor:
#      x y z
#    x 3.886680 0.000000 -0.071930 
#    y 0.000000 3.261580 0.000000 
#    z -0.071930 0.000000 3.539360 
# 
# 
# High freq. dielectric constant tensor:
#      x y z
#    x 1.745320 0.000000 0.007790 
#    y 0.000000 1.715900 0.000000 
#    z 0.007790 0.000000 1.756710 
# 
# From -- ./inp_files/304280.got.cif
#   From: 2010.06.25/outbox.cif.g09.slc.cpg/sg15_153_cif.got.tgz:304280.got - 2010.06.28 07:06:18.
