data_PCOD8137123
_publ_section_title
;
Structure prediction by ZEFSAII (Michael W. Deem and Ramdas Pophale) SiO2 
 PCOD8137123
Probable space group: C 2/C
;
_chemical_formula_sum "Si O2"
_cell_formula_units_Z 64
_cell_length_a 21.149949
_cell_length_b 8.266189
_cell_length_c 23.539532
_cell_angle_alpha 90.000000
_cell_angle_beta 54.019588
_cell_angle_gamma 90.000000
_cell_volume 3330.258599
_symmetry_space_group_name_H-M "C 2/C"
_symmetry_group_IT_number 15
_symmetry_cell_setting 'monoclinic'
loop_
_space_group_symop_operation_xyz
x,y,z
-x,y,1/2-z
-x,-y,-z
x,-y,1/2+z
1/2+x,1/2+y,z
1/2-x,1/2+y,1/2-z
1/2-x,1/2-y,-z
1/2+x,1/2-y,1/2+z
loop_
_atom_site_type_symbol
_atom_site_label
_atom_site_fract_x
_atom_site_fract_y
_atom_site_fract_z
Si Si1 0.398147 0.631236 0.068797
Si Si2 0.302206 0.900710 0.171193
Si Si3 0.189364 0.097824 0.154509
Si Si4 0.963281 0.020668 0.429411
Si Si5 0.253669 0.965718 0.379727
Si Si6 0.451004 0.406620 0.222609
Si Si7 0.197040 0.904007 0.523560
Si Si8 0.828809 0.340664 0.749069
O O1 0.366033 0.808967 0.099462
O O2 0.463254 0.609258 0.082396
O O3 0.330084 0.492163 0.109014
O O4 0.437293 0.625523 0.985518
O O5 0.243822 0.772519 0.232601
O O6 0.258374 0.011878 0.150262
O O7 0.341496 0.012111 0.198668
O O8 0.208817 0.287904 0.145996
O O9 0.188478 0.022829 0.091053
O O10 0.106907 0.053679 0.228119
O O11 0.888452 0.137932 0.458050
O O12 0.985216 0.963120 0.355665
O O13 0.240657 0.015769 0.453019
O O14 0.313476 0.091510 0.320522
O O15 0.500000 0.340354 0.250000
O O16 0.406624 0.262498 0.214005
O O17 0.250000 0.750000 0.500000
#
# Coordination Sequence:
#
# PCOD8137123 Si02
#       8
#     8   8   8   8   8   8   8   8
#     4   9  21  38  60  86 113 154 194 242 298 343
#     4  10  21  36  58  88 113 148 196 242 295 345
#     4  10  20  35  61  88 113 152 196 237 288 355
#     4  10  20  38  60  80 119 157 191 239 294 348
#     4   9  19  36  60  86 113 149 194 243 288 340
#     4  11  23  39  57  84 121 159 192 234 295 354
#     4   9  18  37  59  84 109 149 202 239 277 343
#     4  10  22  36  57  86 115 149 192 243 290 350
#
# _framework density 19.217727
#
# number of rings (size 3 to 8) (size 9 to 14) (size 15 to 20)
#    0.000    2.250    1.250    0.750   10.500    0.000 
#    2.250    6.250    0.000    0.000    0.000    0.000 
#    0.000    0.000    0.000    0.000    0.000    0.000 
#
# Total GULP energy -396418.630493 kJ/mol
# GULP energy per Si atom -12388.082203 kJ/mol
# Density = 1.917399 g / cm^3
# Si number density = 19.217727 Si / 1000 Ang^3
#
#
#
# Elastic Constant Matrix: (Units=GPa)
#
#
# Indices 1 2 3 4 5 6 
#
# 1 88.0549 23.8593 32.6859 0.0000 4.7451 0.0015
# 2 23.8593 73.8090 31.4327 0.0011 -1.6565 0.0050
# 3 32.6859 31.4327 90.3514 -0.0006 7.6161 0.0005
# 4 0.0000 0.0011 -0.0006 22.3490 0.0002 0.7979
# 5 4.7451 -1.6565 7.6161 0.0002 29.4172 -0.0006
# 6 0.0015 0.0050 0.0005 0.7979 -0.0006 23.9357
#
#
#
# Elastic Compliance Matrix: (Units=1/GPa)
#
#
# Indices 1 2 3 4 5 6 
#
# 1 0.013612 -0.002797 -0.003837 0.000000 -0.001360 0.000000
# 2 -0.002797 0.016644 -0.005005 -0.000001 0.002684 -0.000003
# 3 -0.003837 -0.005005 0.014485 0.000001 -0.003413 0.000001
# 4 0.000000 -0.000001 0.000001 0.044798 -0.000001 -0.001493
# 5 -0.001360 0.002684 -0.003413 -0.000001 0.035248 0.000000
# 6 0.000000 -0.000003 0.000001 -0.001493 0.000000 0.041828
#
#
# Mechanical properties :
#
#
# Convention : Reuss Voigt Hill
#
# Bulk Modulus (GPa) = 46.58938 47.57456 47.08197
# Shear Modulus (GPa) = 25.37474 26.08954 25.73214
#
# Velocity S-wave (km/s) = 3.63765 3.68853 3.66318
# Velocity P-wave (km/s) = 6.47602 6.55360 6.51492
#
# Compressibility (1/GPa) = 0.02146412
#
# Stress axis : x y z
#
# Youngs Moduli (GPa) = 73.46569 60.08100 69.03814
#
# Poissons Ratio (x) = 0.16803 0.26488
# Poissons Ratio (y) = 0.20546 0.34553
# Poissons Ratio (z) = 0.28186 0.30070
#
# Static dielectric constant tensor:
#      x y z
#    x 3.683570 -0.000010 0.177080 
#    y -0.000010 3.351580 0.000000 
#    z 0.177080 0.000000 3.989620 
# 
# 
# High freq. dielectric constant tensor:
#      x y z
#    x 1.751760 0.000000 0.007460 
#    y 0.000000 1.712840 0.000000 
#    z 0.007460 0.000000 1.767190 
# 
# From -- ./inp_files/279380.got.cif
#   From: 2010.06.25/outbox.cif.g09.slc.cpg/sg15_140_cif.got.tgz:279380.got - 2010.06.28 07:06:18.
