data_PCOD8137058
_publ_section_title
;
Structure prediction by ZEFSAII (Michael W. Deem and Ramdas Pophale) SiO2 
 PCOD8137058
Probable space group: C 2/C
;
_chemical_formula_sum "Si O2"
_cell_formula_units_Z 28
_cell_length_a 18.105379
_cell_length_b 9.720041
_cell_length_c 7.850962
_cell_angle_alpha 90.000000
_cell_angle_beta 114.994817
_cell_angle_gamma 90.000000
_cell_volume 1252.254559
_symmetry_space_group_name_H-M "C 2/C"
_symmetry_group_IT_number 15
_symmetry_cell_setting 'monoclinic'
loop_
_space_group_symop_operation_xyz
x,y,z
-x,y,1/2-z
-x,-y,-z
x,-y,1/2+z
1/2+x,1/2+y,z
1/2-x,1/2+y,1/2-z
1/2-x,1/2-y,-z
1/2+x,1/2-y,1/2+z
loop_
_atom_site_type_symbol
_atom_site_label
_atom_site_fract_x
_atom_site_fract_y
_atom_site_fract_z
Si Si1 0.673933 0.844909 0.457862
Si Si2 0.000000 0.922556 0.250000
Si Si3 0.271269 0.874366 0.644154
Si Si4 0.397750 0.359891 0.846815
O O1 0.750000 0.750000 0.500000
O O2 0.658222 0.837141 0.647032
O O3 0.603033 0.778686 0.270875
O O4 0.693305 0.001486 0.430148
O O5 0.929763 0.015347 0.264283
O O6 0.042316 0.828354 0.435461
O O7 0.250000 0.750000 0.500000
O O8 0.189972 0.911511 0.671114
#
# Coordination Sequence:
#
# PCOD8137058 Si02
#       4
#     8   4   8   8
#     4  10  20  35  59  90 118 148 193 249 295 344
#     4  10  22  38  58  84 126 168 196 238 278 366
#     4  11  22  38  63  91 121 150 190 255 310 348
#     4  10  21  37  59  89 120 159 203 235 296 353
#
# _framework density 22.359672
#
# number of rings (size 3 to 8) (size 9 to 14) (size 15 to 20)
#    0.000    1.714    0.000    6.857    0.000    6.857 
#    0.000    0.000    0.000   20.571    0.000    0.000 
#    0.000    0.000    0.000    0.000    0.000    0.000 
#
# Total GULP energy -173495.589015 kJ/mol
# GULP energy per Si atom -12392.542073 kJ/mol
# Density = 2.230878 g / cm^3
# Si number density = 22.359672 Si / 1000 Ang^3
#
#
#
# Elastic Constant Matrix: (Units=GPa)
#
#
# Indices 1 2 3 4 5 6 
#
# 1 56.5044 4.7226 29.4510 0.0000 -7.3501 0.0000
# 2 4.7226 134.9445 108.6090 0.0000 -8.2781 0.0000
# 3 29.4510 108.6090 251.1420 0.0000 -27.9114 0.0000
# 4 0.0000 0.0000 0.0000 52.1487 0.0000 1.6419
# 5 -7.3501 -8.2781 -27.9114 0.0000 31.6827 0.0000
# 6 0.0000 0.0000 0.0000 1.6419 0.0000 16.8537
#
#
#
# Elastic Compliance Matrix: (Units=1/GPa)
#
#
# Indices 1 2 3 4 5 6 
#
# 1 0.019294 0.001648 -0.002694 0.000000 0.002533 0.000000
# 2 0.001648 0.011573 -0.005343 0.000000 -0.001301 0.000000
# 3 -0.002694 -0.005343 0.007076 0.000000 0.004213 0.000000
# 4 0.000000 0.000000 0.000000 0.019235 0.000000 -0.001874
# 5 0.002533 -0.001301 0.004213 0.000000 0.035523 0.000000
# 6 0.000000 0.000000 0.000000 -0.001874 0.000000 0.059517
#
#
# Mechanical properties :
#
#
# Convention : Reuss Voigt Hill
#
# Bulk Modulus (GPa) = 39.73512 80.90622 60.32067
# Shear Modulus (GPa) = 28.83792 40.12423 34.48107
#
# Velocity S-wave (km/s) = 3.59518 4.24074 3.93123
# Velocity P-wave (km/s) = 5.91973 7.76151 6.90233
#
# Compressibility (1/GPa) = 0.02516665
#
# Stress axis : x y z
#
# Youngs Moduli (GPa) = 51.83072 86.40791 141.31352
#
# Poissons Ratio (x) = -0.14242 0.38067
# Poissons Ratio (y) = -0.08543 0.75500
# Poissons Ratio (z) = 0.13962 0.46165
#
# Static dielectric constant tensor:
#      x y z
#    x 3.831730 0.000000 -0.275100 
#    y 0.000000 5.101500 0.000000 
#    z -0.275100 0.000000 5.815180 
# 
# 
# High freq. dielectric constant tensor:
#      x y z
#    x 1.845410 0.000000 -0.024520 
#    y 0.000000 1.859610 0.000000 
#    z -0.024520 0.000000 1.919790 
# 
# From -- ./inp_files/45403.got.cif
#   From: 2010.06.25/outbox.cif.g09.slc.cpg/sg15_23_cif.got.tgz:45403.got - 2010.06.28 07:06:18.
