data_PCOD8137706
_publ_section_title
;
Structure prediction by ZEFSAII (Michael W. Deem and Ramdas Pophale) SiO2 
 PCOD8137706
Probable space group: C 2/C
;
_chemical_formula_sum "Si O2"
_cell_formula_units_Z 64
_cell_length_a 17.469143
_cell_length_b 9.469951
_cell_length_c 22.645124
_cell_angle_alpha 90.000000
_cell_angle_beta 127.786288
_cell_angle_gamma 90.000000
_cell_volume 2960.649083
_symmetry_space_group_name_H-M "C 2/C"
_symmetry_group_IT_number 15
_symmetry_cell_setting 'monoclinic'
loop_
_space_group_symop_operation_xyz
x,y,z
-x,y,1/2-z
-x,-y,-z
x,-y,1/2+z
1/2+x,1/2+y,z
1/2-x,1/2+y,1/2-z
1/2-x,1/2-y,-z
1/2+x,1/2-y,1/2+z
loop_
_atom_site_type_symbol
_atom_site_label
_atom_site_fract_x
_atom_site_fract_y
_atom_site_fract_z
Si Si1 0.217736 0.397657 0.422744
Si Si2 0.699960 0.573145 0.830560
Si Si3 0.268590 0.689636 0.445304
Si Si4 0.815798 0.882222 0.348723
Si Si5 0.290807 0.901583 0.774578
Si Si6 0.865243 0.877772 0.596513
Si Si7 0.532891 0.599192 0.919883
Si Si8 0.543653 0.780672 0.709627
O O1 0.190864 0.561645 0.396795
O O2 0.283734 0.343640 0.399688
O O3 0.125503 0.290685 0.384701
O O4 0.271536 0.398390 0.511083
O O5 0.759812 0.693151 0.891961
O O6 0.779540 0.496972 0.827248
O O7 0.650449 0.461265 0.850300
O O8 0.615278 0.646068 0.752635
O O9 0.250000 0.750000 0.500000
O O10 0.377521 0.624231 0.493138
O O11 0.771543 0.762131 0.283785
O O12 0.932326 0.883061 0.406210
O O13 0.780607 0.037148 0.309951
O O14 0.399170 0.906395 0.797358
O O15 0.957857 0.943271 0.606180
O O16 0.541602 0.718396 0.872077
O O17 0.500000 0.838443 0.750000
#
# Coordination Sequence:
#
# PCOD8137706 Si02
#       8
#     8   8   8   8   8   8   8   8
#     4  10  21  36  62  88 125 165 208 262 323 392
#     4  12  20  39  66  92 127 175 219 267 334 403
#     4  11  21  38  63  94 126 172 223 262 331 402
#     4  11  23  41  66  91 131 174 221 270 338 398
#     4  11  23  39  66  96 124 173 221 268 339 400
#     4  10  20  36  61  95 122 161 217 261 321 390
#     4  10  21  38  64  97 124 168 224 265 322 405
#     4  11  21  40  70  94 125 173 228 268 323 405
#
# _framework density 21.616879999999998
#
# number of rings (size 3 to 8) (size 9 to 14) (size 15 to 20)
#    0.000    1.250    7.500    0.750    0.000    2.000 
#    0.000    2.500   11.000    0.000    0.000    0.000 
#    0.000    0.000    0.000    0.000    0.000    0.000 
#
# Total GULP energy -396502.514889 kJ/mol
# GULP energy per Si atom -12390.703590 kJ/mol
# Density = 2.156768 g / cm^3
# Si number density = 21.616880 Si / 1000 Ang^3
#
#
#
# Elastic Constant Matrix: (Units=GPa)
#
#
# Indices 1 2 3 4 5 6 
#
# 1 74.0290 35.0660 -2.2132 0.0000 -12.2100 0.0000
# 2 35.0660 109.4933 16.2320 0.0000 5.4769 0.0000
# 3 -2.2132 16.2320 43.0174 0.0000 -0.8901 0.0000
# 4 0.0000 0.0000 0.0000 36.7168 0.0000 -4.5284
# 5 -12.2100 5.4769 -0.8901 0.0000 29.6674 0.0000
# 6 0.0000 0.0000 0.0000 -4.5284 0.0000 45.9403
#
#
#
# Elastic Compliance Matrix: (Units=1/GPa)
#
#
# Indices 1 2 3 4 5 6 
#
# 1 0.018350 -0.006875 0.003723 0.000000 0.008933 0.000000
# 2 -0.006875 0.012358 -0.005126 0.000000 -0.005265 0.000000
# 3 0.003723 -0.005126 0.025439 0.000000 0.003242 0.000000
# 4 0.000000 0.000000 0.000000 0.027571 0.000000 0.002718
# 5 0.008933 -0.005265 0.003242 0.000000 0.038453 0.000000
# 6 0.000000 0.000000 0.000000 0.002718 0.000000 0.022035
#
#
# Mechanical properties :
#
#
# Convention : Reuss Voigt Hill
#
# Bulk Modulus (GPa) = 25.25829 36.07881 30.66855
# Shear Modulus (GPa) = 28.74246 34.29521 31.51884
#
# Velocity S-wave (km/s) = 3.65037 3.98741 3.82261
# Velocity P-wave (km/s) = 5.42925 6.15838 5.80527
#
# Compressibility (1/GPa) = 0.03959096
#
# Stress axis : x y z
#
# Youngs Moduli (GPa) = 54.49698 80.91855 39.30943
#
# Poissons Ratio (x) = 0.55635 -0.14636
# Poissons Ratio (y) = 0.37469 0.20149
# Poissons Ratio (z) = -0.20290 0.41477
#
# Static dielectric constant tensor:
#      x y z
#    x 3.832690 0.000000 -0.413510 
#    y 0.000000 4.333570 0.000000 
#    z -0.413510 0.000000 3.565820 
# 
# 
# High freq. dielectric constant tensor:
#      x y z
#    x 1.839540 0.000000 -0.033020 
#    y 0.000000 1.850620 0.000000 
#    z -0.033020 0.000000 1.839610 
# 
# From -- ./inp_files/279586.got.cif
#   From: 2010.06.25/outbox.cif.g09.slc.cpg/sg15_140_cif.got.tgz:279586.got - 2010.06.28 07:06:18.
