data_PCOD8137729
_publ_section_title
;
Structure prediction by ZEFSAII (Michael W. Deem and Ramdas Pophale) SiO2 
 PCOD8137729
Probable space group: C 2/C
;
_chemical_formula_sum "Si O2"
_cell_formula_units_Z 60
_cell_length_a 26.981899
_cell_length_b 22.499920
_cell_length_c 14.532450
_cell_angle_alpha 90.000000
_cell_angle_beta 159.072931
_cell_angle_gamma 90.000000
_cell_volume 3151.219298
_symmetry_space_group_name_H-M "C 2/C"
_symmetry_group_IT_number 15
_symmetry_cell_setting 'monoclinic'
loop_
_space_group_symop_operation_xyz
x,y,z
-x,y,1/2-z
-x,-y,-z
x,-y,1/2+z
1/2+x,1/2+y,z
1/2-x,1/2+y,1/2-z
1/2-x,1/2-y,-z
1/2+x,1/2-y,1/2+z
loop_
_atom_site_type_symbol
_atom_site_label
_atom_site_fract_x
_atom_site_fract_y
_atom_site_fract_z
Si Si1 0.274854 0.546774 0.749779
Si Si2 0.977911 0.113266 0.983316
Si Si3 0.500000 0.883088 0.750000
Si Si4 0.865434 0.128770 0.067492
Si Si5 0.651983 0.297432 0.556014
Si Si6 0.911009 0.301912 0.427874
Si Si7 0.392548 0.423651 0.983518
Si Si8 0.355387 0.255159 0.265690
O O1 0.125940 0.571274 0.463697
O O2 0.368660 0.564259 0.826148
O O3 0.326814 0.572853 0.937014
O O4 0.281909 0.475590 0.772167
O O5 0.102747 0.109343 0.273293
O O6 0.021957 0.095008 0.958348
O O7 0.908674 0.178035 0.867571
O O8 0.487531 0.839940 0.640301
O O9 0.000000 0.159738 0.250000
O O10 0.733042 0.170054 0.852011
O O11 0.630922 0.264811 0.616049
O O12 0.698149 0.365995 0.645473
O O13 0.771149 0.261345 0.710518
O O14 0.500000 0.296093 0.250000
O O15 0.018875 0.292151 0.531073
O O16 0.500000 0.442624 0.250000
O O17 0.250000 0.250000 0.000000
#
# Coordination Sequence:
#
# PCOD8137729 Si02
#       8
#     8   8   4   8   8   8   8   8
#     4  10  21  38  62  86 117 157 206 245 298 361
#     4  11  21  38  60  89 115 158 204 249 301 365
#     4  10  20  36  62  86 112 160 200 252 298 358
#     4   9  20  37  59  87 117 156 203 249 296 361
#     4  11  20  34  55  87 122 152 195 254 306 356
#     4  11  19  36  59  87 121 152 202 253 304 369
#     4  11  22  38  58  85 118 156 201 255 303 353
#     4  12  20  34  58  87 121 152 198 255 314 363
#
# _framework density 19.040248999999999
#
# number of rings (size 3 to 8) (size 9 to 14) (size 15 to 20)
#    0.000    1.333    3.333    5.600    0.000    0.533 
#    0.000    1.333    1.467    4.000    0.000    0.000 
#    0.000    0.000    0.000    0.000    0.000    0.000 
#
# Total GULP energy -371801.054877 kJ/mol
# GULP energy per Si atom -12393.368496 kJ/mol
# Density = 1.899691 g / cm^3
# Si number density = 19.040249 Si / 1000 Ang^3
#
#
#
# Elastic Constant Matrix: (Units=GPa)
#
#
# Indices 1 2 3 4 5 6 
#
# 1 71.4907 9.4182 28.3444 0.0000 1.8749 0.0000
# 2 9.4182 113.4231 35.6625 0.0000 11.5245 0.0000
# 3 28.3444 35.6625 98.6420 0.0000 6.0599 0.0000
# 4 0.0000 0.0000 0.0000 33.4803 0.0000 12.4148
# 5 1.8749 11.5245 6.0599 0.0000 27.0095 0.0000
# 6 0.0000 0.0000 0.0000 12.4148 0.0000 27.3419
#
#
#
# Elastic Compliance Matrix: (Units=1/GPa)
#
#
# Indices 1 2 3 4 5 6 
#
# 1 0.015788 0.000142 -0.004580 0.000000 -0.000129 0.000000
# 2 0.000142 0.010283 -0.003537 0.000000 -0.003604 0.000000
# 3 -0.004580 -0.003537 0.012797 0.000000 -0.001044 0.000000
# 4 0.000000 0.000000 0.000000 0.035915 0.000000 -0.016308
# 5 -0.000129 -0.003604 -0.001044 0.000000 0.038805 0.000000
# 6 0.000000 0.000000 0.000000 -0.016308 0.000000 0.043978
#
#
# Mechanical properties :
#
#
# Convention : Reuss Voigt Hill
#
# Bulk Modulus (GPa) = 43.63408 47.82290 45.72849
# Shear Modulus (GPa) = 27.60045 31.57506 29.58776
#
# Velocity S-wave (km/s) = 3.81147 4.07668 3.94630
# Velocity P-wave (km/s) = 6.50663 6.87971 6.69577
#
# Compressibility (1/GPa) = 0.02291787
#
# Stress axis : x y z
#
# Youngs Moduli (GPa) = 63.33743 97.24723 78.14501
#
# Poissons Ratio (x) = -0.01383 0.35792
# Poissons Ratio (y) = -0.00901 0.27641
# Poissons Ratio (z) = 0.29010 0.34398
#
# Static dielectric constant tensor:
#      x y z
#    x 3.659210 0.000000 0.098590 
#    y 0.000000 3.757220 0.000000 
#    z 0.098590 0.000000 3.511730 
# 
# 
# High freq. dielectric constant tensor:
#      x y z
#    x 1.739210 0.000000 0.003260 
#    y 0.000000 1.740810 0.000000 
#    z 0.003260 0.000000 1.731870 
# 
# From -- ./inp_files/179094.got.cif
#   From: 2010.06.25/outbox.cif.g09.slc.cpg/sg15_90_cif.got.tgz:179094.got - 2010.06.28 07:06:18.
