data_PCOD8137434
_publ_section_title
;
Structure prediction by ZEFSAII (Michael W. Deem and Ramdas Pophale) SiO2 
 PCOD8137434
Probable space group: C 2/C
;
_chemical_formula_sum "Si O2"
_cell_formula_units_Z 36
_cell_length_a 17.398137
_cell_length_b 14.156138
_cell_length_c 14.068241
_cell_angle_alpha 90.000000
_cell_angle_beta 30.986026
_cell_angle_gamma 90.000000
_cell_volume 1783.817165
_symmetry_space_group_name_H-M "C 2/C"
_symmetry_group_IT_number 15
_symmetry_cell_setting 'monoclinic'
loop_
_space_group_symop_operation_xyz
x,y,z
-x,y,1/2-z
-x,-y,-z
x,-y,1/2+z
1/2+x,1/2+y,z
1/2-x,1/2+y,1/2-z
1/2-x,1/2-y,-z
1/2+x,1/2-y,1/2+z
loop_
_atom_site_type_symbol
_atom_site_label
_atom_site_fract_x
_atom_site_fract_y
_atom_site_fract_z
Si Si1 0.059304 0.682141 0.079921
Si Si2 0.729359 0.175920 0.639520
Si Si3 0.765302 0.678577 0.267798
Si Si4 0.831950 0.523035 0.656026
Si Si5 0.500000 0.748281 0.250000
O O1 0.000000 0.673544 0.250000
O O2 0.926345 0.681566 0.145405
O O3 0.146668 0.781729 0.971819
O O4 0.168094 0.591980 0.937970
O O5 0.756345 0.257924 0.685482
O O6 0.738899 0.075695 0.679065
O O7 0.565820 0.185475 0.763926
O O8 0.863975 0.179953 0.422225
O O9 0.734339 0.573439 0.257311
O O10 0.000000 0.500000 0.500000
#
# Coordination Sequence:
#
# PCOD8137434 Si02
#       5
#     8   8   8   8   4
#     4  10  20  37  60  85 114 152 199 237 282 350
#     4  10  20  38  59  83 118 155 185 244 290 346
#     4  10  20  39  59  81 118 155 187 234 302 338
#     4   9  19  37  57  83 114 153 193 230 298 346
#     4  10  20  36  58  86 114 148 200 234 290 338
#
# _framework density 20.181442000000001
#
# number of rings (size 3 to 8) (size 9 to 14) (size 15 to 20)
#    0.000    2.222    0.000    4.667    0.000    0.000 
#   28.000   10.000    0.000    0.000    0.000    0.000 
#    0.000    0.000    0.000    0.000    0.000    0.000 
#
# Total GULP energy -222998.454041 kJ/mol
# GULP energy per Si atom -12388.803002 kJ/mol
# Density = 2.013551 g / cm^3
# Si number density = 20.181442 Si / 1000 Ang^3
#
#
#
# Elastic Constant Matrix: (Units=GPa)
#
#
# Indices 1 2 3 4 5 6 
#
# 1 90.1833 35.0855 14.2932 0.0001 2.9608 -0.0001
# 2 35.0855 150.4687 49.8301 -0.0002 12.7809 0.0001
# 3 14.2932 49.8301 81.1775 0.0000 12.2833 0.0000
# 4 0.0001 -0.0002 0.0000 24.0427 0.0002 -2.6293
# 5 2.9608 12.7809 12.2833 0.0002 34.0489 -0.0002
# 6 -0.0001 0.0001 0.0000 -2.6293 -0.0002 8.9380
#
#
#
# Elastic Compliance Matrix: (Units=1/GPa)
#
#
# Indices 1 2 3 4 5 6 
#
# 1 0.012212 -0.002686 -0.000522 0.000000 0.000135 0.000000
# 2 -0.002686 0.008992 -0.004835 0.000000 -0.001397 0.000000
# 3 -0.000522 -0.004835 0.015969 0.000000 -0.003900 0.000000
# 4 0.000000 0.000000 0.000000 0.042975 0.000000 0.012642
# 5 0.000135 -0.001397 -0.003900 0.000000 0.031289 0.000000
# 6 0.000000 0.000000 0.000000 0.012642 0.000000 0.115600
#
#
# Mechanical properties :
#
#
# Convention : Reuss Voigt Hill
#
# Bulk Modulus (GPa) = 47.42364 57.80523 52.61443
# Shear Modulus (GPa) = 19.98777 28.24733 24.11755
#
# Velocity S-wave (km/s) = 3.15048 3.74527 3.46068
# Velocity P-wave (km/s) = 6.06496 6.88533 6.48812
#
# Compressibility (1/GPa) = 0.02108653
#
# Stress axis : x y z
#
# Youngs Moduli (GPa) = 81.88783 111.20670 62.62168
#
# Poissons Ratio (x) = 0.29872 0.03267
# Poissons Ratio (y) = 0.21996 0.30280
# Poissons Ratio (z) = 0.04272 0.53773
#
# Static dielectric constant tensor:
#      x y z
#    x 3.576400 0.000000 0.098600 
#    y 0.000000 4.619560 0.000000 
#    z 0.098600 0.000000 3.995980 
# 
# 
# High freq. dielectric constant tensor:
#      x y z
#    x 1.773640 0.000000 0.011530 
#    y 0.000000 1.786110 0.000000 
#    z 0.011530 0.000000 1.792600 
# 
# From -- ./inp_files/37464.got.cif
#   From: 2010.06.25/outbox.cif.g09.slc.cpg/sg15_19_cif.got.tgz:37464.got - 2010.06.28 07:06:18.
