data_PCOD8137244
_publ_section_title
;
Structure prediction by ZEFSAII (Michael W. Deem and Ramdas Pophale) SiO2 
 PCOD8137244
Probable space group: C 2/C
;
_chemical_formula_sum "Si O2"
_cell_formula_units_Z 36
_cell_length_a 5.033893
_cell_length_b 32.229016
_cell_length_c 10.459324
_cell_angle_alpha 90.000000
_cell_angle_beta 74.356535
_cell_angle_gamma 90.000000
_cell_volume 1634.037867
_symmetry_space_group_name_H-M "C 2/C"
_symmetry_group_IT_number 15
_symmetry_cell_setting 'monoclinic'
loop_
_space_group_symop_operation_xyz
x,y,z
-x,y,1/2-z
-x,-y,-z
x,-y,1/2+z
1/2+x,1/2+y,z
1/2-x,1/2+y,1/2-z
1/2-x,1/2-y,-z
1/2+x,1/2-y,1/2+z
loop_
_atom_site_type_symbol
_atom_site_label
_atom_site_fract_x
_atom_site_fract_y
_atom_site_fract_z
Si Si1 0.427809 0.923734 0.020906
Si Si2 0.103700 0.966549 0.387517
Si Si3 0.063322 0.662308 0.099069
Si Si4 0.426535 0.716324 0.400591
Si Si5 0.500000 0.027274 0.250000
O O1 0.363653 0.875497 0.003582
O O2 0.469280 0.945336 0.878932
O O3 0.690391 0.932852 0.074575
O O4 0.157053 0.940418 0.130674
O O5 0.245708 0.995187 0.260179
O O6 0.000000 0.000000 0.500000
O O7 0.295577 0.699119 0.065438
O O8 0.000000 0.646239 0.250000
O O9 0.771413 0.677333 0.085095
O O10 0.500000 0.734405 0.250000
O O11 0.250000 0.750000 0.500000
#
# Coordination Sequence:
#
# PCOD8137244 Si02
#       5
#     8   8   8   8   4
#     4  11  21  36  56  82 110 147 196 245 285 332
#     4  10  22  34  52  78 107 149 192 232 290 343
#     4  10  20  37  60  90 112 149 190 246 292 341
#     4  10  21  38  65  92 122 151 193 234 293 361
#     4  10  20  36  54  76 112 144 194 240 292 324
#
# _framework density 22.031313999999998
#
# number of rings (size 3 to 8) (size 9 to 14) (size 15 to 20)
#    0.000    1.778    1.111    4.667    0.000    8.000 
#    0.000    0.000   14.667    0.000    0.000    0.000 
#    0.000    0.000    0.000    0.000    0.000    0.000 
#
# Total GULP energy -223013.944139 kJ/mol
# GULP energy per Si atom -12389.663563 kJ/mol
# Density = 2.198117 g / cm^3
# Si number density = 22.031314 Si / 1000 Ang^3
#
#
#
# Elastic Constant Matrix: (Units=GPa)
#
#
# Indices 1 2 3 4 5 6 
#
# 1 119.7955 19.6662 17.2445 0.0000 -8.7400 0.0000
# 2 19.6662 91.6259 34.7738 0.0000 -9.2824 0.0000
# 3 17.2445 34.7738 59.2498 0.0000 -12.9719 0.0000
# 4 0.0000 0.0000 0.0000 33.1084 0.0000 -14.7190
# 5 -8.7400 -9.2824 -12.9719 0.0000 39.0081 0.0000
# 6 0.0000 0.0000 0.0000 -14.7190 0.0000 27.1764
#
#
#
# Elastic Compliance Matrix: (Units=1/GPa)
#
#
# Indices 1 2 3 4 5 6 
#
# 1 0.008859 -0.001160 -0.001643 0.000000 0.001163 0.000000
# 2 -0.001160 0.014209 -0.007893 0.000000 0.000496 0.000000
# 3 -0.001643 -0.007893 0.023184 0.000000 0.005464 0.000000
# 4 0.000000 0.000000 0.000000 0.039783 0.000000 0.021547
# 5 0.001163 0.000496 0.005464 0.000000 0.027831 0.000000
# 6 0.000000 0.000000 0.000000 0.021547 0.000000 0.048467
#
#
# Mechanical properties :
#
#
# Convention : Reuss Voigt Hill
#
# Bulk Modulus (GPa) = 40.22461 46.00447 43.11454
# Shear Modulus (GPa) = 26.04005 33.12434 29.58220
#
# Velocity S-wave (km/s) = 3.44169 3.88172 3.66831
# Velocity P-wave (km/s) = 5.83877 6.40446 6.12814
#
# Compressibility (1/GPa) = 0.02486041
#
# Stress axis : x y z
#
# Youngs Moduli (GPa) = 112.87506 70.37934 43.13254
#
# Poissons Ratio (x) = 0.08165 0.07087
# Poissons Ratio (y) = 0.13096 0.34043
# Poissons Ratio (z) = 0.18546 0.55549
#
# Static dielectric constant tensor:
#      x y z
#    x 4.929600 0.000000 -0.104500 
#    y 0.000000 3.787450 0.000000 
#    z -0.104500 0.000000 4.995900 
# 
# 
# High freq. dielectric constant tensor:
#      x y z
#    x 1.890600 0.000000 -0.013380 
#    y 0.000000 1.851200 0.000000 
#    z -0.013380 0.000000 1.865200 
# 
# From -- ./inp_files/73014.got.cif
#   From: 2010.06.25/outbox.cif.g09.slc.cpg/sg15_37_cif.got.tgz:73014.got - 2010.06.28 07:06:18.
