data_PCOD8137995
_publ_section_title
;
Structure prediction by ZEFSAII (Michael W. Deem and Ramdas Pophale) SiO2 
 PCOD8137995
Probable space group: C 2/C
;
_chemical_formula_sum "Si O2"
_cell_formula_units_Z 48
_cell_length_a 12.865237
_cell_length_b 12.769118
_cell_length_c 16.632334
_cell_angle_alpha 90.000000
_cell_angle_beta 67.192284
_cell_angle_gamma 90.000000
_cell_volume 2518.684415
_symmetry_space_group_name_H-M "C 2/C"
_symmetry_group_IT_number 15
_symmetry_cell_setting 'monoclinic'
loop_
_space_group_symop_operation_xyz
x,y,z
-x,y,1/2-z
-x,-y,-z
x,-y,1/2+z
1/2+x,1/2+y,z
1/2-x,1/2+y,1/2-z
1/2-x,1/2-y,-z
1/2+x,1/2-y,1/2+z
loop_
_atom_site_type_symbol
_atom_site_label
_atom_site_fract_x
_atom_site_fract_y
_atom_site_fract_z
Si Si1 0.954720 0.142526 0.178202
Si Si2 0.041415 0.883228 0.489791
Si Si3 0.370248 0.789416 0.993249
Si Si4 0.780207 0.970551 0.167833
Si Si5 0.885261 0.367847 0.164526
Si Si6 0.938980 0.456696 0.847792
O O1 0.906319 0.258939 0.204520
O O2 0.000000 0.100851 0.250000
O O3 0.858321 0.065345 0.174525
O O4 0.054781 0.148273 0.080431
O O5 0.154588 0.879841 0.402276
O O6 0.947972 0.811343 0.477309
O O7 0.000000 0.000000 0.500000
O O8 0.355072 0.850461 0.081118
O O9 0.250000 0.750000 0.000000
O O10 0.436096 0.865561 0.913546
O O11 0.723697 0.920314 0.262925
O O12 0.688985 0.014137 0.133123
O O13 0.994779 0.441634 0.139503
O O14 0.000000 0.412371 0.750000
#
# Coordination Sequence:
#
# PCOD8137995 Si02
#       6
#     8   8   8   8   8   8
#     4  10  20  37  56  80 111 145 184 230 281 338
#     4   9  20  37  55  81 113 145 184 232 285 331
#     4  11  22  37  60  85 115 151 192 239 284 338
#     4  10  21  37  59  82 111 149 189 235 283 338
#     4  10  22  39  57  82 116 151 184 231 291 342
#     4  10  21  39  58  82 115 149 186 235 287 341
#
# _framework density 19.057568
#
# number of rings (size 3 to 8) (size 9 to 14) (size 15 to 20)
#    0.000    2.000    0.000    5.000    0.000    8.000 
#    0.000    8.333    0.000    0.000    0.000    0.000 
#    0.000    0.000    0.000    0.000    0.000    0.000 
#
# Total GULP energy -297533.302928 kJ/mol
# GULP energy per Si atom -12397.220955 kJ/mol
# Density = 1.901419 g / cm^3
# Si number density = 19.057568 Si / 1000 Ang^3
#
#
#
# Elastic Constant Matrix: (Units=GPa)
#
#
# Indices 1 2 3 4 5 6 
#
# 1 124.8559 52.8279 76.7718 0.0000 5.5558 0.0000
# 2 52.8279 120.0232 67.0574 0.0000 -2.4760 0.0000
# 3 76.7718 67.0574 130.4269 0.0000 6.5743 0.0000
# 4 0.0000 0.0000 0.0000 37.5902 0.0000 0.2685
# 5 5.5558 -2.4760 6.5743 0.0000 33.0592 0.0000
# 6 0.0000 0.0000 0.0000 0.2685 0.0000 28.8470
#
#
#
# Elastic Compliance Matrix: (Units=1/GPa)
#
#
# Indices 1 2 3 4 5 6 
#
# 1 0.012925 -0.002089 -0.006481 0.000000 -0.001040 0.000000
# 2 -0.002089 0.012172 -0.005144 0.000000 0.002286 0.000000
# 3 -0.006481 -0.005144 0.014234 0.000000 -0.002127 0.000000
# 4 0.000000 0.000000 0.000000 0.026604 0.000000 -0.000248
# 5 -0.001040 0.002286 -0.002127 0.000000 0.031018 0.000000
# 6 0.000000 0.000000 0.000000 -0.000248 0.000000 0.034668
#
#
# Mechanical properties :
#
#
# Convention : Reuss Voigt Hill
#
# Bulk Modulus (GPa) = 84.01489 85.40225 84.70857
# Shear Modulus (GPa) = 30.67182 31.80922 31.24052
#
# Velocity S-wave (km/s) = 4.01612 4.08991 4.05318
# Velocity P-wave (km/s) = 8.10470 8.19837 8.15167
#
# Compressibility (1/GPa) = 0.01190265
#
# Stress axis : x y z
#
# Youngs Moduli (GPa) = 77.37191 82.15449 70.25513
#
# Poissons Ratio (x) = 0.17163 0.45534
# Poissons Ratio (y) = 0.16164 0.36137
# Poissons Ratio (z) = 0.50146 0.42258
#
# Static dielectric constant tensor:
#      x y z
#    x 4.901160 0.000000 -0.461620 
#    y 0.000000 3.626930 0.000000 
#    z -0.461620 0.000000 4.157930 
# 
# 
# High freq. dielectric constant tensor:
#      x y z
#    x 1.732210 0.000000 0.001330 
#    y 0.000000 1.746920 0.000000 
#    z 0.001330 0.000000 1.759480 
# 
# From -- ./inp_files/196490.got.cif
#   From: 2010.06.25/outbox.cif.g09.slc.cpg/sg15_99_cif.got.tgz:196490.got - 2010.06.28 07:06:18.
