data_PCOD8137569
_publ_section_title
;
Structure prediction by ZEFSAII (Michael W. Deem and Ramdas Pophale) SiO2 
 PCOD8137569
Probable space group: C 2/C
;
_chemical_formula_sum "Si O2"
_cell_formula_units_Z 64
_cell_length_a 8.655640
_cell_length_b 31.126368
_cell_length_c 21.781663
_cell_angle_alpha 90.000000
_cell_angle_beta 34.977605
_cell_angle_gamma 90.000000
_cell_volume 3364.088699
_symmetry_space_group_name_H-M "C 2/C"
_symmetry_group_IT_number 15
_symmetry_cell_setting 'monoclinic'
loop_
_space_group_symop_operation_xyz
x,y,z
-x,y,1/2-z
-x,-y,-z
x,-y,1/2+z
1/2+x,1/2+y,z
1/2-x,1/2+y,1/2-z
1/2-x,1/2-y,-z
1/2+x,1/2-y,1/2+z
loop_
_atom_site_type_symbol
_atom_site_label
_atom_site_fract_x
_atom_site_fract_y
_atom_site_fract_z
Si Si1 0.278849 0.688784 0.004977
Si Si2 0.745611 0.652719 0.624674
Si Si3 0.253847 0.453742 0.626427
Si Si4 0.224474 0.143127 0.374136
Si Si5 0.295519 0.242168 0.131498
Si Si6 0.759031 0.201683 0.473976
Si Si7 0.763804 0.492748 0.993727
Si Si8 0.236908 0.552386 0.876327
O O1 0.311081 0.672290 0.924547
O O2 0.550828 0.714073 0.938098
O O3 0.247781 0.649448 0.061695
O O4 0.015474 0.718894 0.103994
O O5 0.500000 0.661447 0.750000
O O6 0.817716 0.602694 0.597012
O O7 0.989604 0.676362 0.579847
O O8 0.362397 0.406084 0.605768
O O9 0.167536 0.459470 0.583309
O O10 0.478840 0.486837 0.572435
O O11 0.000000 0.465089 0.750000
O O12 0.500000 0.152945 0.250000
O O13 0.013549 0.175599 0.413709
O O14 0.234581 0.205755 0.101176
O O15 0.000000 0.256051 0.250000
O O16 0.750000 0.250000 0.500000
O O17 0.731723 0.467236 0.066883
O O18 0.987933 0.529975 0.923192
O O19 0.500000 0.543600 0.750000
#
# Coordination Sequence:
#
# PCOD8137569 Si02
#       8
#     8   8   8   8   8   8   8   8
#     4  10  21  37  54  79 107 142 186 228 272 329
#     4  10  23  38  57  82 114 148 185 232 279 327
#     4  10  21  36  56  86 115 146 183 225 278 334
#     4  11  22  37  58  83 114 147 185 231 280 327
#     4  10  21  37  54  76 106 140 187 232 273 323
#     4  11  22  37  55  81 110 145 190 229 275 331
#     4  10  20  36  60  83 114 147 181 229 274 330
#     4  10  20  37  58  84 112 147 187 225 276 333
#
# _framework density 19.024469
#
# number of rings (size 3 to 8) (size 9 to 14) (size 15 to 20)
#    0.000    1.750    1.250    3.000    1.750    0.500 
#    0.000    0.000    0.000   18.000    0.000    0.000 
#    0.000    0.000    0.000    0.000    0.000    0.000 
#
# Total GULP energy -396645.160748 kJ/mol
# GULP energy per Si atom -12395.161273 kJ/mol
# Density = 1.898117 g / cm^3
# Si number density = 19.024469 Si / 1000 Ang^3
#
#
#
# Elastic Constant Matrix: (Units=GPa)
#
#
# Indices 1 2 3 4 5 6 
#
# 1 86.3791 45.8164 47.3630 -0.0002 0.8669 -0.0003
# 2 45.8164 115.5934 64.1861 0.0005 -7.6030 0.0010
# 3 47.3630 64.1861 118.8150 -0.0072 -2.6695 0.0005
# 4 -0.0002 0.0005 -0.0072 37.8504 0.0016 -10.1091
# 5 0.8669 -7.6030 -2.6695 0.0016 29.0750 -0.0002
# 6 -0.0003 0.0010 0.0005 -10.1091 -0.0002 22.7410
#
#
#
# Elastic Compliance Matrix: (Units=1/GPa)
#
#
# Indices 1 2 3 4 5 6 
#
# 1 0.016124 -0.004180 -0.004213 -0.000001 -0.001961 0.000000
# 2 -0.004180 0.013645 -0.005633 -0.000002 0.003176 -0.000001
# 3 -0.004213 -0.005633 0.013136 0.000003 -0.000141 0.000001
# 4 -0.000001 -0.000002 0.000003 0.029979 -0.000002 0.013327
# 5 -0.001961 0.003176 -0.000141 -0.000002 0.035270 -0.000001
# 6 0.000000 -0.000001 0.000001 0.013327 -0.000001 0.049897
#
#
# Mechanical properties :
#
#
# Convention : Reuss Voigt Hill
#
# Bulk Modulus (GPa) = 67.33602 70.61316 68.97459
# Shear Modulus (GPa) = 26.17035 28.82807 27.49921
#
# Velocity S-wave (km/s) = 3.71295 3.89693 3.80605
# Velocity P-wave (km/s) = 7.33843 7.57929 7.45984
#
# Compressibility (1/GPa) = 0.01485089
#
# Stress axis : x y z
#
# Youngs Moduli (GPa) = 62.01918 73.28728 76.12605
#
# Poissons Ratio (x) = 0.30637 0.32074
# Poissons Ratio (y) = 0.25926 0.42886
# Poissons Ratio (z) = 0.26130 0.41286
#
# Static dielectric constant tensor:
#      x y z
#    x 3.960330 0.000000 -0.019470 
#    y 0.000000 3.611360 0.000000 
#    z -0.019470 0.000000 3.576910 
# 
# 
# High freq. dielectric constant tensor:
#      x y z
#    x 1.746300 0.000000 -0.002790 
#    y 0.000000 1.746780 0.000000 
#    z -0.002790 0.000000 1.745380 
# 
# From -- ./inp_files/266730.got.cif
#   From: 2010.06.25/outbox.cif.g09.slc.cpg/sg15_134_cif.got.tgz:266730.got - 2010.06.28 07:06:18.
