data_PCOD8137881
_publ_section_title
;
Structure prediction by ZEFSAII (Michael W. Deem and Ramdas Pophale) SiO2 
 PCOD8137881
Probable space group: C 2/C
;
_chemical_formula_sum "Si O2"
_cell_formula_units_Z 48
_cell_length_a 11.427572
_cell_length_b 23.163963
_cell_length_c 10.245182
_cell_angle_alpha 90.000000
_cell_angle_beta 124.408058
_cell_angle_gamma 90.000000
_cell_volume 2237.475924
_symmetry_space_group_name_H-M "C 2/C"
_symmetry_group_IT_number 15
_symmetry_cell_setting 'monoclinic'
loop_
_space_group_symop_operation_xyz
x,y,z
-x,y,1/2-z
-x,-y,-z
x,-y,1/2+z
1/2+x,1/2+y,z
1/2-x,1/2+y,1/2-z
1/2-x,1/2-y,-z
1/2+x,1/2-y,1/2+z
loop_
_atom_site_type_symbol
_atom_site_label
_atom_site_fract_x
_atom_site_fract_y
_atom_site_fract_z
Si Si1 0.000000 0.068097 0.250000
Si Si2 0.192042 0.650615 0.725456
Si Si3 0.920620 0.470426 0.330027
Si Si4 0.500000 0.240646 0.750000
Si Si5 0.359654 0.368245 0.086428
Si Si6 0.977836 0.838041 0.541024
Si Si7 0.849920 0.008792 0.473739
O O1 0.944598 0.111088 0.328877
O O2 0.135867 0.030592 0.385773
O O3 0.078891 0.598725 0.650676
O O4 0.119775 0.704660 0.750718
O O5 0.243135 0.662215 0.607308
O O6 0.331745 0.634673 0.895748
O O7 0.758953 0.489239 0.206909
O O8 0.000000 0.488899 0.250000
O O9 0.000000 0.500000 0.500000
O O10 0.435320 0.281561 0.596724
O O11 0.500000 0.387949 0.250000
O O12 0.410194 0.323307 0.004790
O O13 0.301654 0.427413 0.987204
O O14 0.000000 0.000000 0.500000
#
# Coordination Sequence:
#
# PCOD8137881 Si02
#       7
#     4   8   8   4   8   8   8
#     4  11  20  34  66 102 132 168 229 290 336 404
#     4  11  22  43  63  89 134 182 223 285 347 422
#     4  12  27  43  64 100 148 190 221 274 358 437
#     4  11  24  42  64  90 126 184 239 280 350 398
#     4  10  20  36  64  98 131 163 225 288 348 404
#     4  10  22  39  64  99 125 169 239 299 335 396
#     4  12  22  38  67 103 139 181 230 284 344 419
#
# _framework density 21.452743999999999
#
# number of rings (size 3 to 8) (size 9 to 14) (size 15 to 20)
#    0.000    1.000    5.000    2.500    2.333    0.667 
#    0.000    0.000    0.000    3.000    0.000    0.000 
#    0.000    0.000    0.000    0.000    0.000    0.000 
#
# Total GULP energy -297364.757589 kJ/mol
# GULP energy per Si atom -12390.198233 kJ/mol
# Density = 2.140392 g / cm^3
# Si number density = 21.452744 Si / 1000 Ang^3
#
#
#
# Elastic Constant Matrix: (Units=GPa)
#
#
# Indices 1 2 3 4 5 6 
#
# 1 145.9833 55.3399 51.5170 0.0000 -24.3543 0.0000
# 2 55.3399 111.2386 48.0223 0.0000 -14.5705 0.0000
# 3 51.5170 48.0223 130.6546 0.0000 -8.8158 0.0000
# 4 0.0000 0.0000 0.0000 31.1375 0.0000 -4.3847
# 5 -24.3543 -14.5705 -8.8158 0.0000 35.5786 0.0000
# 6 0.0000 0.0000 0.0000 -4.3847 0.0000 30.5110
#
#
#
# Elastic Compliance Matrix: (Units=1/GPa)
#
#
# Indices 1 2 3 4 5 6 
#
# 1 0.009668 -0.003187 -0.002321 0.000000 0.004737 0.000000
# 2 -0.003187 0.012172 -0.003079 0.000000 0.002040 0.000000
# 3 -0.002321 -0.003079 0.009670 0.000000 -0.000454 0.000000
# 4 0.000000 0.000000 0.000000 0.032779 0.000000 0.004711
# 5 0.004737 0.002040 -0.000454 0.000000 0.032073 0.000000
# 6 0.000000 0.000000 0.000000 0.004711 0.000000 0.033452
#
#
# Mechanical properties :
#
#
# Convention : Reuss Voigt Hill
#
# Bulk Modulus (GPa) = 69.76036 77.51498 73.63767
# Shear Modulus (GPa) = 32.94539 34.97860 33.96199
#
# Velocity S-wave (km/s) = 3.92308 4.04232 3.98314
# Velocity P-wave (km/s) = 7.28762 7.61567 7.45345
#
# Compressibility (1/GPa) = 0.01433479
#
# Stress axis : x y z
#
# Youngs Moduli (GPa) = 103.43793 82.15676 103.41118
#
# Poissons Ratio (x) = 0.26184 0.24000
# Poissons Ratio (y) = 0.32966 0.31845
# Poissons Ratio (z) = 0.24007 0.25300
#
# Static dielectric constant tensor:
#      x y z
#    x 4.038450 0.000000 -0.462530 
#    y 0.000000 3.743190 0.000000 
#    z -0.462530 0.000000 4.024590 
# 
# 
# High freq. dielectric constant tensor:
#      x y z
#    x 1.846400 0.000000 -0.029200 
#    y 0.000000 1.826010 0.000000 
#    z -0.029200 0.000000 1.835000 
# 
# From -- ./inp_files/91003.got.cif
#   From: 2010.06.25/outbox.cif.g09.slc.cpg/sg15_46_cif.got.tgz:91003.got - 2010.06.28 07:06:18.
