data_PCOD8137527
_publ_section_title
;
Structure prediction by ZEFSAII (Michael W. Deem and Ramdas Pophale) SiO2 
 PCOD8137527
Probable space group: C 2/C
;
_chemical_formula_sum "Si O2"
_cell_formula_units_Z 48
_cell_length_a 12.850005
_cell_length_b 6.453886
_cell_length_c 27.738213
_cell_angle_alpha 90.000000
_cell_angle_beta 57.850240
_cell_angle_gamma 90.000000
_cell_volume 1947.655566
_symmetry_space_group_name_H-M "C 2/C"
_symmetry_group_IT_number 15
_symmetry_cell_setting 'monoclinic'
loop_
_space_group_symop_operation_xyz
x,y,z
-x,y,1/2-z
-x,-y,-z
x,-y,1/2+z
1/2+x,1/2+y,z
1/2-x,1/2+y,1/2-z
1/2-x,1/2-y,-z
1/2+x,1/2-y,1/2+z
loop_
_atom_site_type_symbol
_atom_site_label
_atom_site_fract_x
_atom_site_fract_y
_atom_site_fract_z
Si Si1 0.307982 0.300513 0.302386
Si Si2 0.855022 0.767618 0.824881
Si Si3 0.655444 0.343861 0.922375
Si Si4 0.796270 0.408936 0.557347
Si Si5 0.111183 0.063697 0.025985
Si Si6 0.113423 0.438306 0.276585
O O1 0.383230 0.485083 0.309902
O O2 0.263337 0.136777 0.355398
O O3 0.185420 0.402335 0.308489
O O4 0.388271 0.178055 0.242300
O O5 0.743852 0.743221 0.890961
O O6 0.813664 0.686466 0.782908
O O7 0.975435 0.648681 0.814986
O O8 0.534894 0.470931 0.934453
O O9 0.631850 0.096648 0.935338
O O10 0.684660 0.423283 0.969034
O O11 0.874802 0.301768 0.495910
O O12 0.667911 0.482720 0.564220
#
# Coordination Sequence:
#
# PCOD8137527 Si02
#       6
#     8   8   8   8   8   8
#     4  11  22  41  63  91 126 167 212 262 316 376
#     4  10  23  39  61  91 122 166 213 258 316 378
#     4  10  21  36  60  88 120 160 202 250 307 370
#     4  10  20  37  59  86 122 158 200 251 305 368
#     4  10  20  36  59  88 123 157 199 249 305 368
#     4  11  22  40  63  87 126 163 212 261 318 374
#
# _framework density 24.645014
#
# number of rings (size 3 to 8) (size 9 to 14) (size 15 to 20)
#    0.000    1.667    1.667    3.000    0.000    2.667 
#    0.000    0.000    3.667    0.000    0.000    0.000 
#    0.000    0.000    0.000    0.000    0.000    0.000 
#
# Total GULP energy -297418.468227 kJ/mol
# GULP energy per Si atom -12392.436176 kJ/mol
# Density = 2.458892 g / cm^3
# Si number density = 24.645014 Si / 1000 Ang^3
#
#
#
# Elastic Constant Matrix: (Units=GPa)
#
#
# Indices 1 2 3 4 5 6 
#
# 1 69.6371 -0.3008 10.5279 0.0002 -1.9338 0.0001
# 2 -0.3008 34.1059 2.3809 0.0006 -13.5397 0.0002
# 3 10.5279 2.3809 76.8335 0.0004 -1.4034 0.0003
# 4 0.0002 0.0006 0.0004 41.4941 0.0002 1.6090
# 5 -1.9338 -13.5397 -1.4034 0.0002 28.0044 0.0002
# 6 0.0001 0.0002 0.0003 1.6090 0.0002 29.8890
#
#
#
# Elastic Compliance Matrix: (Units=1/GPa)
#
#
# Indices 1 2 3 4 5 6 
#
# 1 0.014704 0.000784 -0.002015 0.000000 0.001293 0.000000
# 2 0.000784 0.036376 -0.000913 -0.000001 0.017596 0.000000
# 3 -0.002015 -0.000913 0.013321 0.000000 0.000087 0.000000
# 4 0.000000 -0.000001 0.000000 0.024150 -0.000001 -0.001300
# 5 0.001293 0.017596 0.000087 -0.000001 0.044310 0.000000
# 6 0.000000 0.000000 0.000000 -0.001300 0.000000 0.033527
#
#
# Mechanical properties :
#
#
# Convention : Reuss Voigt Hill
#
# Bulk Modulus (GPa) = 16.63560 22.86584 19.75072
# Shear Modulus (GPa) = 26.21702 31.07541 28.64621
#
# Velocity S-wave (km/s) = 3.26511 3.55480 3.41303
# Velocity P-wave (km/s) = 4.58032 5.11341 4.85419
#
# Compressibility (1/GPa) = 0.06011207
#
# Stress axis : x y z
#
# Youngs Moduli (GPa) = 68.00793 27.49032 75.06830
#
# Poissons Ratio (x) = -0.02155 0.15130
# Poissons Ratio (y) = -0.05331 0.06856
# Poissons Ratio (z) = 0.13707 0.02511
#
# Static dielectric constant tensor:
#      x y z
#    x 4.020820 0.000000 0.226520 
#    y 0.000000 4.514570 0.000000 
#    z 0.226520 0.000000 4.336900 
# 
# 
# High freq. dielectric constant tensor:
#      x y z
#    x 1.954290 0.000000 0.012550 
#    y 0.000000 1.990940 0.000000 
#    z 0.012550 0.000000 1.977240 
# 
# From -- ./inp_files/312250.got.cif
#   From: 2010.06.25/outbox.cif.g09.slc.cpg/sg15_157_cif.got.tgz:312250.got - 2010.06.28 07:06:18.
