data_PCOD8137507
_publ_section_title
;
Structure prediction by ZEFSAII (Michael W. Deem and Ramdas Pophale) SiO2 
 PCOD8137507
Probable space group: C 2/C
;
_chemical_formula_sum "Si O2"
_cell_formula_units_Z 56
_cell_length_a 8.616048
_cell_length_b 30.015089
_cell_length_c 19.386012
_cell_angle_alpha 90.000000
_cell_angle_beta 30.549489
_cell_angle_gamma 90.000000
_cell_volume 2548.245678
_symmetry_space_group_name_H-M "C 2/C"
_symmetry_group_IT_number 15
_symmetry_cell_setting 'monoclinic'
loop_
_space_group_symop_operation_xyz
x,y,z
-x,y,1/2-z
-x,-y,-z
x,-y,1/2+z
1/2+x,1/2+y,z
1/2-x,1/2+y,1/2-z
1/2-x,1/2-y,-z
1/2+x,1/2-y,1/2+z
loop_
_atom_site_type_symbol
_atom_site_label
_atom_site_fract_x
_atom_site_fract_y
_atom_site_fract_z
Si Si1 0.321830 0.712555 0.251909
Si Si2 0.782805 0.953251 0.501714
Si Si3 0.574323 0.140514 0.028196
Si Si4 0.156878 0.012457 0.263395
Si Si5 0.617356 0.302536 0.281845
Si Si6 0.779091 0.339157 0.496747
Si Si7 0.645434 0.416180 0.882893
O O1 0.500000 0.730316 0.250000
O O2 0.093718 0.752040 0.318307
O O3 0.563541 0.702423 0.098963
O O4 0.148203 0.666335 0.334265
O O5 0.610316 0.909607 0.539783
O O6 0.521406 0.991257 0.611429
O O7 0.937066 0.944446 0.516864
O O8 0.036393 0.968470 0.349235
O O9 0.900447 0.165063 0.908355
O O10 0.432636 0.139491 0.006009
O O11 0.080809 0.054839 0.339897
O O12 0.000000 0.017937 0.250000
O O13 0.500000 0.301780 0.250000
O O14 0.962481 0.320928 0.153861
O O15 0.578211 0.374378 0.531914
O O16 0.000000 0.401029 0.750000
#
# Coordination Sequence:
#
# PCOD8137507 Si02
#       7
#     8   8   8   8   8   8   8
#     4  10  20  36  59  85 120 162 203 247 297 358
#     4  11  24  41  63  92 122 158 205 257 308 363
#     4  10  22  40  60  87 121 160 203 248 303 367
#     4  11  23  41  64  90 121 160 202 249 308 373
#     4  10  22  37  58  89 123 158 202 253 301 353
#     4  10  21  39  61  88 122 161 203 249 300 361
#     4  10  22  40  63  93 125 161 205 255 307 363
#
# _framework density 21.975902000000001
#
# number of rings (size 3 to 8) (size 9 to 14) (size 15 to 20)
#    0.000    1.714    0.000    4.286    0.000    6.857 
#    0.000    1.429    0.000    0.000    0.000    0.000 
#    0.000    0.000    0.000    0.000    0.000    0.000 
#
# Total GULP energy -347273.057186 kJ/mol
# GULP energy per Si atom -12402.609185 kJ/mol
# Density = 2.192588 g / cm^3
# Si number density = 21.975902 Si / 1000 Ang^3
#
#
#
# Elastic Constant Matrix: (Units=GPa)
#
#
# Indices 1 2 3 4 5 6 
#
# 1 94.7720 36.4526 37.7160 0.0000 2.6764 0.0000
# 2 36.4526 89.2774 43.8251 -0.0001 -10.0559 0.0000
# 3 37.7160 43.8251 115.7415 0.0013 -10.1423 0.0010
# 4 0.0000 -0.0001 0.0013 26.6345 -0.0004 -10.7817
# 5 2.6764 -10.0559 -10.1423 -0.0004 25.3393 -0.0002
# 6 0.0000 0.0000 0.0010 -10.7817 -0.0002 24.1900
#
#
#
# Elastic Compliance Matrix: (Units=1/GPa)
#
#
# Indices 1 2 3 4 5 6 
#
# 1 0.013675 -0.004557 -0.003126 0.000000 -0.004504 0.000000
# 2 -0.004557 0.015582 -0.003971 0.000000 0.005076 0.000000
# 3 -0.003126 -0.003971 0.011455 -0.000001 0.003339 -0.000001
# 4 0.000000 0.000000 -0.000001 0.045811 0.000001 0.020418
# 5 -0.004504 0.005076 0.003339 0.000001 0.043291 0.000001
# 6 0.000000 0.000000 -0.000001 0.020418 0.000001 0.050440
#
#
# Mechanical properties :
#
#
# Convention : Reuss Voigt Hill
#
# Bulk Modulus (GPa) = 57.44965 59.53093 58.49029
# Shear Modulus (GPa) = 23.88208 27.35256 25.61732
#
# Velocity S-wave (km/s) = 3.30015 3.53180 3.41794
# Velocity P-wave (km/s) = 6.38124 6.61661 6.49999
#
# Compressibility (1/GPa) = 0.01740655
#
# Stress axis : x y z
#
# Youngs Moduli (GPa) = 73.12405 64.17494 87.30190
#
# Poissons Ratio (x) = 0.29243 0.27287
# Poissons Ratio (y) = 0.33321 0.34664
# Poissons Ratio (z) = 0.22856 0.25481
#
# Static dielectric constant tensor:
#      x y z
#    x 3.907980 0.000000 -0.036250 
#    y 0.000000 3.708970 0.000000 
#    z -0.036250 0.000000 4.288760 
# 
# 
# High freq. dielectric constant tensor:
#      x y z
#    x 1.863780 0.000000 -0.000640 
#    y 0.000000 1.855130 0.000000 
#    z -0.000640 0.000000 1.871170 
# 
# From -- ./inp_files/234925.got.cif
#   From: 2010.06.25/outbox.cif.g09.slc.cpg/sg15_118_cif.got.tgz:234925.got - 2010.06.28 07:06:18.
