data_PCOD8137599
_publ_section_title
;
Structure prediction by ZEFSAII (Michael W. Deem and Ramdas Pophale) SiO2 
 PCOD8137599
Probable space group: C 2/C
;
_chemical_formula_sum "Si O2"
_cell_formula_units_Z 48
_cell_length_a 8.392070
_cell_length_b 13.354078
_cell_length_c 22.438924
_cell_angle_alpha 90.000000
_cell_angle_beta 61.063952
_cell_angle_gamma 90.000000
_cell_volume 2200.759774
_symmetry_space_group_name_H-M "C 2/C"
_symmetry_group_IT_number 15
_symmetry_cell_setting 'monoclinic'
loop_
_space_group_symop_operation_xyz
x,y,z
-x,y,1/2-z
-x,-y,-z
x,-y,1/2+z
1/2+x,1/2+y,z
1/2-x,1/2+y,1/2-z
1/2-x,1/2-y,-z
1/2+x,1/2-y,1/2+z
loop_
_atom_site_type_symbol
_atom_site_label
_atom_site_fract_x
_atom_site_fract_y
_atom_site_fract_z
Si Si1 0.022143 0.457799 0.316275
Si Si2 0.931640 0.775997 0.678233
Si Si3 0.443360 0.804784 0.962399
Si Si4 0.233572 0.510976 0.036212
Si Si5 0.715526 0.851197 0.817737
Si Si6 0.974893 0.846531 0.964311
O O1 0.836376 0.480848 0.385341
O O2 0.000000 0.477563 0.250000
O O3 0.066103 0.343133 0.321061
O O4 0.178814 0.529979 0.315355
O O5 0.747443 0.805568 0.746315
O O6 0.105305 0.830444 0.675802
O O7 0.918036 0.817515 0.614249
O O8 0.545469 0.794111 0.879912
O O9 0.412604 0.924908 0.976485
O O10 0.250000 0.750000 0.000000
O O11 0.570106 0.756566 0.991254
O O12 0.402396 0.585263 0.015242
O O13 0.290212 0.411644 0.988380
#
# Coordination Sequence:
#
# PCOD8137599 Si02
#       6
#     8   8   8   8   8   8
#     4  11  21  38  64  84 119 169 207 252 323 368
#     4  11  23  40  60  94 126 165 207 261 321 372
#     4   9  19  37  59  87 120 158 211 260 306 369
#     4   9  20  36  58  89 115 164 208 256 309 371
#     4  10  22  40  61  88 128 161 208 265 307 383
#     4  10  20  36  60  87 123 159 206 257 314 370
#
# _framework density 21.810648
#
# number of rings (size 3 to 8) (size 9 to 14) (size 15 to 20)
#    0.000    2.000    1.667    2.000    0.000    4.000 
#    3.000    3.333   14.667    0.000    0.000    0.000 
#    0.000    0.000    0.000    0.000    0.000    0.000 
#
# Total GULP energy -297321.785816 kJ/mol
# GULP energy per Si atom -12388.407742 kJ/mol
# Density = 2.176101 g / cm^3
# Si number density = 21.810648 Si / 1000 Ang^3
#
#
#
# Elastic Constant Matrix: (Units=GPa)
#
#
# Indices 1 2 3 4 5 6 
#
# 1 31.9123 59.6989 25.2436 0.0000 -4.0983 0.0000
# 2 59.6989 161.2816 76.0961 0.0000 2.4714 0.0000
# 3 25.2436 76.0961 182.2117 0.0000 -5.1977 0.0000
# 4 0.0000 0.0000 0.0000 41.2666 0.0000 0.8035
# 5 -4.0983 2.4714 -5.1977 0.0000 31.2564 0.0000
# 6 0.0000 0.0000 0.0000 0.8035 0.0000 33.7784
#
#
#
# Elastic Compliance Matrix: (Units=1/GPa)
#
#
# Indices 1 2 3 4 5 6 
#
# 1 0.112332 -0.043308 0.003056 0.000000 0.018661 0.000000
# 2 -0.043308 0.024460 -0.004454 0.000000 -0.008353 0.000000
# 3 0.003056 -0.004454 0.006979 0.000000 0.001913 0.000000
# 4 0.000000 0.000000 0.000000 0.024244 0.000000 -0.000577
# 5 0.018661 -0.008353 0.001913 0.000000 0.035419 0.000000
# 6 0.000000 0.000000 0.000000 -0.000577 0.000000 0.029618
#
#
# Mechanical properties :
#
#
# Convention : Reuss Voigt Hill
#
# Bulk Modulus (GPa) = 18.39561 77.49810 47.94686
# Shear Modulus (GPa) = 14.68069 35.55141 25.11605
#
# Velocity S-wave (km/s) = 2.59723 4.04171 3.39713
# Velocity P-wave (km/s) = 4.17692 7.57561 6.11705
#
# Compressibility (1/GPa) = 0.05436080
#
# Stress axis : x y z
#
# Youngs Moduli (GPa) = 8.90219 40.88264 143.28291
#
# Poissons Ratio (x) = 1.77055 -0.43792
# Poissons Ratio (y) = 0.38554 0.63812
# Poissons Ratio (z) = -0.02721 0.18207
#
# Static dielectric constant tensor:
#      x y z
#    x 3.981270 0.000000 -0.170190 
#    y 0.000000 4.723060 0.000000 
#    z -0.170190 0.000000 4.350360 
# 
# 
# High freq. dielectric constant tensor:
#      x y z
#    x 1.823920 0.000000 -0.010950 
#    y 0.000000 1.875080 0.000000 
#    z -0.010950 0.000000 1.873970 
# 
# From -- ./inp_files/287539.got.cif
#   From: 2010.06.25/outbox.cif.g09.slc.cpg/sg15_144_cif.got.tgz:287539.got - 2010.06.28 07:06:18.
