data_PCOD8137367
_publ_section_title
;
Structure prediction by ZEFSAII (Michael W. Deem and Ramdas Pophale) SiO2 
 PCOD8137367
Probable space group: C 2/C
;
_chemical_formula_sum "Si O2"
_cell_formula_units_Z 40
_cell_length_a 7.652274
_cell_length_b 14.677990
_cell_length_c 16.959968
_cell_angle_alpha 90.000000
_cell_angle_beta 113.500710
_cell_angle_gamma 90.000000
_cell_volume 1746.938331
_symmetry_space_group_name_H-M "C 2/C"
_symmetry_group_IT_number 15
_symmetry_cell_setting 'monoclinic'
loop_
_space_group_symop_operation_xyz
x,y,z
-x,y,1/2-z
-x,-y,-z
x,-y,1/2+z
1/2+x,1/2+y,z
1/2-x,1/2+y,1/2-z
1/2-x,1/2-y,-z
1/2+x,1/2-y,1/2+z
loop_
_atom_site_type_symbol
_atom_site_label
_atom_site_fract_x
_atom_site_fract_y
_atom_site_fract_z
Si Si1 0.173531 0.808579 0.331468
Si Si2 0.483241 0.168836 0.091307
Si Si3 0.016252 0.586649 0.946937
Si Si4 0.812427 0.867961 0.768161
Si Si5 0.306898 0.477457 0.920337
O O1 0.076907 0.770721 0.394863
O O2 0.314954 0.892285 0.369735
O O3 0.286563 0.725977 0.310666
O O4 0.000000 0.848834 0.250000
O O5 0.627662 0.120645 0.179208
O O6 0.292087 0.108080 0.055126
O O7 0.568848 0.169891 0.017260
O O8 0.174183 0.568148 0.908049
O O9 0.000000 0.500000 0.000000
O O10 0.832344 0.953515 0.832054
O O11 0.000000 0.860957 0.750000
O O12 0.500000 0.500000 0.000000
#
# Coordination Sequence:
#
# PCOD8137367 Si02
#       5
#     8   8   8   8   8
#     4   9  19  38  63  91 122 160 213 262 305 370
#     4   9  19  38  62  86 121 167 209 255 310 370
#     4  10  20  37  59  91 125 160 197 251 321 380
#     4  10  20  39  63  87 119 170 217 260 309 364
#     4  10  20  36  57  87 123 159 204 256 312 372
#
# _framework density 22.897200000000002
#
# number of rings (size 3 to 8) (size 9 to 14) (size 15 to 20)
#    0.000    2.400    0.000    3.600    0.000    0.000 
#    0.000   37.000    0.000    0.000    0.000    0.000 
#    0.000    0.000    0.000    0.000    0.000    0.000 
#
# Total GULP energy -247812.228192 kJ/mol
# GULP energy per Si atom -12390.611410 kJ/mol
# Density = 2.284509 g / cm^3
# Si number density = 22.897200 Si / 1000 Ang^3
#
#
#
# Elastic Constant Matrix: (Units=GPa)
#
#
# Indices 1 2 3 4 5 6 
#
# 1 137.6988 56.7821 76.6393 0.0000 14.6929 0.0000
# 2 56.7821 64.5086 54.7419 0.0000 18.6332 0.0000
# 3 76.6393 54.7419 142.8891 0.0000 27.7592 0.0000
# 4 0.0000 0.0000 0.0000 26.8190 0.0000 15.8120
# 5 14.6929 18.6332 27.7592 0.0000 49.7782 0.0000
# 6 0.0000 0.0000 0.0000 15.8120 0.0000 38.4206
#
#
#
# Elastic Compliance Matrix: (Units=1/GPa)
#
#
# Indices 1 2 3 4 5 6 
#
# 1 0.012709 -0.008289 -0.003942 0.000000 0.001550 0.000000
# 2 -0.008289 0.029162 -0.005698 0.000000 -0.005292 0.000000
# 3 -0.003942 -0.005698 0.011950 0.000000 -0.003367 0.000000
# 4 0.000000 0.000000 0.000000 0.049233 0.000000 -0.020262
# 5 0.001550 -0.005292 -0.003367 0.000000 0.023490 0.000000
# 6 0.000000 0.000000 0.000000 -0.020262 0.000000 0.034366
#
#
# Mechanical properties :
#
#
# Convention : Reuss Voigt Hill
#
# Bulk Modulus (GPa) = 55.67234 80.15813 67.91523
# Shear Modulus (GPa) = 24.65998 33.46577 29.06288
#
# Velocity S-wave (km/s) = 3.28531 3.82719 3.56656
# Velocity P-wave (km/s) = 6.22558 7.39011 6.83270
#
# Compressibility (1/GPa) = 0.01796224
#
# Stress axis : x y z
#
# Youngs Moduli (GPa) = 78.68399 34.29082 83.68226
#
# Poissons Ratio (x) = 0.28425 0.32987
# Poissons Ratio (y) = 0.65224 0.47684
# Poissons Ratio (z) = 0.31017 0.19540
#
# Static dielectric constant tensor:
#      x y z
#    x 4.542380 0.000000 -0.446740 
#    y 0.000000 3.973980 0.000000 
#    z -0.446740 0.000000 4.650180 
# 
# 
# High freq. dielectric constant tensor:
#      x y z
#    x 1.902950 0.000000 0.000290 
#    y 0.000000 1.875550 0.000000 
#    z 0.000290 0.000000 1.916600 
# 
# From -- ./inp_files/189033.got.cif
#   From: 2010.06.25/outbox.cif.g09.slc.cpg/sg15_95_cif.got.tgz:189033.got - 2010.06.28 07:06:18.
