data_PCOD8137547
_publ_section_title
;
Structure prediction by ZEFSAII (Michael W. Deem and Ramdas Pophale) SiO2 
 PCOD8137547
Probable space group: C 2/C
;
_chemical_formula_sum "Si O2"
_cell_formula_units_Z 52
_cell_length_a 24.451325
_cell_length_b 12.085987
_cell_length_c 8.570421
_cell_angle_alpha 90.000000
_cell_angle_beta 86.094453
_cell_angle_gamma 90.000000
_cell_volume 2526.835312
_symmetry_space_group_name_H-M "C 2/C"
_symmetry_group_IT_number 15
_symmetry_cell_setting 'monoclinic'
loop_
_space_group_symop_operation_xyz
x,y,z
-x,y,1/2-z
-x,-y,-z
x,-y,1/2+z
1/2+x,1/2+y,z
1/2-x,1/2+y,1/2-z
1/2-x,1/2-y,-z
1/2+x,1/2-y,1/2+z
loop_
_atom_site_type_symbol
_atom_site_label
_atom_site_fract_x
_atom_site_fract_y
_atom_site_fract_z
Si Si1 0.000000 0.462074 0.250000
Si Si2 0.744888 0.002525 0.061883
Si Si3 0.572861 0.542911 0.643645
Si Si4 0.691174 0.620260 0.698405
Si Si5 0.437015 0.123161 0.037835
Si Si6 0.184813 0.630974 0.327287
Si Si7 0.529925 0.633402 0.958740
O O1 0.032373 0.534013 0.366123
O O2 0.955220 0.388678 0.352803
O O3 0.695241 0.048831 0.178805
O O4 0.795018 0.960336 0.159421
O O5 0.763766 0.104035 0.946804
O O6 0.726905 0.897870 0.958723
O O7 0.635254 0.582956 0.625633
O O8 0.552395 0.552626 0.821919
O O9 0.536195 0.618094 0.530203
O O10 0.562336 0.412594 0.604178
O O11 0.690575 0.744633 0.763405
O O12 0.373275 0.107644 0.081681
O O13 0.454883 0.243409 0.089192
#
# Coordination Sequence:
#
# PCOD8137547 Si02
#       7
#     4   8   8   8   8   8   8
#     4  10  24  40  62  90 124 156 218 248 298 376
#     4  10  24  40  61  93 127 159 219 258 297 374
#     4  10  20  36  59  90 122 160 197 250 307 374
#     4  11  21  39  65  90 125 166 204 256 315 362
#     4  11  22  41  64  89 122 164 202 256 309 363
#     4  11  22  41  65  88 126 166 205 260 316 357
#     4  10  21  37  61  90 126 156 202 250 311 373
#
# _framework density 20.579101000000001
#
# number of rings (size 3 to 8) (size 9 to 14) (size 15 to 20)
#    0.000    1.538    1.538    3.692    0.000    2.462 
#    0.000    0.000    3.385    0.000    0.000    0.000 
#    0.000    0.000    0.000    0.000    0.000    0.000 
#
# Total GULP energy -322175.705069 kJ/mol
# GULP energy per Si atom -12391.373272 kJ/mol
# Density = 2.053226 g / cm^3
# Si number density = 20.579101 Si / 1000 Ang^3
#
#
#
# Elastic Constant Matrix: (Units=GPa)
#
#
# Indices 1 2 3 4 5 6 
#
# 1 133.3315 45.0118 54.8222 0.0000 -7.2551 0.0000
# 2 45.0118 89.4831 46.0634 0.0000 -2.1466 0.0000
# 3 54.8222 46.0634 124.4465 0.0000 -13.6659 0.0000
# 4 0.0000 0.0000 0.0000 33.3654 0.0000 -3.3607
# 5 -7.2551 -2.1466 -13.6659 0.0000 31.6833 0.0000
# 6 0.0000 0.0000 0.0000 -3.3607 0.0000 27.9801
#
#
#
# Elastic Compliance Matrix: (Units=1/GPa)
#
#
# Indices 1 2 3 4 5 6 
#
# 1 0.009942 -0.003423 -0.003032 0.000000 0.000737 0.000000
# 2 -0.003423 0.015038 -0.004233 0.000000 -0.001591 0.000000
# 3 -0.003032 -0.004233 0.011369 0.000000 0.003923 0.000000
# 4 0.000000 0.000000 0.000000 0.030338 0.000000 0.003644
# 5 0.000737 -0.001591 0.003923 0.000000 0.033315 0.000000
# 6 0.000000 0.000000 0.000000 0.003644 0.000000 0.036177
#
#
# Mechanical properties :
#
#
# Convention : Reuss Voigt Hill
#
# Bulk Modulus (GPa) = 66.78493 71.00620 68.89556
# Shear Modulus (GPa) = 30.76034 32.03002 31.39518
#
# Velocity S-wave (km/s) = 3.87038 3.94945 3.91011
# Velocity P-wave (km/s) = 7.24544 7.44154 7.34414
#
# Compressibility (1/GPa) = 0.01497344
#
# Stress axis : x y z
#
# Youngs Moduli (GPa) = 100.57943 66.49853 87.95914
#
# Poissons Ratio (x) = 0.22761 0.26670
# Poissons Ratio (y) = 0.34426 0.37234
# Poissons Ratio (z) = 0.30496 0.28150
#
# Static dielectric constant tensor:
#      x y z
#    x 3.962130 0.000000 -0.054030 
#    y 0.000000 3.608050 0.000000 
#    z -0.054030 0.000000 4.033150 
# 
# 
# High freq. dielectric constant tensor:
#      x y z
#    x 1.804550 0.000000 -0.004860 
#    y 0.000000 1.795780 0.000000 
#    z -0.004860 0.000000 1.818210 
# 
# From -- ./inp_files/65171.got.cif
#   From: 2010.06.25/outbox.cif.g09.slc.cpg/sg15_33_cif.got.tgz:65171.got - 2010.06.28 07:06:18.
