data_PCOD8137108
_publ_section_title
;
Structure prediction by ZEFSAII (Michael W. Deem and Ramdas Pophale) SiO2 
 PCOD8137108
Probable space group: C 2/C
;
_chemical_formula_sum "Si O2"
_cell_formula_units_Z 64
_cell_length_a 13.562043
_cell_length_b 18.210863
_cell_length_c 22.407779
_cell_angle_alpha 90.000000
_cell_angle_beta 149.074282
_cell_angle_gamma 90.000000
_cell_volume 2844.168656
_symmetry_space_group_name_H-M "C 2/C"
_symmetry_group_IT_number 15
_symmetry_cell_setting 'monoclinic'
loop_
_space_group_symop_operation_xyz
x,y,z
-x,y,1/2-z
-x,-y,-z
x,-y,1/2+z
1/2+x,1/2+y,z
1/2-x,1/2+y,1/2-z
1/2-x,1/2-y,-z
1/2+x,1/2-y,1/2+z
loop_
_atom_site_type_symbol
_atom_site_label
_atom_site_fract_x
_atom_site_fract_y
_atom_site_fract_z
Si Si1 0.982002 0.907031 0.304252
Si Si2 0.157345 0.322088 0.980099
Si Si3 0.614317 0.845646 0.420416
Si Si4 0.257634 0.150168 0.223011
Si Si5 0.979146 0.190690 0.172192
Si Si6 0.587077 0.509558 0.621187
Si Si7 0.340715 0.202684 0.884040
Si Si8 0.189481 0.526930 0.872083
O O1 0.187471 0.887100 0.438434
O O2 0.000000 0.949448 0.250000
O O3 0.864363 0.958635 0.288537
O O4 0.869324 0.831709 0.232836
O O5 0.987422 0.351320 0.849050
O O6 0.250000 0.250000 0.000000
O O7 0.081649 0.308167 0.008447
O O8 0.596000 0.774147 0.369358
O O9 0.475296 0.838295 0.405451
O O10 0.584959 0.912916 0.359893
O O11 0.827488 0.858373 0.556844
O O12 0.184661 0.177783 0.249462
O O13 0.180188 0.209982 0.135555
O O14 0.170200 0.072537 0.158004
O O15 0.000000 0.163496 0.250000
O O16 0.693156 0.558027 0.625232
O O17 0.354997 0.516753 0.493421
O O18 0.000000 0.481113 0.750000
#
# Coordination Sequence:
#
# PCOD8137108 Si02
#       8
#     8   8   8   8   8   8   8   8
#     4  10  23  46  67  97 138 181 228 286 345 412
#     4  11  23  42  72 103 131 180 230 283 354 400
#     4  10  20  39  62  93 130 173 223 269 341 407
#     4  11  23  43  66 103 136 170 231 287 334 411
#     4  10  20  35  60  94 133 170 216 279 336 395
#     4  11  26  45  66 102 138 181 234 282 349 419
#     4  10  22  43  69  98 136 173 225 286 340 410
#     4  11  24  44  66  93 135 183 225 275 343 412
#
# _framework density 22.502182000000001
#
# number of rings (size 3 to 8) (size 9 to 14) (size 15 to 20)
#    0.000    1.500    2.500    1.875    1.750    3.500 
#    6.750    1.250    0.000    0.000    0.000    0.000 
#    0.000    0.000    0.000    0.000    0.000    0.000 
#
# Total GULP energy -396541.004400 kJ/mol
# GULP energy per Si atom -12391.906388 kJ/mol
# Density = 2.245097 g / cm^3
# Si number density = 22.502182 Si / 1000 Ang^3
#
#
#
# Elastic Constant Matrix: (Units=GPa)
#
#
# Indices 1 2 3 4 5 6 
#
# 1 122.9985 34.2549 15.8080 0.0015 -19.9010 -0.0002
# 2 34.2549 59.8325 20.1463 0.0005 -10.6200 -0.0007
# 3 15.8080 20.1463 109.9173 0.0021 12.9199 0.0004
# 4 0.0015 0.0005 0.0021 16.4834 0.0010 1.0983
# 5 -19.9010 -10.6200 12.9199 0.0010 40.0350 0.0000
# 6 -0.0002 -0.0007 0.0004 1.0983 0.0000 26.9359
#
#
#
# Elastic Compliance Matrix: (Units=1/GPa)
#
#
# Indices 1 2 3 4 5 6 
#
# 1 0.010279 -0.004770 -0.001097 -0.000001 0.004198 0.000000
# 2 -0.004770 0.021533 -0.003798 0.000000 0.004566 0.000001
# 3 -0.001097 -0.003798 0.010534 -0.000001 -0.004952 0.000000
# 4 -0.000001 0.000000 -0.000001 0.060832 -0.000002 -0.002480
# 5 0.004198 0.004566 -0.004952 -0.000002 0.029875 0.000000
# 6 0.000000 0.000001 0.000000 -0.002480 0.000000 0.037226
#
#
# Mechanical properties :
#
#
# Convention : Reuss Voigt Hill
#
# Bulk Modulus (GPa) = 43.44816 48.12964 45.78890
# Shear Modulus (GPa) = 25.34448 31.52682 28.43565
#
# Velocity S-wave (km/s) = 3.35970 3.74713 3.55869
# Velocity P-wave (km/s) = 5.86519 6.33692 6.10561
#
# Compressibility (1/GPa) = 0.02301594
#
# Stress axis : x y z
#
# Youngs Moduli (GPa) = 97.28566 46.43932 94.93316
#
# Poissons Ratio (x) = 0.22152 0.10419
# Poissons Ratio (y) = 0.46406 0.36051
# Poissons Ratio (z) = 0.10677 0.17635
#
# Static dielectric constant tensor:
#      x y z
#    x 4.335640 0.000000 0.035890 
#    y 0.000000 3.548610 -0.000010 
#    z 0.035890 -0.000010 4.174450 
# 
# 
# High freq. dielectric constant tensor:
#      x y z
#    x 1.905650 0.000000 0.000930 
#    y 0.000000 1.848950 0.000000 
#    z 0.000930 0.000000 1.898400 
# 
# From -- ./inp_files/274858.got.cif
#   From: 2010.06.25/outbox.cif.g09.slc.cpg/sg15_138_cif.got.tgz:274858.got - 2010.06.28 07:06:18.
