data_PCOD8137352
_publ_section_title
;
Structure prediction by ZEFSAII (Michael W. Deem and Ramdas Pophale) SiO2 
 PCOD8137352
Probable space group: C 2/C
;
_chemical_formula_sum "Si O2"
_cell_formula_units_Z 52
_cell_length_a 19.690304
_cell_length_b 30.796393
_cell_length_c 8.254054
_cell_angle_alpha 90.000000
_cell_angle_beta 29.218860
_cell_angle_gamma 90.000000
_cell_volume 2443.262783
_symmetry_space_group_name_H-M "C 2/C"
_symmetry_group_IT_number 15
_symmetry_cell_setting 'monoclinic'
loop_
_space_group_symop_operation_xyz
x,y,z
-x,y,1/2-z
-x,-y,-z
x,-y,1/2+z
1/2+x,1/2+y,z
1/2-x,1/2+y,1/2-z
1/2-x,1/2-y,-z
1/2+x,1/2-y,1/2+z
loop_
_atom_site_type_symbol
_atom_site_label
_atom_site_fract_x
_atom_site_fract_y
_atom_site_fract_z
Si Si1 0.847127 0.953180 0.863974
Si Si2 0.661154 0.874147 0.230677
Si Si3 0.748199 0.211335 0.378042
Si Si4 0.832508 0.792457 0.371943
Si Si5 0.158723 0.625852 0.120163
Si Si6 0.000000 0.757652 0.750000
Si Si7 0.840951 0.953813 0.259828
O O1 0.007243 0.945080 0.475115
O O2 0.787846 0.999100 0.925913
O O3 0.745741 0.916860 0.999693
O O4 0.846997 0.952640 0.055731
O O5 0.503460 0.876081 0.493255
O O6 0.669285 0.869600 0.405898
O O7 0.738828 0.833392 0.992320
O O8 0.750000 0.250000 0.500000
O O9 0.618212 0.222678 0.536634
O O10 0.871444 0.208245 0.984398
O O11 0.750000 0.750000 0.500000
O O12 0.737918 0.834004 0.533265
O O13 0.969602 0.789679 0.969452
O O14 0.231400 0.582820 0.042171
#
# Coordination Sequence:
#
# PCOD8137352 Si02
#       7
#     8   8   8   8   8   4   8
#     4   9  19  36  57  79 111 148 191 241 294 351
#     4  10  20  36  57  84 116 154 196 242 294 354
#     4  11  23  38  58  86 119 156 199 245 296 353
#     4  10  21  38  58  83 115 155 196 241 292 346
#     4  10  21  36  57  83 116 155 197 242 295 352
#     4  10  22  40  60  82 118 158 202 248 294 350
#     4   9  19  36  56  80 109 148 191 241 295 349
#
# _framework density 21.283014999999999
#
# number of rings (size 3 to 8) (size 9 to 14) (size 15 to 20)
#    0.000    2.154    0.000    3.692    0.000    7.385 
#    0.000    0.000    0.000    0.000    0.000    0.000 
#    0.000    0.000    0.000    0.000    0.000    0.000 
#
# Total GULP energy -322164.432514 kJ/mol
# GULP energy per Si atom -12390.939712 kJ/mol
# Density = 2.123457 g / cm^3
# Si number density = 21.283015 Si / 1000 Ang^3
#
#
#
# Elastic Constant Matrix: (Units=GPa)
#
#
# Indices 1 2 3 4 5 6 
#
# 1 36.7510 37.5778 22.3827 0.0000 7.3110 0.0000
# 2 37.5778 186.1659 57.6804 0.0000 -2.5081 0.0000
# 3 22.3827 57.6804 89.0156 0.0000 10.6580 0.0000
# 4 0.0000 0.0000 0.0000 35.1244 0.0000 -1.7456
# 5 7.3110 -2.5081 10.6580 0.0000 25.6759 0.0000
# 6 0.0000 0.0000 0.0000 -1.7456 0.0000 41.7347
#
#
#
# Elastic Compliance Matrix: (Units=1/GPa)
#
#
# Indices 1 2 3 4 5 6 
#
# 1 0.038482 -0.006591 -0.004226 0.000000 -0.009847 0.000000
# 2 -0.006591 0.008018 -0.004058 0.000000 0.004345 0.000000
# 3 -0.004226 -0.004058 0.015605 0.000000 -0.005671 0.000000
# 4 0.000000 0.000000 0.000000 0.028530 0.000000 0.001193
# 5 -0.009847 0.004345 -0.005671 0.000000 0.044529 0.000000
# 6 0.000000 0.000000 0.000000 0.001193 0.000000 0.024011
#
#
# Mechanical properties :
#
#
# Convention : Reuss Voigt Hill
#
# Bulk Modulus (GPa) = 30.90797 60.80159 45.85478
# Shear Modulus (GPa) = 25.03618 33.45978 29.24798
#
# Velocity S-wave (km/s) = 3.43351 3.96932 3.71110
# Velocity P-wave (km/s) = 5.50205 7.04539 6.32100
#
# Compressibility (1/GPa) = 0.03235411
#
# Stress axis : x y z
#
# Youngs Moduli (GPa) = 25.98605 124.72150 64.08031
#
# Poissons Ratio (x) = 0.82202 0.27084
# Poissons Ratio (y) = 0.17127 0.26006
# Poissons Ratio (z) = 0.10983 0.50616
#
# Static dielectric constant tensor:
#      x y z
#    x 4.147270 0.000000 0.283550 
#    y 0.000000 3.516000 0.000000 
#    z 0.283550 0.000000 4.928170 
# 
# 
# High freq. dielectric constant tensor:
#      x y z
#    x 1.831690 0.000000 0.005150 
#    y 0.000000 1.838250 0.000000 
#    z 0.005150 0.000000 1.833630 
# 
# From -- ./inp_files/59304.got.cif
#   From: 2010.06.25/outbox.cif.g09.slc.cpg/sg15_30_cif.got.tgz:59304.got - 2010.06.28 07:06:18.
