data_PCOD8137019
_publ_section_title
;
Structure prediction by ZEFSAII (Michael W. Deem and Ramdas Pophale) SiO2 
 PCOD8137019
Probable space group: C 2/C
;
_chemical_formula_sum "Si O2"
_cell_formula_units_Z 40
_cell_length_a 15.705488
_cell_length_b 6.719946
_cell_length_c 19.091792
_cell_angle_alpha 90.000000
_cell_angle_beta 111.579912
_cell_angle_gamma 90.000000
_cell_volume 1873.711517
_symmetry_space_group_name_H-M "C 2/C"
_symmetry_group_IT_number 15
_symmetry_cell_setting 'monoclinic'
loop_
_space_group_symop_operation_xyz
x,y,z
-x,y,1/2-z
-x,-y,-z
x,-y,1/2+z
1/2+x,1/2+y,z
1/2-x,1/2+y,1/2-z
1/2-x,1/2-y,-z
1/2+x,1/2-y,1/2+z
loop_
_atom_site_type_symbol
_atom_site_label
_atom_site_fract_x
_atom_site_fract_y
_atom_site_fract_z
Si Si1 0.106376 0.384077 0.578375
Si Si2 0.506451 0.453869 0.420511
Si Si3 0.853117 0.258677 0.055231
Si Si4 0.848864 0.223921 0.334360
Si Si5 0.278991 0.885236 0.168843
O O1 0.019286 0.281688 0.592813
O O2 0.090045 0.372218 0.488838
O O3 0.118145 0.613038 0.600035
O O4 0.198160 0.267837 0.627522
O O5 0.500000 0.500000 0.500000
O O6 0.605539 0.532206 0.423416
O O7 0.431530 0.569987 0.351156
O O8 0.855160 0.375302 0.129894
O O9 0.750000 0.250000 0.000000
O O10 0.829124 0.327129 0.255074
O O11 0.759111 0.109985 0.336409
#
# Coordination Sequence:
#
# PCOD8137019 Si02
#       5
#     8   8   8   8   8
#     4   9  19  37  60  84 115 159 201 250 313 372
#     4   9  20  37  58  85 117 157 203 253 315 371
#     4   9  19  37  58  82 117 155 205 258 301 365
#     4  11  20  35  62  84 121 162 206 253 316 384
#     4  10  20  35  58  87 117 159 205 250 312 371
#
# _framework density 21.348005000000001
#
# number of rings (size 3 to 8) (size 9 to 14) (size 15 to 20)
#    0.000    2.400    2.000    1.200    0.000    4.800 
#    0.000    4.000    0.000    4.800    0.000    0.000 
#    0.000    0.000    0.000    0.000    0.000    0.000 
#
# Total GULP energy -247762.854983 kJ/mol
# GULP energy per Si atom -12388.142749 kJ/mol
# Density = 2.129942 g / cm^3
# Si number density = 21.348005 Si / 1000 Ang^3
#
#
#
# Elastic Constant Matrix: (Units=GPa)
#
#
# Indices 1 2 3 4 5 6 
#
# 1 98.1623 51.2545 39.2733 0.0000 -6.7635 0.0000
# 2 51.2545 116.7302 38.1067 0.0000 -9.5062 0.0000
# 3 39.2733 38.1067 81.3355 0.0000 -11.0516 0.0000
# 4 0.0000 0.0000 0.0000 35.7620 0.0000 12.6706
# 5 -6.7635 -9.5062 -11.0516 0.0000 32.6303 0.0000
# 6 0.0000 0.0000 0.0000 12.6706 0.0000 42.0529
#
#
#
# Elastic Compliance Matrix: (Units=1/GPa)
#
#
# Indices 1 2 3 4 5 6 
#
# 1 0.014645 -0.004866 -0.004792 0.000000 -0.000005 0.000000
# 2 -0.004866 0.011793 -0.002983 0.000000 0.001417 0.000000
# 3 -0.004792 -0.002983 0.016513 0.000000 0.003731 0.000000
# 4 0.000000 0.000000 0.000000 0.031304 0.000000 -0.009432
# 5 -0.000005 0.001417 0.003731 0.000000 0.032322 0.000000
# 6 0.000000 0.000000 0.000000 -0.009432 0.000000 0.026621
#
#
# Mechanical properties :
#
#
# Convention : Reuss Voigt Hill
#
# Bulk Modulus (GPa) = 56.59933 61.49967 59.04950
# Shear Modulus (GPa) = 30.41911 33.26193 31.84052
#
# Velocity S-wave (km/s) = 3.77890 3.95154 3.86618
# Velocity P-wave (km/s) = 6.75355 7.04913 6.90292
#
# Compressibility (1/GPa) = 0.01766805
#
# Stress axis : x y z
#
# Youngs Moduli (GPa) = 68.28217 84.79865 60.55821
#
# Poissons Ratio (x) = 0.41267 0.29021
# Poissons Ratio (y) = 0.33229 0.18063
# Poissons Ratio (z) = 0.32722 0.25293
#
# Static dielectric constant tensor:
#      x y z
#    x 4.218260 0.000000 -0.154970 
#    y 0.000000 4.002460 0.000000 
#    z -0.154970 0.000000 4.258030 
# 
# 
# High freq. dielectric constant tensor:
#      x y z
#    x 1.816330 0.000000 0.018300 
#    y 0.000000 1.827860 0.000000 
#    z 0.018300 0.000000 1.841960 
# 
# From -- ./inp_files/246301.got.cif
#   From: 2010.06.25/outbox.cif.g09.slc.cpg/sg15_124_cif.got.tgz:246301.got - 2010.06.28 07:06:18.
