data_PCOD8137026
_publ_section_title
;
Structure prediction by ZEFSAII (Michael W. Deem and Ramdas Pophale) SiO2 
 PCOD8137026
Probable space group: C 2/C
;
_chemical_formula_sum "Si O2"
_cell_formula_units_Z 40
_cell_length_a 11.696062
_cell_length_b 28.683178
_cell_length_c 8.841603
_cell_angle_alpha 90.000000
_cell_angle_beta 40.891733
_cell_angle_gamma 90.000000
_cell_volume 1941.757556
_symmetry_space_group_name_H-M "C 2/C"
_symmetry_group_IT_number 15
_symmetry_cell_setting 'monoclinic'
loop_
_space_group_symop_operation_xyz
x,y,z
-x,y,1/2-z
-x,-y,-z
x,-y,1/2+z
1/2+x,1/2+y,z
1/2-x,1/2+y,1/2-z
1/2-x,1/2-y,-z
1/2+x,1/2-y,1/2+z
loop_
_atom_site_type_symbol
_atom_site_label
_atom_site_fract_x
_atom_site_fract_y
_atom_site_fract_z
Si Si1 0.803094 0.607783 0.120152
Si Si2 0.803096 0.392218 0.273656
Si Si3 0.295872 0.698845 0.126536
Si Si4 0.704129 0.698845 0.718278
Si Si5 0.500001 0.449550 0.428150
O O1 0.802545 0.661461 0.172359
O O2 0.674365 0.577476 0.350562
O O3 0.741162 0.604676 0.008837
O O4 0.999999 0.588404 0.941607
O O5 0.802546 0.338539 0.222548
O O6 0.674369 0.422525 0.300702
O O7 0.250001 0.750000 0.235681
O O8 0.500001 0.688831 0.932338
O O9 0.228456 0.694404 0.021545
O O10 0.500000 0.454722 0.250000
O O11 0.500000 0.500000 0.500000
#
# Coordination Sequence:
#
# PCOD8137026 Si02
#       5
#     8   8   8   8   8
#     4  11  24  42  65  95 132 172 214 265 323 385
#     4  11  24  42  65  95 132 172 214 265 323 385
#     4  10  20  35  58  90 128 173 219 265 318 380
#     4  10  20  35  58  90 128 173 219 265 318 380
#     4  12  26  46  72  98 128 168 214 270 329 386
#
# _framework density 20.599893000000002
#
# number of rings (size 3 to 8) (size 9 to 14) (size 15 to 20)
#    0.000    1.200    2.000    4.200    0.000    6.400 
#    0.000    0.000    0.000    0.000    0.000    0.000 
#    0.000    0.000    0.000    0.000    0.000    0.000 
#
# Total GULP energy -248111.226149 kJ/mol
# GULP energy per Si atom -12405.561307 kJ/mol
# Density = 2.055301 g / cm^3
# Si number density = 20.599893 Si / 1000 Ang^3
#
#
#
# Elastic Constant Matrix: (Units=GPa)
#
#
# Indices 1 2 3 4 5 6 
#
# 1 111.4112 54.1161 67.6571 0.0000 12.5157 0.0000
# 2 54.1161 136.7733 51.1429 0.0000 9.8459 0.0000
# 3 67.6571 51.1429 105.2386 0.0000 7.9195 0.0000
# 4 0.0000 0.0000 0.0000 31.0745 0.0000 8.3479
# 5 12.5157 9.8459 7.9195 0.0000 35.2240 0.0000
# 6 0.0000 0.0000 0.0000 8.3479 0.0000 33.5926
#
#
#
# Elastic Compliance Matrix: (Units=1/GPa)
#
#
# Indices 1 2 3 4 5 6 
#
# 1 0.015940 -0.002868 -0.008634 0.000000 -0.002921 0.000000
# 2 -0.002868 0.009535 -0.002712 0.000000 -0.001036 0.000000
# 3 -0.008634 -0.002712 0.016360 0.000000 0.000148 0.000000
# 4 0.000000 0.000000 0.000000 0.034483 0.000000 -0.008569
# 5 -0.002921 -0.001036 0.000148 0.000000 0.029684 0.000000
# 6 0.000000 0.000000 0.000000 -0.008569 0.000000 0.031898
#
#
# Mechanical properties :
#
#
# Convention : Reuss Voigt Hill
#
# Bulk Modulus (GPa) = 74.58983 77.69504 76.14244
# Shear Modulus (GPa) = 29.27447 32.01202 30.64324
#
# Velocity S-wave (km/s) = 3.77384 3.94634 3.86105
# Velocity P-wave (km/s) = 7.43482 7.65264 7.54452
#
# Compressibility (1/GPa) = 0.01340665
#
# Stress axis : x y z
#
# Youngs Moduli (GPa) = 62.73332 104.87924 61.12517
#
# Poissons Ratio (x) = 0.30081 0.52778
# Poissons Ratio (y) = 0.17993 0.16575
# Poissons Ratio (z) = 0.54166 0.28440
#
# Static dielectric constant tensor:
#      x y z
#    x 3.746290 0.000000 -0.004710 
#    y 0.000000 3.807750 0.000000 
#    z -0.004710 0.000000 3.747700 
# 
# 
# High freq. dielectric constant tensor:
#      x y z
#    x 1.811070 0.000000 -0.006930 
#    y 0.000000 1.805630 0.000000 
#    z -0.006930 0.000000 1.813160 
# 
# From -- ./inp_files/35001.got.cif
#   From: 2010.06.25/outbox.cif.g09.slc.cpg/sg15_18_cif.got.tgz:35001.got - 2010.06.28 07:06:18.
