data_PCOD8137714
_publ_section_title
;
Structure prediction by ZEFSAII (Michael W. Deem and Ramdas Pophale) SiO2 
 PCOD8137714
Probable space group: C 2/C
;
_chemical_formula_sum "Si O2"
_cell_formula_units_Z 44
_cell_length_a 21.047851
_cell_length_b 13.160754
_cell_length_c 15.150641
_cell_angle_alpha 90.000000
_cell_angle_beta 150.370667
_cell_angle_gamma 90.000000
_cell_volume 2074.849186
_symmetry_space_group_name_H-M "C 2/C"
_symmetry_group_IT_number 15
_symmetry_cell_setting 'monoclinic'
loop_
_space_group_symop_operation_xyz
x,y,z
-x,y,1/2-z
-x,-y,-z
x,-y,1/2+z
1/2+x,1/2+y,z
1/2-x,1/2+y,1/2-z
1/2-x,1/2-y,-z
1/2+x,1/2-y,1/2+z
loop_
_atom_site_type_symbol
_atom_site_label
_atom_site_fract_x
_atom_site_fract_y
_atom_site_fract_z
Si Si1 0.601161 0.252900 0.792082
Si Si2 0.000000 0.654187 0.250000
Si Si3 0.213895 0.578944 0.626528
Si Si4 0.541835 0.886201 0.069331
Si Si5 0.564911 0.276207 0.165934
Si Si6 0.399626 0.410028 0.864843
O O1 0.500000 0.263470 0.750000
O O2 0.572682 0.145990 0.706910
O O3 0.578511 0.349440 0.700430
O O4 0.750000 0.250000 0.000000
O O5 0.926518 0.731424 0.226131
O O6 0.093745 0.578465 0.415016
O O7 0.172112 0.629368 0.668687
O O8 0.321730 0.645577 0.710787
O O9 0.258408 0.461636 0.694882
O O10 0.426077 0.815920 0.893212
O O11 0.500000 0.000000 0.000000
O O12 0.426913 0.332567 0.979104
O O13 0.500000 0.500000 0.000000
#
# Coordination Sequence:
#
# PCOD8137714 Si02
#       6
#     8   4   8   8   8   8
#     4  11  27  45  69 102 140 176 226 287 341 397
#     4  10  20  36  62 100 124 162 208 280 322 374
#     4  10  21  39  65  92 130 167 219 269 333 397
#     4  10  24  40  66  92 127 178 220 272 337 399
#     4   9  20  40  63  90 129 165 214 262 332 389
#     4   9  21  43  67  88 130 178 217 264 327 413
#
# _framework density 21.206361000000001
#
# number of rings (size 3 to 8) (size 9 to 14) (size 15 to 20)
#    0.000    2.182    0.000    0.545   10.182    5.818 
#    8.182    0.000    0.000    0.000    0.000    0.000 
#    0.000    0.000    0.000    0.000    0.000    0.000 
#
# Total GULP energy -272539.488566 kJ/mol
# GULP energy per Si atom -12388.158571 kJ/mol
# Density = 2.115809 g / cm^3
# Si number density = 21.206361 Si / 1000 Ang^3
#
#
#
# Elastic Constant Matrix: (Units=GPa)
#
#
# Indices 1 2 3 4 5 6 
#
# 1 89.5773 8.3974 40.2822 0.0000 -6.5163 0.0000
# 2 8.3974 108.1677 42.4410 0.0000 -4.2580 0.0000
# 3 40.2822 42.4410 102.5828 0.0000 -0.9088 0.0000
# 4 0.0000 0.0000 0.0000 46.7171 0.0000 3.4860
# 5 -6.5163 -4.2580 -0.9088 0.0000 31.3591 0.0000
# 6 0.0000 0.0000 0.0000 3.4860 0.0000 27.6848
#
#
#
# Elastic Compliance Matrix: (Units=1/GPa)
#
#
# Indices 1 2 3 4 5 6 
#
# 1 0.013958 0.001399 -0.006034 0.000000 0.002915 0.000000
# 2 0.001399 0.011235 -0.005183 0.000000 0.001666 0.000000
# 3 -0.006034 -0.005183 0.014248 0.000000 -0.001545 0.000000
# 4 0.000000 0.000000 0.000000 0.021608 0.000000 -0.002721
# 5 0.002915 0.001666 -0.001545 0.000000 0.032676 0.000000
# 6 0.000000 0.000000 0.000000 -0.002721 0.000000 0.036463
#
#
# Mechanical properties :
#
#
# Convention : Reuss Voigt Hill
#
# Bulk Modulus (GPa) = 50.49115 53.61880 52.05497
# Shear Modulus (GPa) = 31.96376 35.09936 33.53156
#
# Velocity S-wave (km/s) = 3.88657 4.07275 3.98075
# Velocity P-wave (km/s) = 6.63338 6.88880 6.76229
#
# Compressibility (1/GPa) = 0.01980545
#
# Stress axis : x y z
#
# Youngs Moduli (GPa) = 71.64421 89.00395 70.18457
#
# Poissons Ratio (x) = -0.12448 0.42348
# Poissons Ratio (y) = -0.10020 0.36375
# Poissons Ratio (z) = 0.43229 0.46129
#
# Static dielectric constant tensor:
#      x y z
#    x 3.950360 0.000000 0.010610 
#    y 0.000000 4.276460 0.000000 
#    z 0.010610 0.000000 4.164930 
# 
# 
# High freq. dielectric constant tensor:
#      x y z
#    x 1.816420 0.000000 -0.005870 
#    y 0.000000 1.847210 0.000000 
#    z -0.005870 0.000000 1.837380 
# 
# From -- ./inp_files/168531.got.cif
#   From: 2010.06.25/outbox.cif.g09.slc.cpg/sg15_85_cif.got.tgz:168531.got - 2010.06.28 07:06:18.
