data_PCOD8137071
_publ_section_title
;
Structure prediction by ZEFSAII (Michael W. Deem and Ramdas Pophale) SiO2 
 PCOD8137071
Probable space group: C 2/C
;
_chemical_formula_sum "Si O2"
_cell_formula_units_Z 64
_cell_length_a 12.028214
_cell_length_b 25.202043
_cell_length_c 14.844041
_cell_angle_alpha 90.000000
_cell_angle_beta 39.953152
_cell_angle_gamma 90.000000
_cell_volume 2889.568479
_symmetry_space_group_name_H-M "C 2/C"
_symmetry_group_IT_number 15
_symmetry_cell_setting 'monoclinic'
loop_
_space_group_symop_operation_xyz
x,y,z
-x,y,1/2-z
-x,-y,-z
x,-y,1/2+z
1/2+x,1/2+y,z
1/2-x,1/2+y,1/2-z
1/2-x,1/2-y,-z
1/2+x,1/2-y,1/2+z
loop_
_atom_site_type_symbol
_atom_site_label
_atom_site_fract_x
_atom_site_fract_y
_atom_site_fract_z
Si Si1 0.670741 0.725244 0.188217
Si Si2 0.404202 0.152075 0.528722
Si Si3 0.733038 0.388049 0.691965
Si Si4 0.606335 0.890927 0.267134
Si Si5 0.534033 0.264472 0.962967
Si Si6 0.842884 0.926973 0.410406
Si Si7 0.387235 0.022295 0.989711
Si Si8 0.494318 0.383061 0.494964
O O1 0.500000 0.750125 0.250000
O O2 0.679661 0.662203 0.163245
O O3 0.667649 0.732878 0.297790
O O4 0.839182 0.755127 0.045632
O O5 0.577073 0.124120 0.383009
O O6 0.401268 0.145570 0.639260
O O7 0.409444 0.215709 0.506779
O O8 0.240066 0.125961 0.582412
O O9 0.741159 0.438288 0.620622
O O10 0.597796 0.399159 0.855111
O O11 0.500000 0.864249 0.250000
O O12 0.516749 0.947783 0.341400
O O13 0.805725 0.898708 0.116122
O O14 0.533071 0.321038 0.013805
O O15 0.910021 0.916787 0.468278
O O16 0.000000 0.945266 0.250000
O O17 0.705419 0.974306 0.504014
O O18 0.500000 0.000000 0.000000
#
# Coordination Sequence:
#
# PCOD8137071 Si02
#       8
#     8   8   8   8   8   8   8   8
#     4  10  20  35  59  96 129 177 218 268 331 396
#     4  10  21  44  65  95 136 184 217 268 344 395
#     4   9  22  40  64  93 140 165 221 278 328 405
#     4  11  24  43  67  98 138 174 222 284 337 404
#     4  10  22  37  63  92 135 173 217 273 332 397
#     4  12  24  43  72  95 132 174 232 282 322 404
#     4  11  22  45  69  91 129 182 218 268 355 395
#     4  11  24  43  66 107 131 167 229 282 321 396
#
# _framework density 22.148636
#
# number of rings (size 3 to 8) (size 9 to 14) (size 15 to 20)
#    0.000    1.500    3.750    1.125    0.000   11.500 
#    0.000    1.875    0.000    0.000    0.000    0.000 
#    0.000    0.000    0.000    0.000    0.000    0.000 
#
# Total GULP energy -396795.437518 kJ/mol
# GULP energy per Si atom -12399.857422 kJ/mol
# Density = 2.209823 g / cm^3
# Si number density = 22.148636 Si / 1000 Ang^3
#
#
#
# Elastic Constant Matrix: (Units=GPa)
#
#
# Indices 1 2 3 4 5 6 
#
# 1 89.8280 23.0100 25.3201 -0.0010 -8.2911 -0.0007
# 2 23.0100 119.9819 30.6496 -0.0004 -4.0938 -0.0005
# 3 25.3201 30.6496 132.4113 -0.0009 -10.7595 -0.0005
# 4 -0.0010 -0.0004 -0.0009 28.5410 0.0007 -13.2994
# 5 -8.2911 -4.0938 -10.7595 0.0007 28.2529 0.0004
# 6 -0.0007 -0.0005 -0.0005 -13.2994 0.0004 8.3437
#
#
#
# Elastic Compliance Matrix: (Units=1/GPa)
#
#
# Indices 1 2 3 4 5 6 
#
# 1 0.012335 -0.001836 -0.001714 0.000002 0.002701 0.000005
# 2 -0.001836 0.009139 -0.001755 0.000000 0.000117 0.000001
# 3 -0.001714 -0.001755 0.008487 0.000001 0.002475 0.000001
# 4 0.000002 0.000000 0.000001 0.136198 -0.000006 0.217094
# 5 0.002701 0.000117 0.002475 -0.000006 0.037147 -0.000011
# 6 0.000005 0.000001 0.000001 0.217094 -0.000011 0.465891
#
#
# Mechanical properties :
#
#
# Convention : Reuss Voigt Hill
#
# Bulk Modulus (GPa) = 51.67488 55.57562 53.62525
# Shear Modulus (GPa) = 7.28590 30.57695 18.93142
#
# Velocity S-wave (km/s) = 1.81568 3.71958 2.92677
# Velocity P-wave (km/s) = 5.27041 6.60255 5.97373
#
# Compressibility (1/GPa) = 0.01935176
#
# Stress axis : x y z
#
# Youngs Moduli (GPa) = 81.06942 109.42245 117.82215
#
# Poissons Ratio (x) = 0.20085 0.20200
# Poissons Ratio (y) = 0.14880 0.20676
# Poissons Ratio (z) = 0.13899 0.19202
#
# Static dielectric constant tensor:
#      x y z
#    x 3.684490 0.000000 -0.217040 
#    y 0.000000 4.266650 0.000000 
#    z -0.217040 0.000000 4.164470 
# 
# 
# High freq. dielectric constant tensor:
#      x y z
#    x 1.842940 0.000000 -0.016800 
#    y 0.000000 1.877100 0.000000 
#    z -0.016800 0.000000 1.883060 
# 
# From -- ./inp_files/148745.got.cif
#   From: 2010.06.25/outbox.cif.g09.slc.cpg/sg15_75_cif.got.tgz:148745.got - 2010.06.28 07:06:18.
