data_PCOD8137528
_publ_section_title
;
Structure prediction by ZEFSAII (Michael W. Deem and Ramdas Pophale) SiO2 
 PCOD8137528
Probable space group: C 2/C
;
_chemical_formula_sum "Si O2"
_cell_formula_units_Z 48
_cell_length_a 8.769137
_cell_length_b 26.718687
_cell_length_c 10.595404
_cell_angle_alpha 90.000000
_cell_angle_beta 108.049462
_cell_angle_gamma 90.000000
_cell_volume 2360.335931
_symmetry_space_group_name_H-M "C 2/C"
_symmetry_group_IT_number 15
_symmetry_cell_setting 'monoclinic'
loop_
_space_group_symop_operation_xyz
x,y,z
-x,y,1/2-z
-x,-y,-z
x,-y,1/2+z
1/2+x,1/2+y,z
1/2-x,1/2+y,1/2-z
1/2-x,1/2-y,-z
1/2+x,1/2-y,1/2+z
loop_
_atom_site_type_symbol
_atom_site_label
_atom_site_fract_x
_atom_site_fract_y
_atom_site_fract_z
Si Si1 0.604546 0.007404 0.901783
Si Si2 0.314388 0.283609 0.200741
Si Si3 0.309443 0.589772 0.063032
Si Si4 0.802269 0.813415 0.929047
Si Si5 0.180800 0.078167 0.145915
Si Si6 0.818424 0.802813 0.472585
O O1 0.500000 0.010819 0.750000
O O2 0.732888 0.962689 0.919078
O O3 0.699188 0.059359 0.938499
O O4 0.500000 0.000000 0.000000
O O5 0.500000 0.295437 0.250000
O O6 0.283475 0.224010 0.190786
O O7 0.248601 0.308915 0.312116
O O8 0.234383 0.306916 0.054433
O O9 0.491753 0.578370 0.069834
O O10 0.279780 0.569778 0.196813
O O11 0.265568 0.648853 0.041007
O O12 0.750406 0.868116 0.873807
O O13 0.989994 0.800681 0.972703
O O14 0.750000 0.750000 0.500000
#
# Coordination Sequence:
#
# PCOD8137528 Si02
#       6
#     8   8   8   8   8   8
#     4  12  25  45  64  94 131 161 212 273 325 378
#     4   9  18  34  53  85 123 155 202 247 303 365
#     4  10  22  42  65  94 123 170 212 259 317 391
#     4   9  19  36  58  85 116 163 206 251 303 374
#     4  10  21  41  68  88 122 166 217 257 319 382
#     4  10  20  36  59  88 124 158 204 256 305 370
#
# _framework density 20.336088
#
# number of rings (size 3 to 8) (size 9 to 14) (size 15 to 20)
#    0.000    2.000    1.667    1.500    0.000    4.000 
#   12.000    1.667    0.000    0.000    0.000    0.000 
#    0.000    0.000    0.000    0.000    0.000    0.000 
#
# Total GULP energy -297493.654073 kJ/mol
# GULP energy per Si atom -12395.568920 kJ/mol
# Density = 2.028980 g / cm^3
# Si number density = 20.336088 Si / 1000 Ang^3
#
#
#
# Elastic Constant Matrix: (Units=GPa)
#
#
# Indices 1 2 3 4 5 6 
#
# 1 60.6640 51.1261 36.1845 0.0000 -18.5749 0.0000
# 2 51.1261 123.5185 29.2496 0.0000 -6.9997 0.0000
# 3 36.1845 29.2496 91.5599 0.0000 -6.1517 0.0000
# 4 0.0000 0.0000 0.0000 36.5809 0.0000 1.1291
# 5 -18.5749 -6.9997 -6.1517 0.0000 26.4569 0.0000
# 6 0.0000 0.0000 0.0000 1.1291 0.0000 36.5974
#
#
#
# Elastic Compliance Matrix: (Units=1/GPa)
#
#
# Indices 1 2 3 4 5 6 
#
# 1 0.040613 -0.013076 -0.010351 0.000000 0.022647 0.000000
# 2 -0.013076 0.013044 0.000625 0.000000 -0.005584 0.000000
# 3 -0.010351 0.000625 0.014563 0.000000 -0.003716 0.000000
# 4 0.000000 0.000000 0.000000 0.027363 0.000000 -0.000844
# 5 0.022647 -0.005584 -0.003716 0.000000 0.051356 0.000000
# 6 0.000000 0.000000 0.000000 -0.000844 0.000000 0.027350
#
#
# Mechanical properties :
#
#
# Convention : Reuss Voigt Hill
#
# Bulk Modulus (GPa) = 44.21570 56.54031 50.37800
# Shear Modulus (GPa) = 21.98470 30.53921 26.26195
#
# Velocity S-wave (km/s) = 3.29153 3.87941 3.59750
# Velocity P-wave (km/s) = 6.01957 6.92313 6.48710
#
# Compressibility (1/GPa) = 0.02261640
#
# Stress axis : x y z
#
# Youngs Moduli (GPa) = 24.62279 76.66609 68.66589
#
# Poissons Ratio (x) = 1.00245 0.71079
# Poissons Ratio (y) = 0.32196 -0.04295
# Poissons Ratio (z) = 0.25488 -0.04795
#
# Static dielectric constant tensor:
#      x y z
#    x 3.626270 0.000000 -0.166060 
#    y 0.000000 3.686460 0.000000 
#    z -0.166060 0.000000 4.047860 
# 
# 
# High freq. dielectric constant tensor:
#      x y z
#    x 1.782280 0.000000 -0.004890 
#    y 0.000000 1.792750 0.000000 
#    z -0.004890 0.000000 1.804740 
# 
# From -- ./inp_files/79870.got.cif
#   From: 2010.06.25/outbox.cif.g09.slc.cpg/sg15_40_cif.got.tgz:79870.got - 2010.06.28 07:06:18.
