data_PCOD8137103
_publ_section_title
;
Structure prediction by ZEFSAII (Michael W. Deem and Ramdas Pophale) SiO2 
 PCOD8137103
Probable space group: C 2/C
;
_chemical_formula_sum "Si O2"
_cell_formula_units_Z 52
_cell_length_a 9.660498
_cell_length_b 19.933634
_cell_length_c 18.104127
_cell_angle_alpha 90.000000
_cell_angle_beta 131.389565
_cell_angle_gamma 90.000000
_cell_volume 2615.525006
_symmetry_space_group_name_H-M "C 2/C"
_symmetry_group_IT_number 15
_symmetry_cell_setting 'monoclinic'
loop_
_space_group_symop_operation_xyz
x,y,z
-x,y,1/2-z
-x,-y,-z
x,-y,1/2+z
1/2+x,1/2+y,z
1/2-x,1/2+y,1/2-z
1/2-x,1/2-y,-z
1/2+x,1/2-y,1/2+z
loop_
_atom_site_type_symbol
_atom_site_label
_atom_site_fract_x
_atom_site_fract_y
_atom_site_fract_z
Si Si1 0.481089 0.577343 0.016910
Si Si2 0.000000 0.870542 0.250000
Si Si3 0.572145 0.324638 0.431678
Si Si4 0.501152 0.174553 0.423824
Si Si5 0.290815 0.017097 0.839332
Si Si6 0.837244 0.575401 0.482934
Si Si7 0.676563 0.091169 0.264905
O O1 0.304493 0.595865 0.003804
O O2 0.655748 0.609138 0.121727
O O3 0.500000 0.500000 0.000000
O O4 0.457054 0.617911 0.932268
O O5 0.968308 0.822658 0.169549
O O6 0.821728 0.915019 0.202558
O O7 0.499335 0.254021 0.437509
O O8 0.787035 0.342970 0.520053
O O9 0.428303 0.138766 0.472690
O O10 0.372507 0.151322 0.309681
O O11 0.227307 0.972136 0.886787
O O12 0.257468 0.975670 0.753514
O O13 0.507141 0.031632 0.922185
O O14 0.500000 0.072272 0.250000
#
# Coordination Sequence:
#
# PCOD8137103 Si02
#       7
#     8   4   8   8   8   8   8
#     4  12  24  39  66 100 130 165 210 274 323 387
#     4  12  22  38  64  92 120 166 210 278 306 386
#     4  11  24  41  64  92 124 166 225 257 322 380
#     4  10  23  42  64  89 122 176 210 260 316 386
#     4  10  20  35  60  92 126 162 204 250 324 381
#     4  10  21  39  63  89 132 165 201 260 326 377
#     4  11  21  37  64  93 126 164 210 259 319 379
#
# _framework density 19.881285999999999
#
# number of rings (size 3 to 8) (size 9 to 14) (size 15 to 20)
#    0.000    1.231    3.077    3.692    3.231    2.462 
#    0.000    0.000    3.385    0.000    0.000    0.000 
#    0.000    0.000    0.000    0.000    0.000    0.000 
#
# Total GULP energy -322402.941547 kJ/mol
# GULP energy per Si atom -12400.113136 kJ/mol
# Density = 1.983603 g / cm^3
# Si number density = 19.881286 Si / 1000 Ang^3
#
#
#
# Elastic Constant Matrix: (Units=GPa)
#
#
# Indices 1 2 3 4 5 6 
#
# 1 111.5131 41.8954 17.9321 0.0000 -7.1395 0.0000
# 2 41.8954 97.8162 15.5334 0.0000 -6.9706 0.0000
# 3 17.9321 15.5334 74.3302 0.0000 -8.9211 0.0000
# 4 0.0000 0.0000 0.0000 19.9347 0.0000 2.8533
# 5 -7.1395 -6.9706 -8.9211 0.0000 24.5595 0.0000
# 6 0.0000 0.0000 0.0000 2.8533 0.0000 27.5767
#
#
#
# Elastic Compliance Matrix: (Units=1/GPa)
#
#
# Indices 1 2 3 4 5 6 
#
# 1 0.010937 -0.004337 -0.001567 0.000000 0.001379 0.000000
# 2 -0.004337 0.012420 -0.001336 0.000000 0.001779 0.000000
# 3 -0.001567 -0.001336 0.014649 0.000000 0.004487 0.000000
# 4 0.000000 0.000000 0.000000 0.050918 0.000000 -0.005268
# 5 0.001379 0.001779 0.004487 0.000000 0.043253 0.000000
# 6 0.000000 0.000000 0.000000 -0.005268 0.000000 0.036808
#
#
# Mechanical properties :
#
#
# Convention : Reuss Voigt Hill
#
# Bulk Modulus (GPa) = 42.50442 48.26457 45.38449
# Shear Modulus (GPa) = 26.13603 28.30074 27.21838
#
# Velocity S-wave (km/s) = 3.62968 3.77700 3.70408
# Velocity P-wave (km/s) = 6.24433 6.58408 6.41645
#
# Compressibility (1/GPa) = 0.02352696
#
# Stress axis : x y z
#
# Youngs Moduli (GPa) = 91.42954 80.51596 68.26391
#
# Poissons Ratio (x) = 0.34924 0.10695
# Poissons Ratio (y) = 0.39657 0.09117
# Poissons Ratio (z) = 0.14324 0.10753
#
# Static dielectric constant tensor:
#      x y z
#    x 3.558930 0.000000 -0.128520 
#    y 0.000000 3.396750 0.000000 
#    z -0.128520 0.000000 3.801780 
# 
# 
# High freq. dielectric constant tensor:
#      x y z
#    x 1.776690 0.000000 -0.007950 
#    y 0.000000 1.763610 0.000000 
#    z -0.007950 0.000000 1.783340 
# 
# From -- ./inp_files/136004.got.cif
#   From: 2010.06.25/outbox.cif.g09.slc.cpg/sg15_69_cif.got.tgz:136004.got - 2010.06.28 07:06:18.
