data_PCOD8137689
_publ_section_title
;
Structure prediction by ZEFSAII (Michael W. Deem and Ramdas Pophale) SiO2 
 PCOD8137689
Probable space group: C 2/C
;
_chemical_formula_sum "Si O2"
_cell_formula_units_Z 56
_cell_length_a 11.274821
_cell_length_b 22.189894
_cell_length_c 11.678624
_cell_angle_alpha 90.000000
_cell_angle_beta 74.639366
_cell_angle_gamma 90.000000
_cell_volume 2817.465794
_symmetry_space_group_name_H-M "C 2/C"
_symmetry_group_IT_number 15
_symmetry_cell_setting 'monoclinic'
loop_
_space_group_symop_operation_xyz
x,y,z
-x,y,1/2-z
-x,-y,-z
x,-y,1/2+z
1/2+x,1/2+y,z
1/2-x,1/2+y,1/2-z
1/2-x,1/2-y,-z
1/2+x,1/2-y,1/2+z
loop_
_atom_site_type_symbol
_atom_site_label
_atom_site_fract_x
_atom_site_fract_y
_atom_site_fract_z
Si Si1 0.918585 0.853450 0.663781
Si Si2 0.866419 0.089157 0.736881
Si Si3 0.129773 0.981098 0.916118
Si Si4 0.794041 0.688131 0.134881
Si Si5 0.367559 0.685860 0.544263
Si Si6 0.183526 0.535593 0.940496
Si Si7 0.049168 0.570991 0.364442
O O1 0.860509 0.911270 0.618244
O O2 0.810267 0.810650 0.739304
O O3 0.000000 0.875717 0.750000
O O4 0.998618 0.817793 0.549243
O O5 0.837733 0.132438 0.639128
O O6 0.762412 0.090035 0.862068
O O7 0.000000 0.106195 0.750000
O O8 0.855882 0.019964 0.701155
O O9 0.237082 0.995195 0.979096
O O10 0.000000 0.000000 0.000000
O O11 0.862675 0.752268 0.117122
O O12 0.890610 0.636180 0.136916
O O13 0.737335 0.679070 0.023909
O O14 0.147708 0.481769 0.862860
O O15 0.061778 0.567661 0.017620
O O16 0.000000 0.561791 0.250000
#
# Coordination Sequence:
#
# PCOD8137689 Si02
#       7
#     8   8   8   8   8   8   8
#     4  10  20  36  61  91 120 154 203 252 305 366
#     4  12  22  35  59  91 122 148 191 252 309 353
#     4  12  21  36  62  91 125 156 190 254 311 364
#     4  10  22  40  63  81 117 166 205 248 301 362
#     4  10  22  39  58  91 118 151 208 258 298 355
#     4  11  24  39  59  91 122 157 199 245 305 365
#     4  11  24  42  60  83 122 166 205 241 293 379
#
# _framework density 19.876016
#
# number of rings (size 3 to 8) (size 9 to 14) (size 15 to 20)
#    0.000    1.143    2.857    3.857    2.000    2.857 
#    0.000    1.429    0.000    5.143    0.000    0.000 
#    0.000    0.000    0.000    0.000    0.000    0.000 
#
# Total GULP energy -347258.568628 kJ/mol
# GULP energy per Si atom -12402.091737 kJ/mol
# Density = 1.983078 g / cm^3
# Si number density = 19.876016 Si / 1000 Ang^3
#
#
#
# Elastic Constant Matrix: (Units=GPa)
#
#
# Indices 1 2 3 4 5 6 
#
# 1 91.0581 39.5046 27.6442 0.0000 -2.7258 0.0000
# 2 39.5046 101.8946 45.2493 0.0000 -7.3490 0.0000
# 3 27.6442 45.2493 84.4854 0.0000 -7.4854 0.0000
# 4 0.0000 0.0000 0.0000 34.3458 0.0000 -1.6751
# 5 -2.7258 -7.3490 -7.4854 0.0000 37.7198 0.0000
# 6 0.0000 0.0000 0.0000 -1.6751 0.0000 24.0924
#
#
#
# Elastic Compliance Matrix: (Units=1/GPa)
#
#
# Indices 1 2 3 4 5 6 
#
# 1 0.013488 -0.004302 -0.002135 0.000000 -0.000287 0.000000
# 2 -0.004302 0.014299 -0.006139 0.000000 0.001257 0.000000
# 3 -0.002135 -0.006139 0.015984 0.000000 0.001822 0.000000
# 4 0.000000 0.000000 0.000000 0.029215 0.000000 0.002031
# 5 -0.000287 0.001257 0.001822 0.000000 0.027097 0.000000
# 6 0.000000 0.000000 0.000000 0.002031 0.000000 0.041648
#
#
# Mechanical properties :
#
#
# Convention : Reuss Voigt Hill
#
# Bulk Modulus (GPa) = 53.70806 55.80381 54.75594
# Shear Modulus (GPa) = 28.88684 30.23427 29.56055
#
# Velocity S-wave (km/s) = 3.81642 3.90441 3.86067
# Velocity P-wave (km/s) = 6.81911 6.96153 6.89069
#
# Compressibility (1/GPa) = 0.01861918
#
# Stress axis : x y z
#
# Youngs Moduli (GPa) = 74.14083 69.93531 62.56097
#
# Poissons Ratio (x) = 0.30086 0.13355
# Poissons Ratio (y) = 0.31895 0.38408
# Poissons Ratio (z) = 0.15827 0.42936
#
# Static dielectric constant tensor:
#      x y z
#    x 3.731740 0.000000 -0.223850 
#    y 0.000000 3.407490 0.000000 
#    z -0.223850 0.000000 4.002960 
# 
# 
# High freq. dielectric constant tensor:
#      x y z
#    x 1.781130 0.000000 -0.007230 
#    y 0.000000 1.757390 0.000000 
#    z -0.007230 0.000000 1.790980 
# 
# From -- ./inp_files/88903.got.cif
#   From: 2010.06.25/outbox.cif.g09.slc.cpg/sg15_45_cif.got.tgz:88903.got - 2010.06.28 07:06:18.
