data_PCOD8137089
_publ_section_title
;
Structure prediction by ZEFSAII (Michael W. Deem and Ramdas Pophale) SiO2 
 PCOD8137089
Probable space group: C 2/C
;
_chemical_formula_sum "Si O2"
_cell_formula_units_Z 56
_cell_length_a 29.576188
_cell_length_b 10.754453
_cell_length_c 9.164104
_cell_angle_alpha 90.000000
_cell_angle_beta 105.125486
_cell_angle_gamma 90.000000
_cell_volume 2813.897865
_symmetry_space_group_name_H-M "C 2/C"
_symmetry_group_IT_number 15
_symmetry_cell_setting 'monoclinic'
loop_
_space_group_symop_operation_xyz
x,y,z
-x,y,1/2-z
-x,-y,-z
x,-y,1/2+z
1/2+x,1/2+y,z
1/2-x,1/2+y,1/2-z
1/2-x,1/2-y,-z
1/2+x,1/2-y,1/2+z
loop_
_atom_site_type_symbol
_atom_site_label
_atom_site_fract_x
_atom_site_fract_y
_atom_site_fract_z
Si Si1 0.389554 0.342446 0.705766
Si Si2 0.034018 0.962527 0.154935
Si Si3 0.113771 0.785097 0.118083
Si Si4 0.337081 0.087509 0.171076
Si Si5 0.812677 0.960563 0.184600
Si Si6 0.265960 0.639579 0.356953
Si Si7 0.836291 0.342990 0.344563
O O1 0.437829 0.413724 0.775254
O O2 0.393196 0.263239 0.560097
O O3 0.348253 0.440568 0.646109
O O4 0.377564 0.252762 0.832492
O O5 0.000000 0.911378 0.250000
O O6 0.067884 0.850079 0.143054
O O7 0.000000 0.000000 0.000000
O O8 0.121047 0.652485 0.203273
O O9 0.159289 0.868528 0.186477
O O10 0.288913 0.160033 0.165387
O O11 0.331625 0.944756 0.213571
O O12 0.349097 0.094074 0.009538
O O13 0.772957 0.028525 0.246915
O O14 0.789863 0.887942 0.031699
O O15 0.287300 0.768066 0.312929
#
# Coordination Sequence:
#
# PCOD8137089 Si02
#       7
#     8   8   8   8   8   8   8
#     4  10  22  39  63  93 128 162 203 259 327 381
#     4  11  23  40  70 105 128 153 197 263 337 402
#     4  11  22  38  61  92 129 164 203 262 320 378
#     4  12  25  39  61  84 130 174 226 261 313 369
#     4  10  20  35  60  88 125 162 213 263 319 360
#     4  11  22  38  60  88 124 173 224 271 308 368
#     4  11  25  41  59  88 124 176 217 266 308 376
#
# _framework density 19.901222000000001
#
# number of rings (size 3 to 8) (size 9 to 14) (size 15 to 20)
#    0.000    1.143    4.286    2.143    4.000    0.000 
#    0.000    3.571    0.000    1.714    0.000    0.000 
#    0.000    0.000    0.000    0.000    0.000    0.000 
#
# Total GULP energy -347263.448593 kJ/mol
# GULP energy per Si atom -12402.266021 kJ/mol
# Density = 1.985593 g / cm^3
# Si number density = 19.901222 Si / 1000 Ang^3
#
#
#
# Elastic Constant Matrix: (Units=GPa)
#
#
# Indices 1 2 3 4 5 6 
#
# 1 95.5720 32.7433 45.2286 0.0000 -1.9278 0.0000
# 2 32.7433 94.4230 33.2458 0.0000 -5.0984 0.0000
# 3 45.2286 33.2458 102.5064 0.0000 -8.4465 0.0000
# 4 0.0000 0.0000 0.0000 41.1557 0.0000 -6.1756
# 5 -1.9278 -5.0984 -8.4465 0.0000 34.2093 0.0000
# 6 0.0000 0.0000 0.0000 -6.1756 0.0000 30.2238
#
#
#
# Elastic Compliance Matrix: (Units=1/GPa)
#
#
# Indices 1 2 3 4 5 6 
#
# 1 0.013976 -0.003047 -0.005258 0.000000 -0.000965 0.000000
# 2 -0.003047 0.012644 -0.002669 0.000000 0.001054 0.000000
# 3 -0.005258 -0.002669 0.013152 0.000000 0.002553 0.000000
# 4 0.000000 0.000000 0.000000 0.025067 0.000000 0.005122
# 5 -0.000965 0.001054 0.002553 0.000000 0.029965 0.000000
# 6 0.000000 0.000000 0.000000 0.005122 0.000000 0.034133
#
#
# Mechanical properties :
#
#
# Convention : Reuss Voigt Hill
#
# Bulk Modulus (GPa) = 56.10875 57.21522 56.66199
# Shear Modulus (GPa) = 31.88241 33.20335 32.54288
#
# Velocity S-wave (km/s) = 4.00688 4.08905 4.04817
# Velocity P-wave (km/s) = 7.04710 7.14883 7.09815
#
# Compressibility (1/GPa) = 0.01782253
#
# Stress axis : x y z
#
# Youngs Moduli (GPa) = 71.55070 79.08777 76.03682
#
# Poissons Ratio (x) = 0.24101 0.39978
# Poissons Ratio (y) = 0.21804 0.20298
# Poissons Ratio (z) = 0.37620 0.21112
#
# Static dielectric constant tensor:
#      x y z
#    x 3.606640 0.000000 -0.149760 
#    y 0.000000 3.096420 0.000000 
#    z -0.149760 0.000000 3.636590 
# 
# 
# High freq. dielectric constant tensor:
#      x y z
#    x 1.762410 0.000000 -0.017890 
#    y 0.000000 1.771260 0.000000 
#    z -0.017890 0.000000 1.784540 
# 
# From -- ./inp_files/65519.got.cif
#   From: 2010.06.25/outbox.cif.g09.slc.cpg/sg15_33_cif.got.tgz:65519.got - 2010.06.28 07:06:18.
