data_PCOD8137811
_publ_section_title
;
Structure prediction by ZEFSAII (Michael W. Deem and Ramdas Pophale) SiO2 
 PCOD8137811
Probable space group: C 2/C
;
_chemical_formula_sum "Si O2"
_cell_formula_units_Z 56
_cell_length_a 21.081073
_cell_length_b 22.846673
_cell_length_c 11.335452
_cell_angle_alpha 90.000000
_cell_angle_beta 31.307251
_cell_angle_gamma 90.000000
_cell_volume 2836.915709
_symmetry_space_group_name_H-M "C 2/C"
_symmetry_group_IT_number 15
_symmetry_cell_setting 'monoclinic'
loop_
_space_group_symop_operation_xyz
x,y,z
-x,y,1/2-z
-x,-y,-z
x,-y,1/2+z
1/2+x,1/2+y,z
1/2-x,1/2+y,1/2-z
1/2-x,1/2-y,-z
1/2+x,1/2-y,1/2+z
loop_
_atom_site_type_symbol
_atom_site_label
_atom_site_fract_x
_atom_site_fract_y
_atom_site_fract_z
Si Si1 0.375338 0.785167 0.683084
Si Si2 0.869549 0.441624 0.600088
Si Si3 0.254501 0.339478 0.824741
Si Si4 0.748460 0.609745 0.503405
Si Si5 0.525718 0.678982 0.840787
Si Si6 0.590251 0.137698 0.798878
Si Si7 0.622125 0.925195 0.486064
O O1 0.302269 0.789966 0.673766
O O2 0.313882 0.828414 0.874466
O O3 0.384667 0.721042 0.725329
O O4 0.514643 0.803958 0.443434
O O5 0.770980 0.404271 0.684378
O O6 0.817143 0.440410 0.817168
O O7 0.881753 0.506648 0.536187
O O8 0.003093 0.411445 0.377303
O O9 0.399041 0.331338 0.609007
O O10 0.197958 0.338897 0.044638
O O11 0.603989 0.618488 0.705150
O O12 0.762212 0.590052 0.616604
O O13 0.500000 0.703867 0.750000
O O14 0.643688 0.111892 0.834292
O O15 0.500000 0.906346 0.750000
#
# Coordination Sequence:
#
# PCOD8137811 Si02
#       7
#     8   8   8   8   8   8   8
#     4  10  21  37  64  91 117 152 203 264 296 354
#     4  10  20  36  63  88 123 157 196 258 307 352
#     4  10  22  41  59  86 126 162 199 248 302 375
#     4  10  23  40  56  99 122 147 214 254 289 374
#     4  12  23  40  67  84 123 170 205 246 305 358
#     4  10  21  38  60  92 126 152 202 250 316 359
#     4  12  21  35  64  95 122 156 203 262 305 351
#
# _framework density 19.739747999999999
#
# number of rings (size 3 to 8) (size 9 to 14) (size 15 to 20)
#    0.000    1.714    5.714    3.429    4.000    0.571 
#    0.000    2.857    3.143    0.000    0.000    0.000 
#    0.000    0.000    0.000    0.000    0.000    0.000 
#
# Total GULP energy -347040.748786 kJ/mol
# GULP energy per Si atom -12394.312457 kJ/mol
# Density = 1.969482 g / cm^3
# Si number density = 19.739748 Si / 1000 Ang^3
#
#
#
# Elastic Constant Matrix: (Units=GPa)
#
#
# Indices 1 2 3 4 5 6 
#
# 1 95.8687 28.4717 43.4855 0.0005 11.6400 -0.0001
# 2 28.4717 34.1283 33.8322 -0.0002 7.2739 0.0001
# 3 43.4855 33.8322 134.0181 0.0017 2.6680 -0.0011
# 4 0.0005 -0.0002 0.0017 13.8967 -0.0006 5.7712
# 5 11.6400 7.2739 2.6680 -0.0006 26.9790 0.0003
# 6 -0.0001 0.0001 -0.0011 5.7712 0.0003 25.4091
#
#
#
# Elastic Compliance Matrix: (Units=1/GPa)
#
#
# Indices 1 2 3 4 5 6 
#
# 1 0.014653 -0.009080 -0.002390 -0.000001 -0.003638 0.000000
# 2 -0.009080 0.047346 -0.008847 0.000002 -0.007973 -0.000001
# 3 -0.002390 -0.008847 0.010423 -0.000002 0.002386 0.000001
# 4 -0.000001 0.000002 -0.000002 0.079454 0.000002 -0.018046
# 5 -0.003638 -0.007973 0.002386 0.000002 0.040549 -0.000001
# 6 0.000000 -0.000001 0.000001 -0.018046 -0.000001 0.043455
#
#
# Mechanical properties :
#
#
# Convention : Reuss Voigt Hill
#
# Bulk Modulus (GPa) = 31.45858 52.84375 42.15117
# Shear Modulus (GPa) = 17.41487 23.80535 20.61011
#
# Velocity S-wave (km/s) = 2.97345 3.47646 3.23475
# Velocity P-wave (km/s) = 5.26876 6.55307 5.94569
#
# Compressibility (1/GPa) = 0.03178783
#
# Stress axis : x y z
#
# Youngs Moduli (GPa) = 68.24380 21.12109 95.94041
#
# Poissons Ratio (x) = 0.19178 0.22930
# Poissons Ratio (y) = 0.61966 0.84881
# Poissons Ratio (z) = 0.16310 0.18686
#
# Static dielectric constant tensor:
#      x y z
#    x 3.631790 0.000000 0.131700 
#    y 0.000000 3.332120 0.000000 
#    z 0.131700 0.000000 3.708380 
# 
# 
# High freq. dielectric constant tensor:
#      x y z
#    x 1.767090 0.000000 0.010010 
#    y 0.000000 1.741920 0.000000 
#    z 0.010010 0.000000 1.767150 
# 
# From -- ./inp_files/114680.got.cif
#   From: 2010.06.25/outbox.cif.g09.slc.cpg/sg15_58_cif.got.tgz:114680.got - 2010.06.28 07:06:18.
