data_PCOD8137438
_publ_section_title
;
Structure prediction by ZEFSAII (Michael W. Deem and Ramdas Pophale) SiO2 
 PCOD8137438
Probable space group: C 2/C
;
_chemical_formula_sum "Si O2"
_cell_formula_units_Z 56
_cell_length_a 11.458301
_cell_length_b 8.739982
_cell_length_c 26.989778
_cell_angle_alpha 90.000000
_cell_angle_beta 72.177773
_cell_angle_gamma 90.000000
_cell_volume 2573.190392
_symmetry_space_group_name_H-M "C 2/C"
_symmetry_group_IT_number 15
_symmetry_cell_setting 'monoclinic'
loop_
_space_group_symop_operation_xyz
x,y,z
-x,y,1/2-z
-x,-y,-z
x,-y,1/2+z
1/2+x,1/2+y,z
1/2-x,1/2+y,1/2-z
1/2-x,1/2-y,-z
1/2+x,1/2-y,1/2+z
loop_
_atom_site_type_symbol
_atom_site_label
_atom_site_fract_x
_atom_site_fract_y
_atom_site_fract_z
Si Si1 0.500000 0.348331 0.750000
Si Si2 0.500000 0.149461 0.250000
Si Si3 0.532038 0.899371 0.320987
Si Si4 0.198866 0.877410 0.095922
Si Si5 0.897424 0.927860 0.979889
Si Si6 0.815006 0.903174 0.287836
Si Si7 0.014430 0.391950 0.440081
Si Si8 0.815673 0.611097 0.462130
O O1 0.527052 0.247542 0.697829
O O2 0.619368 0.451298 0.745237
O O3 0.379097 0.251438 0.258908
O O4 0.478523 0.050679 0.302328
O O5 0.675777 0.897006 0.289966
O O6 0.501228 0.893298 0.382434
O O7 0.169872 0.921700 0.155138
O O8 0.343751 0.895729 0.062459
O O9 0.163682 0.696387 0.093322
O O10 0.117855 0.988686 0.071420
O O11 0.934824 0.751580 0.969554
O O12 0.771811 0.960440 0.027485
O O13 0.000000 0.000000 0.000000
O O14 0.947119 0.550737 0.466706
O O15 0.750000 0.750000 0.500000
#
# Coordination Sequence:
#
# PCOD8137438 Si02
#       8
#     4   4   8   8   8   8   8   8
#     4  10  20  36  58  86 120 148 190 236 284 352
#     4  10  20  36  60  86 120 152 192 234 288 356
#     4  10  21  36  59  87 117 150 194 236 291 351
#     4  10  22  40  59  87 120 153 200 246 295 354
#     4  11  22  40  61  86 117 156 203 246 300 357
#     4  10  20  36  60  85 117 156 189 236 291 344
#     4  11  22  40  62  85 119 158 194 251 302 346
#     4  10  22  40  60  84 116 153 200 244 293 355
#
# _framework density 21.762868000000001
#
# number of rings (size 3 to 8) (size 9 to 14) (size 15 to 20)
#    0.000    1.714    1.429    3.000    0.000    2.286 
#    5.143    0.000    6.286    0.000    0.000    0.000 
#    0.000    0.000    0.000    0.000    0.000    0.000 
#
# Total GULP energy -346986.600466 kJ/mol
# GULP energy per Si atom -12392.378588 kJ/mol
# Density = 2.171333 g / cm^3
# Si number density = 21.762868 Si / 1000 Ang^3
#
#
#
# Elastic Constant Matrix: (Units=GPa)
#
#
# Indices 1 2 3 4 5 6 
#
# 1 94.6312 41.8942 -8.5709 0.0000 3.4876 0.0000
# 2 41.8942 131.7607 25.9813 0.0000 -6.3733 0.0000
# 3 -8.5709 25.9813 39.9229 0.0000 4.5581 0.0000
# 4 0.0000 0.0000 0.0000 100.8659 0.0000 7.6143
# 5 3.4876 -6.3733 4.5581 0.0000 33.1585 0.0000
# 6 0.0000 0.0000 0.0000 7.6143 0.0000 32.0257
#
#
#
# Elastic Compliance Matrix: (Units=1/GPa)
#
#
# Indices 1 2 3 4 5 6 
#
# 1 0.014086 -0.006121 0.007428 0.000000 -0.003679 0.000000
# 2 -0.006121 0.011574 -0.009320 0.000000 0.004150 0.000000
# 3 0.007428 -0.009320 0.033528 0.000000 -0.007182 0.000000
# 4 0.000000 0.000000 0.000000 0.010095 0.000000 -0.002400
# 5 -0.003679 0.004150 -0.007182 0.000000 0.032330 0.000000
# 6 0.000000 0.000000 0.000000 -0.002400 0.000000 0.031796
#
#
# Mechanical properties :
#
#
# Convention : Reuss Voigt Hill
#
# Bulk Modulus (GPa) = 23.16939 42.76933 32.96936
# Shear Modulus (GPa) = 30.52064 47.01071 38.76567
#
# Velocity S-wave (km/s) = 3.74895 4.65277 4.22510
# Velocity P-wave (km/s) = 5.42300 6.96846 6.24373
#
# Compressibility (1/GPa) = 0.04316039
#
# Stress axis : x y z
#
# Youngs Moduli (GPa) = 70.99473 86.39817 29.82556
#
# Poissons Ratio (x) = 0.52886 -0.22153
# Poissons Ratio (y) = 0.43457 0.27798
# Poissons Ratio (z) = -0.52732 0.80526
#
# Static dielectric constant tensor:
#      x y z
#    x 4.018450 0.000000 -0.009730 
#    y 0.000000 4.150980 0.000000 
#    z -0.009730 0.000000 4.023940 
# 
# 
# High freq. dielectric constant tensor:
#      x y z
#    x 1.860460 0.000000 0.005480 
#    y 0.000000 1.863260 0.000000 
#    z 0.005480 0.000000 1.854650 
# 
# From -- ./inp_files/309953.got.cif
#   From: 2010.06.25/outbox.cif.g09.slc.cpg/sg15_155_cif.got.tgz:309953.got - 2010.06.28 07:06:18.
