data_PCOD8137552
_publ_section_title
;
Structure prediction by ZEFSAII (Michael W. Deem and Ramdas Pophale) SiO2 
 PCOD8137552
Probable space group: C 2/C
;
_chemical_formula_sum "Si O2"
_cell_formula_units_Z 60
_cell_length_a 19.093153
_cell_length_b 19.150789
_cell_length_c 10.833991
_cell_angle_alpha 90.000000
_cell_angle_beta 41.714495
_cell_angle_gamma 90.000000
_cell_volume 2636.016575
_symmetry_space_group_name_H-M "C 2/C"
_symmetry_group_IT_number 15
_symmetry_cell_setting 'monoclinic'
loop_
_space_group_symop_operation_xyz
x,y,z
-x,y,1/2-z
-x,-y,-z
x,-y,1/2+z
1/2+x,1/2+y,z
1/2-x,1/2+y,1/2-z
1/2-x,1/2-y,-z
1/2+x,1/2-y,1/2+z
loop_
_atom_site_type_symbol
_atom_site_label
_atom_site_fract_x
_atom_site_fract_y
_atom_site_fract_z
Si Si1 0.212590 0.887794 0.583441
Si Si2 0.559610 0.273704 0.430693
Si Si3 0.000000 0.158071 0.250000
Si Si4 0.818220 0.634023 0.692196
Si Si5 0.780747 0.540926 0.522022
Si Si6 0.388726 0.372521 0.347418
Si Si7 0.954291 0.359368 0.682677
Si Si8 0.173853 0.785300 0.846492
O O1 0.283658 0.865823 0.377245
O O2 0.231639 0.833850 0.670147
O O3 0.087557 0.889269 0.708138
O O4 0.268765 0.958726 0.555390
O O5 0.565349 0.292348 0.568756
O O6 0.605259 0.338208 0.294759
O O7 0.609748 0.198848 0.317054
O O8 0.438169 0.262785 0.558383
O O9 0.766854 0.574208 0.675823
O O10 0.772481 0.709305 0.701865
O O11 0.943277 0.617164 0.528200
O O12 0.680761 0.558679 0.569309
O O13 0.883352 0.573379 0.315857
O O14 0.500000 0.398187 0.250000
O O15 0.332084 0.320113 0.513805
O O16 0.000000 0.323945 0.750000
#
# Coordination Sequence:
#
# PCOD8137552 Si02
#       8
#     8   8   4   8   8   8   8   8
#     4  11  24  39  61  91 134 169 211 253 329 386
#     4   9  17  36  62  92 124 162 211 263 321 364
#     4  10  22  38  58  96 136 172 208 266 314 388
#     4  10  21  42  67  86 120 168 214 270 323 368
#     4  11  24  36  61  95 123 172 209 256 325 382
#     4  10  20  36  59  92 125 162 208 256 308 378
#     4   9  19  39  65  94 122 154 215 276 316 374
#     4   9  20  39  64  91 122 161 212 271 315 376
#
# _framework density 22.761617000000001
#
# number of rings (size 3 to 8) (size 9 to 14) (size 15 to 20)
#    0.000    2.133    0.000    4.000    2.800    3.733 
#    0.000    2.667    0.000    0.000    0.000    0.000 
#    0.000    0.000    0.000    0.000    0.000    0.000 
#
# Total GULP energy -371656.673890 kJ/mol
# GULP energy per Si atom -12388.555796 kJ/mol
# Density = 2.270981 g / cm^3
# Si number density = 22.761617 Si / 1000 Ang^3
#
#
#
# Elastic Constant Matrix: (Units=GPa)
#
#
# Indices 1 2 3 4 5 6 
#
# 1 46.0088 23.2357 30.5091 0.0000 10.4309 0.0000
# 2 23.2357 112.9833 35.0675 0.0000 5.1669 0.0000
# 3 30.5091 35.0675 135.4248 0.0000 18.4413 0.0000
# 4 0.0000 0.0000 0.0000 21.2524 0.0000 30.4490
# 5 10.4309 5.1669 18.4413 0.0000 37.0558 0.0000
# 6 0.0000 0.0000 0.0000 30.4490 0.0000 75.1459
#
#
#
# Elastic Compliance Matrix: (Units=1/GPa)
#
#
# Indices 1 2 3 4 5 6 
#
# 1 0.027970 -0.004109 -0.004551 0.000000 -0.005035 0.000000
# 2 -0.004109 0.010229 -0.001809 0.000000 0.000631 0.000000
# 3 -0.004551 -0.001809 0.009299 0.000000 -0.003095 0.000000
# 4 0.000000 0.000000 0.000000 0.112176 0.000000 -0.045454
# 5 -0.005035 0.000631 -0.003095 0.000000 0.029856 0.000000
# 6 0.000000 0.000000 0.000000 -0.045454 0.000000 0.031725
#
#
# Mechanical properties :
#
#
# Convention : Reuss Voigt Hill
#
# Bulk Modulus (GPa) = 37.65224 52.44906 45.05065
# Shear Modulus (GPa) = 19.91658 40.39779 30.15718
#
# Velocity S-wave (km/s) = 2.96126 4.21743 3.64389
# Velocity P-wave (km/s) = 5.31695 6.84167 6.12693
#
# Compressibility (1/GPa) = 0.02655884
#
# Stress axis : x y z
#
# Youngs Moduli (GPa) = 35.75264 97.76594 107.53500
#
# Poissons Ratio (x) = 0.40175 0.48944
# Poissons Ratio (y) = 0.14692 0.19450
# Poissons Ratio (z) = 0.16273 0.17683
#
# Static dielectric constant tensor:
#      x y z
#    x 4.070820 0.000000 -0.008370 
#    y 0.000000 3.995350 0.000000 
#    z -0.008370 0.000000 4.310550 
# 
# 
# High freq. dielectric constant tensor:
#      x y z
#    x 1.896750 0.000000 -0.002870 
#    y 0.000000 1.873250 0.000000 
#    z -0.002870 0.000000 1.914030 
# 
# From -- ./inp_files/113772.got.cif
#   From: 2010.06.25/outbox.cif.g09.slc.cpg/sg15_57_cif.got.tgz:113772.got - 2010.06.28 07:06:18.
