data_PCOD8137520
_publ_section_title
;
Structure prediction by ZEFSAII (Michael W. Deem and Ramdas Pophale) SiO2 
 PCOD8137520
Probable space group: C 2/C
;
_chemical_formula_sum "Si O2"
_cell_formula_units_Z 56
_cell_length_a 20.410857
_cell_length_b 8.629168
_cell_length_c 28.039359
_cell_angle_alpha 90.000000
_cell_angle_beta 144.400543
_cell_angle_gamma 90.000000
_cell_volume 2874.797331
_symmetry_space_group_name_H-M "C 2/C"
_symmetry_group_IT_number 15
_symmetry_cell_setting 'monoclinic'
loop_
_space_group_symop_operation_xyz
x,y,z
-x,y,1/2-z
-x,-y,-z
x,-y,1/2+z
1/2+x,1/2+y,z
1/2-x,1/2+y,1/2-z
1/2-x,1/2-y,-z
1/2+x,1/2-y,1/2+z
loop_
_atom_site_type_symbol
_atom_site_label
_atom_site_fract_x
_atom_site_fract_y
_atom_site_fract_z
Si Si1 0.068529 0.763845 0.833487
Si Si2 0.596711 0.988332 0.240029
Si Si3 0.903306 0.586252 0.415413
Si Si4 0.334123 0.821728 0.314259
Si Si5 0.081578 0.753932 0.166799
Si Si6 0.218673 0.837199 0.090069
Si Si7 0.980177 0.086482 0.094548
O O1 0.199795 0.754604 0.897937
O O2 0.059250 0.843788 0.878804
O O3 0.000000 0.852361 0.750000
O O4 0.012819 0.592012 0.802343
O O5 0.623535 0.907326 0.206776
O O6 0.707763 0.967842 0.338870
O O7 0.564459 0.166142 0.207678
O O8 0.822488 0.445599 0.350321
O O9 0.967267 0.665629 0.408362
O O10 0.834728 0.710979 0.405839
O O11 0.000000 0.500000 0.500000
O O12 0.213974 0.748681 0.234168
O O13 0.423400 0.682932 0.376073
O O14 0.025962 0.919985 0.136301
O O15 0.123673 0.925429 0.003520
#
# Coordination Sequence:
#
# PCOD8137520 Si02
#       7
#     8   8   8   8   8   8   8
#     4   9  21  40  65  84 114 164 211 237 296 370
#     4   9  20  39  59  83 118 162 200 244 290 358
#     4  11  22  38  59  93 124 156 193 252 308 357
#     4  10  20  36  59  87 121 156 200 240 297 367
#     4  11  23  37  61  88 124 158 201 248 303 361
#     4  11  21  39  65  88 121 160 207 248 307 362
#     4  11  22  38  63  93 119 156 203 257 302 356
#
# _framework density 19.479634000000001
#
# number of rings (size 3 to 8) (size 9 to 14) (size 15 to 20)
#    0.000    1.714    2.857    2.143    4.000    1.714 
#    0.000    2.857    0.000    0.000    0.000    0.000 
#    0.000    0.000    0.000    0.000    0.000    0.000 
#
# Total GULP energy -346977.400160 kJ/mol
# GULP energy per Si atom -12392.050006 kJ/mol
# Density = 1.943530 g / cm^3
# Si number density = 19.479634 Si / 1000 Ang^3
#
#
#
# Elastic Constant Matrix: (Units=GPa)
#
#
# Indices 1 2 3 4 5 6 
#
# 1 84.3468 39.5887 35.9754 0.0000 -6.8915 0.0001
# 2 39.5887 111.3604 50.5207 0.0000 -12.0856 0.0000
# 3 35.9754 50.5207 123.2045 0.0000 -6.1527 0.0000
# 4 0.0000 0.0000 0.0000 34.2749 0.0000 -17.0732
# 5 -6.8915 -12.0856 -6.1527 0.0000 27.0457 0.0000
# 6 0.0001 0.0000 0.0000 -17.0732 0.0000 -31.4669
#
#
#
# Elastic Compliance Matrix: (Units=1/GPa)
#
#
# Indices 1 2 3 4 5 6 
#
# 1 0.014970 -0.003950 -0.002680 0.000000 0.001440 0.000000
# 2 -0.003950 0.012507 -0.003789 0.000000 0.003720 0.000000
# 3 -0.002680 -0.003789 0.010453 0.000000 0.000002 0.000000
# 4 0.000000 0.000000 0.000000 0.022968 0.000000 -0.012462
# 5 0.001440 0.003720 0.000002 0.000000 0.039004 0.000000
# 6 0.000000 0.000000 0.000000 -0.012462 0.000000 -0.025018
#
#
# Mechanical properties :
#
#
# Convention : Reuss Voigt Hill
#
# Bulk Modulus (GPa) = 58.50630 63.45347 60.97989
# Shear Modulus (GPa) = 49.29981 18.82589 34.06285
#
# Velocity S-wave (km/s) = 5.03620 3.11213 4.18621
# Velocity P-wave (km/s) = 7.99485 6.74973 7.39853
#
# Compressibility (1/GPa) = 0.01709218
#
# Stress axis : x y z
#
# Youngs Moduli (GPa) = 66.79870 79.95557 95.66646
#
# Poissons Ratio (x) = 0.31583 0.25635
# Poissons Ratio (y) = 0.26386 0.36251
# Poissons Ratio (z) = 0.17900 0.30298
#
# Static dielectric constant tensor:
#      x y z
#    x 7.822800 0.000010 -1.116420 
#    y 0.000010 4.087360 0.000000 
#    z -1.116420 0.000000 3.944330 
# 
# 
# High freq. dielectric constant tensor:
#      x y z
#    x 1.755200 0.000000 -0.013480 
#    y 0.000000 1.744710 0.000000 
#    z -0.013480 0.000000 1.768750 
# 
# From -- ./inp_files/298566.got.cif
#   From: 2010.06.25/outbox.cif.g09.slc.cpg/sg15_150_cif.got.tgz:298566.got - 2010.06.28 07:06:18.
