data_PCOD8137530
_publ_section_title
;
Structure prediction by ZEFSAII (Michael W. Deem and Ramdas Pophale) SiO2 
 PCOD8137530
Probable space group: C 2/C
;
_chemical_formula_sum "Si O2"
_cell_formula_units_Z 52
_cell_length_a 15.525802
_cell_length_b 23.090505
_cell_length_c 8.593343
_cell_angle_alpha 90.000000
_cell_angle_beta 51.166657
_cell_angle_gamma 90.000000
_cell_volume 2399.783864
_symmetry_space_group_name_H-M "C 2/C"
_symmetry_group_IT_number 15
_symmetry_cell_setting 'monoclinic'
loop_
_space_group_symop_operation_xyz
x,y,z
-x,y,1/2-z
-x,-y,-z
x,-y,1/2+z
1/2+x,1/2+y,z
1/2-x,1/2+y,1/2-z
1/2-x,1/2-y,-z
1/2+x,1/2-y,1/2+z
loop_
_atom_site_type_symbol
_atom_site_label
_atom_site_fract_x
_atom_site_fract_y
_atom_site_fract_z
Si Si1 0.858005 0.482815 0.490405
Si Si2 0.500000 0.505093 0.750000
Si Si3 0.444423 0.074270 0.592530
Si Si4 0.148892 0.042184 0.838410
Si Si5 0.381627 0.206833 0.647943
Si Si6 0.500000 0.723551 0.750000
Si Si7 0.500000 0.281274 0.750000
Si Si8 0.651022 0.329123 0.322239
O O1 0.919234 0.544947 0.453350
O O2 0.864651 0.463041 0.302606
O O3 0.732198 0.490615 0.692036
O O4 0.926282 0.433958 0.509742
O O5 0.545926 0.544917 0.836065
O O6 0.600976 0.467410 0.565549
O O7 0.418439 0.141140 0.629371
O O8 0.202370 0.106029 0.769458
O O9 0.455053 0.234319 0.431627
O O10 0.405052 0.241130 0.780935
O O11 0.253329 0.213042 0.745286
O O12 0.401869 0.684556 0.786977
O O13 0.556289 0.322619 0.559302
#
# Coordination Sequence:
#
# PCOD8137530 Si02
#       8
#     8   4   8   8   8   4   4   8
#     4  10  20  36  59  88 126 159 198 248 305 377
#     4  10  24  38  58  88 126 160 220 252 292 376
#     4  10  21  37  60  93 127 157 202 249 310 384
#     4  11  21  40  61  87 124 168 207 256 309 361
#     4  11  22  43  66  95 126 168 202 265 322 374
#     4  10  25  42  66  94 126 160 223 262 308 376
#     4  10  23  40  66  94 128 156 223 262 306 376
#     4  11  22  42  66  91 125 170 207 266 315 367
#
# _framework density 21.668620000000001
#
# number of rings (size 3 to 8) (size 9 to 14) (size 15 to 20)
#    0.000    1.538    1.538    3.692    0.000    2.462 
#    2.769    0.000   13.538    0.000    0.000    0.000 
#    0.000    0.000    0.000    0.000    0.000    0.000 
#
# Total GULP energy -322285.924835 kJ/mol
# GULP energy per Si atom -12395.612494 kJ/mol
# Density = 2.161930 g / cm^3
# Si number density = 21.668620 Si / 1000 Ang^3
#
#
#
# Elastic Constant Matrix: (Units=GPa)
#
#
# Indices 1 2 3 4 5 6 
#
# 1 96.1841 13.1029 23.9038 0.0000 -5.5117 0.0000
# 2 13.1029 87.9088 36.6993 0.0000 3.6566 0.0000
# 3 23.9038 36.6993 98.5523 0.0000 -3.2166 0.0000
# 4 0.0000 0.0000 0.0000 21.9465 0.0000 -2.8603
# 5 -5.5117 3.6566 -3.2166 0.0000 39.7955 0.0000
# 6 0.0000 0.0000 0.0000 -2.8603 0.0000 26.4177
#
#
#
# Elastic Compliance Matrix: (Units=1/GPa)
#
#
# Indices 1 2 3 4 5 6 
#
# 1 0.011172 -0.000725 -0.002393 0.000000 0.001420 0.000000
# 2 -0.000725 0.013625 -0.004955 0.000000 -0.001753 0.000000
# 3 -0.002393 -0.004955 0.012610 0.000000 0.001143 0.000000
# 4 0.000000 0.000000 0.000000 0.046218 0.000000 0.005004
# 5 0.001420 -0.001753 0.001143 0.000000 0.025579 0.000000
# 6 0.000000 0.000000 0.000000 0.005004 0.000000 0.038395
#
#
# Mechanical properties :
#
#
# Convention : Reuss Voigt Hill
#
# Bulk Modulus (GPa) = 47.03753 47.78414 47.41084
# Shear Modulus (GPa) = 29.26861 31.56123 30.41492
#
# Velocity S-wave (km/s) = 3.67922 3.82061 3.75058
# Velocity P-wave (km/s) = 6.30902 6.44692 6.37834
#
# Compressibility (1/GPa) = 0.02125962
#
# Stress axis : x y z
#
# Youngs Moduli (GPa) = 89.51199 73.39449 79.30281
#
# Poissons Ratio (x) = 0.05322 0.18980
# Poissons Ratio (y) = 0.06490 0.39295
# Poissons Ratio (z) = 0.21423 0.36368
#
# Static dielectric constant tensor:
#      x y z
#    x 4.233860 0.000000 0.088320 
#    y 0.000000 3.637870 0.000000 
#    z 0.088320 0.000000 3.786130 
# 
# 
# High freq. dielectric constant tensor:
#      x y z
#    x 1.876080 0.000000 0.003370 
#    y 0.000000 1.830050 0.000000 
#    z 0.003370 0.000000 1.842890 
# 
# From -- ./inp_files/50603.got.cif
#   From: 2010.06.25/outbox.cif.g09.slc.cpg/sg15_26_cif.got.tgz:50603.got - 2010.06.28 07:06:18.
