data_PCOD8137104
_publ_section_title
;
Structure prediction by ZEFSAII (Michael W. Deem and Ramdas Pophale) SiO2 
 PCOD8137104
Probable space group: C 2/C
;
_chemical_formula_sum "Si O2"
_cell_formula_units_Z 52
_cell_length_a 19.338695
_cell_length_b 8.393767
_cell_length_c 23.944737
_cell_angle_alpha 90.000000
_cell_angle_beta 141.701182
_cell_angle_gamma 90.000000
_cell_volume 2408.905034
_symmetry_space_group_name_H-M "C 2/C"
_symmetry_group_IT_number 15
_symmetry_cell_setting 'monoclinic'
loop_
_space_group_symop_operation_xyz
x,y,z
-x,y,1/2-z
-x,-y,-z
x,-y,1/2+z
1/2+x,1/2+y,z
1/2-x,1/2+y,1/2-z
1/2-x,1/2-y,-z
1/2+x,1/2-y,1/2+z
loop_
_atom_site_type_symbol
_atom_site_label
_atom_site_fract_x
_atom_site_fract_y
_atom_site_fract_z
Si Si1 0.454555 0.378416 0.314411
Si Si2 0.224030 0.335978 0.836951
Si Si3 0.000000 0.113714 0.250000
Si Si4 0.549681 0.184435 0.975038
Si Si5 0.562720 0.814824 0.980106
Si Si6 0.161173 0.845831 0.707568
Si Si7 0.215863 0.695521 0.854422
O O1 0.396013 0.248200 0.237567
O O2 0.520385 0.503769 0.317336
O O3 0.534952 0.293074 0.409295
O O4 0.355843 0.472124 0.284069
O O5 0.260769 0.352756 0.796250
O O6 0.209691 0.505911 0.856878
O O7 0.309994 0.224399 0.924456
O O8 0.891575 0.224414 0.185700
O O9 0.517494 0.223724 0.018638
O O10 0.673037 0.250969 0.042412
O O11 0.461229 0.270732 0.879283
O O12 0.548322 0.999882 0.957302
O O13 0.225240 0.746725 0.795678
#
# Coordination Sequence:
#
# PCOD8137104 Si02
#       7
#     8   8   4   8   8   8   8
#     4  11  22  40  59  85 122 158 198 245 285 343
#     4  11  21  35  63  93 116 148 193 245 305 356
#     4  10  26  44  58  78 116 166 210 240 280 342
#     4  10  20  36  60  92 125 152 186 239 304 361
#     4  10  20  35  60  94 123 150 191 242 298 357
#     4  10  20  35  60  93 121 150 186 239 307 362
#     4  11  22  40  58  82 121 160 195 241 291 347
#
# _framework density 21.586573000000001
#
# number of rings (size 3 to 8) (size 9 to 14) (size 15 to 20)
#    0.000    1.538    0.000    6.462    0.000    5.538 
#    0.000   10.000    0.000    0.000    0.000    0.000 
#    0.000    0.000    0.000    0.000    0.000    0.000 
#
# Total GULP energy -322482.075834 kJ/mol
# GULP energy per Si atom -12403.156763 kJ/mol
# Density = 2.153744 g / cm^3
# Si number density = 21.586573 Si / 1000 Ang^3
#
#
#
# Elastic Constant Matrix: (Units=GPa)
#
#
# Indices 1 2 3 4 5 6 
#
# 1 65.2854 19.4838 6.3135 0.0000 6.4144 0.0000
# 2 19.4838 93.0772 6.2359 0.0000 -4.9119 -0.0002
# 3 6.3135 6.2359 57.2002 0.0000 1.0500 0.0000
# 4 0.0000 0.0000 0.0000 35.7060 0.0000 2.1014
# 5 6.4144 -4.9119 1.0500 0.0000 21.4680 0.0000
# 6 0.0000 -0.0002 0.0000 2.1014 0.0000 23.3212
#
#
#
# Elastic Compliance Matrix: (Units=1/GPa)
#
#
# Indices 1 2 3 4 5 6 
#
# 1 0.017172 -0.003816 -0.001370 0.000000 -0.005937 0.000000
# 2 -0.003816 0.011811 -0.000938 0.000000 0.003888 0.000000
# 3 -0.001370 -0.000938 0.017748 0.000000 -0.000673 0.000000
# 4 0.000000 0.000000 0.000000 0.028156 0.000000 -0.002537
# 5 -0.005937 0.003888 -0.000673 0.000000 0.049277 0.000000
# 6 0.000000 0.000000 0.000000 -0.002537 0.000000 0.043108
#
#
# Mechanical properties :
#
#
# Convention : Reuss Voigt Hill
#
# Bulk Modulus (GPa) = 29.00020 31.06991 30.03505
# Shear Modulus (GPa) = 26.17597 28.33435 27.25516
#
# Velocity S-wave (km/s) = 3.48602 3.62690 3.55716
# Velocity P-wave (km/s) = 5.44671 5.65364 5.55114
#
# Compressibility (1/GPa) = 0.03448252
#
# Stress axis : x y z
#
# Youngs Moduli (GPa) = 58.23408 84.66953 56.34344
#
# Poissons Ratio (x) = 0.32311 0.07721
# Poissons Ratio (y) = 0.22223 0.05284
# Poissons Ratio (z) = 0.07980 0.07940
#
# Static dielectric constant tensor:
#      x y z
#    x 3.613020 0.000000 -0.027810 
#    y 0.000000 4.065760 0.000000 
#    z -0.027810 0.000000 3.824340 
# 
# 
# High freq. dielectric constant tensor:
#      x y z
#    x 1.818350 0.000000 0.004080 
#    y 0.000000 1.866460 0.000000 
#    z 0.004080 0.000000 1.853190 
# 
# From -- ./inp_files/301989.got.cif
#   From: 2010.06.25/outbox.cif.g09.slc.cpg/sg15_151_cif.got.tgz:301989.got - 2010.06.28 07:06:18.
