data_PCOD8137832
_publ_section_title
;
Structure prediction by ZEFSAII (Michael W. Deem and Ramdas Pophale) SiO2 
 PCOD8137832
Probable space group: C 2/C
;
_chemical_formula_sum "Si O2"
_cell_formula_units_Z 48
_cell_length_a 12.878952
_cell_length_b 20.099929
_cell_length_c 13.451096
_cell_angle_alpha 90.000000
_cell_angle_beta 137.853985
_cell_angle_gamma 90.000000
_cell_volume 2336.520895
_symmetry_space_group_name_H-M "C 2/C"
_symmetry_group_IT_number 15
_symmetry_cell_setting 'monoclinic'
loop_
_space_group_symop_operation_xyz
x,y,z
-x,y,1/2-z
-x,-y,-z
x,-y,1/2+z
1/2+x,1/2+y,z
1/2-x,1/2+y,1/2-z
1/2-x,1/2-y,-z
1/2+x,1/2-y,1/2+z
loop_
_atom_site_type_symbol
_atom_site_label
_atom_site_fract_x
_atom_site_fract_y
_atom_site_fract_z
Si Si1 0.000000 0.822402 0.750000
Si Si2 0.923208 0.114587 0.892395
Si Si3 0.325384 0.437750 0.513605
Si Si4 0.000000 0.048444 0.750000
Si Si5 0.000000 0.260911 0.750000
Si Si6 0.000000 0.390129 0.250000
Si Si7 0.673359 0.704600 0.059088
Si Si8 0.651749 0.212936 0.726651
O O1 0.100892 0.868909 0.893954
O O2 0.126149 0.776732 0.780994
O O3 0.823956 0.181487 0.847088
O O4 0.907026 0.091571 0.765933
O O5 0.876933 0.055438 0.934584
O O6 0.101601 0.134396 0.042940
O O7 0.373076 0.502825 0.606626
O O8 0.140456 0.435737 0.385659
O O9 0.140116 0.305347 0.805108
O O10 0.907150 0.215435 0.605514
O O11 0.962609 0.345251 0.319877
O O12 0.618595 0.765118 0.090398
#
# Coordination Sequence:
#
# PCOD8137832 Si02
#       8
#     4   8   8   4   4   4   8   8
#     4  10  20  36  63  96 127 159 191 258 302 382
#     4  11  22  39  65  90 120 165 201 256 306 363
#     4  10  22  42  63  90 119 163 215 250 304 349
#     4  11  25  43  64  80 119 171 221 252 288 359
#     4  10  23  32  52  80 136 160 189 224 296 382
#     4   9  22  37  63  92 124 152 193 270 314 347
#     4  11  20  37  55  90 124 163 190 241 299 382
#     4  10  21  34  62  96 128 151 196 245 327 367
#
# _framework density 20.543365000000001
#
# number of rings (size 3 to 8) (size 9 to 14) (size 15 to 20)
#    0.000    1.667    3.333    1.000    4.667    2.000 
#    0.000    4.167    0.000    0.000    0.000    0.000 
#    0.000    0.000    0.000    0.000    0.000    0.000 
#
# Total GULP energy -297341.691409 kJ/mol
# GULP energy per Si atom -12389.237142 kJ/mol
# Density = 2.049661 g / cm^3
# Si number density = 20.543365 Si / 1000 Ang^3
#
#
#
# Elastic Constant Matrix: (Units=GPa)
#
#
# Indices 1 2 3 4 5 6 
#
# 1 143.5882 45.4846 57.8773 0.0000 7.8114 0.0000
# 2 45.4846 61.6638 26.5628 0.0000 10.6119 0.0000
# 3 57.8773 26.5628 102.9954 0.0000 11.5555 0.0000
# 4 0.0000 0.0000 0.0000 33.4156 0.0000 -4.8760
# 5 7.8114 10.6119 11.5555 0.0000 40.9041 0.0000
# 6 0.0000 0.0000 0.0000 -4.8760 0.0000 20.7769
#
#
#
# Elastic Compliance Matrix: (Units=1/GPa)
#
#
# Indices 1 2 3 4 5 6 
#
# 1 0.010660 -0.006056 -0.004520 0.000000 0.000812 0.000000
# 2 -0.006056 0.022187 -0.001862 0.000000 -0.004074 0.000000
# 3 -0.004520 -0.001862 0.012990 0.000000 -0.002323 0.000000
# 4 0.000000 0.000000 0.000000 0.030987 0.000000 0.007272
# 5 0.000812 -0.004074 -0.002323 0.000000 0.026006 0.000000
# 6 0.000000 0.000000 0.000000 0.007272 0.000000 0.049837
#
#
# Mechanical properties :
#
#
# Convention : Reuss Voigt Hill
#
# Bulk Modulus (GPa) = 47.70567 63.12186 55.41376
# Shear Modulus (GPa) = 27.09581 30.90749 29.00165
#
# Velocity S-wave (km/s) = 3.63568 3.88300 3.76137
# Velocity P-wave (km/s) = 6.39505 7.13417 6.77470
#
# Compressibility (1/GPa) = 0.02096187
#
# Stress axis : x y z
#
# Youngs Moduli (GPa) = 93.80505 45.07104 76.98307
#
# Poissons Ratio (x) = 0.27296 0.34794
# Poissons Ratio (y) = 0.56810 0.14333
# Poissons Ratio (z) = 0.42397 0.08392
#
# Static dielectric constant tensor:
#      x y z
#    x 4.389740 0.000000 -0.053050 
#    y 0.000000 3.505900 0.000000 
#    z -0.053050 0.000000 3.640850 
# 
# 
# High freq. dielectric constant tensor:
#      x y z
#    x 1.828050 0.000000 -0.006910 
#    y 0.000000 1.775560 0.000000 
#    z -0.006910 0.000000 1.790480 
# 
# From -- ./inp_files/40743.got.cif
#   From: 2010.06.25/outbox.cif.g09.slc.cpg/sg15_21_cif.got.tgz:40743.got - 2010.06.28 07:06:18.
