data_PCOD8137991
_publ_section_title
;
Structure prediction by ZEFSAII (Michael W. Deem and Ramdas Pophale) SiO2 
 PCOD8137991
Probable space group: C 2/C
;
_chemical_formula_sum "Si O2"
_cell_formula_units_Z 28
_cell_length_a 8.033970
_cell_length_b 11.582533
_cell_length_c 17.560468
_cell_angle_alpha 90.000000
_cell_angle_beta 62.860536
_cell_angle_gamma 90.000000
_cell_volume 1454.154231
_symmetry_space_group_name_H-M "C 2/C"
_symmetry_group_IT_number 15
_symmetry_cell_setting 'monoclinic'
loop_
_space_group_symop_operation_xyz
x,y,z
-x,y,1/2-z
-x,-y,-z
x,-y,1/2+z
1/2+x,1/2+y,z
1/2-x,1/2+y,1/2-z
1/2-x,1/2-y,-z
1/2+x,1/2-y,1/2+z
loop_
_atom_site_type_symbol
_atom_site_label
_atom_site_fract_x
_atom_site_fract_y
_atom_site_fract_z
Si Si1 0.427050 0.377107 0.108938
Si Si2 0.000000 0.985061 0.250000
Si Si3 0.671967 0.120519 0.396139
Si Si4 0.274884 0.978995 0.968620
O O1 0.427562 0.401065 0.198685
O O2 0.324698 0.257745 0.112412
O O3 0.309704 0.478093 0.093012
O O4 0.639845 0.380767 0.032796
O O5 0.832383 0.067405 0.310487
O O6 0.473322 0.075706 0.407752
O O7 0.704478 0.085970 0.477158
#
# Coordination Sequence:
#
# PCOD8137991 Si02
#       4
#     8   4   8   8
#     4  10  20  37  56  78 108 140 174 221 264 307
#     4  10  24  34  48  84 112 136 180 210 260 332
#     4  10  20  37  56  78 108 140 174 221 264 307
#     4   9  20  36  58  81 100 136 188 217 254 318
#
# _framework density 19.255179999999999
#
# number of rings (size 3 to 8) (size 9 to 14) (size 15 to 20)
#    0.000    2.286    0.000    1.714    0.000    5.714 
#    0.000    5.714    0.000    0.000    0.000    0.000 
#    0.000    0.000    0.000    0.000    0.000    0.000 
#
# Total GULP energy -173648.913760 kJ/mol
# GULP energy per Si atom -12403.493840 kJ/mol
# Density = 1.921135 g / cm^3
# Si number density = 19.255180 Si / 1000 Ang^3
#
#
#
# Elastic Constant Matrix: (Units=GPa)
#
#
# Indices 1 2 3 4 5 6 
#
# 1 80.0442 -7.1615 25.3492 0.0000 -3.9116 0.0000
# 2 -7.1615 65.4184 12.6474 0.0000 1.1824 0.0000
# 3 25.3492 12.6474 78.9118 0.0000 5.8673 0.0000
# 4 0.0000 0.0000 0.0000 12.0377 0.0000 -5.0047
# 5 -3.9116 1.1824 5.8673 0.0000 42.7895 0.0000
# 6 0.0000 0.0000 0.0000 -5.0047 0.0000 24.4457
#
#
#
# Elastic Compliance Matrix: (Units=1/GPa)
#
#
# Indices 1 2 3 4 5 6 
#
# 1 0.014465 0.002554 -0.005202 0.000000 0.001965 0.000000
# 2 0.002554 0.016226 -0.003440 0.000000 0.000257 0.000000
# 3 -0.005202 -0.003440 0.015077 0.000000 -0.002448 0.000000
# 4 0.000000 0.000000 0.000000 0.090801 0.000000 0.018589
# 5 0.001965 0.000257 -0.002448 0.000000 0.023878 0.000000
# 6 0.000000 0.000000 0.000000 0.018589 0.000000 0.044713
#
#
# Mechanical properties :
#
#
# Convention : Reuss Voigt Hill
#
# Bulk Modulus (GPa) = 29.76962 31.78272 30.77617
# Shear Modulus (GPa) = 21.87860 28.75720 25.31790
#
# Velocity S-wave (km/s) = 3.37448 3.86875 3.63004
# Velocity P-wave (km/s) = 5.53868 6.04137 5.79548
#
# Compressibility (1/GPa) = 0.03359129
#
# Stress axis : x y z
#
# Youngs Moduli (GPa) = 69.13213 61.62864 66.32705
#
# Poissons Ratio (x) = -0.15738 0.34504
# Poissons Ratio (y) = -0.17655 0.22817
# Poissons Ratio (z) = 0.35963 0.21201
#
# Static dielectric constant tensor:
#      x y z
#    x 3.689380 0.000000 -0.021710 
#    y 0.000000 3.255260 0.000000 
#    z -0.021710 0.000000 3.432460 
# 
# 
# High freq. dielectric constant tensor:
#      x y z
#    x 1.767380 0.000000 0.000770 
#    y 0.000000 1.738490 0.000000 
#    z 0.000770 0.000000 1.743440 
# 
# From -- ./inp_files/131470.got.cif
#   From: 2010.06.25/outbox.cif.g09.slc.cpg/sg15_66_cif.got.tgz:131470.got - 2010.06.28 07:06:18.
