data_PCOD8137156
_publ_section_title
;
Structure prediction by ZEFSAII (Michael W. Deem and Ramdas Pophale) SiO2 
 PCOD8137156
Probable space group: C 2/C
;
_chemical_formula_sum "Si O2"
_cell_formula_units_Z 56
_cell_length_a 11.998628
_cell_length_b 16.531411
_cell_length_c 15.667558
_cell_angle_alpha 90.000000
_cell_angle_beta 63.927974
_cell_angle_gamma 90.000000
_cell_volume 2791.491494
_symmetry_space_group_name_H-M "C 2/C"
_symmetry_group_IT_number 15
_symmetry_cell_setting 'monoclinic'
loop_
_space_group_symop_operation_xyz
x,y,z
-x,y,1/2-z
-x,-y,-z
x,-y,1/2+z
1/2+x,1/2+y,z
1/2-x,1/2+y,1/2-z
1/2-x,1/2-y,-z
1/2+x,1/2-y,1/2+z
loop_
_atom_site_type_symbol
_atom_site_label
_atom_site_fract_x
_atom_site_fract_y
_atom_site_fract_z
Si Si1 0.618151 0.407424 0.485873
Si Si2 0.000000 0.736595 0.750000
Si Si3 0.929339 0.735102 0.080832
Si Si4 0.844684 0.322734 0.448693
Si Si5 0.093486 0.022112 0.345868
Si Si6 0.785809 0.178371 0.231981
Si Si7 0.500000 0.609097 0.750000
Si Si8 0.842297 0.246745 0.888968
O O1 0.571183 0.330179 0.445209
O O2 0.756482 0.400535 0.477887
O O3 0.629661 0.487298 0.425344
O O4 0.528584 0.422642 0.596849
O O5 0.908480 0.680502 0.835197
O O6 0.923436 0.788249 0.705971
O O7 0.797853 0.709706 0.163346
O O8 0.032595 0.711973 0.116249
O O9 0.946997 0.679203 0.990194
O O10 0.750000 0.250000 0.500000
O O11 0.202349 0.080743 0.274488
O O12 0.073557 0.947821 0.289641
O O13 0.728855 0.205935 0.160941
O O14 0.392627 0.661155 0.834283
O O15 0.750000 0.250000 0.000000
#
# Coordination Sequence:
#
# PCOD8137156 Si02
#       8
#     8   4   8   8   8   8   4   8
#     4  10  20  41  59  93 132 171 214 286 336 393
#     4  12  21  36  64  95 126 168 220 266 337 378
#     4  11  21  43  65  97 132 173 227 286 327 405
#     4  10  20  35  62  90 128 162 218 279 320 397
#     4  11  24  36  67  96 135 171 222 280 354 384
#     4  12  23  38  66 101 135 175 225 284 331 408
#     4  12  25  44  68 107 134 174 232 288 325 414
#     4  12  24  44  72  95 134 181 234 279 338 400
#
# _framework density 20.060960000000001
#
# number of rings (size 3 to 8) (size 9 to 14) (size 15 to 20)
#    0.000    0.857    5.714    3.857    4.000    0.000 
#    0.000    0.000    3.143    1.714    0.000    0.000 
#    0.000    0.000    0.000    0.000    0.000    0.000 
#
# Total GULP energy -346882.391726 kJ/mol
# GULP energy per Si atom -12388.656847 kJ/mol
# Density = 2.001530 g / cm^3
# Si number density = 20.060960 Si / 1000 Ang^3
#
#
#
# Elastic Constant Matrix: (Units=GPa)
#
#
# Indices 1 2 3 4 5 6 
#
# 1 130.7712 44.1641 28.1793 0.0000 19.2629 0.0000
# 2 44.1641 90.0734 49.9900 0.0000 -4.8814 0.0000
# 3 28.1793 49.9900 127.5290 0.0000 -4.0076 0.0000
# 4 0.0000 0.0000 0.0000 27.6581 0.0000 -2.8996
# 5 19.2629 -4.8814 -4.0076 0.0000 38.2864 0.0000
# 6 0.0000 0.0000 0.0000 -2.8996 0.0000 34.4058
#
#
#
# Elastic Compliance Matrix: (Units=1/GPa)
#
#
# Indices 1 2 3 4 5 6 
#
# 1 0.010353 -0.005143 -0.000458 0.000000 -0.005913 0.000000
# 2 -0.005143 0.016802 -0.005318 0.000000 0.004173 0.000000
# 3 -0.000458 -0.005318 0.010046 0.000000 0.000604 0.000000
# 4 0.000000 0.000000 0.000000 0.036478 0.000000 0.003074
# 5 -0.005913 0.004173 0.000604 0.000000 0.029689 0.000000
# 6 0.000000 0.000000 0.000000 0.003074 0.000000 0.029324
#
#
# Mechanical properties :
#
#
# Convention : Reuss Voigt Hill
#
# Bulk Modulus (GPa) = 65.09039 65.89336 65.49188
# Shear Modulus (GPa) = 31.31833 35.13941 33.22887
#
# Velocity S-wave (km/s) = 3.95544 4.18979 4.07430
# Velocity P-wave (km/s) = 7.30598 7.50491 7.40611
#
# Compressibility (1/GPa) = 0.01536325
#
# Stress axis : x y z
#
# Youngs Moduli (GPa) = 96.58736 59.51842 99.53985
#
# Poissons Ratio (x) = 0.30609 0.04555
# Poissons Ratio (y) = 0.49673 0.52940
# Poissons Ratio (z) = 0.04420 0.31655
#
# Static dielectric constant tensor:
#      x y z
#    x 4.195730 0.000000 0.259460 
#    y 0.000000 3.564980 0.000000 
#    z 0.259460 0.000000 3.996250 
# 
# 
# High freq. dielectric constant tensor:
#      x y z
#    x 1.787670 0.000000 0.014360 
#    y 0.000000 1.748900 0.000000 
#    z 0.014360 0.000000 1.803000 
# 
# From -- ./inp_files/146003.got.cif
#   From: 2010.06.25/outbox.cif.g09.slc.cpg/sg15_74_cif.got.tgz:146003.got - 2010.06.28 07:06:18.
