data_PCOD8137912
_publ_section_title
;
Structure prediction by ZEFSAII (Michael W. Deem and Ramdas Pophale) SiO2 
 PCOD8137912
Probable space group: C 2/C
;
_chemical_formula_sum "Si O2"
_cell_formula_units_Z 40
_cell_length_a 14.400370
_cell_length_b 14.991620
_cell_length_c 20.552359
_cell_angle_alpha 90.000000
_cell_angle_beta 157.331341
_cell_angle_gamma 90.000000
_cell_volume 1710.004009
_symmetry_space_group_name_H-M "C 2/C"
_symmetry_group_IT_number 15
_symmetry_cell_setting 'monoclinic'
loop_
_space_group_symop_operation_xyz
x,y,z
-x,y,1/2-z
-x,-y,-z
x,-y,1/2+z
1/2+x,1/2+y,z
1/2-x,1/2+y,1/2-z
1/2-x,1/2-y,-z
1/2+x,1/2-y,1/2+z
loop_
_atom_site_type_symbol
_atom_site_label
_atom_site_fract_x
_atom_site_fract_y
_atom_site_fract_z
Si Si1 0.153185 0.388629 0.147854
Si Si2 0.961223 0.420810 0.888120
Si Si3 0.655479 0.634750 0.964296
Si Si4 0.000000 0.255444 0.750000
Si Si5 0.017379 0.800355 0.619386
Si Si6 0.000000 0.258598 0.250000
O O1 0.011463 0.473616 0.083178
O O2 0.429365 0.425749 0.337598
O O3 0.096851 0.300141 0.152136
O O4 0.089960 0.370424 0.031308
O O5 0.696602 0.376722 0.707531
O O6 0.120200 0.409388 0.926487
O O7 0.506973 0.703626 0.822148
O O8 0.757170 0.684072 0.093978
O O9 0.023545 0.805502 0.702150
O O10 0.744120 0.818447 0.416417
#
# Coordination Sequence:
#
# PCOD8137912 Si02
#       6
#     8   8   8   4   8   4
#     4  11  24  42  68 100 130 175 220 263 323 398
#     4  11  24  42  68 100 130 175 220 263 323 398
#     4  11  22  40  65 100 131 170 210 280 319 389
#     4  10  20  36  66  92 126 170 210 256 342 368
#     4  11  22  45  68  96 130 175 216 273 320 392
#     4  10  24  40  68  96 132 178 216 262 328 380
#
# _framework density 23.391757999999999
#
# number of rings (size 3 to 8) (size 9 to 14) (size 15 to 20)
#    0.000    1.200    4.000    2.400    0.000    4.800 
#    0.000    6.000    0.000    0.000    0.000    0.000 
#    0.000    0.000    0.000    0.000    0.000    0.000 
#
# Total GULP energy -247785.011239 kJ/mol
# GULP energy per Si atom -12389.250562 kJ/mol
# Density = 2.333852 g / cm^3
# Si number density = 23.391758 Si / 1000 Ang^3
#
#
#
# Elastic Constant Matrix: (Units=GPa)
#
#
# Indices 1 2 3 4 5 6 
#
# 1 56.8373 5.9033 11.1352 -0.0800 5.6317 0.0052
# 2 5.9033 68.8213 6.1002 -0.0147 -1.3837 -0.0028
# 3 11.1352 6.1002 147.9526 0.0736 7.7019 -0.0060
# 4 -0.0800 -0.0147 0.0736 27.4919 -0.0061 -1.2518
# 5 5.6317 -1.3837 7.7019 -0.0061 45.7327 -0.0027
# 6 0.0052 -0.0028 -0.0060 -1.2518 -0.0027 10.3113
#
#
#
# Elastic Compliance Matrix: (Units=1/GPa)
#
#
# Indices 1 2 3 4 5 6 
#
# 1 0.018191 -0.001496 -0.001199 0.000055 -0.002083 -0.000004
# 2 -0.001496 0.014720 -0.000532 0.000005 0.000719 0.000005
# 3 -0.001199 -0.000532 0.006925 -0.000022 -0.001035 0.000001
# 4 0.000055 0.000005 -0.000022 0.036577 0.000002 0.004440
# 5 -0.002083 0.000719 -0.001035 0.000002 0.022319 0.000007
# 6 -0.000004 0.000005 0.000001 0.004440 0.000007 0.097520
#
#
# Mechanical properties :
#
#
# Convention : Reuss Voigt Hill
#
# Bulk Modulus (GPa) = 29.95563 35.54317 32.74940
# Shear Modulus (GPa) = 23.38280 33.40536 28.39408
#
# Velocity S-wave (km/s) = 3.16510 3.78310 3.48781
# Velocity P-wave (km/s) = 5.11772 5.85749 5.50005
#
# Compressibility (1/GPa) = 0.03338270
#
# Stress axis : x y z
#
# Youngs Moduli (GPa) = 54.97268 67.93345 144.40523
#
# Poissons Ratio (x) = 0.10163 0.17314
# Poissons Ratio (y) = 0.08224 0.07679
# Poissons Ratio (z) = 0.06591 0.03613
#
# Static dielectric constant tensor:
#      x y z
#    x 4.043340 0.000040 0.100330 
#    y 0.000040 3.763080 -0.000270 
#    z 0.100330 -0.000270 4.898180 
# 
# 
# High freq. dielectric constant tensor:
#      x y z
#    x 1.917740 0.000000 0.007980 
#    y 0.000000 1.887910 -0.000020 
#    z 0.007980 -0.000020 1.955210 
# 
# From -- ./inp_files/48821.got.cif
#   From: 2010.06.25/outbox.cif.g09.slc.cpg/sg15_25_cif.got.tgz:48821.got - 2010.06.28 07:06:18.
