data_PCOD8137526
_publ_section_title
;
Structure prediction by ZEFSAII (Michael W. Deem and Ramdas Pophale) SiO2 
 PCOD8137526
Probable space group: C 2/C
;
_chemical_formula_sum "Si O2"
_cell_formula_units_Z 56
_cell_length_a 5.272371
_cell_length_b 27.957551
_cell_length_c 21.178228
_cell_angle_alpha 90.000000
_cell_angle_beta 68.073104
_cell_angle_gamma 90.000000
_cell_volume 2895.903167
_symmetry_space_group_name_H-M "C 2/C"
_symmetry_group_IT_number 15
_symmetry_cell_setting 'monoclinic'
loop_
_space_group_symop_operation_xyz
x,y,z
-x,y,1/2-z
-x,-y,-z
x,-y,1/2+z
1/2+x,1/2+y,z
1/2-x,1/2+y,1/2-z
1/2-x,1/2-y,-z
1/2+x,1/2-y,1/2+z
loop_
_atom_site_type_symbol
_atom_site_label
_atom_site_fract_x
_atom_site_fract_y
_atom_site_fract_z
Si Si1 0.622090 0.973910 0.670506
Si Si2 0.787643 0.999875 0.405178
Si Si3 0.383580 0.223907 0.329493
Si Si4 0.253201 0.250124 0.094822
Si Si5 0.213216 0.375001 0.607862
Si Si6 0.251549 0.670341 0.498476
Si Si7 0.996975 0.579659 0.001528
O O1 0.500000 0.983545 0.750000
O O2 0.411505 0.991119 0.636017
O O3 0.717138 0.918657 0.657016
O O4 0.897838 0.004886 0.642568
O O5 0.749029 0.042234 0.460734
O O6 0.734023 0.949407 0.444714
O O7 0.500000 0.233548 0.250000
O O8 0.575474 0.254883 0.357442
O O9 0.438160 0.168653 0.342978
O O10 0.069521 0.241114 0.363972
O O11 0.318144 0.300595 0.055295
O O12 0.381244 0.207768 0.039259
O O13 0.503481 0.355030 0.560897
O O14 0.063813 0.394967 0.560901
O O15 0.069606 0.624999 0.536928
#
# Coordination Sequence:
#
# PCOD8137526 Si02
#       7
#     8   8   8   8   8   8   8
#     4  11  22  39  57  85 122 160 193 235 288 372
#     4  10  23  36  59  87 118 156 193 240 304 343
#     4  11  22  39  57  85 122 160 193 235 288 372
#     4  10  23  36  59  87 118 156 193 240 304 343
#     4  10  21  34  60  90 118 146 194 240 316 340
#     4  10  20  36  59  88 121 145 196 253 299 354
#     4  10  20  36  59  88 121 145 196 253 299 354
#
# _framework density 19.337664
#
# number of rings (size 3 to 8) (size 9 to 14) (size 15 to 20)
#    0.000    1.714    2.857    1.286    4.000    3.429 
#    0.000    2.857    0.000    3.429    0.000    0.000 
#    0.000    0.000    0.000    0.000    0.000    0.000 
#
# Total GULP energy -346968.996659 kJ/mol
# GULP energy per Si atom -12391.749881 kJ/mol
# Density = 1.929365 g / cm^3
# Si number density = 19.337664 Si / 1000 Ang^3
#
#
#
# Elastic Constant Matrix: (Units=GPa)
#
#
# Indices 1 2 3 4 5 6 
#
# 1 100.4804 30.3812 39.6794 0.0000 -0.1090 0.0000
# 2 30.3812 117.2716 48.4346 0.0000 0.6622 0.0000
# 3 39.6794 48.4346 113.3829 0.0000 0.5643 0.0000
# 4 0.0000 0.0000 0.0000 31.8457 0.0000 0.5402
# 5 -0.1090 0.6622 0.5643 0.0000 29.1040 0.0000
# 6 0.0000 0.0000 0.0000 0.5402 0.0000 17.4209
#
#
#
# Elastic Compliance Matrix: (Units=1/GPa)
#
#
# Indices 1 2 3 4 5 6 
#
# 1 0.011803 -0.001642 -0.003430 0.000000 0.000148 0.000000
# 2 -0.001642 0.010583 -0.003945 0.000000 -0.000170 0.000000
# 3 -0.003430 -0.003945 0.011706 0.000000 -0.000150 0.000000
# 4 0.000000 0.000000 0.000000 0.031418 0.000000 -0.000974
# 5 0.000148 -0.000170 -0.000150 0.000000 0.034367 0.000000
# 6 0.000000 0.000000 0.000000 -0.000974 0.000000 0.057433
#
#
# Mechanical properties :
#
#
# Convention : Reuss Voigt Hill
#
# Bulk Modulus (GPa) = 62.27516 63.12503 62.70010
# Shear Modulus (GPa) = 27.67059 29.85009 28.76034
#
# Velocity S-wave (km/s) = 3.78685 3.93316 3.86070
# Velocity P-wave (km/s) = 7.16898 7.30348 7.23654
#
# Compressibility (1/GPa) = 0.01605777
#
# Stress axis : x y z
#
# Youngs Moduli (GPa) = 84.72188 94.49059 85.42537
#
# Poissons Ratio (x) = 0.15516 0.29301
# Poissons Ratio (y) = 0.13912 0.33703
# Poissons Ratio (z) = 0.29059 0.37280
#
# Static dielectric constant tensor:
#      x y z
#    x 3.254120 0.000000 0.005890 
#    y 0.000000 4.266130 0.000000 
#    z 0.005890 0.000000 3.415590 
# 
# 
# High freq. dielectric constant tensor:
#      x y z
#    x 1.748140 0.000000 -0.000350 
#    y 0.000000 1.753790 0.000000 
#    z -0.000350 0.000000 1.738830 
# 
# From -- ./inp_files/228410.got.cif
#   From: 2010.06.25/outbox.cif.g09.slc.cpg/sg15_115_cif.got.tgz:228410.got - 2010.06.28 07:06:18.
