data_PCOD8137389
_publ_section_title
;
Structure prediction by ZEFSAII (Michael W. Deem and Ramdas Pophale) SiO2 
 PCOD8137389
Probable space group: C 2/C
;
_chemical_formula_sum "Si O2"
_cell_formula_units_Z 56
_cell_length_a 12.200265
_cell_length_b 8.691545
_cell_length_c 27.135584
_cell_angle_alpha 90.000000
_cell_angle_beta 73.173488
_cell_angle_gamma 90.000000
_cell_volume 2754.238854
_symmetry_space_group_name_H-M "C 2/C"
_symmetry_group_IT_number 15
_symmetry_cell_setting 'monoclinic'
loop_
_space_group_symop_operation_xyz
x,y,z
-x,y,1/2-z
-x,-y,-z
x,-y,1/2+z
1/2+x,1/2+y,z
1/2-x,1/2+y,1/2-z
1/2-x,1/2-y,-z
1/2+x,1/2-y,1/2+z
loop_
_atom_site_type_symbol
_atom_site_label
_atom_site_fract_x
_atom_site_fract_y
_atom_site_fract_z
Si Si1 0.532750 0.735429 0.421331
Si Si2 0.000000 0.903947 0.750000
Si Si3 0.829429 0.147770 0.805506
Si Si4 0.423503 0.156787 0.687845
Si Si5 0.978797 0.919249 0.450254
Si Si6 0.747389 0.397529 0.074758
Si Si7 0.414743 0.138689 0.021875
Si Si8 0.000000 0.399427 0.750000
O O1 0.532544 0.847863 0.374287
O O2 0.527054 0.553034 0.406780
O O3 0.648995 0.771262 0.438455
O O4 0.418278 0.770794 0.468839
O O5 0.012276 0.799034 0.796188
O O6 0.112904 0.005644 0.729745
O O7 0.711537 0.183922 0.793639
O O8 0.814367 0.104153 0.864456
O O9 0.904652 0.299766 0.789750
O O10 0.448414 0.999011 0.712412
O O11 0.848522 0.868218 0.454470
O O12 0.048192 0.758635 0.439797
O O13 0.000000 0.000000 0.500000
O O14 0.795042 0.568408 0.055539
O O15 0.500000 0.000000 0.000000
#
# Coordination Sequence:
#
# PCOD8137389 Si02
#       8
#     8   4   8   8   8   8   8   4
#     4   9  20  37  57  83 115 148 191 235 279 343
#     4  10  20  36  58  80 112 144 182 240 286 330
#     4  10  21  37  58  84 111 147 190 231 285 345
#     4  10  20  38  58  83 113 145 187 235 287 342
#     4  10  21  37  56  82 115 153 194 234 280 335
#     4  10  21  38  58  82 115 153 190 235 287 337
#     4   9  20  37  57  82 114 152 189 231 278 333
#     4  10  22  38  60  84 112 148 186 238 292 340
#
# _framework density 20.332297000000001
#
# number of rings (size 3 to 8) (size 9 to 14) (size 15 to 20)
#    0.000    2.286    0.000    1.714    0.000   10.857 
#    0.000   14.286    0.000    0.000    0.000    0.000 
#    0.000    0.000    0.000    0.000    0.000    0.000 
#
# Total GULP energy -346895.698995 kJ/mol
# GULP energy per Si atom -12389.132107 kJ/mol
# Density = 2.028602 g / cm^3
# Si number density = 20.332297 Si / 1000 Ang^3
#
#
#
# Elastic Constant Matrix: (Units=GPa)
#
#
# Indices 1 2 3 4 5 6 
#
# 1 90.4101 31.9304 33.5115 0.0000 12.3793 0.0000
# 2 31.9304 113.6481 41.9413 0.0000 -5.2262 0.0000
# 3 33.5115 41.9413 101.8110 0.0000 -3.9524 0.0000
# 4 0.0000 0.0000 0.0000 17.4868 0.0000 0.0462
# 5 12.3793 -5.2262 -3.9524 0.0000 29.4629 0.0000
# 6 0.0000 0.0000 0.0000 0.0462 0.0000 24.6413
#
#
#
# Elastic Compliance Matrix: (Units=1/GPa)
#
#
# Indices 1 2 3 4 5 6 
#
# 1 0.014513 -0.002996 -0.003820 0.000000 -0.007142 0.000000
# 2 -0.002996 0.011043 -0.003456 0.000000 0.002754 0.000000
# 3 -0.003820 -0.003456 0.012607 0.000000 0.002683 0.000000
# 4 0.000000 0.000000 0.000000 0.057186 0.000000 -0.000107
# 5 -0.007142 0.002754 0.002683 0.000000 0.037790 0.000000
# 6 0.000000 0.000000 0.000000 -0.000107 0.000000 0.040583
#
#
# Mechanical properties :
#
#
# Convention : Reuss Voigt Hill
#
# Bulk Modulus (GPa) = 56.75766 57.84841 57.30303
# Shear Modulus (GPa) = 24.98266 27.55060 26.26663
#
# Velocity S-wave (km/s) = 3.50911 3.68505 3.59815
# Velocity P-wave (km/s) = 6.66289 6.82784 6.74587
#
# Compressibility (1/GPa) = 0.01761877
#
# Stress axis : x y z
#
# Youngs Moduli (GPa) = 68.90567 90.55528 79.31888
#
# Poissons Ratio (x) = 0.27132 0.30299
# Poissons Ratio (y) = 0.20645 0.27413
# Poissons Ratio (z) = 0.26321 0.31297
#
# Static dielectric constant tensor:
#      x y z
#    x 3.719360 0.000000 -0.039030 
#    y 0.000000 4.380750 0.000000 
#    z -0.039030 0.000000 3.731980 
# 
# 
# High freq. dielectric constant tensor:
#      x y z
#    x 1.787050 0.000000 0.004390 
#    y 0.000000 1.807840 0.000000 
#    z 0.004390 0.000000 1.785040 
# 
# From -- ./inp_files/309950.got.cif
#   From: 2010.06.25/outbox.cif.g09.slc.cpg/sg15_155_cif.got.tgz:309950.got - 2010.06.28 07:06:18.
