data_PCOD8137126
_publ_section_title
;
Structure prediction by ZEFSAII (Michael W. Deem and Ramdas Pophale) SiO2 
 PCOD8137126
Probable space group: C 2/C
;
_chemical_formula_sum "Si O2"
_cell_formula_units_Z 60
_cell_length_a 22.987166
_cell_length_b 15.087258
_cell_length_c 9.025811
_cell_angle_alpha 90.000000
_cell_angle_beta 70.275739
_cell_angle_gamma 90.000000
_cell_volume 2946.611188
_symmetry_space_group_name_H-M "C 2/C"
_symmetry_group_IT_number 15
_symmetry_cell_setting 'monoclinic'
loop_
_space_group_symop_operation_xyz
x,y,z
-x,y,1/2-z
-x,-y,-z
x,-y,1/2+z
1/2+x,1/2+y,z
1/2-x,1/2+y,1/2-z
1/2-x,1/2-y,-z
1/2+x,1/2-y,1/2+z
loop_
_atom_site_type_symbol
_atom_site_label
_atom_site_fract_x
_atom_site_fract_y
_atom_site_fract_z
Si Si1 0.875773 0.057534 0.760299
Si Si2 0.713640 0.272834 0.878526
Si Si3 0.522831 0.307926 0.398277
Si Si4 0.304310 0.084177 0.272053
Si Si5 0.000000 0.511038 0.750000
Si Si6 0.599214 0.392624 0.951008
Si Si7 0.732248 0.913408 0.365061
Si Si8 0.438891 0.112954 0.060646
O O1 0.915888 0.131071 0.636696
O O2 0.805216 0.089145 0.835529
O O3 0.876919 0.958471 0.695423
O O4 0.905569 0.048452 0.896804
O O5 0.752702 0.346861 0.758440
O O6 0.644083 0.309578 0.950059
O O7 0.711880 0.177648 0.798796
O O8 0.750000 0.250000 0.000000
O O9 0.500000 0.297481 0.250000
O O10 0.467555 0.354381 0.537888
O O11 0.533459 0.211152 0.456313
O O12 0.306077 0.078060 0.448921
O O13 0.366137 0.119736 0.145291
O O14 0.286600 0.987879 0.232092
O O15 0.045602 0.572520 0.613687
O O16 0.038253 0.449612 0.827093
#
# Coordination Sequence:
#
# PCOD8137126 Si02
#       8
#     8   8   8   8   4   8   8   8
#     4  11  20  41  60  92 125 163 204 260 311 369
#     4  10  20  35  61  89 121 163 205 244 301 373
#     4  10  23  37  66  91 118 168 217 250 308 375
#     4  11  22  37  63  90 121 163 204 254 311 357
#     4  10  24  40  64  84 126 162 202 262 316 352
#     4  11  22  40  64  89 126 163 207 258 309 373
#     4  11  21  37  63  90 125 162 205 255 306 370
#     4  11  22  42  61  92 122 163 211 258 305 375
#
# _framework density 20.362373999999999
#
# number of rings (size 3 to 8) (size 9 to 14) (size 15 to 20)
#    0.000    1.333    4.667    2.000    5.600    2.133 
#    2.400    0.667    0.000    0.000    0.000    0.000 
#    0.000    0.000    0.000    0.000    0.000    0.000 
#
# Total GULP energy -371893.729425 kJ/mol
# GULP energy per Si atom -12396.457648 kJ/mol
# Density = 2.031603 g / cm^3
# Si number density = 20.362374 Si / 1000 Ang^3
#
#
#
# Elastic Constant Matrix: (Units=GPa)
#
#
# Indices 1 2 3 4 5 6 
#
# 1 73.4170 29.6287 31.7671 0.0000 -22.9215 0.0000
# 2 29.6287 155.8746 47.3503 0.0000 -1.5300 0.0000
# 3 31.7671 47.3503 80.0193 0.0000 -21.6408 0.0000
# 4 0.0000 0.0000 0.0000 25.5509 0.0000 1.4636
# 5 -22.9215 -1.5300 -21.6408 0.0000 30.6192 0.0000
# 6 0.0000 0.0000 0.0000 1.4636 0.0000 35.0022
#
#
#
# Elastic Compliance Matrix: (Units=1/GPa)
#
#
# Indices 1 2 3 4 5 6 
#
# 1 0.019976 -0.002825 -0.002785 0.000000 0.012845 0.000000
# 2 -0.002825 0.008548 -0.005431 0.000000 -0.005526 0.000000
# 3 -0.002785 -0.005431 0.020003 0.000000 0.011781 0.000000
# 4 0.000000 0.000000 0.000000 0.039232 0.000000 -0.001640
# 5 0.012845 -0.005526 0.011781 0.000000 0.050325 0.000000
# 6 0.000000 0.000000 0.000000 -0.001640 0.000000 0.028638
#
#
# Mechanical properties :
#
#
# Convention : Reuss Voigt Hill
#
# Bulk Modulus (GPa) = 37.81529 58.53368 48.17449
# Shear Modulus (GPa) = 25.30125 31.60544 28.45334
#
# Velocity S-wave (km/s) = 3.52881 3.94401 3.74217
# Velocity P-wave (km/s) = 5.93420 7.03908 6.51012
#
# Compressibility (1/GPa) = 0.02644433
#
# Stress axis : x y z
#
# Youngs Moduli (GPa) = 50.05972 116.98642 49.99353
#
# Poissons Ratio (x) = 0.33049 0.13923
# Poissons Ratio (y) = 0.14142 0.27153
# Poissons Ratio (z) = 0.13942 0.63538
#
# Static dielectric constant tensor:
#      x y z
#    x 3.714230 0.000000 -0.247950 
#    y 0.000000 4.245480 0.000000 
#    z -0.247950 0.000000 3.519160 
# 
# 
# High freq. dielectric constant tensor:
#      x y z
#    x 1.793650 0.000000 -0.024480 
#    y 0.000000 1.816470 0.000000 
#    z -0.024480 0.000000 1.772690 
# 
# From -- ./inp_files/61874.got.cif
#   From: 2010.06.25/outbox.cif.g09.slc.cpg/sg15_31_cif.got.tgz:61874.got - 2010.06.28 07:06:18.
