data_PCOD8137676
_publ_section_title
;
Structure prediction by ZEFSAII (Michael W. Deem and Ramdas Pophale) SiO2 
 PCOD8137676
Probable space group: C 2/C
;
_chemical_formula_sum "Si O2"
_cell_formula_units_Z 52
_cell_length_a 14.674741
_cell_length_b 10.578259
_cell_length_c 20.026461
_cell_angle_alpha 90.000000
_cell_angle_beta 123.425123
_cell_angle_gamma 90.000000
_cell_volume 2594.600907
_symmetry_space_group_name_H-M "C 2/C"
_symmetry_group_IT_number 15
_symmetry_cell_setting 'monoclinic'
loop_
_space_group_symop_operation_xyz
x,y,z
-x,y,1/2-z
-x,-y,-z
x,-y,1/2+z
1/2+x,1/2+y,z
1/2-x,1/2+y,1/2-z
1/2-x,1/2-y,-z
1/2+x,1/2-y,1/2+z
loop_
_atom_site_type_symbol
_atom_site_label
_atom_site_fract_x
_atom_site_fract_y
_atom_site_fract_z
Si Si1 0.500000 0.729078 0.750000
Si Si2 0.467452 0.291884 0.466301
Si Si3 0.942252 0.021655 0.064988
Si Si4 0.600699 0.127336 0.175123
Si Si5 0.345059 0.364598 0.789267
Si Si6 0.107742 0.380717 0.114672
Si Si7 0.831943 0.015194 0.656794
O O1 0.485756 0.818019 0.807902
O O2 0.395037 0.642421 0.700066
O O3 0.556838 0.380553 0.464876
O O4 0.400954 0.377282 0.493009
O O5 0.385393 0.228183 0.380192
O O6 0.530123 0.179518 0.528556
O O7 0.068903 0.052237 0.134019
O O8 0.859729 0.031059 0.093498
O O9 0.719472 0.099897 0.255926
O O10 0.547941 0.995970 0.128449
O O11 0.359285 0.217884 0.813761
O O12 0.365143 0.399314 0.719390
O O13 0.206966 0.446096 0.114697
#
# Coordination Sequence:
#
# PCOD8137676 Si02
#       7
#     4   8   8   8   8   8   8
#     4  12  20  38  62  90 116 152 202 254 288 344
#     4  10  21  39  60  84 124 158 195 241 305 359
#     4  10  20  37  63  88 114 159 206 247 286 352
#     4  11  22  38  60  87 124 157 195 246 302 351
#     4  10  20  36  61  89 113 156 205 242 293 345
#     4  10  23  38  59  88 124 161 188 245 307 354
#     4  11  19  37  64  88 117 152 210 249 283 345
#
# _framework density 20.041619000000001
#
# number of rings (size 3 to 8) (size 9 to 14) (size 15 to 20)
#    0.000    1.538    4.615    0.462    2.154    0.615 
#    5.538    3.077    0.000    0.000    0.000    0.000 
#    0.000    0.000    0.000    0.000    0.000    0.000 
#
# Total GULP energy -322280.736743 kJ/mol
# GULP energy per Si atom -12395.412952 kJ/mol
# Density = 1.999600 g / cm^3
# Si number density = 20.041619 Si / 1000 Ang^3
#
#
#
# Elastic Constant Matrix: (Units=GPa)
#
#
# Indices 1 2 3 4 5 6 
#
# 1 89.6671 45.9395 35.8658 0.0000 -27.0795 0.0000
# 2 45.9395 114.6685 38.1542 0.0000 -19.0253 0.0000
# 3 35.8658 38.1542 61.6733 0.0000 -17.8262 0.0000
# 4 0.0000 0.0000 0.0000 44.5659 0.0000 -11.3242
# 5 -27.0795 -19.0253 -17.8262 0.0000 34.1804 0.0000
# 6 0.0000 0.0000 0.0000 -11.3242 0.0000 33.0471
#
#
#
# Elastic Compliance Matrix: (Units=1/GPa)
#
#
# Indices 1 2 3 4 5 6 
#
# 1 0.018161 -0.003913 -0.005430 0.000000 0.009378 0.000000
# 2 -0.003913 0.012097 -0.004896 0.000000 0.001080 0.000000
# 3 -0.005430 -0.004896 0.023986 0.000000 0.005482 0.000000
# 4 0.000000 0.000000 0.000000 0.024579 0.000000 0.008422
# 5 0.009378 0.001080 0.005482 0.000000 0.040147 0.000000
# 6 0.000000 0.000000 0.000000 0.008422 0.000000 0.033146
#
#
# Mechanical properties :
#
#
# Convention : Reuss Voigt Hill
#
# Bulk Modulus (GPa) = 38.81141 56.21422 47.51282
# Shear Modulus (GPa) = 26.42956 32.09530 29.26243
#
# Velocity S-wave (km/s) = 3.63538 4.00613 3.82525
# Velocity P-wave (km/s) = 6.08512 7.03622 6.57789
#
# Compressibility (1/GPa) = 0.02576562
#
# Stress axis : x y z
#
# Youngs Moduli (GPa) = 55.06160 82.66734 41.69143
#
# Poissons Ratio (x) = 0.32350 0.22639
# Poissons Ratio (y) = 0.21547 0.20412
# Poissons Ratio (z) = 0.29899 0.40473
#
# Static dielectric constant tensor:
#      x y z
#    x 3.448400 0.000000 -0.247650 
#    y 0.000000 3.900250 0.000000 
#    z -0.247650 0.000000 3.704660 
# 
# 
# High freq. dielectric constant tensor:
#      x y z
#    x 1.756960 0.000000 -0.018590 
#    y 0.000000 1.795470 0.000000 
#    z -0.018590 0.000000 1.779750 
# 
# From -- ./inp_files/243805.got.cif
#   From: 2010.06.25/outbox.cif.g09.slc.cpg/sg15_122_cif.got.tgz:243805.got - 2010.06.28 07:06:18.
