data_PCOD8137804
_publ_section_title
;
Structure prediction by ZEFSAII (Michael W. Deem and Ramdas Pophale) SiO2 
 PCOD8137804
Probable space group: C 2/C
;
_chemical_formula_sum "Si O2"
_cell_formula_units_Z 64
_cell_length_a 16.961209
_cell_length_b 21.886218
_cell_length_c 8.587287
_cell_angle_alpha 90.000000
_cell_angle_beta 84.839904
_cell_angle_gamma 90.000000
_cell_volume 3174.825454
_symmetry_space_group_name_H-M "C 2/C"
_symmetry_group_IT_number 15
_symmetry_cell_setting 'monoclinic'
loop_
_space_group_symop_operation_xyz
x,y,z
-x,y,1/2-z
-x,-y,-z
x,-y,1/2+z
1/2+x,1/2+y,z
1/2-x,1/2+y,1/2-z
1/2-x,1/2-y,-z
1/2+x,1/2-y,1/2+z
loop_
_atom_site_type_symbol
_atom_site_label
_atom_site_fract_x
_atom_site_fract_y
_atom_site_fract_z
Si Si1 0.738534 0.858849 0.769578
Si Si2 0.909883 0.667623 0.727935
Si Si3 0.865418 0.162631 0.716725
Si Si4 0.662467 0.770512 0.562627
Si Si5 0.310119 0.473776 0.617311
Si Si6 0.282113 0.095205 0.887633
Si Si7 0.916546 0.962615 0.317221
Si Si8 0.164569 0.772192 0.573766
O O1 0.669881 0.819486 0.700650
O O2 0.761329 0.911828 0.644187
O O3 0.818536 0.819280 0.787207
O O4 0.704430 0.880823 0.940204
O O5 0.890556 0.697913 0.562757
O O6 0.862609 0.604014 0.772262
O O7 0.885790 0.715791 0.862408
O O8 0.000000 0.652096 0.750000
O O9 0.876605 0.209104 0.859340
O O10 0.776801 0.137165 0.705062
O O11 0.920354 0.104424 0.738834
O O12 0.888230 0.195774 0.551097
O O13 0.750000 0.750000 0.500000
O O14 0.247311 0.526099 0.580505
O O15 0.390555 0.462256 0.501698
O O16 0.344993 0.494754 0.774319
O O17 0.000000 0.992543 0.250000
O O18 0.250000 0.750000 0.500000
#
# Coordination Sequence:
#
# PCOD8137804 Si02
#       8
#     8   8   8   8   8   8   8   8
#     4  11  20  36  67  91 114 162 225 254 286 373
#     4  12  25  38  61  99 134 158 199 272 335 363
#     4  10  20  36  63  86 119 170 213 245 298 376
#     4  12  19  35  64  94 118 160 216 253 290 385
#     4  11  23  39  64  91 114 169 221 252 305 374
#     4  10  20  41  60  85 122 167 214 261 307 365
#     4  11  24  40  57  90 133 161 201 263 317 363
#     4  11  18  39  63  88 127 169 206 254 313 376
#
# _framework density 20.158588000000002
#
# number of rings (size 3 to 8) (size 9 to 14) (size 15 to 20)
#    0.000    1.000    7.500    1.125    1.750    1.000 
#    0.000    1.875    0.000    3.000    0.000    0.000 
#    0.000    0.000    0.000    0.000    0.000    0.000 
#
# Total GULP energy -396422.379526 kJ/mol
# GULP energy per Si atom -12388.199360 kJ/mol
# Density = 2.011271 g / cm^3
# Si number density = 20.158588 Si / 1000 Ang^3
#
#
#
# Elastic Constant Matrix: (Units=GPa)
#
#
# Indices 1 2 3 4 5 6 
#
# 1 82.8515 21.9352 29.7701 0.0000 0.4376 0.0000
# 2 21.9352 91.7502 21.4347 0.0000 -3.9600 0.0000
# 3 29.7701 21.4347 76.9193 0.0000 4.6757 0.0000
# 4 0.0000 0.0000 0.0000 25.5085 0.0000 -11.7856
# 5 0.4376 -3.9600 4.6757 0.0000 24.0802 0.0000
# 6 0.0000 0.0000 0.0000 -11.7856 0.0000 15.7307
#
#
#
# Elastic Compliance Matrix: (Units=1/GPa)
#
#
# Indices 1 2 3 4 5 6 
#
# 1 0.014462 -0.002279 -0.004982 0.000000 0.000330 0.000000
# 2 -0.002279 0.012178 -0.002667 0.000000 0.002562 0.000000
# 3 -0.004982 -0.002667 0.015881 0.000000 -0.003432 0.000000
# 4 0.000000 0.000000 0.000000 0.059957 0.000000 0.044920
# 5 0.000330 0.002562 -0.003432 0.000000 0.042610 0.000000
# 6 0.000000 0.000000 0.000000 0.044920 0.000000 0.097225
#
#
# Mechanical properties :
#
#
# Convention : Reuss Voigt Hill
#
# Bulk Modulus (GPa) = 44.12422 44.20012 44.16217
# Shear Modulus (GPa) = 18.53757 24.95595 21.74676
#
# Velocity S-wave (km/s) = 3.03576 3.52231 3.28805
# Velocity P-wave (km/s) = 5.85011 6.20613 6.03075
#
# Compressibility (1/GPa) = 0.02266329
#
# Stress axis : x y z
#
# Youngs Moduli (GPa) = 69.14853 82.11701 62.96972
#
# Poissons Ratio (x) = 0.18717 0.31371
# Poissons Ratio (y) = 0.15761 0.16795
# Poissons Ratio (z) = 0.34450 0.21901
#
# Static dielectric constant tensor:
#      x y z
#    x 3.358430 0.000000 0.100790 
#    y 0.000000 3.894580 0.000000 
#    z 0.100790 0.000000 3.912040 
# 
# 
# High freq. dielectric constant tensor:
#      x y z
#    x 1.738810 0.000000 0.007540 
#    y 0.000000 1.790400 0.000000 
#    z 0.007540 0.000000 1.801300 
# 
# From -- ./inp_files/50230.got.cif
#   From: 2010.06.25/outbox.cif.g09.slc.cpg/sg15_26_cif.got.tgz:50230.got - 2010.06.28 07:06:18.
