data_PCOD8137085
_publ_section_title
;
Structure prediction by ZEFSAII (Michael W. Deem and Ramdas Pophale) SiO2 
 PCOD8137085
Probable space group: C 2/C
;
_chemical_formula_sum "Si O2"
_cell_formula_units_Z 60
_cell_length_a 17.744620
_cell_length_b 18.600633
_cell_length_c 10.746432
_cell_angle_alpha 90.000000
_cell_angle_beta 57.013169
_cell_angle_gamma 90.000000
_cell_volume 2975.191549
_symmetry_space_group_name_H-M "C 2/C"
_symmetry_group_IT_number 15
_symmetry_cell_setting 'monoclinic'
loop_
_space_group_symop_operation_xyz
x,y,z
-x,y,1/2-z
-x,-y,-z
x,-y,1/2+z
1/2+x,1/2+y,z
1/2-x,1/2+y,1/2-z
1/2-x,1/2-y,-z
1/2+x,1/2-y,1/2+z
loop_
_atom_site_type_symbol
_atom_site_label
_atom_site_fract_x
_atom_site_fract_y
_atom_site_fract_z
Si Si1 0.635243 0.355715 0.946309
Si Si2 0.682334 0.548021 0.182018
Si Si3 0.939587 0.144353 0.546904
Si Si4 0.280752 0.606580 0.868621
Si Si5 0.541344 0.207934 0.579687
Si Si6 0.641099 0.191810 0.864518
Si Si7 0.500000 0.563572 0.250000
Si Si8 0.214693 0.669560 0.539408
O O1 0.679750 0.418496 0.822448
O O2 0.654672 0.277738 0.867081
O O3 0.528003 0.366182 0.053101
O O4 0.677408 0.362366 0.043363
O O5 0.745286 0.478248 0.109134
O O6 0.582707 0.518338 0.232688
O O7 0.711351 0.611318 0.063086
O O8 0.852008 0.114740 0.693214
O O9 0.919491 0.227095 0.536006
O O10 0.957168 0.109894 0.397911
O O11 0.187066 0.650209 0.938071
O O12 0.500000 0.233742 0.750000
O O13 0.464150 0.171925 0.562302
O O14 0.626209 0.156488 0.531865
O O15 0.692937 0.157902 0.702012
O O16 0.250000 0.750000 0.500000
#
# Coordination Sequence:
#
# PCOD8137085 Si02
#       8
#     8   8   8   8   8   8   4   8
#     4  10  23  40  55  86 124 159 204 245 291 362
#     4  11  25  36  59  89 120 159 201 253 295 369
#     4  10  20  35  60  87 116 162 196 245 298 358
#     4  12  25  37  58  85 127 164 197 237 313 369
#     4   9  18  35  63  93 114 141 202 265 293 339
#     4  10  21  39  62  86 117 156 202 255 300 345
#     4  10  20  36  56  82 126 148 198 244 296 350
#     4  11  19  37  65  91 111 152 204 254 300 346
#
# _framework density 20.166768000000001
#
# number of rings (size 3 to 8) (size 9 to 14) (size 15 to 20)
#    0.000    1.600    2.000    3.200    5.600    1.067 
#    0.000    0.667    0.000    0.000    0.000    0.000 
#    0.000    0.000    0.000    0.000    0.000    0.000 
#
# Total GULP energy -371760.600223 kJ/mol
# GULP energy per Si atom -12392.020007 kJ/mol
# Density = 2.012087 g / cm^3
# Si number density = 20.166768 Si / 1000 Ang^3
#
#
#
# Elastic Constant Matrix: (Units=GPa)
#
#
# Indices 1 2 3 4 5 6 
#
# 1 145.0636 38.7817 19.3449 0.0000 11.2634 0.0000
# 2 38.7817 82.0995 8.9493 0.0000 -5.4549 0.0000
# 3 19.3449 8.9493 56.8496 0.0000 6.1694 0.0000
# 4 0.0000 0.0000 0.0000 16.9932 0.0000 -2.4467
# 5 11.2634 -5.4549 6.1694 0.0000 23.9288 0.0000
# 6 0.0000 0.0000 0.0000 -2.4467 0.0000 18.2201
#
#
#
# Elastic Compliance Matrix: (Units=1/GPa)
#
#
# Indices 1 2 3 4 5 6 
#
# 1 0.008597 -0.004169 -0.001777 0.000000 -0.004539 0.000000
# 2 -0.004169 0.014694 -0.001513 0.000000 0.005702 0.000000
# 3 -0.001777 -0.001513 0.018909 0.000000 -0.004384 0.000000
# 4 0.000000 0.000000 0.000000 0.060007 0.000000 0.008058
# 5 -0.004539 0.005702 -0.004384 0.000000 0.046357 0.000000
# 6 0.000000 0.000000 0.000000 0.008058 0.000000 0.055967
#
#
# Mechanical properties :
#
#
# Convention : Reuss Voigt Hill
#
# Bulk Modulus (GPa) = 36.65446 46.46273 41.55860
# Shear Modulus (GPa) = 21.87771 26.29087 24.08429
#
# Velocity S-wave (km/s) = 3.29726 3.61456 3.45955
# Velocity P-wave (km/s) = 5.71936 6.36469 6.05064
#
# Compressibility (1/GPa) = 0.02728181
#
# Stress axis : x y z
#
# Youngs Moduli (GPa) = 116.31294 68.05701 52.88550
#
# Poissons Ratio (x) = 0.28374 0.09396
# Poissons Ratio (y) = 0.48493 0.08003
# Poissons Ratio (z) = 0.20665 0.10298
#
# Static dielectric constant tensor:
#      x y z
#    x 4.060170 0.000000 -0.039920 
#    y 0.000000 3.462750 0.000000 
#    z -0.039920 0.000000 3.526590 
# 
# 
# High freq. dielectric constant tensor:
#      x y z
#    x 1.804450 0.000000 0.008020 
#    y 0.000000 1.759790 0.000000 
#    z 0.008020 0.000000 1.770880 
# 
# From -- ./inp_files/106676.got.cif
#   From: 2010.06.25/outbox.cif.g09.slc.cpg/sg15_54_cif.got.tgz:106676.got - 2010.06.28 07:06:18.
