data_PCOD8137346
_publ_section_title
;
Structure prediction by ZEFSAII (Michael W. Deem and Ramdas Pophale) SiO2 
 PCOD8137346
Probable space group: C 2/C
;
_chemical_formula_sum "Si O2"
_cell_formula_units_Z 40
_cell_length_a 8.480846
_cell_length_b 29.467892
_cell_length_c 12.228208
_cell_angle_alpha 90.000000
_cell_angle_beta 142.106326
_cell_angle_gamma 90.000000
_cell_volume 1876.979435
_symmetry_space_group_name_H-M "C 2/C"
_symmetry_group_IT_number 15
_symmetry_cell_setting 'monoclinic'
loop_
_space_group_symop_operation_xyz
x,y,z
-x,y,1/2-z
-x,-y,-z
x,-y,1/2+z
1/2+x,1/2+y,z
1/2-x,1/2+y,1/2-z
1/2-x,1/2-y,-z
1/2+x,1/2-y,1/2+z
loop_
_atom_site_type_symbol
_atom_site_label
_atom_site_fract_x
_atom_site_fract_y
_atom_site_fract_z
Si Si1 0.226695 0.223046 0.598035
Si Si2 0.238335 0.389178 0.663148
Si Si3 0.309086 0.800949 0.743388
Si Si4 0.465894 0.043818 0.601372
Si Si5 0.914389 0.019877 0.338722
O O1 0.500000 0.195766 0.750000
O O2 0.250000 0.250000 0.500000
O O3 0.189195 0.257579 0.677774
O O4 0.980254 0.190127 0.461073
O O5 0.500000 0.371529 0.750000
O O6 0.102295 0.346821 0.647306
O O7 0.299137 0.429151 0.784803
O O8 0.036088 0.407638 0.461070
O O9 0.500000 0.790115 0.750000
O O10 0.500000 0.050098 0.750000
O O11 0.180246 0.022546 0.412893
O O12 0.688145 0.012940 0.671024
O O13 0.000000 0.000000 0.500000
#
# Coordination Sequence:
#
# PCOD8137346 Si02
#       5
#     8   8   8   8   8
#     4   9  19  39  65  86 112 153 190 228 290 361
#     4  10  20  36  57  83 116 157 197 237 287 355
#     4  11  22  38  61  90 119 149 190 246 295 342
#     4   9  18  34  57  81 110 152 196 243 291 341
#     4   9  18  33  54  80 113 153 194 238 289 343
#
# _framework density 21.310835000000001
#
# number of rings (size 3 to 8) (size 9 to 14) (size 15 to 20)
#    0.000    2.400    0.000    3.000    0.000    2.400 
#    0.000   23.000    0.000   12.000    0.000    0.000 
#    0.000    0.000    0.000    0.000    0.000    0.000 
#
# Total GULP energy -247795.975209 kJ/mol
# GULP energy per Si atom -12389.798760 kJ/mol
# Density = 2.126233 g / cm^3
# Si number density = 21.310835 Si / 1000 Ang^3
#
#
#
# Elastic Constant Matrix: (Units=GPa)
#
#
# Indices 1 2 3 4 5 6 
#
# 1 117.3299 40.3665 39.5854 0.0000 5.5422 0.0000
# 2 40.3665 82.3541 28.6191 0.0000 -0.0030 0.0000
# 3 39.5854 28.6191 140.3449 0.0000 16.2298 0.0000
# 4 0.0000 0.0000 0.0000 27.9675 0.0000 -7.0869
# 5 5.5422 -0.0030 16.2298 0.0000 26.0321 0.0000
# 6 0.0000 0.0000 0.0000 -7.0869 0.0000 32.9440
#
#
#
# Elastic Compliance Matrix: (Units=1/GPa)
#
#
# Indices 1 2 3 4 5 6 
#
# 1 0.010834 -0.004619 -0.001991 0.000000 -0.001066 0.000000
# 2 -0.004619 0.015116 -0.002041 0.000000 0.002257 0.000000
# 3 -0.001991 -0.002041 0.008680 0.000000 -0.004988 0.000000
# 4 0.000000 0.000000 0.000000 0.037817 0.000000 0.008135
# 5 -0.001066 0.002257 -0.004988 0.000000 0.041751 0.000000
# 6 0.000000 0.000000 0.000000 0.008135 0.000000 0.032105
#
#
# Mechanical properties :
#
#
# Convention : Reuss Voigt Hill
#
# Bulk Modulus (GPa) = 57.70535 61.90787 59.80661
# Shear Modulus (GPa) = 29.51961 32.81925 31.16943
#
# Velocity S-wave (km/s) = 3.72585 3.92857 3.82856
# Velocity P-wave (km/s) = 6.75619 7.04920 6.90425
#
# Compressibility (1/GPa) = 0.01732941
#
# Stress axis : x y z
#
# Youngs Moduli (GPa) = 92.30236 66.15595 115.21061
#
# Poissons Ratio (x) = 0.30555 0.22935
# Poissons Ratio (y) = 0.42631 0.23512
# Poissons Ratio (z) = 0.18375 0.13501
#
# Static dielectric constant tensor:
#      x y z
#    x 4.070900 0.000000 0.086970 
#    y 0.000000 3.467730 0.000000 
#    z 0.086970 0.000000 4.917070 
# 
# 
# High freq. dielectric constant tensor:
#      x y z
#    x 1.841340 0.000000 -0.010070 
#    y 0.000000 1.801760 0.000000 
#    z -0.010070 0.000000 1.858300 
# 
# From -- ./inp_files/25113.got.cif
#   From: 2010.06.25/outbox.cif.g09.slc.cpg/sg15_13_cif.got.tgz:25113.got - 2010.06.28 07:06:18.
