data_PCOD8137080
_publ_section_title
;
Structure prediction by ZEFSAII (Michael W. Deem and Ramdas Pophale) SiO2 
 PCOD8137080
Probable space group: C 2/C
;
_chemical_formula_sum "Si O2"
_cell_formula_units_Z 40
_cell_length_a 8.332323
_cell_length_b 26.389019
_cell_length_c 11.007185
_cell_angle_alpha 90.000000
_cell_angle_beta 124.969756
_cell_angle_gamma 90.000000
_cell_volume 1983.309797
_symmetry_space_group_name_H-M "C 2/C"
_symmetry_group_IT_number 15
_symmetry_cell_setting 'monoclinic'
loop_
_space_group_symop_operation_xyz
x,y,z
-x,y,1/2-z
-x,-y,-z
x,-y,1/2+z
1/2+x,1/2+y,z
1/2-x,1/2+y,1/2-z
1/2-x,1/2-y,-z
1/2+x,1/2-y,1/2+z
loop_
_atom_site_type_symbol
_atom_site_label
_atom_site_fract_x
_atom_site_fract_y
_atom_site_fract_z
Si Si1 0.590689 0.692688 0.479710
Si Si2 0.679418 0.417739 0.976134
Si Si3 0.261241 0.565999 0.270152
Si Si4 0.196779 0.282998 0.666116
Si Si5 0.500000 0.981699 0.250000
Si Si6 0.000000 0.352844 0.750000
O O1 0.613555 0.633259 0.517629
O O2 0.757492 0.701063 0.451089
O O3 0.378709 0.709276 0.336322
O O4 0.633969 0.723770 0.623179
O O5 0.740869 0.407401 0.863203
O O6 0.482050 0.451928 0.896634
O O7 0.856948 0.445861 0.114840
O O8 0.122904 0.516732 0.210883
O O9 0.188292 0.609433 0.333427
O O10 0.013991 0.316037 0.638174
#
# Coordination Sequence:
#
# PCOD8137080 Si02
#       6
#     8   8   8   8   4   4
#     4  10  20  38  58  87 114 166 194 243 290 362
#     4  11  20  41  61  84 124 159 198 244 303 359
#     4  10  21  39  62  86 118 162 200 237 310 364
#     4  10  20  35  60  85 119 154 206 235 294 351
#     4  11  24  34  66  96 112 148 208 263 292 340
#     4  11  18  36  62  86 114 164 200 239 286 364
#
# _framework density 20.168306999999999
#
# number of rings (size 3 to 8) (size 9 to 14) (size 15 to 20)
#    0.000    1.600    4.000    2.400    0.000    4.000 
#    0.000    0.000    0.000    0.000    0.000    0.000 
#    0.000    0.000    0.000    0.000    0.000    0.000 
#
# Total GULP energy -247786.179448 kJ/mol
# GULP energy per Si atom -12389.308972 kJ/mol
# Density = 2.012240 g / cm^3
# Si number density = 20.168307 Si / 1000 Ang^3
#
#
#
# Elastic Constant Matrix: (Units=GPa)
#
#
# Indices 1 2 3 4 5 6 
#
# 1 112.3457 50.7398 54.4139 0.0000 13.9507 0.0000
# 2 50.7398 131.7938 74.7132 0.0000 17.3211 0.0000
# 3 54.4139 74.7132 90.9526 0.0000 20.9973 0.0000
# 4 0.0000 0.0000 0.0000 32.6780 0.0000 -5.6039
# 5 13.9507 17.3211 20.9973 0.0000 20.5384 0.0000
# 6 0.0000 0.0000 0.0000 -5.6039 0.0000 31.7866
#
#
#
# Elastic Compliance Matrix: (Units=1/GPa)
#
#
# Indices 1 2 3 4 5 6 
#
# 1 0.012634 -0.001083 -0.006412 0.000000 -0.001113 0.000000
# 2 -0.001083 0.014293 -0.011100 0.000000 0.000029 0.000000
# 3 -0.006412 -0.011100 0.027203 0.000000 -0.014094 0.000000
# 4 0.000000 0.000000 0.000000 0.031556 0.000000 0.005563
# 5 -0.001113 0.000029 -0.014094 0.000000 0.063829 0.000000
# 6 0.000000 0.000000 0.000000 0.005563 0.000000 0.032441
#
#
# Mechanical properties :
#
#
# Convention : Reuss Voigt Hill
#
# Bulk Modulus (GPa) = 59.03201 77.20290 68.11745
# Shear Modulus (GPa) = 22.24276 27.34896 24.79586
#
# Velocity S-wave (km/s) = 3.32453 3.68644 3.51015
# Velocity P-wave (km/s) = 6.63852 7.51546 7.09056
#
# Compressibility (1/GPa) = 0.01693996
#
# Stress axis : x y z
#
# Youngs Moduli (GPa) = 79.15164 69.96300 36.76080
#
# Poissons Ratio (x) = 0.07575 0.23571
# Poissons Ratio (y) = 0.08570 0.40806
# Poissons Ratio (z) = 0.50753 0.77661
#
# Static dielectric constant tensor:
#      x y z
#    x 3.983700 0.000000 0.099300 
#    y 0.000000 3.912640 0.000000 
#    z 0.099300 0.000000 3.314760 
# 
# 
# High freq. dielectric constant tensor:
#      x y z
#    x 1.798180 0.000000 0.017670 
#    y 0.000000 1.796290 0.000000 
#    z 0.017670 0.000000 1.740350 
# 
# From -- ./inp_files/23669.got.cif
#   From: 2010.06.25/outbox.cif.g09.slc.cpg/sg15_12_cif.got.tgz:23669.got - 2010.06.28 07:06:18.
