data_PCOD8137828
_publ_section_title
;
Structure prediction by ZEFSAII (Michael W. Deem and Ramdas Pophale) SiO2 
 PCOD8137828
Probable space group: C 2/C
;
_chemical_formula_sum "Si O2"
_cell_formula_units_Z 56
_cell_length_a 20.661169
_cell_length_b 11.945564
_cell_length_c 24.026937
_cell_angle_alpha 90.000000
_cell_angle_beta 154.062201
_cell_angle_gamma 90.000000
_cell_volume 2593.784670
_symmetry_space_group_name_H-M "C 2/C"
_symmetry_group_IT_number 15
_symmetry_cell_setting 'monoclinic'
loop_
_space_group_symop_operation_xyz
x,y,z
-x,y,1/2-z
-x,-y,-z
x,-y,1/2+z
1/2+x,1/2+y,z
1/2-x,1/2+y,1/2-z
1/2-x,1/2-y,-z
1/2+x,1/2-y,1/2+z
loop_
_atom_site_type_symbol
_atom_site_label
_atom_site_fract_x
_atom_site_fract_y
_atom_site_fract_z
Si Si1 0.397173 0.854352 0.803785
Si Si2 0.424012 0.665765 0.909441
Si Si3 0.834056 0.717900 0.139351
Si Si4 0.185975 0.428876 0.977440
Si Si5 0.625708 0.578207 0.155663
Si Si6 0.348479 0.748900 0.237401
Si Si7 0.315262 0.819823 0.001272
O O1 0.469441 0.756751 0.898001
O O2 0.302603 0.803077 0.679827
O O3 0.514406 0.932307 0.862916
O O4 0.292520 0.930508 0.761062
O O5 0.443469 0.544579 0.895954
O O6 0.255927 0.684833 0.799945
O O7 0.533367 0.667208 0.046834
O O8 0.782880 0.610497 0.062346
O O9 0.000000 0.743282 0.250000
O O10 0.753094 0.834297 0.067993
O O11 0.243695 0.553357 0.034646
O O12 0.623920 0.624519 0.216961
O O13 0.505622 0.813186 0.355914
O O14 0.258826 0.733279 0.110877
O O15 0.250000 0.750000 0.000000
#
# Coordination Sequence:
#
# PCOD8137828 Si02
#       7
#     8   8   8   8   8   8   8
#     4  10  20  36  63  94 126 167 211 262 325 393
#     4  10  21  39  64  94 133 168 212 260 325 390
#     4   9  20  38  61  93 127 164 214 271 332 385
#     4  10  22  41  61  93 127 169 216 276 324 389
#     4  10  21  39  62  94 128 174 206 263 322 383
#     4  11  24  46  63  99 130 170 221 274 321 396
#     4  12  27  45  68  93 131 175 226 271 334 390
#
# _framework density 21.590074000000001
#
# number of rings (size 3 to 8) (size 9 to 14) (size 15 to 20)
#    0.000    1.714    1.429    2.143    2.000    5.714 
#    5.143    2.143    0.000    0.000    0.000    0.000 
#    0.000    0.000    0.000    0.000    0.000    0.000 
#
# Total GULP energy -347013.238858 kJ/mol
# GULP energy per Si atom -12393.329959 kJ/mol
# Density = 2.154093 g / cm^3
# Si number density = 21.590074 Si / 1000 Ang^3
#
#
#
# Elastic Constant Matrix: (Units=GPa)
#
#
# Indices 1 2 3 4 5 6 
#
# 1 76.5503 29.4485 5.4882 -0.0032 -17.2761 -0.0002
# 2 29.4485 89.7372 17.0846 -0.0020 -8.8310 -0.0065
# 3 5.4882 17.0846 69.6168 -0.0131 -23.6166 -0.0048
# 4 -0.0032 -0.0020 -0.0131 20.9083 -0.0051 3.9681
# 5 -17.2761 -8.8310 -23.6166 -0.0051 35.7480 -0.0025
# 6 -0.0002 -0.0065 -0.0048 3.9681 -0.0025 14.9929
#
#
#
# Elastic Compliance Matrix: (Units=1/GPa)
#
#
# Indices 1 2 3 4 5 6 
#
# 1 0.016845 -0.005222 0.002935 0.000006 0.008790 -0.000001
# 2 -0.005222 0.013354 -0.003354 -0.000003 -0.001441 0.000005
# 3 0.002935 -0.003354 0.019534 0.000015 0.013495 0.000003
# 4 0.000006 -0.000003 0.000015 0.050357 0.000019 -0.013328
# 5 0.008790 -0.001441 0.013495 0.000019 0.040781 0.000006
# 6 -0.000001 0.000005 0.000003 -0.013328 0.000006 0.070226
#
#
# Mechanical properties :
#
#
# Convention : Reuss Voigt Hill
#
# Bulk Modulus (GPa) = 26.00621 37.77188 31.88904
# Shear Modulus (GPa) = 21.25877 26.58870 23.92373
#
# Velocity S-wave (km/s) = 3.14132 3.51312 3.33241
# Velocity P-wave (km/s) = 5.02283 5.83001 5.44141
#
# Compressibility (1/GPa) = 0.03845236
#
# Stress axis : x y z
#
# Youngs Moduli (GPa) = 59.36304 74.88327 51.19254
#
# Poissons Ratio (x) = 0.39103 -0.15027
# Poissons Ratio (y) = 0.30999 0.17171
# Poissons Ratio (z) = -0.17426 0.25118
#
# Static dielectric constant tensor:
#      x y z
#    x 3.859920 0.000000 -0.120340 
#    y 0.000000 3.794050 0.000030 
#    z -0.120340 0.000030 4.362160 
# 
# 
# High freq. dielectric constant tensor:
#      x y z
#    x 1.851490 0.000000 0.000650 
#    y 0.000000 1.837370 0.000000 
#    z 0.000650 0.000000 1.851740 
# 
# From -- ./inp_files/279986.got.cif
#   From: 2010.06.25/outbox.cif.g09.slc.cpg/sg15_140_cif.got.tgz:279986.got - 2010.06.28 07:06:18.
