data_PCOD8137595
_publ_section_title
;
Structure prediction by ZEFSAII (Michael W. Deem and Ramdas Pophale) SiO2 
 PCOD8137595
Probable space group: C 2/C
;
_chemical_formula_sum "Si O2"
_cell_formula_units_Z 40
_cell_length_a 18.581147
_cell_length_b 6.448706
_cell_length_c 19.541963
_cell_angle_alpha 90.000000
_cell_angle_beta 52.863371
_cell_angle_gamma 90.000000
_cell_volume 1866.721625
_symmetry_space_group_name_H-M "C 2/C"
_symmetry_group_IT_number 15
_symmetry_cell_setting 'monoclinic'
loop_
_space_group_symop_operation_xyz
x,y,z
-x,y,1/2-z
-x,-y,-z
x,-y,1/2+z
1/2+x,1/2+y,z
1/2-x,1/2+y,1/2-z
1/2-x,1/2-y,-z
1/2+x,1/2-y,1/2+z
loop_
_atom_site_type_symbol
_atom_site_label
_atom_site_fract_x
_atom_site_fract_y
_atom_site_fract_z
Si Si1 0.349482 0.926965 0.724402
Si Si2 0.459688 0.890405 0.845061
Si Si3 0.698819 0.168696 0.619036
Si Si4 0.250085 0.929139 0.151993
Si Si5 0.325410 0.650009 0.001687
O O1 0.456955 0.969939 0.656833
O O2 0.331103 0.698498 0.766397
O O3 0.306623 0.096501 0.799243
O O4 0.305894 0.940065 0.674999
O O5 0.500000 0.811677 0.750000
O O6 0.386774 0.076251 0.874423
O O7 0.419306 0.689930 0.908495
O O8 0.704717 0.418636 0.620330
O O9 0.794932 0.090037 0.531002
O O10 0.321514 0.771928 0.076323
O O11 0.250000 0.750000 0.000000
#
# Coordination Sequence:
#
# PCOD8137595 Si02
#       5
#     8   8   8   8   8
#     4  10  20  36  60  87 118 155 200 241 291 357
#     4   9  19  38  57  82 118 151 197 250 287 343
#     4   9  19  38  60  85 117 157 193 242 295 354
#     4  11  20  36  65  85 118 161 196 240 302 356
#     4   9  20  37  58  84 121 155 198 243 297 351
#
# _framework density 21.427938999999999
#
# number of rings (size 3 to 8) (size 9 to 14) (size 15 to 20)
#    0.000    2.400    2.000    1.200    0.000    4.000 
#    0.000   26.000    0.000    0.000    0.000    0.000 
#    0.000    0.000    0.000    0.000    0.000    0.000 
#
# Total GULP energy -247772.080554 kJ/mol
# GULP energy per Si atom -12388.604028 kJ/mol
# Density = 2.137917 g / cm^3
# Si number density = 21.427939 Si / 1000 Ang^3
#
#
#
# Elastic Constant Matrix: (Units=GPa)
#
#
# Indices 1 2 3 4 5 6 
#
# 1 88.0344 18.4886 19.0070 -0.0025 -10.7969 -0.0317
# 2 18.4886 86.3356 7.1943 0.0100 -7.6628 -0.0324
# 3 19.0070 7.1943 76.3356 -0.0041 -18.9290 0.0064
# 4 -0.0025 0.0100 -0.0041 10.6242 0.0007 5.9314
# 5 -10.7969 -7.6628 -18.9290 0.0007 22.8545 0.0009
# 6 -0.0317 -0.0324 0.0064 5.9314 0.0009 23.8606
#
#
#
# Elastic Compliance Matrix: (Units=1/GPa)
#
#
# Indices 1 2 3 4 5 6 
#
# 1 0.012711 -0.002235 -0.002078 -0.000005 0.003534 0.000015
# 2 -0.002235 0.012333 0.000199 -0.000023 0.003244 0.000019
# 3 -0.002078 0.000199 0.016828 0.000011 0.013023 -0.000010
# 4 -0.000005 -0.000023 0.000011 0.109293 -0.000003 -0.027169
# 5 0.003534 0.003244 0.013023 -0.000003 0.057298 0.000004
# 6 0.000015 0.000019 -0.000010 -0.027169 0.000004 0.048664
#
#
# Mechanical properties :
#
#
# Convention : Reuss Voigt Hill
#
# Bulk Modulus (GPa) = 29.72426 37.78726 33.75576
# Shear Modulus (GPa) = 18.07866 25.20223 21.64045
#
# Velocity S-wave (km/s) = 2.90780 3.43321 3.18137
# Velocity P-wave (km/s) = 5.01752 5.77830 5.41130
#
# Compressibility (1/GPa) = 0.03364256
#
# Stress axis : x y z
#
# Youngs Moduli (GPa) = 78.67398 81.08523 59.42510
#
# Poissons Ratio (x) = 0.18123 0.12347
# Poissons Ratio (y) = 0.17584 -0.01180
# Poissons Ratio (z) = 0.16347 -0.01610
#
# Static dielectric constant tensor:
#      x y z
#    x 3.815930 0.000000 0.138630 
#    y 0.000000 3.871550 0.000000 
#    z 0.138630 0.000000 2.595360 
# 
# 
# High freq. dielectric constant tensor:
#      x y z
#    x 1.820820 0.000000 0.014240 
#    y 0.000000 1.824560 0.000000 
#    z 0.014240 0.000000 1.846270 
# 
# From -- ./inp_files/208120.got.cif
#   From: 2010.06.25/outbox.cif.g09.slc.cpg/sg15_105_cif.got.tgz:208120.got - 2010.06.28 07:06:18.
