data_PCOD8137245
_publ_section_title
;
Structure prediction by ZEFSAII (Michael W. Deem and Ramdas Pophale) SiO2 
 PCOD8137245
Probable space group: C 2/C
;
_chemical_formula_sum "Si O2"
_cell_formula_units_Z 56
_cell_length_a 18.438562
_cell_length_b 18.444730
_cell_length_c 16.428076
_cell_angle_alpha 90.000000
_cell_angle_beta 147.857202
_cell_angle_gamma 90.000000
_cell_volume 2972.508855
_symmetry_space_group_name_H-M "C 2/C"
_symmetry_group_IT_number 15
_symmetry_cell_setting 'monoclinic'
loop_
_space_group_symop_operation_xyz
x,y,z
-x,y,1/2-z
-x,-y,-z
x,-y,1/2+z
1/2+x,1/2+y,z
1/2-x,1/2+y,1/2-z
1/2-x,1/2-y,-z
1/2+x,1/2-y,1/2+z
loop_
_atom_site_type_symbol
_atom_site_label
_atom_site_fract_x
_atom_site_fract_y
_atom_site_fract_z
Si Si1 0.607164 0.333807 0.604033
Si Si2 0.758304 0.926465 0.093091
Si Si3 0.863848 0.779226 0.168091
Si Si4 0.967071 0.029103 0.379993
Si Si5 0.101461 0.287763 0.635592
Si Si6 0.798150 0.058085 0.442161
Si Si7 0.979461 0.441174 0.912246
O O1 0.574320 0.386829 0.649103
O O2 0.745080 0.289118 0.754601
O O3 0.482151 0.278258 0.481626
O O4 0.625438 0.377626 0.535867
O O5 0.809932 0.847355 0.171002
O O6 0.843160 0.988917 0.217741
O O7 0.775160 0.919058 0.012393
O O8 0.601672 0.940392 0.964171
O O9 0.894941 0.716299 0.262506
O O10 0.000000 0.801250 0.250000
O O11 0.750000 0.750000 0.000000
O O12 0.000000 0.000000 0.500000
O O13 0.106282 0.014038 0.462547
O O14 0.029970 0.364530 0.549766
O O15 0.657595 0.038150 0.265463
O O16 0.000000 0.500000 0.000000
#
# Coordination Sequence:
#
# PCOD8137245 Si02
#       7
#     8   8   8   8   8   8   8
#     4  10  21  36  54  80 112 143 184 223 265 323
#     4  12  21  35  57  81 112 149 183 223 270 324
#     4  12  22  33  50  79 116 149 175 211 264 329
#     4  10  20  36  54  77 110 146 185 227 263 314
#     4  11  21  34  51  76 107 145 183 217 263 322
#     4  10  21  36  55  83 112 145 182 219 268 326
#     4  11  23  38  54  80 113 145 181 226 272 324
#
# _framework density 18.839305
#
# number of rings (size 3 to 8) (size 9 to 14) (size 15 to 20)
#    0.000    1.143    0.000   11.143    0.000    1.143 
#    0.000    0.000    0.000    0.000    0.000   18.000 
#    0.000    0.000    0.000    0.000    0.000    0.000 
#
# Total GULP energy -347152.388933 kJ/mol
# GULP energy per Si atom -12398.299605 kJ/mol
# Density = 1.879643 g / cm^3
# Si number density = 18.839305 Si / 1000 Ang^3
#
#
#
# Elastic Constant Matrix: (Units=GPa)
#
#
# Indices 1 2 3 4 5 6 
#
# 1 64.6437 40.6889 23.9936 0.0005 29.4268 0.0003
# 2 40.6889 125.4298 62.6120 0.0004 10.5032 0.0003
# 3 23.9936 62.6120 112.4845 0.0004 26.1434 0.0003
# 4 0.0005 0.0004 0.0004 35.8240 0.0003 -1.6090
# 5 29.4268 10.5032 26.1434 0.0003 40.3433 0.0002
# 6 0.0003 0.0003 0.0003 -1.6090 0.0002 24.9015
#
#
#
# Elastic Compliance Matrix: (Units=1/GPa)
#
#
# Indices 1 2 3 4 5 6 
#
# 1 0.030455 -0.010192 0.004383 0.000000 -0.022401 0.000000
# 2 -0.010192 0.014509 -0.007949 0.000000 0.008808 0.000000
# 3 0.004383 -0.007949 0.014884 0.000000 -0.010773 0.000000
# 4 0.000000 0.000000 0.000000 0.027995 0.000000 0.001809
# 5 -0.022401 0.008808 -0.010773 0.000000 0.045814 0.000000
# 6 0.000000 0.000000 0.000000 0.001809 0.000000 0.040275
#
#
# Mechanical properties :
#
#
# Convention : Reuss Voigt Hill
#
# Bulk Modulus (GPa) = 30.92910 61.90523 46.41717
# Shear Modulus (GPa) = 23.55979 31.89801 27.72890
#
# Velocity S-wave (km/s) = 3.54017 4.11927 3.84065
# Velocity P-wave (km/s) = 5.75877 7.45355 6.66029
#
# Compressibility (1/GPa) = 0.03233201
#
# Stress axis : x y z
#
# Youngs Moduli (GPa) = 32.83571 68.92112 67.18715
#
# Poissons Ratio (x) = 0.70241 -0.29449
# Poissons Ratio (y) = 0.33465 0.53410
# Poissons Ratio (z) = -0.14392 0.54789
#
# Static dielectric constant tensor:
#      x y z
#    x 3.565710 0.000000 0.223820 
#    y 0.000000 3.757480 0.000000 
#    z 0.223820 0.000000 3.432470 
# 
# 
# High freq. dielectric constant tensor:
#      x y z
#    x 1.709820 0.000000 0.027710 
#    y 0.000000 1.726480 0.000000 
#    z 0.027710 0.000000 1.743320 
# 
# From -- ./inp_files/215772.got.cif
#   From: 2010.06.25/outbox.cif.g09.slc.cpg/sg15_108_cif.got.tgz:215772.got - 2010.06.28 07:06:18.
