data_PCOD8137486
_publ_section_title
;
Structure prediction by ZEFSAII (Michael W. Deem and Ramdas Pophale) SiO2 
 PCOD8137486
Probable space group: C 2/C
;
_chemical_formula_sum "Si O2"
_cell_formula_units_Z 52
_cell_length_a 6.984049
_cell_length_b 29.005384
_cell_length_c 12.822419
_cell_angle_alpha 90.000000
_cell_angle_beta 72.742652
_cell_angle_gamma 90.000000
_cell_volume 2480.567244
_symmetry_space_group_name_H-M "C 2/C"
_symmetry_group_IT_number 15
_symmetry_cell_setting 'monoclinic'
loop_
_space_group_symop_operation_xyz
x,y,z
-x,y,1/2-z
-x,-y,-z
x,-y,1/2+z
1/2+x,1/2+y,z
1/2-x,1/2+y,1/2-z
1/2-x,1/2-y,-z
1/2+x,1/2-y,1/2+z
loop_
_atom_site_type_symbol
_atom_site_label
_atom_site_fract_x
_atom_site_fract_y
_atom_site_fract_z
Si Si1 0.957465 0.222955 0.965586
Si Si2 0.669903 0.270859 0.650060
Si Si3 0.041036 0.116673 0.533141
Si Si4 0.500000 0.438519 0.250000
Si Si5 0.927564 0.530050 0.654702
Si Si6 0.328972 0.623408 0.353261
Si Si7 0.450202 0.068109 0.433922
O O1 0.908656 0.169811 0.949207
O O2 0.121891 0.243778 0.858691
O O3 0.750000 0.250000 0.000000
O O4 0.077375 0.232147 0.051223
O O5 0.500000 0.248414 0.750000
O O6 0.708019 0.323922 0.671565
O O7 0.963868 0.092893 0.652470
O O8 0.234897 0.091391 0.453531
O O9 0.876304 0.115020 0.468049
O O10 0.314291 0.472642 0.302047
O O11 0.994084 0.562737 0.549909
O O12 0.000000 0.553436 0.750000
O O13 0.038228 0.481078 0.625087
O O14 0.500000 0.602724 0.250000
O O15 0.121745 0.599270 0.356751
#
# Coordination Sequence:
#
# PCOD8137486 Si02
#       7
#     8   8   8   4   8   8   8
#     4  10  20  36  59  83 114 151 188 234 280 337
#     4   9  20  37  54  83 117 148 187 230 281 338
#     4  10  22  38  57  85 113 146 192 232 279 339
#     4  10  22  40  58  80 114 150 190 236 284 340
#     4  10  22  38  58  81 112 146 186 234 286 337
#     4  10  21  36  58  83 114 150 184 229 282 331
#     4  10  22  37  56  85 111 144 188 234 280 337
#
# _framework density 20.962948000000001
#
# number of rings (size 3 to 8) (size 9 to 14) (size 15 to 20)
#    0.000    2.154    0.000    1.846    3.231    1.846 
#    0.000   13.077    0.000    0.000    0.000    0.000 
#    0.000    0.000    0.000    0.000    0.000    0.000 
#
# Total GULP energy -322268.213277 kJ/mol
# GULP energy per Si atom -12394.931280 kJ/mol
# Density = 2.091524 g / cm^3
# Si number density = 20.962948 Si / 1000 Ang^3
#
#
#
# Elastic Constant Matrix: (Units=GPa)
#
#
# Indices 1 2 3 4 5 6 
#
# 1 62.7573 34.6929 11.8992 0.0000 -33.0258 0.0000
# 2 34.6929 83.4037 10.9170 0.0000 -24.6768 0.0000
# 3 11.8992 10.9170 85.6717 0.0000 -20.0722 0.0000
# 4 0.0000 0.0000 0.0000 18.6827 0.0000 -18.4013
# 5 -33.0258 -24.6768 -20.0722 0.0000 48.2726 0.0000
# 6 0.0000 0.0000 0.0000 -18.4013 0.0000 22.1838
#
#
#
# Elastic Compliance Matrix: (Units=1/GPa)
#
#
# Indices 1 2 3 4 5 6 
#
# 1 0.028066 -0.007068 0.000725 0.000000 0.015890 0.000000
# 2 -0.007068 0.015908 -0.000303 0.000000 0.003170 0.000000
# 3 0.000725 -0.000303 0.012952 0.000000 0.005727 0.000000
# 4 0.000000 0.000000 0.000000 0.292484 0.000000 0.242613
# 5 0.015890 0.003170 0.005727 0.000000 0.035589 0.000000
# 6 0.000000 0.000000 0.000000 0.242613 0.000000 0.246324
#
#
# Mechanical properties :
#
#
# Convention : Reuss Voigt Hill
#
# Bulk Modulus (GPa) = 22.91717 38.53900 30.72808
# Shear Modulus (GPa) = 7.58543 29.44939 18.51741
#
# Velocity S-wave (km/s) = 1.90430 3.75217 2.97533
# Velocity P-wave (km/s) = 3.97380 6.09885 5.14719
#
# Compressibility (1/GPa) = 0.04363540
#
# Stress axis : x y z
#
# Youngs Moduli (GPa) = 35.62997 62.86304 77.20753
#
# Poissons Ratio (x) = 0.44432 -0.05600
# Poissons Ratio (y) = 0.25184 0.02336
# Poissons Ratio (z) = -0.02585 0.01902
#
# Static dielectric constant tensor:
#      x y z
#    x 3.803590 0.000000 -0.277270 
#    y 0.000000 3.686830 0.000000 
#    z -0.277270 0.000000 4.088710 
# 
# 
# High freq. dielectric constant tensor:
#      x y z
#    x 1.819120 0.000000 -0.010760 
#    y 0.000000 1.809590 0.000000 
#    z -0.010760 0.000000 1.834240 
# 
# From -- ./inp_files/130706.got.cif
#   From: 2010.06.25/outbox.cif.g09.slc.cpg/sg15_66_cif.got.tgz:130706.got - 2010.06.28 07:06:18.
