data_PCOD8137351
_publ_section_title
;
Structure prediction by ZEFSAII (Michael W. Deem and Ramdas Pophale) SiO2 
 PCOD8137351
Probable space group: C 2/C
;
_chemical_formula_sum "Si O2"
_cell_formula_units_Z 48
_cell_length_a 18.370837
_cell_length_b 8.921388
_cell_length_c 30.681182
_cell_angle_alpha 90.000000
_cell_angle_beta 27.396583
_cell_angle_gamma 90.000000
_cell_volume 2313.821749
_symmetry_space_group_name_H-M "C 2/C"
_symmetry_group_IT_number 15
_symmetry_cell_setting 'monoclinic'
loop_
_space_group_symop_operation_xyz
x,y,z
-x,y,1/2-z
-x,-y,-z
x,-y,1/2+z
1/2+x,1/2+y,z
1/2-x,1/2+y,1/2-z
1/2-x,1/2-y,-z
1/2+x,1/2-y,1/2+z
loop_
_atom_site_type_symbol
_atom_site_label
_atom_site_fract_x
_atom_site_fract_y
_atom_site_fract_z
Si Si1 0.193968 0.543288 0.566953
Si Si2 0.330315 0.068080 0.589494
Si Si3 0.841787 0.465703 0.752237
Si Si4 0.789084 0.637322 0.034980
Si Si5 0.165769 0.333364 0.323478
Si Si6 0.844268 0.081348 0.067249
O O1 0.257800 0.546065 0.483633
O O2 0.182849 0.712510 0.592400
O O3 0.316268 0.453632 0.531662
O O4 0.030139 0.452405 0.654482
O O5 0.261678 0.063047 0.675577
O O6 0.347577 0.240654 0.567321
O O7 0.500000 0.000000 0.500000
O O8 0.236048 0.967655 0.604087
O O9 0.797021 0.602167 0.743910
O O10 0.754336 0.324013 0.777854
O O11 0.788793 0.489263 0.830264
O O12 0.976238 0.681794 0.933130
O O13 0.000000 0.000000 0.000000
#
# Coordination Sequence:
#
# PCOD8137351 Si02
#       6
#     8   8   8   8   8   8
#     4  10  20  36  57  84 115 147 188 238 283 332
#     4   9  18  35  57  81 109 146 191 231 273 338
#     4  10  21  36  56  83 116 148 186 234 281 336
#     4   9  19  37  59  83 114 149 188 233 283 341
#     4   9  19  36  57  83 114 149 187 230 282 338
#     4  11  22  36  58  84 113 150 192 235 285 342
#
# _framework density 20.744897999999999
#
# number of rings (size 3 to 8) (size 9 to 14) (size 15 to 20)
#    0.000    2.333    0.000    3.500    0.000    6.000 
#    0.000    5.000    0.000    6.000    0.000    0.000 
#    0.000    0.000    0.000    0.000    0.000    0.000 
#
# Total GULP energy -297320.347741 kJ/mol
# GULP energy per Si atom -12388.347823 kJ/mol
# Density = 2.069768 g / cm^3
# Si number density = 20.744898 Si / 1000 Ang^3
#
#
#
# Elastic Constant Matrix: (Units=GPa)
#
#
# Indices 1 2 3 4 5 6 
#
# 1 135.4171 33.0528 12.8581 -0.0014 0.8875 -0.0128
# 2 33.0528 58.8556 21.7133 -0.0021 -3.0653 -0.0107
# 3 12.8581 21.7133 38.4137 0.0055 -2.8750 0.0056
# 4 -0.0014 -0.0021 0.0055 27.9538 0.0010 0.2323
# 5 0.8875 -3.0653 -2.8750 0.0010 23.9763 -0.0013
# 6 -0.0128 -0.0107 0.0056 0.2323 -0.0013 50.9244
#
#
#
# Elastic Compliance Matrix: (Units=1/GPa)
#
#
# Indices 1 2 3 4 5 6 
#
# 1 0.008580 -0.004779 -0.000242 0.000000 -0.000958 0.000001
# 2 -0.004779 0.024170 -0.011925 0.000004 0.001837 0.000005
# 3 -0.000242 -0.011925 0.033037 -0.000007 0.002446 -0.000006
# 4 0.000000 0.000004 -0.000007 0.035775 -0.000002 -0.000163
# 5 -0.000958 0.001837 0.002446 -0.000002 0.042271 0.000001
# 6 0.000001 0.000005 -0.000006 -0.000163 0.000001 0.019638
#
#
# Mechanical properties :
#
#
# Convention : Reuss Voigt Hill
#
# Bulk Modulus (GPa) = 31.35319 40.88163 36.11741
# Shear Modulus (GPa) = 24.03907 31.57504 27.80705
#
# Velocity S-wave (km/s) = 3.40780 3.90559 3.66516
# Velocity P-wave (km/s) = 5.53449 6.33150 5.94636
#
# Compressibility (1/GPa) = 0.03189468
#
# Stress axis : x y z
#
# Youngs Moduli (GPa) = 116.54500 41.37419 30.26910
#
# Poissons Ratio (x) = 0.19773 0.00734
# Poissons Ratio (y) = 0.55698 0.36095
# Poissons Ratio (z) = 0.02825 0.49337
#
# Static dielectric constant tensor:
#      x y z
#    x 4.669700 -0.000040 0.433630 
#    y -0.000040 3.945730 -0.000010 
#    z 0.433630 -0.000010 3.592470 
# 
# 
# High freq. dielectric constant tensor:
#      x y z
#    x 1.842130 0.000000 0.013350 
#    y 0.000000 1.806780 0.000000 
#    z 0.013350 0.000000 1.775060 
# 
# From -- ./inp_files/213711.got.cif
#   From: 2010.06.25/outbox.cif.g09.slc.cpg/sg15_107_cif.got.tgz:213711.got - 2010.06.28 07:06:18.
