data_PCOD8137307
_publ_section_title
;
Structure prediction by ZEFSAII (Michael W. Deem and Ramdas Pophale) SiO2 
 PCOD8137307
Probable space group: C 2/C
;
_chemical_formula_sum "Si O2"
_cell_formula_units_Z 56
_cell_length_a 21.564864
_cell_length_b 13.442518
_cell_length_c 9.574361
_cell_angle_alpha 90.000000
_cell_angle_beta 75.914195
_cell_angle_gamma 90.000000
_cell_volume 2692.021904
_symmetry_space_group_name_H-M "C 2/C"
_symmetry_group_IT_number 15
_symmetry_cell_setting 'monoclinic'
loop_
_space_group_symop_operation_xyz
x,y,z
-x,y,1/2-z
-x,-y,-z
x,-y,1/2+z
1/2+x,1/2+y,z
1/2-x,1/2+y,1/2-z
1/2-x,1/2-y,-z
1/2+x,1/2-y,1/2+z
loop_
_atom_site_type_symbol
_atom_site_label
_atom_site_fract_x
_atom_site_fract_y
_atom_site_fract_z
Si Si1 0.281346 0.103524 0.796053
Si Si2 0.074985 0.055302 0.203911
Si Si3 0.398044 0.228660 0.763353
Si Si4 0.132664 0.103344 0.873482
Si Si5 0.158412 0.501547 0.984383
Si Si6 0.587824 0.812255 0.928638
Si Si7 0.963146 0.600800 0.493785
O O1 0.321444 0.206214 0.795136
O O2 0.207176 0.114497 0.866165
O O3 0.291122 0.062433 0.635104
O O4 0.307956 0.024936 0.891722
O O5 0.089467 0.156344 0.283295
O O6 0.000000 0.029138 0.250000
O O7 0.115790 0.968232 0.254362
O O8 0.096831 0.064931 0.031492
O O9 0.436405 0.151168 0.648583
O O10 0.425190 0.213744 0.902747
O O11 0.114878 0.215507 0.836446
O O12 0.134740 0.407800 0.902700
O O13 0.098847 0.573021 0.064615
O O14 0.518000 0.830342 0.894731
O O15 0.000000 0.500000 0.500000
#
# Coordination Sequence:
#
# PCOD8137307 Si02
#       7
#     8   8   8   8   8   8   8
#     4  10  20  36  56  86 114 144 186 221 282 335
#     4  11  23  40  60  82 110 148 193 235 278 319
#     4   9  18  33  58  82 109 146 188 232 269 334
#     4  11  23  38  60  82 111 150 188 236 271 326
#     4   9  19  34  56  82 114 144 177 229 276 338
#     4   9  18  33  55  82 108 147 193 228 272 327
#     4   9  16  30  53  83 111 137 174 227 282 322
#
# _framework density 20.802206999999999
#
# number of rings (size 3 to 8) (size 9 to 14) (size 15 to 20)
#    0.000    2.286    0.000    3.429    0.000    7.429 
#    0.000    6.429    0.000    6.000    0.000    0.000 
#    0.000    0.000    0.000    0.000    0.000    0.000 
#
# Total GULP energy -346944.618185 kJ/mol
# GULP energy per Si atom -12390.879221 kJ/mol
# Density = 2.075486 g / cm^3
# Si number density = 20.802207 Si / 1000 Ang^3
#
#
#
# Elastic Constant Matrix: (Units=GPa)
#
#
# Indices 1 2 3 4 5 6 
#
# 1 131.3216 43.8250 22.9255 0.0000 -23.0529 0.0000
# 2 43.8250 88.7777 -3.4361 0.0000 -0.7240 0.0000
# 3 22.9255 -3.4361 20.8033 0.0000 -9.2146 0.0000
# 4 0.0000 0.0000 0.0000 25.4149 0.0000 -0.6576
# 5 -23.0529 -0.7240 -9.2146 0.0000 29.3406 0.0000
# 6 0.0000 0.0000 0.0000 -0.6576 0.0000 31.2774
#
#
#
# Elastic Compliance Matrix: (Units=1/GPa)
#
#
# Indices 1 2 3 4 5 6 
#
# 1 0.013344 -0.007045 -0.013128 0.000000 0.006188 0.000000
# 2 -0.007045 0.015082 0.009255 0.000000 -0.002256 0.000000
# 3 -0.013128 0.009255 0.069228 0.000000 0.011655 0.000000
# 4 0.000000 0.000000 0.000000 0.039368 0.000000 0.000828
# 5 0.006188 -0.002256 0.011655 0.000000 0.042549 0.000000
# 6 0.000000 0.000000 0.000000 0.000828 0.000000 0.031989
#
#
# Mechanical properties :
#
#
# Convention : Reuss Voigt Hill
#
# Bulk Modulus (GPa) = 13.18948 40.83682 27.01315
# Shear Modulus (GPa) = 19.32973 29.04578 24.18775
#
# Velocity S-wave (km/s) = 3.05161 3.74074 3.41361
# Velocity P-wave (km/s) = 4.33251 6.19122 5.34330
#
# Compressibility (1/GPa) = 0.07581799
#
# Stress axis : x y z
#
# Youngs Moduli (GPa) = 74.93992 66.30575 14.44499
#
# Poissons Ratio (x) = 0.46712 0.18964
# Poissons Ratio (y) = 0.52795 -0.13369
# Poissons Ratio (z) = 0.98383 -0.61368
#
# Static dielectric constant tensor:
#      x y z
#    x 4.203340 0.000000 -0.368130 
#    y 0.000000 4.148420 0.000000 
#    z -0.368130 0.000000 3.537190 
# 
# 
# High freq. dielectric constant tensor:
#      x y z
#    x 1.817400 0.000000 -0.017490 
#    y 0.000000 1.814670 0.000000 
#    z -0.017490 0.000000 1.792780 
# 
# From -- ./inp_files/111550.got.cif
#   From: 2010.06.25/outbox.cif.g09.slc.cpg/sg15_56_cif.got.tgz:111550.got - 2010.06.28 07:06:18.
