data_PCOD8137070
_publ_section_title
;
Structure prediction by ZEFSAII (Michael W. Deem and Ramdas Pophale) SiO2 
 PCOD8137070
Probable space group: C 2/C
;
_chemical_formula_sum "Si O2"
_cell_formula_units_Z 60
_cell_length_a 21.434913
_cell_length_b 13.747956
_cell_length_c 16.299433
_cell_angle_alpha 90.000000
_cell_angle_beta 141.521405
_cell_angle_gamma 90.000000
_cell_volume 2988.669366
_symmetry_space_group_name_H-M "C 2/C"
_symmetry_group_IT_number 15
_symmetry_cell_setting 'monoclinic'
loop_
_space_group_symop_operation_xyz
x,y,z
-x,y,1/2-z
-x,-y,-z
x,-y,1/2+z
1/2+x,1/2+y,z
1/2-x,1/2+y,1/2-z
1/2-x,1/2-y,-z
1/2+x,1/2-y,1/2+z
loop_
_atom_site_type_symbol
_atom_site_label
_atom_site_fract_x
_atom_site_fract_y
_atom_site_fract_z
Si Si1 0.994228 0.830358 0.007989
Si Si2 0.506540 0.139095 0.935648
Si Si3 0.850159 0.498295 0.338605
Si Si4 0.889395 0.962455 0.172464
Si Si5 0.500000 0.054421 0.750000
Si Si6 0.683366 0.054459 0.378499
Si Si7 0.635936 0.505871 0.174152
Si Si8 0.424290 0.249018 0.242928
O O1 0.011256 0.766040 0.107270
O O2 0.074613 0.915079 0.075172
O O3 0.001001 0.755489 0.939265
O O4 0.889053 0.891996 0.899139
O O5 0.426577 0.092288 0.917870
O O6 0.494321 0.119350 0.826196
O O7 0.610919 0.094593 0.074898
O O8 0.832138 0.510051 0.225126
O O9 0.749204 0.471552 0.281005
O O10 0.870078 0.849529 0.169392
O O11 0.000000 0.982143 0.250000
O O12 0.885737 0.023959 0.252065
O O13 0.794427 0.983981 0.016829
O O14 0.399999 0.987564 0.644062
O O15 0.664681 0.169843 0.346274
O O16 0.500000 0.217040 0.250000
#
# Coordination Sequence:
#
# PCOD8137070 Si02
#       8
#     8   8   8   8   4   8   8   8
#     4  10  22  40  62  88 125 168 211 254 319 381
#     4  10  21  42  60  94 125 161 213 258 317 381
#     4  10  22  36  65  90 122 163 206 262 313 377
#     4  10  23  38  58  90 123 162 205 256 323 386
#     4  10  22  38  64  90 122 162 208 264 316 368
#     4  11  20  37  61  89 124 160 205 260 320 374
#     4  10  23  41  60  89 123 171 207 259 312 382
#     4  10  20  35  59  94 119 157 200 263 322 374
#
# _framework density 20.075824999999998
#
# number of rings (size 3 to 8) (size 9 to 14) (size 15 to 20)
#    0.000    1.867    2.000    1.200    7.467    2.133 
#    1.200    0.000    1.467    4.000    0.000    0.000 
#    0.000    0.000    0.000    0.000    0.000    0.000 
#
# Total GULP energy -371717.144199 kJ/mol
# GULP energy per Si atom -12390.571473 kJ/mol
# Density = 2.003013 g / cm^3
# Si number density = 20.075825 Si / 1000 Ang^3
#
#
#
# Elastic Constant Matrix: (Units=GPa)
#
#
# Indices 1 2 3 4 5 6 
#
# 1 98.8586 29.4290 32.8780 0.0000 5.5133 0.0000
# 2 29.4290 90.5068 27.8978 0.0000 -4.8876 0.0000
# 3 32.8780 27.8978 101.1413 0.0000 6.6285 0.0000
# 4 0.0000 0.0000 0.0000 23.3812 0.0000 -8.0831
# 5 5.5133 -4.8876 6.6285 0.0000 30.7072 0.0000
# 6 0.0000 0.0000 0.0000 -8.0831 0.0000 21.2748
#
#
#
# Elastic Compliance Matrix: (Units=1/GPa)
#
#
# Indices 1 2 3 4 5 6 
#
# 1 0.012148 -0.003153 -0.002945 0.000000 -0.002047 0.000000
# 2 -0.003153 0.013115 -0.002806 0.000000 0.003259 0.000000
# 3 -0.002945 -0.002806 0.011780 0.000000 -0.002461 0.000000
# 4 0.000000 0.000000 0.000000 0.049236 0.000000 0.018707
# 5 -0.002047 0.003259 -0.002461 0.000000 0.033983 0.000000
# 6 0.000000 0.000000 0.000000 0.018707 0.000000 0.054111
#
#
# Mechanical properties :
#
#
# Convention : Reuss Voigt Hill
#
# Bulk Modulus (GPa) = 51.99003 52.32401 52.15702
# Shear Modulus (GPa) = 25.17715 28.42612 26.80163
#
# Velocity S-wave (km/s) = 3.54517 3.76698 3.65776
# Velocity P-wave (km/s) = 6.53534 6.71118 6.62385
#
# Compressibility (1/GPa) = 0.01923446
#
# Stress axis : x y z
#
# Youngs Moduli (GPa) = 82.32089 76.24845 84.89080
#
# Poissons Ratio (x) = 0.24038 0.25001
# Poissons Ratio (y) = 0.25953 0.23823
# Poissons Ratio (z) = 0.24244 0.21398
#
# Static dielectric constant tensor:
#      x y z
#    x 3.779500 0.000000 0.088760 
#    y 0.000000 3.502050 0.000000 
#    z 0.088760 0.000000 3.843110 
# 
# 
# High freq. dielectric constant tensor:
#      x y z
#    x 1.779150 0.000000 -0.004620 
#    y 0.000000 1.767150 0.000000 
#    z -0.004620 0.000000 1.792140 
# 
# From -- ./inp_files/215236.got.cif
#   From: 2010.06.25/outbox.cif.g09.slc.cpg/sg15_108_cif.got.tgz:215236.got - 2010.06.28 07:06:18.
