data_PCOD8137492
_publ_section_title
;
Structure prediction by ZEFSAII (Michael W. Deem and Ramdas Pophale) SiO2 
 PCOD8137492
Probable space group: C 2/C
;
_chemical_formula_sum "Si O2"
_cell_formula_units_Z 56
_cell_length_a 31.327887
_cell_length_b 13.122062
_cell_length_c 15.218241
_cell_angle_alpha 90.000000
_cell_angle_beta 26.717417
_cell_angle_gamma 90.000000
_cell_volume 2812.644341
_symmetry_space_group_name_H-M "C 2/C"
_symmetry_group_IT_number 15
_symmetry_cell_setting 'monoclinic'
loop_
_space_group_symop_operation_xyz
x,y,z
-x,y,1/2-z
-x,-y,-z
x,-y,1/2+z
1/2+x,1/2+y,z
1/2-x,1/2+y,1/2-z
1/2-x,1/2-y,-z
1/2+x,1/2-y,1/2+z
loop_
_atom_site_type_symbol
_atom_site_label
_atom_site_fract_x
_atom_site_fract_y
_atom_site_fract_z
Si Si1 0.939979 0.213391 0.064160
Si Si2 0.136131 0.842505 0.250573
Si Si3 0.096393 0.646874 0.022896
Si Si4 0.948189 0.980521 0.433679
Si Si5 0.237276 0.000939 0.820994
Si Si6 0.623294 0.558931 0.199958
Si Si7 0.723905 0.281717 0.905551
O O1 0.861552 0.168018 0.277997
O O2 0.915425 0.317050 0.057468
O O3 0.039579 0.223228 0.931883
O O4 0.953223 0.128022 0.967823
O O5 0.195501 0.803600 0.225746
O O6 0.127305 0.967081 0.266489
O O7 0.185672 0.817640 0.068375
O O8 0.000000 0.612989 0.250000
O O9 0.165637 0.550682 0.890181
O O10 0.141288 0.736379 0.997726
O O11 0.842337 0.021429 0.607565
O O12 0.000000 0.953435 0.250000
O O13 0.014032 0.062203 0.364584
O O14 0.261905 0.881443 0.784988
O O15 0.201081 0.047760 0.980624
#
# Coordination Sequence:
#
# PCOD8137492 Si02
#       7
#     8   8   8   8   8   8   8
#     4  11  19  33  56  91 118 148 191 248 296 346
#     4   9  18  33  59  88 113 144 193 247 293 343
#     4  12  24  38  61  85 119 161 202 238 292 350
#     4   9  16  32  57  88 117 142 185 251 291 333
#     4  10  22  38  57  86 123 152 194 242 298 349
#     4   9  20  33  58  91 119 143 187 253 307 334
#     4  10  20  36  59  84 113 151 201 241 284 352
#
# _framework density 19.910088999999999
#
# number of rings (size 3 to 8) (size 9 to 14) (size 15 to 20)
#    0.000    2.000    2.857    3.000    4.000    0.571 
#    0.000    0.714    3.143    0.000    0.000    0.000 
#    0.000    0.000    0.000    0.000    0.000    0.000 
#
# Total GULP energy -346902.146975 kJ/mol
# GULP energy per Si atom -12389.362392 kJ/mol
# Density = 1.986477 g / cm^3
# Si number density = 19.910089 Si / 1000 Ang^3
#
#
#
# Elastic Constant Matrix: (Units=GPa)
#
#
# Indices 1 2 3 4 5 6 
#
# 1 57.5611 16.8303 37.5883 0.0000 -8.6261 0.0000
# 2 16.8303 68.9303 47.5805 0.0000 -7.1547 0.0000
# 3 37.5883 47.5805 94.3695 0.0000 -16.7253 0.0000
# 4 0.0000 0.0000 0.0000 17.5278 0.0000 -2.8342
# 5 -8.6261 -7.1547 -16.7253 0.0000 22.7237 0.0000
# 6 0.0000 0.0000 0.0000 -2.8342 0.0000 26.6060
#
#
#
# Elastic Compliance Matrix: (Units=1/GPa)
#
#
# Indices 1 2 3 4 5 6 
#
# 1 0.023638 0.001051 -0.009541 0.000000 0.002282 0.000000
# 2 0.001051 0.022339 -0.011920 0.000000 -0.001341 0.000000
# 3 -0.009541 -0.011920 0.021965 0.000000 0.008792 0.000000
# 4 0.000000 0.000000 0.000000 0.058052 0.000000 0.006184
# 5 0.002282 -0.001341 0.008792 0.000000 0.050922 0.000000
# 6 0.000000 0.000000 0.000000 0.006184 0.000000 0.038244
#
#
# Mechanical properties :
#
#
# Convention : Reuss Voigt Hill
#
# Bulk Modulus (GPa) = 36.86850 47.20657 42.03754
# Shear Modulus (GPa) = 18.86650 21.29562 20.08106
#
# Velocity S-wave (km/s) = 3.08163 3.27401 3.17927
# Velocity P-wave (km/s) = 5.58745 6.16875 5.88528
#
# Compressibility (1/GPa) = 0.02712342
#
# Stress axis : x y z
#
# Youngs Moduli (GPa) = 42.30537 44.76397 45.52742
#
# Poissons Ratio (x) = -0.04705 0.43436
# Poissons Ratio (y) = -0.04446 0.54267
# Poissons Ratio (z) = 0.40362 0.53357
#
# Static dielectric constant tensor:
#      x y z
#    x 5.327940 0.000000 -0.017620 
#    y 0.000000 3.492830 0.000000 
#    z -0.017620 0.000000 3.613550 
# 
# 
# High freq. dielectric constant tensor:
#      x y z
#    x 1.791810 0.000000 0.006000 
#    y 0.000000 1.746750 0.000000 
#    z 0.006000 0.000000 1.762580 
# 
# From -- ./inp_files/182104.got.cif
#   From: 2010.06.25/outbox.cif.g09.slc.cpg/sg15_92_cif.got.tgz:182104.got - 2010.06.28 07:06:18.
