data_PCOD8137579
_publ_section_title
;
Structure prediction by ZEFSAII (Michael W. Deem and Ramdas Pophale) SiO2 
 PCOD8137579
Probable space group: C 2/C
;
_chemical_formula_sum "Si O2"
_cell_formula_units_Z 52
_cell_length_a 27.017145
_cell_length_b 9.203165
_cell_length_c 13.125580
_cell_angle_alpha 90.000000
_cell_angle_beta 50.260898
_cell_angle_gamma 90.000000
_cell_volume 2509.578929
_symmetry_space_group_name_H-M "C 2/C"
_symmetry_group_IT_number 15
_symmetry_cell_setting 'monoclinic'
loop_
_space_group_symop_operation_xyz
x,y,z
-x,y,1/2-z
-x,-y,-z
x,-y,1/2+z
1/2+x,1/2+y,z
1/2-x,1/2+y,1/2-z
1/2-x,1/2-y,-z
1/2+x,1/2-y,1/2+z
loop_
_atom_site_type_symbol
_atom_site_label
_atom_site_fract_x
_atom_site_fract_y
_atom_site_fract_z
Si Si1 0.000000 0.607136 0.250000
Si Si2 0.416068 0.700719 0.112591
Si Si3 0.346504 0.490698 0.325916
Si Si4 0.315161 0.601888 0.088787
Si Si5 0.732884 0.073195 0.838447
Si Si6 0.403912 0.993802 0.536511
Si Si7 0.054942 0.761877 0.371013
O O1 0.041204 0.705081 0.274296
O O2 0.954311 0.505732 0.377868
O O3 0.383378 0.646076 0.261855
O O4 0.377867 0.615909 0.075163
O O5 0.407271 0.872429 0.111055
O O6 0.491475 0.663785 0.003028
O O7 0.344174 0.445293 0.444365
O O8 0.273680 0.490745 0.379068
O O9 0.388392 0.377119 0.206404
O O10 0.275603 0.753477 0.138792
O O11 0.269577 0.470556 0.186102
O O12 0.665336 0.988287 0.926136
O O13 0.419656 0.857760 0.584582
#
# Coordination Sequence:
#
# PCOD8137579 Si02
#       7
#     4   8   8   8   8   8   8
#     4  10  20  36  60  86 110 146 190 234 288 340
#     4   9  20  37  55  83 117 145 188 240 285 334
#     4  11  21  36  59  84 114 155 191 230 290 344
#     4  10  21  38  57  82 115 154 192 236 286 339
#     4  10  21  38  57  84 117 149 195 240 281 338
#     4  10  21  38  58  82 115 150 190 240 283 333
#     4  11  20  37  61  85 114 151 191 237 284 339
#
# _framework density 20.720607000000001
#
# number of rings (size 3 to 8) (size 9 to 14) (size 15 to 20)
#    0.000    1.846    0.000    6.462    0.000    1.231 
#    0.000   17.692    0.000    0.923    0.000    0.000 
#    0.000    0.000    0.000    0.000    0.000    0.000 
#
# Total GULP energy -322304.433367 kJ/mol
# GULP energy per Si atom -12396.324360 kJ/mol
# Density = 2.067345 g / cm^3
# Si number density = 20.720607 Si / 1000 Ang^3
#
#
#
# Elastic Constant Matrix: (Units=GPa)
#
#
# Indices 1 2 3 4 5 6 
#
# 1 78.0155 8.2905 14.1914 0.0000 -20.7491 0.0000
# 2 8.2905 65.3998 51.2353 0.0000 -7.4124 0.0000
# 3 14.1914 51.2353 85.8715 0.0000 -17.3053 0.0000
# 4 0.0000 0.0000 0.0000 32.3182 0.0000 -4.9128
# 5 -20.7491 -7.4124 -17.3053 0.0000 25.4583 0.0000
# 6 0.0000 0.0000 0.0000 -4.9128 0.0000 23.9975
#
#
#
# Elastic Compliance Matrix: (Units=1/GPa)
#
#
# Indices 1 2 3 4 5 6 
#
# 1 0.016403 -0.001045 0.000632 0.000000 0.013494 0.000000
# 2 -0.001045 0.029099 -0.018138 0.000000 -0.004709 0.000000
# 3 0.000632 -0.018138 0.024800 0.000000 0.012092 0.000000
# 4 0.000000 0.000000 0.000000 0.031936 0.000000 0.006538
# 5 0.013494 -0.004709 0.012092 0.000000 0.057127 0.000000
# 6 0.000000 0.000000 0.000000 0.006538 0.000000 0.043010
#
#
# Mechanical properties :
#
#
# Convention : Reuss Voigt Hill
#
# Bulk Modulus (GPa) = 30.12089 41.85790 35.98940
# Shear Modulus (GPa) = 19.95661 26.72610 23.34136
#
# Velocity S-wave (km/s) = 3.10680 3.59532 3.35995
# Velocity P-wave (km/s) = 5.23811 6.12209 5.69727
#
# Compressibility (1/GPa) = 0.03319954
#
# Stress axis : x y z
#
# Youngs Moduli (GPa) = 60.96453 34.36524 40.32275
#
# Poissons Ratio (x) = 0.03592 -0.02550
# Poissons Ratio (y) = 0.06372 0.73139
# Poissons Ratio (z) = -0.03855 0.62333
#
# Static dielectric constant tensor:
#      x y z
#    x 3.944140 0.000000 -0.226230 
#    y 0.000000 3.768140 0.000000 
#    z -0.226230 0.000000 3.845540 
# 
# 
# High freq. dielectric constant tensor:
#      x y z
#    x 1.824800 0.000000 -0.014400 
#    y 0.000000 1.801300 0.000000 
#    z -0.014400 0.000000 1.807940 
# 
# From -- ./inp_files/121832.got.cif
#   From: 2010.06.25/outbox.cif.g09.slc.cpg/sg15_61_cif.got.tgz:121832.got - 2010.06.28 07:06:18.
