data_PCOD8137974
_publ_section_title
;
Structure prediction by ZEFSAII (Michael W. Deem and Ramdas Pophale) SiO2 
 PCOD8137974
Probable space group: C 2/C
;
_chemical_formula_sum "Si O2"
_cell_formula_units_Z 40
_cell_length_a 5.042937
_cell_length_b 28.202562
_cell_length_c 13.161555
_cell_angle_alpha 90.000000
_cell_angle_beta 69.005218
_cell_angle_gamma 90.000000
_cell_volume 1747.616862
_symmetry_space_group_name_H-M "C 2/C"
_symmetry_group_IT_number 15
_symmetry_cell_setting 'monoclinic'
loop_
_space_group_symop_operation_xyz
x,y,z
-x,y,1/2-z
-x,-y,-z
x,-y,1/2+z
1/2+x,1/2+y,z
1/2-x,1/2+y,1/2-z
1/2-x,1/2-y,-z
1/2+x,1/2-y,1/2+z
loop_
_atom_site_type_symbol
_atom_site_label
_atom_site_fract_x
_atom_site_fract_y
_atom_site_fract_z
Si Si1 0.233230 0.281384 0.401693
Si Si2 0.360626 0.963970 0.877819
Si Si3 0.837107 0.838303 0.053140
Si Si4 0.272320 0.060522 0.991229
Si Si5 0.802980 0.813663 0.686168
O O1 0.250000 0.250000 0.500000
O O2 0.505042 0.317791 0.366588
O O3 0.237310 0.243758 0.309260
O O4 0.935904 0.308172 0.439132
O O5 0.500000 0.954340 0.750000
O O6 0.513601 0.932265 0.943476
O O7 0.031054 0.951027 0.918026
O O8 0.391409 0.019389 0.902158
O O9 0.741998 0.892698 0.077834
O O10 0.073017 0.835362 0.933187
O O11 0.500000 0.837810 0.750000
O O12 0.000000 0.829326 0.750000
#
# Coordination Sequence:
#
# PCOD8137974 Si02
#       5
#     8   8   8   8   8
#     4  10  20  37  55  74 109 154 183 217 279 333
#     4  10  21  40  61  84 120 154 186 236 296 354
#     4  11  21  37  58  81 111 148 190 234 278 336
#     4  10  22  38  61  90 114 151 196 235 292 351
#     4  11  21  34  53  81 113 147 190 236 281 327
#
# _framework density 22.888311999999999
#
# number of rings (size 3 to 8) (size 9 to 14) (size 15 to 20)
#    0.000    1.600    0.000    7.800    0.000    2.400 
#    0.000    3.000    0.000    2.400    0.000    0.000 
#    0.000    0.000    0.000    0.000    0.000    0.000 
#
# Total GULP energy -247965.597728 kJ/mol
# GULP energy per Si atom -12398.279886 kJ/mol
# Density = 2.283622 g / cm^3
# Si number density = 22.888312 Si / 1000 Ang^3
#
#
#
# Elastic Constant Matrix: (Units=GPa)
#
#
# Indices 1 2 3 4 5 6 
#
# 1 141.0705 9.4722 3.1563 0.0000 -8.0227 0.0000
# 2 9.4722 79.3051 -15.9137 0.0000 2.9750 0.0000
# 3 3.1563 -15.9137 18.3507 0.0000 -5.2460 0.0000
# 4 0.0000 0.0000 0.0000 16.0435 0.0000 5.8042
# 5 -8.0227 2.9750 -5.2460 0.0000 31.6789 0.0000
# 6 0.0000 0.0000 0.0000 5.8042 0.0000 39.3481
#
#
#
# Elastic Compliance Matrix: (Units=1/GPa)
#
#
# Indices 1 2 3 4 5 6 
#
# 1 0.007315 -0.001324 -0.001932 0.000000 0.001657 0.000000
# 2 -0.001324 0.015525 0.013833 0.000000 0.000498 0.000000
# 3 -0.001932 0.013833 0.069606 0.000000 0.009738 0.000000
# 4 0.000000 0.000000 0.000000 0.065844 0.000000 -0.009713
# 5 0.001657 0.000498 0.009738 0.000000 0.033552 0.000000
# 6 0.000000 0.000000 0.000000 -0.009713 0.000000 0.026847
#
#
# Mechanical properties :
#
#
# Convention : Reuss Voigt Hill
#
# Bulk Modulus (GPa) = 8.80286 25.79509 17.29898
# Shear Modulus (GPa) = 21.24027 33.54819 27.39423
#
# Velocity S-wave (km/s) = 3.04961 3.83264 3.46333
# Velocity P-wave (km/s) = 4.03169 5.55698 4.85461
#
# Compressibility (1/GPa) = 0.11359946
#
# Stress axis : x y z
#
# Youngs Moduli (GPa) = 136.70572 64.41343 14.36660
#
# Poissons Ratio (x) = 0.08526 0.02776
# Poissons Ratio (y) = 0.18094 -0.19873
# Poissons Ratio (z) = 0.26416 -0.89102
#
# Static dielectric constant tensor:
#      x y z
#    x 4.521010 0.000000 -0.094590 
#    y 0.000000 4.443500 0.000000 
#    z -0.094590 0.000000 3.483830 
# 
# 
# High freq. dielectric constant tensor:
#      x y z
#    x 1.929080 0.000000 -0.005870 
#    y 0.000000 1.901640 0.000000 
#    z -0.005870 0.000000 1.874260 
# 
# From -- ./inp_files/73201.got.cif
#   From: 2010.06.25/outbox.cif.g09.slc.cpg/sg15_37_cif.got.tgz:73201.got - 2010.06.28 07:06:18.
