data_PCOD8137501
_publ_section_title
;
Structure prediction by ZEFSAII (Michael W. Deem and Ramdas Pophale) SiO2 
 PCOD8137501
Probable space group: C 2/C
;
_chemical_formula_sum "Si O2"
_cell_formula_units_Z 32
_cell_length_a 5.013819
_cell_length_b 34.514854
_cell_length_c 8.695290
_cell_angle_alpha 90.000000
_cell_angle_beta 88.327820
_cell_angle_gamma 90.000000
_cell_volume 1504.089842
_symmetry_space_group_name_H-M "C 2/C"
_symmetry_group_IT_number 15
_symmetry_cell_setting 'monoclinic'
loop_
_space_group_symop_operation_xyz
x,y,z
-x,y,1/2-z
-x,-y,-z
x,-y,1/2+z
1/2+x,1/2+y,z
1/2-x,1/2+y,1/2-z
1/2-x,1/2-y,-z
1/2+x,1/2-y,1/2+z
loop_
_atom_site_type_symbol
_atom_site_label
_atom_site_fract_x
_atom_site_fract_y
_atom_site_fract_z
Si Si1 0.086406 0.440122 0.574191
Si Si2 0.738034 0.278025 0.856653
Si Si3 0.760219 0.863579 0.646689
Si Si4 0.740564 0.481409 0.356076
O O1 0.218217 0.398844 0.522638
O O2 0.301414 0.476500 0.556201
O O3 0.000000 0.433276 0.750000
O O4 0.823011 0.448079 0.475293
O O5 0.500000 0.265043 0.750000
O O6 0.680826 0.321377 0.927552
O O7 0.000000 0.275146 0.750000
O O8 0.750000 0.250000 0.000000
O O9 0.500000 0.856388 0.750000
O O10 0.000000 0.877653 0.750000
O O11 0.500000 0.468166 0.250000
O O12 0.000000 0.490354 0.250000
#
# Coordination Sequence:
#
# PCOD8137501 Si02
#       4
#     8   8   8   8
#     4   9  19  34  55  75 101 141 184 219 259 316
#     4  10  20  36  59  85 113 145 184 228 277 334
#     4   9  18  32  53  79 104 136 180 224 261 315
#     4  10  21  34  50  76 107 138 174 222 272 312
#
# _framework density 21.275324999999999
#
# number of rings (size 3 to 8) (size 9 to 14) (size 15 to 20)
#    0.000    2.500    0.000    1.500    0.000   13.000 
#    0.000    1.250    0.000    3.000    0.000    0.000 
#    0.000    0.000    0.000    0.000    0.000    0.000 
#
# Total GULP energy -198227.302925 kJ/mol
# GULP energy per Si atom -12389.206433 kJ/mol
# Density = 2.122690 g / cm^3
# Si number density = 21.275325 Si / 1000 Ang^3
#
#
#
# Elastic Constant Matrix: (Units=GPa)
#
#
# Indices 1 2 3 4 5 6 
#
# 1 93.2128 32.9108 42.2046 0.0000 47.3318 0.0000
# 2 32.9108 195.0381 89.4301 0.0000 33.3098 0.0000
# 3 42.2046 89.4301 127.0999 0.0000 44.8057 0.0000
# 4 0.0000 0.0000 0.0000 11.1236 0.0000 29.7175
# 5 47.3318 33.3098 44.8057 0.0000 41.9945 0.0000
# 6 0.0000 0.0000 0.0000 29.7175 0.0000 11.9790
#
#
#
# Elastic Compliance Matrix: (Units=1/GPa)
#
#
# Indices 1 2 3 4 5 6 
#
# 1 0.025648 -0.000195 0.002816 0.000000 -0.031757 0.000000
# 2 -0.000195 0.007578 -0.005170 0.000000 -0.000274 0.000000
# 3 0.002816 -0.005170 0.016420 0.000000 -0.016592 0.000000
# 4 0.000000 0.000000 0.000000 -0.015975 0.000000 0.039630
# 5 -0.031757 -0.000274 -0.016592 0.000000 0.077525 0.000000
# 6 0.000000 0.000000 0.000000 0.039630 0.000000 -0.014834
#
#
# Mechanical properties :
#
#
# Convention : Reuss Voigt Hill
#
# Bulk Modulus (GPa) = 22.44897 82.71574 52.58236
# Shear Modulus (GPa) = 42.98857 29.73978 36.36417
#
# Velocity S-wave (km/s) = 4.49997 3.74284 4.13875
# Velocity P-wave (km/s) = 6.12978 7.59221 6.89985
#
# Compressibility (1/GPa) = 0.04454547
#
# Stress axis : x y z
#
# Youngs Moduli (GPa) = 38.98989 131.96584 60.90246
#
# Poissons Ratio (x) = 0.02578 -0.17150
# Poissons Ratio (y) = 0.00762 0.31489
# Poissons Ratio (z) = -0.10979 0.68232
#
# Static dielectric constant tensor:
#      x y z
#    x 4.059840 0.000000 0.080680 
#    y 0.000000 4.666750 0.000000 
#    z 0.080680 0.000000 3.736860 
# 
# 
# High freq. dielectric constant tensor:
#      x y z
#    x 1.845600 0.000000 0.021420 
#    y 0.000000 1.840270 0.000000 
#    z 0.021420 0.000000 1.801480 
# 
# From -- ./inp_files/20136.got.cif
#   From: 2010.06.25/outbox.cif.g09.slc.cpg/sg15_11_cif.got.tgz:20136.got - 2010.06.28 07:06:18.
