data_PCOD8137462
_publ_section_title
;
Structure prediction by ZEFSAII (Michael W. Deem and Ramdas Pophale) SiO2 
 PCOD8137462
Probable space group: C 2/C
;
_chemical_formula_sum "Si O2"
_cell_formula_units_Z 64
_cell_length_a 14.450875
_cell_length_b 27.933118
_cell_length_c 11.172659
_cell_angle_alpha 90.000000
_cell_angle_beta 136.742774
_cell_angle_gamma 90.000000
_cell_volume 3090.543740
_symmetry_space_group_name_H-M "C 2/C"
_symmetry_group_IT_number 15
_symmetry_cell_setting 'monoclinic'
loop_
_space_group_symop_operation_xyz
x,y,z
-x,y,1/2-z
-x,-y,-z
x,-y,1/2+z
1/2+x,1/2+y,z
1/2-x,1/2+y,1/2-z
1/2-x,1/2-y,-z
1/2+x,1/2-y,1/2+z
loop_
_atom_site_type_symbol
_atom_site_label
_atom_site_fract_x
_atom_site_fract_y
_atom_site_fract_z
Si Si1 0.143153 0.339171 0.928066
Si Si2 0.036268 0.565134 0.647730
Si Si3 0.624979 0.256259 0.794706
Si Si4 0.538811 0.168856 0.570205
Si Si5 0.796873 0.509118 0.316441
Si Si6 0.683377 0.572003 0.845110
Si Si7 0.088672 0.923203 0.518554
Si Si8 0.259668 0.674280 0.290559
O O1 0.220503 0.311156 0.892558
O O2 0.000000 0.361457 0.750000
O O3 0.104616 0.308210 0.009918
O O4 0.233000 0.380072 0.068152
O O5 0.092297 0.615185 0.647353
O O6 0.150277 0.523801 0.744163
O O7 0.000000 0.573214 0.750000
O O8 0.905207 0.549914 0.447962
O O9 0.500000 0.280511 0.750000
O O10 0.579027 0.203233 0.715466
O O11 0.657207 0.285685 0.703683
O O12 0.750000 0.250000 0.000000
O O13 0.376929 0.165163 0.410540
O O14 0.779420 0.473250 0.411375
O O15 0.653053 0.534227 0.156937
O O16 0.574643 0.577555 0.633097
O O17 0.619365 0.563433 0.912246
O O18 0.148258 0.872775 0.618212
#
# Coordination Sequence:
#
# PCOD8137462 Si02
#       8
#     8   8   8   8   8   8   8   8
#     4   9  20  38  69  95 123 167 215 273 330 382
#     4  11  23  35  60  94 124 170 216 273 317 386
#     4  12  26  45  71  97 131 174 215 270 339 404
#     4  11  21  43  66  93 134 166 218 274 330 390
#     4  11  21  37  57  89 129 170 220 257 322 382
#     4  10  20  36  58  90 126 169 210 264 316 386
#     4  10  21  37  61  85 128 170 214 262 327 381
#     4  10  22  43  66  94 126 171 219 271 329 391
#
# _framework density 20.708331000000001
#
# number of rings (size 3 to 8) (size 9 to 14) (size 15 to 20)
#    0.000    1.500    3.750    1.500    0.000    2.000 
#    0.000    0.000    8.250    0.000    0.000    0.000 
#    0.000    0.000    0.000    0.000    0.000    0.000 
#
# Total GULP energy -396512.119778 kJ/mol
# GULP energy per Si atom -12391.003743 kJ/mol
# Density = 2.066120 g / cm^3
# Si number density = 20.708331 Si / 1000 Ang^3
#
#
#
# Elastic Constant Matrix: (Units=GPa)
#
#
# Indices 1 2 3 4 5 6 
#
# 1 120.8776 46.3936 36.1802 0.0000 -5.9631 0.0000
# 2 46.3936 84.0494 34.6942 0.0000 -10.0612 0.0000
# 3 36.1802 34.6942 89.6609 0.0000 -0.8607 0.0000
# 4 0.0000 0.0000 0.0000 7.0229 0.0000 36.5394
# 5 -5.9631 -10.0612 -0.8607 0.0000 28.2418 0.0000
# 6 0.0000 0.0000 0.0000 36.5394 0.0000 -34.0279
#
#
#
# Elastic Compliance Matrix: (Units=1/GPa)
#
#
# Indices 1 2 3 4 5 6 
#
# 1 0.010944 -0.004955 -0.002494 0.000000 0.000470 0.000000
# 2 -0.004955 0.017108 -0.004573 0.000000 0.004909 0.000000
# 3 -0.002494 -0.004573 0.013913 0.000000 -0.001732 0.000000
# 4 0.000000 0.000000 0.000000 0.021617 0.000000 0.023213
# 5 0.000470 0.004909 -0.001732 0.000000 0.037204 0.000000
# 6 0.000000 0.000000 0.000000 0.023213 0.000000 -0.004462
#
#
# Mechanical properties :
#
#
# Convention : Reuss Voigt Hill
#
# Bulk Modulus (GPa) = 55.80512 58.79154 57.29833
# Shear Modulus (GPa) = 39.57433 12.06870 25.82152
#
# Velocity S-wave (km/s) = 4.37628 2.41673 3.53500
# Velocity P-wave (km/s) = 7.24862 6.01992 6.66265
#
# Compressibility (1/GPa) = 0.01791950
#
# Stress axis : x y z
#
# Youngs Moduli (GPa) = 91.37038 58.45059 71.87665
#
# Poissons Ratio (x) = 0.28964 0.17929
# Poissons Ratio (y) = 0.45277 0.32872
# Poissons Ratio (z) = 0.22791 0.26732
#
# Static dielectric constant tensor:
#      x y z
#    x 4.104600 0.000000 0.072160 
#    y 0.000000 3.515670 0.000000 
#    z 0.072160 0.000000 4.033810 
# 
# 
# High freq. dielectric constant tensor:
#      x y z
#    x 1.818750 0.000000 0.001270 
#    y 0.000000 1.790700 0.000000 
#    z 0.001270 0.000000 1.811110 
# 
# From -- ./inp_files/101377.got.cif
#   From: 2010.06.25/outbox.cif.g09.slc.cpg/sg15_51_cif.got.tgz:101377.got - 2010.06.28 07:06:18.
