data_PCOD8137010
_publ_section_title
;
Structure prediction by ZEFSAII (Michael W. Deem and Ramdas Pophale) SiO2 
 PCOD8137010
Probable space group: C 2/C
;
_chemical_formula_sum "Si O2"
_cell_formula_units_Z 56
_cell_length_a 11.067502
_cell_length_b 18.816387
_cell_length_c 14.052136
_cell_angle_alpha 90.000000
_cell_angle_beta 111.797310
_cell_angle_gamma 90.000000
_cell_volume 2717.137546
_symmetry_space_group_name_H-M "C 2/C"
_symmetry_group_IT_number 15
_symmetry_cell_setting 'monoclinic'
loop_
_space_group_symop_operation_xyz
x,y,z
-x,y,1/2-z
-x,-y,-z
x,-y,1/2+z
1/2+x,1/2+y,z
1/2-x,1/2+y,1/2-z
1/2-x,1/2-y,-z
1/2+x,1/2-y,1/2+z
loop_
_atom_site_type_symbol
_atom_site_label
_atom_site_fract_x
_atom_site_fract_y
_atom_site_fract_z
Si Si1 0.356169 0.429154 0.670965
Si Si2 0.000000 0.517730 0.250000
Si Si3 0.067035 0.074588 0.514425
Si Si4 0.860269 0.364513 0.792577
Si Si5 0.755425 0.678844 0.887435
Si Si6 0.246120 0.559876 0.760828
Si Si7 0.500000 0.738944 0.750000
Si Si8 0.186377 0.163013 0.072460
O O1 0.500000 0.407184 0.750000
O O2 0.347038 0.432883 0.555082
O O3 0.247169 0.368043 0.656267
O O4 0.312322 0.501054 0.712111
O O5 0.969158 0.572200 0.329651
O O6 0.872807 0.467915 0.208307
O O7 0.150243 0.090413 0.633475
O O8 0.960337 0.135801 0.473636
O O9 0.000000 0.000000 0.500000
O O10 0.930630 0.288350 0.809923
O O11 0.774440 0.380191 0.672261
O O12 0.806258 0.622969 0.823606
O O13 0.600571 0.688322 0.830967
O O14 0.826667 0.754610 0.898327
O O15 0.767530 0.651431 0.998743
#
# Coordination Sequence:
#
# PCOD8137010 Si02
#       8
#     8   4   8   8   8   8   4   8
#     4  11  20  35  59  91 118 151 187 244 306 347
#     4   9  20  40  56  80 120 153 186 234 308 347
#     4  12  21  34  60  95 120 145 197 251 304 348
#     4   9  18  37  58  81 114 152 193 238 295 348
#     4  10  21  36  56  84 113 159 201 235 295 340
#     4  11  23  38  59  87 122 156 191 246 294 356
#     4   9  18  34  58  78 112 155 192 242 282 355
#     4  10  20  35  58  86 114 150 200 247 285 354
#
# _framework density 20.609923999999999
#
# number of rings (size 3 to 8) (size 9 to 14) (size 15 to 20)
#    0.000    1.714    2.857    2.571    1.000    0.000 
#    0.000   13.571    0.000    5.143    0.000    0.000 
#    0.000    0.000    0.000    0.000    0.000    0.000 
#
# Total GULP energy -346890.976327 kJ/mol
# GULP energy per Si atom -12388.963440 kJ/mol
# Density = 2.056302 g / cm^3
# Si number density = 20.609924 Si / 1000 Ang^3
#
#
#
# Elastic Constant Matrix: (Units=GPa)
#
#
# Indices 1 2 3 4 5 6 
#
# 1 102.7086 25.1267 9.5472 0.0000 -16.5014 0.0000
# 2 25.1267 59.7916 15.6317 0.0000 -8.3898 0.0000
# 3 9.5472 15.6317 82.0918 0.0000 -20.4057 0.0000
# 4 0.0000 0.0000 0.0000 27.6218 0.0000 6.4335
# 5 -16.5014 -8.3898 -20.4057 0.0000 33.0514 0.0000
# 6 0.0000 0.0000 0.0000 6.4335 0.0000 28.5273
#
#
#
# Elastic Compliance Matrix: (Units=1/GPa)
#
#
# Indices 1 2 3 4 5 6 
#
# 1 0.011551 -0.004332 0.000758 0.000000 0.005135 0.000000
# 2 -0.004332 0.019453 -0.002966 0.000000 0.000944 0.000000
# 3 0.000758 -0.002966 0.014843 0.000000 0.008790 0.000000
# 4 0.000000 0.000000 0.000000 0.038210 0.000000 -0.008617
# 5 0.005135 0.000944 0.008790 0.000000 0.038486 0.000000
# 6 0.000000 0.000000 0.000000 -0.008617 0.000000 0.036997
#
#
# Mechanical properties :
#
#
# Convention : Reuss Voigt Hill
#
# Bulk Modulus (GPa) = 30.51782 38.35591 34.43686
# Shear Modulus (GPa) = 27.24181 30.79252 29.01717
#
# Velocity S-wave (km/s) = 3.63958 3.86950 3.75630
# Velocity P-wave (km/s) = 5.70101 6.21409 5.96307
#
# Compressibility (1/GPa) = 0.03276774
#
# Stress axis : x y z
#
# Youngs Moduli (GPa) = 86.57602 51.40622 67.37236
#
# Poissons Ratio (x) = 0.22267 -0.05107
# Poissons Ratio (y) = 0.37501 0.19980
# Poissons Ratio (z) = -0.06562 0.15245
#
# Static dielectric constant tensor:
#      x y z
#    x 3.717190 0.000000 -0.101840 
#    y 0.000000 3.748000 0.000000 
#    z -0.101840 0.000000 3.606240 
# 
# 
# High freq. dielectric constant tensor:
#      x y z
#    x 1.805710 0.000000 0.001060 
#    y 0.000000 1.798610 0.000000 
#    z 0.001060 0.000000 1.790300 
# 
# From -- ./inp_files/145774.got.cif
#   From: 2010.06.25/outbox.cif.g09.slc.cpg/sg15_73_cif.got.tgz:145774.got - 2010.06.28 07:06:18.
