data_PCOD8137226
_publ_section_title
;
Structure prediction by ZEFSAII (Michael W. Deem and Ramdas Pophale) SiO2 
 PCOD8137226
Probable space group: C 2/C
;
_chemical_formula_sum "Si O2"
_cell_formula_units_Z 60
_cell_length_a 22.249578
_cell_length_b 15.319384
_cell_length_c 8.182606
_cell_angle_alpha 90.000000
_cell_angle_beta 98.712355
_cell_angle_gamma 90.000000
_cell_volume 2756.857815
_symmetry_space_group_name_H-M "C 2/C"
_symmetry_group_IT_number 15
_symmetry_cell_setting 'monoclinic'
loop_
_space_group_symop_operation_xyz
x,y,z
-x,y,1/2-z
-x,-y,-z
x,-y,1/2+z
1/2+x,1/2+y,z
1/2-x,1/2+y,1/2-z
1/2-x,1/2-y,-z
1/2+x,1/2-y,1/2+z
loop_
_atom_site_type_symbol
_atom_site_label
_atom_site_fract_x
_atom_site_fract_y
_atom_site_fract_z
Si Si1 0.460771 0.761136 0.970440
Si Si2 0.090351 0.245728 0.885255
Si Si3 0.230232 0.541112 0.752185
Si Si4 0.455918 0.056037 0.589288
Si Si5 0.500000 0.637753 0.250000
Si Si6 0.316179 0.549180 0.049361
Si Si7 0.846745 0.423448 0.567710
Si Si8 0.886197 0.090116 0.378586
O O1 0.531617 0.777921 0.960159
O O2 0.427587 0.713921 0.804405
O O3 0.431031 0.856441 0.990604
O O4 0.454863 0.698020 0.123371
O O5 0.134309 0.327103 0.876264
O O6 0.123351 0.168699 0.997454
O O7 0.279956 0.522460 0.636341
O O8 0.206946 0.452598 0.831860
O O9 0.174220 0.585186 0.632198
O O10 0.266490 0.597320 0.908283
O O11 0.500000 0.089697 0.750000
O O12 0.500000 0.000000 0.500000
O O13 0.399064 0.996210 0.615823
O O14 0.457049 0.580287 0.351894
O O15 0.348018 0.611479 0.196381
O O16 0.366435 0.499432 0.958187
#
# Coordination Sequence:
#
# PCOD8137226 Si02
#       8
#     8   8   8   8   4   8   8   8
#     4  10  20  36  51  82 135 169 189 231 286 364
#     4  10  21  36  56  85 126 162 193 238 305 354
#     4   9  20  37  59  83 116 155 206 257 283 334
#     4  12  21  31  53  86 126 177 207 227 273 354
#     4  10  22  38  60  96 124 146 192 248 302 364
#     4   9  20  43  63  81 109 151 200 252 320 360
#     4  11  20  33  56  89 123 163 210 243 278 340
#     4  10  22  40  67  89 115 151 188 250 316 378
#
# _framework density 21.763909000000002
#
# number of rings (size 3 to 8) (size 9 to 14) (size 15 to 20)
#    0.000    1.867    2.000    2.400    0.000    2.667 
#    0.000    8.000    0.000    1.600    0.000    0.000 
#    0.000    0.000    0.000    0.000    0.000    0.000 
#
# Total GULP energy -371657.350049 kJ/mol
# GULP energy per Si atom -12388.578335 kJ/mol
# Density = 2.171437 g / cm^3
# Si number density = 21.763909 Si / 1000 Ang^3
#
#
#
# Elastic Constant Matrix: (Units=GPa)
#
#
# Indices 1 2 3 4 5 6 
#
# 1 71.9386 25.1166 29.0010 0.0000 -2.5850 0.0000
# 2 25.1166 56.2141 36.3147 0.0000 7.0291 0.0000
# 3 29.0010 36.3147 161.5304 0.0000 22.5784 0.0000
# 4 0.0000 0.0000 0.0000 33.0387 0.0000 -0.2173
# 5 -2.5850 7.0291 22.5784 0.0000 40.6176 0.0000
# 6 0.0000 0.0000 0.0000 -0.2173 0.0000 10.0857
#
#
#
# Elastic Compliance Matrix: (Units=1/GPa)
#
#
# Indices 1 2 3 4 5 6 
#
# 1 0.017220 -0.006803 -0.002038 0.000000 0.003406 0.000000
# 2 -0.006803 0.023544 -0.003731 0.000000 -0.002433 0.000000
# 3 -0.002038 -0.003731 0.007940 0.000000 -0.003898 0.000000
# 4 0.000000 0.000000 0.000000 0.030272 0.000000 0.000652
# 5 0.003406 -0.002433 -0.003898 0.000000 0.027424 0.000000
# 6 0.000000 0.000000 0.000000 0.000652 0.000000 0.099164
#
#
# Mechanical properties :
#
#
# Convention : Reuss Voigt Hill
#
# Bulk Modulus (GPa) = 42.44791 52.28306 47.36548
# Shear Modulus (GPa) = 20.95882 30.03181 25.49531
#
# Velocity S-wave (km/s) = 3.10660 3.71872 3.42636
# Velocity P-wave (km/s) = 5.69334 6.52023 6.12077
#
# Compressibility (1/GPa) = 0.02355829
#
# Stress axis : x y z
#
# Youngs Moduli (GPa) = 58.07164 42.47442 125.93683
#
# Poissons Ratio (x) = 0.28896 0.25670
# Poissons Ratio (y) = 0.39507 0.46993
# Poissons Ratio (z) = 0.11837 0.15849
#
# Static dielectric constant tensor:
#      x y z
#    x 4.111510 0.000000 0.145360 
#    y 0.000000 3.321700 0.000000 
#    z 0.145360 0.000000 4.488720 
# 
# 
# High freq. dielectric constant tensor:
#      x y z
#    x 1.849580 0.000000 0.000320 
#    y 0.000000 1.798420 0.000000 
#    z 0.000320 0.000000 1.889760 
# 
# From -- ./inp_files/61954.got.cif
#   From: 2010.06.25/outbox.cif.g09.slc.cpg/sg15_31_cif.got.tgz:61954.got - 2010.06.28 07:06:18.
