data_PCOD8137308
_publ_section_title
;
Structure prediction by ZEFSAII (Michael W. Deem and Ramdas Pophale) SiO2 
 PCOD8137308
Probable space group: C 2/C
;
_chemical_formula_sum "Si O2"
_cell_formula_units_Z 36
_cell_length_a 10.397644
_cell_length_b 21.163585
_cell_length_c 8.344161
_cell_angle_alpha 90.000000
_cell_angle_beta 96.048496
_cell_angle_gamma 90.000000
_cell_volume 1825.922801
_symmetry_space_group_name_H-M "C 2/C"
_symmetry_group_IT_number 15
_symmetry_cell_setting 'monoclinic'
loop_
_space_group_symop_operation_xyz
x,y,z
-x,y,1/2-z
-x,-y,-z
x,-y,1/2+z
1/2+x,1/2+y,z
1/2-x,1/2+y,1/2-z
1/2-x,1/2-y,-z
1/2+x,1/2-y,1/2+z
loop_
_atom_site_type_symbol
_atom_site_label
_atom_site_fract_x
_atom_site_fract_y
_atom_site_fract_z
Si Si1 0.500000 0.003522 0.250000
Si Si2 0.094494 0.190513 0.116207
Si Si3 0.149081 0.429975 0.014976
Si Si4 0.883364 0.301290 0.618728
Si Si5 0.937381 0.938467 0.071209
O O1 0.617542 0.047012 0.329317
O O2 0.542310 0.957435 0.116019
O O3 0.244287 0.199424 0.193658
O O4 0.000000 0.208919 0.250000
O O5 0.076828 0.236306 0.961419
O O6 0.056422 0.120207 0.051785
O O7 0.288621 0.454395 0.086942
O O8 0.136227 0.354299 0.020785
O O9 0.000000 0.320285 0.750000
O O10 0.000000 0.921161 0.250000
O O11 0.000000 0.000000 0.000000
#
# Coordination Sequence:
#
# PCOD8137308 Si02
#       5
#     4   8   8   8   8
#     4  10  20  36  56  86 114 150 194 244 288 362
#     4  10  23  40  61  89 120 159 207 246 306 361
#     4  10  21  37  58  86 118 155 195 243 302 348
#     4  10  21  41  60  86 124 157 200 255 296 365
#     4  11  22  39  60  87 120 157 196 250 297 360
#
# _framework density 19.716056999999999
#
# number of rings (size 3 to 8) (size 9 to 14) (size 15 to 20)
#    0.000    1.778    1.111    2.667    1.556    2.667 
#    4.000    0.000    0.000    0.000    0.000    0.000 
#    0.000    0.000    0.000    0.000    0.000    0.000 
#
# Total GULP energy -223133.939060 kJ/mol
# GULP energy per Si atom -12396.329948 kJ/mol
# Density = 1.967118 g / cm^3
# Si number density = 19.716057 Si / 1000 Ang^3
#
#
#
# Elastic Constant Matrix: (Units=GPa)
#
#
# Indices 1 2 3 4 5 6 
#
# 1 146.0329 42.9683 59.8413 0.0000 11.3150 0.0000
# 2 42.9683 112.9414 22.5522 0.0000 -11.4380 0.0000
# 3 59.8413 22.5522 77.0140 0.0000 3.0172 0.0000
# 4 0.0000 0.0000 0.0000 21.0741 0.0000 -0.7778
# 5 11.3150 -11.4380 3.0172 0.0000 40.3102 0.0000
# 6 0.0000 0.0000 0.0000 -0.7778 0.0000 32.9786
#
#
#
# Elastic Compliance Matrix: (Units=1/GPa)
#
#
# Indices 1 2 3 4 5 6 
#
# 1 0.011138 -0.003062 -0.007624 0.000000 -0.003425 0.000000
# 2 -0.003062 0.010592 -0.000876 0.000000 0.003931 0.000000
# 3 -0.007624 -0.000876 0.019147 0.000000 0.000458 0.000000
# 4 0.000000 0.000000 0.000000 0.047493 0.000000 0.001120
# 5 -0.003425 0.003931 0.000458 0.000000 0.026850 0.000000
# 6 0.000000 0.000000 0.000000 0.001120 0.000000 0.030349
#
#
# Mechanical properties :
#
#
# Convention : Reuss Voigt Hill
#
# Bulk Modulus (GPa) = 56.32839 65.19018 60.75929
# Shear Modulus (GPa) = 28.63501 32.91435 30.77468
#
# Velocity S-wave (km/s) = 3.81513 4.09028 3.95510
# Velocity P-wave (km/s) = 6.93100 7.44604 7.19313
#
# Compressibility (1/GPa) = 0.01775304
#
# Stress axis : x y z
#
# Youngs Moduli (GPa) = 89.78184 94.40940 52.22714
#
# Poissons Ratio (x) = 0.28908 0.39816
# Poissons Ratio (y) = 0.27491 0.04578
# Poissons Ratio (z) = 0.68447 0.08275
#
# Static dielectric constant tensor:
#      x y z
#    x 3.787480 0.000000 0.227490 
#    y 0.000000 3.688400 0.000000 
#    z 0.227490 0.000000 3.508340 
# 
# 
# High freq. dielectric constant tensor:
#      x y z
#    x 1.777690 0.000000 0.011960 
#    y 0.000000 1.784000 0.000000 
#    z 0.011960 0.000000 1.750640 
# 
# From -- ./inp_files/22537.got.cif
#   From: 2010.06.25/outbox.cif.g09.slc.cpg/sg15_12_cif.got.tgz:22537.got - 2010.06.28 07:06:18.
