data_PCOD8137984
_publ_section_title
;
Structure prediction by ZEFSAII (Michael W. Deem and Ramdas Pophale) SiO2 
 PCOD8137984
Probable space group: C 2/C
;
_chemical_formula_sum "Si O2"
_cell_formula_units_Z 52
_cell_length_a 22.180324
_cell_length_b 12.626136
_cell_length_c 9.822787
_cell_angle_alpha 90.000000
_cell_angle_beta 107.726502
_cell_angle_gamma 90.000000
_cell_volume 2620.278906
_symmetry_space_group_name_H-M "C 2/C"
_symmetry_group_IT_number 15
_symmetry_cell_setting 'monoclinic'
loop_
_space_group_symop_operation_xyz
x,y,z
-x,y,1/2-z
-x,-y,-z
x,-y,1/2+z
1/2+x,1/2+y,z
1/2-x,1/2+y,1/2-z
1/2-x,1/2-y,-z
1/2+x,1/2-y,1/2+z
loop_
_atom_site_type_symbol
_atom_site_label
_atom_site_fract_x
_atom_site_fract_y
_atom_site_fract_z
Si Si1 0.000000 0.898559 0.250000
Si Si2 0.807755 0.599065 0.578865
Si Si3 0.668658 0.674430 0.512502
Si Si4 0.669228 0.088713 0.601581
Si Si5 0.398184 0.294303 0.006464
Si Si6 0.392806 0.555859 0.247971
Si Si7 0.810565 0.130582 0.682590
O O1 0.034243 0.820226 0.379762
O O2 0.951029 0.974219 0.295740
O O3 0.731768 0.604821 0.527969
O O4 0.833237 0.715419 0.567003
O O5 0.834533 0.559809 0.742075
O O6 0.835539 0.518611 0.487077
O O7 0.610927 0.607046 0.406725
O O8 0.662061 0.697065 0.669226
O O9 0.612230 0.168826 0.522975
O O10 0.735740 0.147352 0.616268
O O11 0.396300 0.352540 0.860973
O O12 0.342377 0.335237 0.064665
O O13 0.327844 0.491325 0.229721
#
# Coordination Sequence:
#
# PCOD8137984 Si02
#       7
#     4   8   8   8   8   8   8
#     4  10  24  40  64  86 116 162 208 264 304 344
#     4  10  22  36  57  87 124 169 193 239 293 372
#     4  10  20  37  55  88 129 158 197 238 298 365
#     4  11  22  36  58  87 126 161 201 238 304 368
#     4  11  23  38  58  90 120 158 206 257 296 358
#     4  11  20  40  61  91 122 158 203 251 306 357
#     4  10  21  32  58  90 125 163 188 241 305 370
#
# _framework density 19.845216000000001
#
# number of rings (size 3 to 8) (size 9 to 14) (size 15 to 20)
#    0.000    1.538    3.077    2.769    4.308    1.231 
#    0.000    0.000    0.000    1.846    0.000    0.000 
#    0.000    0.000    0.000    0.000    0.000    0.000 
#
# Total GULP energy -322320.369627 kJ/mol
# GULP energy per Si atom -12396.937293 kJ/mol
# Density = 1.980005 g / cm^3
# Si number density = 19.845216 Si / 1000 Ang^3
#
#
#
# Elastic Constant Matrix: (Units=GPa)
#
#
# Indices 1 2 3 4 5 6 
#
# 1 55.3942 33.3612 32.9469 0.0000 9.9516 0.0000
# 2 33.3612 91.5544 46.8409 0.0000 13.1806 0.0000
# 3 32.9469 46.8409 104.8902 0.0000 7.4370 0.0000
# 4 0.0000 0.0000 0.0000 38.3468 0.0000 3.0102
# 5 9.9516 13.1806 7.4370 0.0000 24.3398 0.0000
# 6 0.0000 0.0000 0.0000 3.0102 0.0000 32.7211
#
#
#
# Elastic Compliance Matrix: (Units=1/GPa)
#
#
# Indices 1 2 3 4 5 6 
#
# 1 0.025640 -0.005969 -0.004982 0.000000 -0.005728 0.000000
# 2 -0.005969 0.016415 -0.005109 0.000000 -0.004888 0.000000
# 3 -0.004982 -0.005109 0.013328 0.000000 0.000731 0.000000
# 4 0.000000 0.000000 0.000000 0.026267 0.000000 -0.002416
# 5 -0.005728 -0.004888 0.000731 0.000000 0.045851 0.000000
# 6 0.000000 0.000000 0.000000 -0.002416 0.000000 0.030784
#
#
# Mechanical properties :
#
#
# Convention : Reuss Voigt Hill
#
# Bulk Modulus (GPa) = 42.98686 53.12634 48.05660
# Shear Modulus (GPa) = 25.23231 28.32752 26.77992
#
# Velocity S-wave (km/s) = 3.56962 3.78222 3.67746
# Velocity P-wave (km/s) = 6.22074 6.77511 6.50383
#
# Compressibility (1/GPa) = 0.02326292
#
# Stress axis : x y z
#
# Youngs Moduli (GPa) = 39.00228 60.91968 75.02860
#
# Poissons Ratio (x) = 0.36365 0.37377
# Poissons Ratio (y) = 0.23282 0.38332
# Poissons Ratio (z) = 0.19430 0.31124
#
# Static dielectric constant tensor:
#      x y z
#    x 3.394290 0.000000 0.078490 
#    y 0.000000 3.486100 0.000000 
#    z 0.078490 0.000000 3.789490 
# 
# 
# High freq. dielectric constant tensor:
#      x y z
#    x 1.732980 0.000000 0.000360 
#    y 0.000000 1.763950 0.000000 
#    z 0.000360 0.000000 1.796180 
# 
# From -- ./inp_files/65188.got.cif
#   From: 2010.06.25/outbox.cif.g09.slc.cpg/sg15_33_cif.got.tgz:65188.got - 2010.06.28 07:06:18.
