data_PCOD8137029
_publ_section_title
;
Structure prediction by ZEFSAII (Michael W. Deem and Ramdas Pophale) SiO2 
 PCOD8137029
Probable space group: C 2/C
;
_chemical_formula_sum "Si O2"
_cell_formula_units_Z 52
_cell_length_a 15.110230
_cell_length_b 28.980316
_cell_length_c 8.541719
_cell_angle_alpha 90.000000
_cell_angle_beta 134.189749
_cell_angle_gamma 90.000000
_cell_volume 2682.007734
_symmetry_space_group_name_H-M "C 2/C"
_symmetry_group_IT_number 15
_symmetry_cell_setting 'monoclinic'
loop_
_space_group_symop_operation_xyz
x,y,z
-x,y,1/2-z
-x,-y,-z
x,-y,1/2+z
1/2+x,1/2+y,z
1/2-x,1/2+y,1/2-z
1/2-x,1/2-y,-z
1/2+x,1/2-y,1/2+z
loop_
_atom_site_type_symbol
_atom_site_label
_atom_site_fract_x
_atom_site_fract_y
_atom_site_fract_z
Si Si1 0.750289 0.621377 0.628577
Si Si2 0.668341 0.728121 0.258563
Si Si3 0.159888 0.350302 0.596612
Si Si4 0.846852 0.461361 0.402871
Si Si5 0.065387 0.317897 0.996503
Si Si6 0.000000 0.831902 0.750000
Si Si7 0.367683 0.943936 0.776427
O O1 0.825727 0.635141 0.566070
O O2 0.757764 0.567022 0.675942
O O3 0.607795 0.635359 0.447463
O O4 0.817634 0.647849 0.854729
O O5 0.750000 0.750000 0.500000
O O6 0.746650 0.691735 0.252381
O O7 0.549794 0.701224 0.176385
O O8 0.617462 0.766495 0.078965
O O9 0.188694 0.395656 0.734887
O O10 0.025118 0.330649 0.471316
O O11 0.809095 0.454383 0.535855
O O12 0.830421 0.515339 0.348756
O O13 0.984327 0.441903 0.544766
O O14 0.000000 0.324307 0.750000
#
# Coordination Sequence:
#
# PCOD8137029 Si02
#       7
#     8   8   8   8   8   4   8
#     4  11  22  38  63  89 120 167 198 252 301 375
#     4  11  22  40  61  85 119 169 210 257 298 374
#     4  11  22  37  63  84 124 161 207 251 307 361
#     4  10  20  35  59  92 125 157 191 249 320 356
#     4  12  24  38  58  90 123 156 203 264 316 356
#     4  10  22  40  62  84 118 162 222 238 300 376
#     4  10  20  35  58  93 127 152 195 253 307 376
#
# _framework density 19.388459999999998
#
# number of rings (size 3 to 8) (size 9 to 14) (size 15 to 20)
#    0.000    1.231    4.615    3.231    0.000    1.846 
#    2.769    0.000    0.000    8.308    0.000    0.000 
#    0.000    0.000    0.000    0.000    0.000    0.000 
#
# Total GULP energy -322383.235751 kJ/mol
# GULP energy per Si atom -12399.355221 kJ/mol
# Density = 1.934433 g / cm^3
# Si number density = 19.388460 Si / 1000 Ang^3
#
#
#
# Elastic Constant Matrix: (Units=GPa)
#
#
# Indices 1 2 3 4 5 6 
#
# 1 72.4651 46.5930 46.1406 0.0000 4.7556 0.0000
# 2 46.5930 143.1785 46.1477 0.0000 0.4338 0.0000
# 3 46.1406 46.1477 107.0132 0.0000 -2.7877 0.0000
# 4 0.0000 0.0000 0.0000 40.3040 0.0000 -0.1813
# 5 4.7556 0.4338 -2.7877 0.0000 26.8638 0.0000
# 6 0.0000 0.0000 0.0000 -0.1813 0.0000 33.1805
#
#
#
# Elastic Compliance Matrix: (Units=1/GPa)
#
#
# Indices 1 2 3 4 5 6 
#
# 1 0.021922 -0.004686 -0.007551 0.000000 -0.004589 0.000000
# 2 -0.004686 0.009120 -0.001900 0.000000 0.000485 0.000000
# 3 -0.007551 -0.001900 0.013492 0.000000 0.002767 0.000000
# 4 0.000000 0.000000 0.000000 0.024812 0.000000 0.000136
# 5 -0.004589 0.000485 0.002767 0.000000 0.038316 0.000000
# 6 0.000000 0.000000 0.000000 0.000136 0.000000 0.030139
#
#
# Mechanical properties :
#
#
# Convention : Reuss Voigt Hill
#
# Bulk Modulus (GPa) = 61.49965 66.71326 64.10645
# Shear Modulus (GPa) = 29.15559 32.32136 30.73848
#
# Velocity S-wave (km/s) = 3.88204 4.08737 3.98603
# Velocity P-wave (km/s) = 7.20293 7.53385 7.37025
#
# Compressibility (1/GPa) = 0.01626026
#
# Stress axis : x y z
#
# Youngs Moduli (GPa) = 45.61709 109.64804 74.12059
#
# Poissons Ratio (x) = 0.51383 0.55965
# Poissons Ratio (y) = 0.21377 0.14081
# Poissons Ratio (z) = 0.34444 0.20830
#
# Static dielectric constant tensor:
#      x y z
#    x 3.430310 0.000000 -0.012250 
#    y 0.000000 3.798430 0.000000 
#    z -0.012250 0.000000 3.308170 
# 
# 
# High freq. dielectric constant tensor:
#      x y z
#    x 1.736380 0.000000 -0.010920 
#    y 0.000000 1.776200 0.000000 
#    z -0.010920 0.000000 1.731760 
# 
# From -- ./inp_files/44910.got.cif
#   From: 2010.06.25/outbox.cif.g09.slc.cpg/sg15_23_cif.got.tgz:44910.got - 2010.06.28 07:06:18.
