data_PCOD8137095
_publ_section_title
;
Structure prediction by ZEFSAII (Michael W. Deem and Ramdas Pophale) SiO2 
 PCOD8137095
Probable space group: C 2/C
;
_chemical_formula_sum "Si O2"
_cell_formula_units_Z 60
_cell_length_a 17.269585
_cell_length_b 20.372695
_cell_length_c 16.993826
_cell_angle_alpha 90.000000
_cell_angle_beta 149.243749
_cell_angle_gamma 90.000000
_cell_volume 3057.532652
_symmetry_space_group_name_H-M "C 2/C"
_symmetry_group_IT_number 15
_symmetry_cell_setting 'monoclinic'
loop_
_space_group_symop_operation_xyz
x,y,z
-x,y,1/2-z
-x,-y,-z
x,-y,1/2+z
1/2+x,1/2+y,z
1/2-x,1/2+y,1/2-z
1/2-x,1/2-y,-z
1/2+x,1/2-y,1/2+z
loop_
_atom_site_type_symbol
_atom_site_label
_atom_site_fract_x
_atom_site_fract_y
_atom_site_fract_z
Si Si1 0.500000 0.240465 0.250000
Si Si2 0.652795 0.990809 0.929870
Si Si3 0.504024 0.943309 0.069712
Si Si4 0.129972 0.645376 0.472649
Si Si5 0.370472 0.836102 0.850202
Si Si6 0.186290 0.971122 0.080372
Si Si7 0.871009 0.196004 0.789232
Si Si8 0.566040 0.400830 0.556417
O O1 0.636128 0.195051 0.404053
O O2 0.557778 0.286949 0.232281
O O3 0.500000 0.973751 0.750000
O O4 0.618870 0.041437 0.970041
O O5 0.780133 0.020542 0.983275
O O6 0.709123 0.922621 0.017600
O O7 0.671487 0.937741 0.251834
O O8 0.456969 0.871476 0.997604
O O9 0.500000 0.000000 0.000000
O O10 0.202221 0.673580 0.617012
O O11 0.951127 0.637546 0.340111
O O12 0.376573 0.756443 0.855852
O O13 0.193341 0.852527 0.700195
O O14 0.154952 0.040852 0.091983
O O15 0.038231 0.925703 0.962221
O O16 0.960019 0.134674 0.901167
#
# Coordination Sequence:
#
# PCOD8137095 Si02
#       8
#     4   8   8   8   8   8   8   8
#     4  10  22  34  52  86 122 162 198 242 290 370
#     4  10  20  35  60  90 117 155 198 256 297 355
#     4  11  19  37  65  87 114 160 209 243 299 365
#     4  11  20  35  59  82 123 162 202 236 297 371
#     4  11  21  38  58  83 117 159 207 243 289 364
#     4  10  23  38  59  86 122 157 200 256 309 348
#     4  11  25  36  56  89 122 164 201 245 307 367
#     4  11  23  40  56  82 126 158 198 256 303 351
#
# _framework density 19.623666
#
# number of rings (size 3 to 8) (size 9 to 14) (size 15 to 20)
#    0.000    1.333    3.333    3.600    3.733    0.000 
#    0.000    2.000    0.000    0.800    0.000    1.867 
#    0.000    0.000    0.000    0.000    0.000    0.000 
#
# Total GULP energy -371897.087612 kJ/mol
# GULP energy per Si atom -12396.569587 kJ/mol
# Density = 1.957900 g / cm^3
# Si number density = 19.623666 Si / 1000 Ang^3
#
#
#
# Elastic Constant Matrix: (Units=GPa)
#
#
# Indices 1 2 3 4 5 6 
#
# 1 127.4809 39.1117 25.6866 0.0039 8.9306 0.0024
# 2 39.1117 76.8055 36.7254 0.0039 -5.6067 0.0034
# 3 25.6866 36.7254 77.6153 0.0085 2.0406 0.0071
# 4 0.0039 0.0039 0.0085 35.4852 0.0033 -12.3985
# 5 8.9306 -5.6067 2.0406 0.0033 26.6316 0.0021
# 6 0.0024 0.0034 0.0071 -12.3985 0.0021 26.4135
#
#
#
# Elastic Compliance Matrix: (Units=1/GPa)
#
#
# Indices 1 2 3 4 5 6 
#
# 1 0.009817 -0.004925 -0.000806 0.000000 -0.004267 0.000000
# 2 -0.004925 0.019771 -0.007894 -0.000001 0.006419 -0.000001
# 3 -0.000806 -0.007894 0.016957 -0.000005 -0.002691 -0.000006
# 4 0.000000 -0.000001 -0.000005 0.033709 -0.000005 0.015823
# 5 -0.004267 0.006419 -0.002691 -0.000005 0.040538 -0.000005
# 6 0.000000 -0.000001 -0.000006 0.015823 -0.000005 0.045287
#
#
# Mechanical properties :
#
#
# Convention : Reuss Voigt Hill
#
# Bulk Modulus (GPa) = 51.82904 53.88323 52.85614
# Shear Modulus (GPa) = 25.03006 29.73128 27.38067
#
# Velocity S-wave (km/s) = 3.57529 3.89662 3.73941
# Velocity P-wave (km/s) = 6.59640 6.91106 6.75556
#
# Compressibility (1/GPa) = 0.01929420
#
# Stress axis : x y z
#
# Youngs Moduli (GPa) = 101.86750 50.57928 58.97323
#
# Poissons Ratio (x) = 0.24910 0.04755
# Poissons Ratio (y) = 0.50169 0.46553
# Poissons Ratio (z) = 0.08214 0.39927
#
# Static dielectric constant tensor:
#      x y z
#    x 3.629510 0.000000 0.074760 
#    y 0.000000 3.573160 0.000000 
#    z 0.074760 0.000000 3.698810 
# 
# 
# High freq. dielectric constant tensor:
#      x y z
#    x 1.750990 0.000000 0.011460 
#    y 0.000000 1.755340 0.000000 
#    z 0.011460 0.000000 1.761370 
# 
# From -- ./inp_files/211758.got.cif
#   From: 2010.06.25/outbox.cif.g09.slc.cpg/sg15_106_cif.got.tgz:211758.got - 2010.06.28 07:06:18.
