data_PCOD8137575
_publ_section_title
;
Structure prediction by ZEFSAII (Michael W. Deem and Ramdas Pophale) SiO2 
 PCOD8137575
Probable space group: C 2/C
;
_chemical_formula_sum "Si O2"
_cell_formula_units_Z 56
_cell_length_a 20.119460
_cell_length_b 9.089135
_cell_length_c 18.510938
_cell_angle_alpha 90.000000
_cell_angle_beta 53.118311
_cell_angle_gamma 90.000000
_cell_volume 2707.635755
_symmetry_space_group_name_H-M "C 2/C"
_symmetry_group_IT_number 15
_symmetry_cell_setting 'monoclinic'
loop_
_space_group_symop_operation_xyz
x,y,z
-x,y,1/2-z
-x,-y,-z
x,-y,1/2+z
1/2+x,1/2+y,z
1/2-x,1/2+y,1/2-z
1/2-x,1/2-y,-z
1/2+x,1/2-y,1/2+z
loop_
_atom_site_type_symbol
_atom_site_label
_atom_site_fract_x
_atom_site_fract_y
_atom_site_fract_z
Si Si1 0.888306 0.121424 0.961096
Si Si2 0.669955 0.711177 0.004743
Si Si3 0.337192 0.826374 0.875476
Si Si4 0.452686 0.215731 0.174702
Si Si5 0.052191 0.564477 0.647155
Si Si6 0.803404 0.864266 0.650462
Si Si7 0.197954 0.197545 0.822695
O O1 0.825868 0.219479 0.952053
O O2 0.983441 0.150234 0.877886
O O3 0.858938 0.955918 0.967106
O O4 0.886751 0.162597 0.049014
O O5 0.585284 0.801719 0.076921
O O6 0.750000 0.750000 0.000000
O O7 0.699276 0.745776 0.904461
O O8 0.415017 0.762108 0.778948
O O9 0.258934 0.848472 0.876365
O O10 0.361864 0.989414 0.884179
O O11 0.379961 0.222210 0.163194
O O12 0.497665 0.056069 0.138358
O O13 0.000000 0.624830 0.750000
O O14 0.783256 0.749518 0.727062
O O15 0.804127 0.023261 0.686921
#
# Coordination Sequence:
#
# PCOD8137575 Si02
#       7
#     8   8   8   8   8   8   8
#     4  10  20  36  60  85 111 149 191 230 278 338
#     4  11  24  38  55  85 119 145 184 240 286 334
#     4   9  18  37  59  83 113 148 191 229 271 340
#     4   9  20  38  59  82 112 150 190 230 276 339
#     4   9  18  35  58  83 113 147 186 232 282 333
#     4  10  21  36  57  82 114 152 191 234 279 334
#     4  10  23  41  56  82 117 149 191 237 283 338
#
# _framework density 20.682248000000001
#
# number of rings (size 3 to 8) (size 9 to 14) (size 15 to 20)
#    0.000    2.286    0.000    3.429    0.000    9.714 
#    0.000    8.571    0.000    0.000    0.000    0.000 
#    0.000    0.000    0.000    0.000    0.000    0.000 
#
# Total GULP energy -346961.219119 kJ/mol
# GULP energy per Si atom -12391.472111 kJ/mol
# Density = 2.063517 g / cm^3
# Si number density = 20.682248 Si / 1000 Ang^3
#
#
#
# Elastic Constant Matrix: (Units=GPa)
#
#
# Indices 1 2 3 4 5 6 
#
# 1 33.2931 15.4378 13.5009 0.0000 6.4051 0.0000
# 2 15.4378 68.6082 55.8643 0.0001 -6.7677 -0.0001
# 3 13.5009 55.8643 101.4656 0.0000 7.7959 0.0001
# 4 0.0000 0.0001 0.0000 43.2725 0.0000 -1.0037
# 5 6.4051 -6.7677 7.7959 0.0000 25.4740 0.0000
# 6 0.0000 -0.0001 0.0001 -1.0037 0.0000 23.0354
#
#
#
# Elastic Compliance Matrix: (Units=1/GPa)
#
#
# Indices 1 2 3 4 5 6 
#
# 1 0.036955 -0.011660 0.002514 0.000000 -0.013159 0.000000
# 2 -0.011660 0.034043 -0.018548 0.000000 0.017652 0.000000
# 3 0.002514 -0.018548 0.020646 0.000000 -0.011878 0.000000
# 4 0.000000 0.000000 0.000000 0.023133 0.000000 0.001008
# 5 -0.013159 0.017652 -0.011878 0.000000 0.050889 0.000000
# 6 0.000000 0.000000 0.000000 0.001008 0.000000 0.043455
#
#
# Mechanical properties :
#
#
# Convention : Reuss Voigt Hill
#
# Bulk Modulus (GPa) = 27.58243 41.44144 34.51193
# Shear Modulus (GPa) = 18.07690 26.26064 22.16877
#
# Velocity S-wave (km/s) = 2.95961 3.56718 3.27750
# Velocity P-wave (km/s) = 5.00442 6.08663 5.57186
#
# Compressibility (1/GPa) = 0.03625497
#
# Stress axis : x y z
#
# Youngs Moduli (GPa) = 27.05974 29.37431 48.43592
#
# Poissons Ratio (x) = 0.34251 -0.12175
# Poissons Ratio (y) = 0.31552 0.89840
# Poissons Ratio (z) = -0.06802 0.54484
#
# Static dielectric constant tensor:
#      x y z
#    x 3.696240 0.000000 -0.167030 
#    y 0.000000 3.611330 0.000000 
#    z -0.167030 0.000000 4.293180 
# 
# 
# High freq. dielectric constant tensor:
#      x y z
#    x 1.797290 0.000000 -0.008620 
#    y 0.000000 1.795730 0.000000 
#    z -0.008620 0.000000 1.832720 
# 
# From -- ./inp_files/213812.got.cif
#   From: 2010.06.25/outbox.cif.g09.slc.cpg/sg15_107_cif.got.tgz:213812.got - 2010.06.28 07:06:18.
