data_PCOD8137604
_publ_section_title
;
Structure prediction by ZEFSAII (Michael W. Deem and Ramdas Pophale) SiO2 
 PCOD8137604
Probable space group: C 2/C
;
_chemical_formula_sum "Si O2"
_cell_formula_units_Z 48
_cell_length_a 29.779957
_cell_length_b 9.046907
_cell_length_c 18.395844
_cell_angle_alpha 90.000000
_cell_angle_beta 155.084549
_cell_angle_gamma 90.000000
_cell_volume 2087.926305
_symmetry_space_group_name_H-M "C 2/C"
_symmetry_group_IT_number 15
_symmetry_cell_setting 'monoclinic'
loop_
_space_group_symop_operation_xyz
x,y,z
-x,y,1/2-z
-x,-y,-z
x,-y,1/2+z
1/2+x,1/2+y,z
1/2-x,1/2+y,1/2-z
1/2-x,1/2-y,-z
1/2+x,1/2-y,1/2+z
loop_
_atom_site_type_symbol
_atom_site_label
_atom_site_fract_x
_atom_site_fract_y
_atom_site_fract_z
Si Si1 0.332243 0.561927 0.406128
Si Si2 0.455384 0.569759 0.862027
Si Si3 0.475008 0.876500 0.521196
Si Si4 0.777480 0.449884 0.992879
Si Si5 0.726009 0.857979 0.360220
Si Si6 0.169696 0.400259 0.068698
O O1 0.457949 0.549287 0.574535
O O2 0.309660 0.463877 0.443492
O O3 0.264387 0.504310 0.237598
O O4 0.299058 0.729190 0.376744
O O5 0.345817 0.495158 0.678544
O O6 0.500000 0.500000 0.000000
O O7 0.437136 0.747167 0.846961
O O8 0.364594 0.803663 0.328815
O O9 0.441792 0.937123 0.552597
O O10 0.500000 0.000000 0.500000
O O11 0.789810 0.284101 0.981177
O O12 0.841496 0.560842 0.033658
O O13 0.825544 0.448315 0.145791
#
# Coordination Sequence:
#
# PCOD8137604 Si02
#       6
#     8   8   8   8   8   8
#     4  10  21  37  59  87 120 158 203 248 298 375
#     4  11  20  36  62  90 116 156 209 243 299 363
#     4  10  22  39  60  91 118 157 203 252 295 371
#     4  11  22  40  62  89 122 160 202 259 303 368
#     4  10  23  40  59  88 125 156 205 249 317 356
#     4  10  20  36  60  88 116 158 204 245 304 360
#
# _framework density 22.989318999999998
#
# number of rings (size 3 to 8) (size 9 to 14) (size 15 to 20)
#    0.000    1.667    3.333    2.000    4.667    2.667 
#    0.000    0.833    0.000    0.000    0.000    0.000 
#    0.000    0.000    0.000    0.000    0.000    0.000 
#
# Total GULP energy -297533.100206 kJ/mol
# GULP energy per Si atom -12397.212509 kJ/mol
# Density = 2.293699 g / cm^3
# Si number density = 22.989319 Si / 1000 Ang^3
#
#
#
# Elastic Constant Matrix: (Units=GPa)
#
#
# Indices 1 2 3 4 5 6 
#
# 1 137.9687 49.9923 8.9797 0.0000 -6.0901 0.0000
# 2 49.9923 127.7547 -4.2928 0.0000 7.1011 0.0000
# 3 8.9797 -4.2928 15.9093 0.0000 -9.8276 0.0000
# 4 0.0000 0.0000 0.0000 20.8131 0.0000 2.7388
# 5 -6.0901 7.1011 -9.8276 0.0000 30.4066 0.0000
# 6 0.0000 0.0000 0.0000 2.7388 0.0000 49.5177
#
#
#
# Elastic Compliance Matrix: (Units=1/GPa)
#
#
# Indices 1 2 3 4 5 6 
#
# 1 0.009012 -0.003763 -0.005553 0.000000 0.000889 0.000000
# 2 -0.003763 0.009521 0.003566 0.000000 -0.001825 0.000000
# 3 -0.005553 0.003566 0.082154 0.000000 0.024608 0.000000
# 4 0.000000 0.000000 0.000000 0.048399 0.000000 -0.002677
# 5 0.000889 -0.001825 0.024608 0.000000 0.041445 0.000000
# 6 0.000000 0.000000 0.000000 -0.002677 0.000000 0.020343
#
#
# Mechanical properties :
#
#
# Convention : Reuss Voigt Hill
#
# Bulk Modulus (GPa) = 11.21237 43.44347 27.32792
# Shear Modulus (GPa) = 19.83323 35.27770 27.55547
#
# Velocity S-wave (km/s) = 2.94039 3.92155 3.46587
# Velocity P-wave (km/s) = 4.05162 6.28037 5.28482
#
# Compressibility (1/GPa) = 0.08918718
#
# Stress axis : x y z
#
# Youngs Moduli (GPa) = 110.96317 105.03029 12.17233
#
# Poissons Ratio (x) = 0.39518 0.06759
# Poissons Ratio (y) = 0.41750 -0.04340
# Poissons Ratio (z) = 0.61615 -0.37449
#
# Static dielectric constant tensor:
#      x y z
#    x 4.515060 0.000000 -0.107920 
#    y 0.000000 4.124860 0.000000 
#    z -0.107920 0.000000 4.009890 
# 
# 
# High freq. dielectric constant tensor:
#      x y z
#    x 1.930140 0.000000 -0.009730 
#    y 0.000000 1.916430 0.000000 
#    z -0.009730 0.000000 1.870820 
# 
# From -- ./inp_files/176891.got.cif
#   From: 2010.06.25/outbox.cif.g09.slc.cpg/sg15_89_cif.got.tgz:176891.got - 2010.06.28 07:06:18.
