data_PCOD8137232
_publ_section_title
;
Structure prediction by ZEFSAII (Michael W. Deem and Ramdas Pophale) SiO2 
 PCOD8137232
Probable space group: C 2/C
;
_chemical_formula_sum "Si O2"
_cell_formula_units_Z 48
_cell_length_a 21.724623
_cell_length_b 18.732182
_cell_length_c 11.166236
_cell_angle_alpha 90.000000
_cell_angle_beta 34.081534
_cell_angle_gamma 90.000000
_cell_volume 2546.384105
_symmetry_space_group_name_H-M "C 2/C"
_symmetry_group_IT_number 15
_symmetry_cell_setting 'monoclinic'
loop_
_space_group_symop_operation_xyz
x,y,z
-x,y,1/2-z
-x,-y,-z
x,-y,1/2+z
1/2+x,1/2+y,z
1/2-x,1/2+y,1/2-z
1/2-x,1/2-y,-z
1/2+x,1/2-y,1/2+z
loop_
_atom_site_type_symbol
_atom_site_label
_atom_site_fract_x
_atom_site_fract_y
_atom_site_fract_z
Si Si1 0.871738 0.439192 0.489987
Si Si2 0.820641 0.685786 0.234293
Si Si3 0.619732 0.724847 0.089779
Si Si4 0.116937 0.732775 0.119781
Si Si5 0.114645 0.597235 0.996910
Si Si6 0.323052 0.146733 0.848422
O O1 0.845380 0.395957 0.655337
O O2 0.829375 0.520177 0.575188
O O3 0.804192 0.407551 0.487882
O O4 0.000000 0.432898 0.250000
O O5 0.900514 0.710575 0.213337
O O6 0.694820 0.697739 0.482017
O O7 0.834869 0.734234 0.096654
O O8 0.500000 0.693659 0.250000
O O9 0.614891 0.781382 0.207825
O O10 0.701121 0.661025 0.993291
O O11 0.000000 0.751630 0.250000
O O12 0.176920 0.665036 0.956061
O O13 0.102346 0.610657 0.874553
O O14 0.000000 0.595945 0.250000
#
# Coordination Sequence:
#
# PCOD8137232 Si02
#       6
#     8   8   8   8   8   8
#     4  10  23  34  57  84 114 147 180 232 275 338
#     4  10  20  36  52  83 105 144 184 220 277 322
#     4  10  21  34  58  81 110 143 189 235 269 332
#     4  10  22  34  55  80 112 142 179 228 275 330
#     4  10  22  34  54  82 112 148 178 221 286 338
#     4  10  20  37  54  82 111 146 185 225 287 317
#
# _framework density 18.850259000000001
#
# number of rings (size 3 to 8) (size 9 to 14) (size 15 to 20)
#    0.000    2.000    1.667    2.000   11.667    1.333 
#    0.000    0.000    0.000    2.000    0.000    0.000 
#    0.000    0.000    0.000    0.000    0.000    0.000 
#
# Total GULP energy -297432.784291 kJ/mol
# GULP energy per Si atom -12393.032679 kJ/mol
# Density = 1.880735 g / cm^3
# Si number density = 18.850259 Si / 1000 Ang^3
#
#
#
# Elastic Constant Matrix: (Units=GPa)
#
#
# Indices 1 2 3 4 5 6 
#
# 1 114.5511 20.9285 39.0184 0.0000 -1.6868 0.0000
# 2 20.9285 80.1064 33.2046 0.0000 1.1295 0.0000
# 3 39.0184 33.2046 68.7903 0.0000 6.4635 0.0000
# 4 0.0000 0.0000 0.0000 17.1248 0.0000 4.9251
# 5 -1.6868 1.1295 6.4635 0.0000 40.4247 0.0000
# 6 0.0000 0.0000 0.0000 4.9251 0.0000 22.6205
#
#
#
# Elastic Compliance Matrix: (Units=1/GPa)
#
#
# Indices 1 2 3 4 5 6 
#
# 1 0.010911 -0.000312 -0.006175 0.000000 0.001451 0.000000
# 2 -0.000312 0.015639 -0.007442 0.000000 0.000740 0.000000
# 3 -0.006175 -0.007442 0.021966 0.000000 -0.003562 0.000000
# 4 0.000000 0.000000 0.000000 0.062296 0.000000 -0.013564
# 5 0.001451 0.000740 -0.003562 0.000000 0.025347 0.000000
# 6 0.000000 0.000000 0.000000 -0.013564 0.000000 0.047161
#
#
# Mechanical properties :
#
#
# Convention : Reuss Voigt Hill
#
# Bulk Modulus (GPa) = 48.40247 49.97232 49.18739
# Shear Modulus (GPa) = 22.92916 27.38707 25.15811
#
# Velocity S-wave (km/s) = 3.49145 3.81580 3.65722
# Velocity P-wave (km/s) = 6.47972 6.78096 6.63205
#
# Compressibility (1/GPa) = 0.02066010
#
# Stress axis : x y z
#
# Youngs Moduli (GPa) = 91.64768 63.94283 45.52462
#
# Poissons Ratio (x) = 0.01992 0.28111
# Poissons Ratio (y) = 0.02856 0.33878
# Poissons Ratio (z) = 0.56592 0.47584
#
# Static dielectric constant tensor:
#      x y z
#    x 3.652440 0.000000 0.238280 
#    y 0.000000 3.829030 0.000000 
#    z 0.238280 0.000000 3.344380 
# 
# 
# High freq. dielectric constant tensor:
#      x y z
#    x 1.743510 0.000000 0.025850 
#    y 0.000000 1.710660 0.000000 
#    z 0.025850 0.000000 1.715380 
# 
# From -- ./inp_files/119352.got.cif
#   From: 2010.06.25/outbox.cif.g09.slc.cpg/sg15_60_cif.got.tgz:119352.got - 2010.06.28 07:06:18.
