data_PCOD8137317
_publ_section_title
;
Structure prediction by ZEFSAII (Michael W. Deem and Ramdas Pophale) SiO2 
 PCOD8137317
Probable space group: C 2/C
;
_chemical_formula_sum "Si O2"
_cell_formula_units_Z 52
_cell_length_a 13.007226
_cell_length_b 16.075225
_cell_length_c 12.203117
_cell_angle_alpha 90.000000
_cell_angle_beta 80.072883
_cell_angle_gamma 90.000000
_cell_volume 2513.396634
_symmetry_space_group_name_H-M "C 2/C"
_symmetry_group_IT_number 15
_symmetry_cell_setting 'monoclinic'
loop_
_space_group_symop_operation_xyz
x,y,z
-x,y,1/2-z
-x,-y,-z
x,-y,1/2+z
1/2+x,1/2+y,z
1/2-x,1/2+y,1/2-z
1/2-x,1/2-y,-z
1/2+x,1/2-y,1/2+z
loop_
_atom_site_type_symbol
_atom_site_label
_atom_site_fract_x
_atom_site_fract_y
_atom_site_fract_z
Si Si1 0.278269 0.108029 0.821051
Si Si2 0.223584 0.205923 0.266528
Si Si3 0.000000 0.631415 0.750000
Si Si4 0.677042 0.608179 0.067470
Si Si5 0.588996 0.259900 0.143968
Si Si6 0.515223 0.268930 0.921580
Si Si7 0.615270 0.555583 0.686535
O O1 0.269281 0.202083 0.782480
O O2 0.394987 0.075422 0.766605
O O3 0.194086 0.050429 0.775350
O O4 0.259556 0.106141 0.954093
O O5 0.236350 0.141588 0.164485
O O6 0.316528 0.198272 0.338754
O O7 0.113638 0.187033 0.345146
O O8 0.019421 0.689116 0.640606
O O9 0.578272 0.665147 0.053515
O O10 0.640705 0.514092 0.092775
O O11 0.500000 0.252524 0.250000
O O12 0.626672 0.355385 0.125594
O O13 0.544863 0.232922 0.034899
O O14 0.500000 0.539049 0.750000
#
# Coordination Sequence:
#
# PCOD8137317 Si02
#       7
#     8   8   4   8   8   8   8
#     4  10  22  39  60  85 118 161 198 250 298 356
#     4  10  20  36  56  89 120 152 202 242 299 354
#     4  10  22  40  62  86 112 160 214 246 296 350
#     4  12  21  35  64  91 117 156 205 247 295 366
#     4  10  22  36  57  86 126 163 194 244 304 356
#     4  11  19  35  58  90 117 156 195 251 297 345
#     4  10  22  38  54  90 126 153 193 244 315 359
#
# _framework density 20.689133999999999
#
# number of rings (size 3 to 8) (size 9 to 14) (size 15 to 20)
#    0.000    1.538    3.077    4.615    2.154    3.692 
#    0.000    0.769    1.692    0.000    0.000    0.000 
#    0.000    0.000    0.000    0.000    0.000    0.000 
#
# Total GULP energy -322421.471458 kJ/mol
# GULP energy per Si atom -12400.825825 kJ/mol
# Density = 2.064204 g / cm^3
# Si number density = 20.689134 Si / 1000 Ang^3
#
#
#
# Elastic Constant Matrix: (Units=GPa)
#
#
# Indices 1 2 3 4 5 6 
#
# 1 144.5974 33.8122 43.3895 0.0000 1.2029 0.0000
# 2 33.8122 26.3408 11.4752 0.0000 -4.0824 0.0000
# 3 43.3895 11.4752 117.5408 0.0000 7.4263 0.0000
# 4 0.0000 0.0000 0.0000 10.2793 0.0000 -0.4198
# 5 1.2029 -4.0824 7.4263 0.0000 42.4673 0.0000
# 6 0.0000 0.0000 0.0000 -0.4198 0.0000 7.2920
#
#
#
# Elastic Compliance Matrix: (Units=1/GPa)
#
#
# Indices 1 2 3 4 5 6 
#
# 1 0.010697 -0.012747 -0.002637 0.000000 -0.001067 0.000000
# 2 -0.012747 0.055726 -0.001108 0.000000 0.005912 0.000000
# 3 -0.002637 -0.001108 0.009698 0.000000 -0.001728 0.000000
# 4 0.000000 0.000000 0.000000 0.097513 0.000000 0.005614
# 5 -0.001067 0.005912 -0.001728 0.000000 0.024448 0.000000
# 6 0.000000 0.000000 0.000000 0.005614 0.000000 0.137461
#
#
# Mechanical properties :
#
#
# Convention : Reuss Voigt Hill
#
# Bulk Modulus (GPa) = 23.18228 51.75919 37.47073
# Shear Modulus (GPa) = 13.05803 25.32786 19.19295
#
# Velocity S-wave (km/s) = 2.51500 3.50267 3.04909
# Velocity P-wave (km/s) = 4.43430 6.43662 5.52690
#
# Compressibility (1/GPa) = 0.04313640
#
# Stress axis : x y z
#
# Youngs Moduli (GPa) = 93.48733 17.94491 103.11030
#
# Poissons Ratio (x) = 0.22875 0.27187
# Poissons Ratio (y) = 1.19172 0.11427
# Poissons Ratio (z) = 0.24650 0.01989
#
# Static dielectric constant tensor:
#      x y z
#    x 4.244040 0.000000 0.140080 
#    y 0.000000 3.378500 0.000000 
#    z 0.140080 0.000000 3.791950 
# 
# 
# High freq. dielectric constant tensor:
#      x y z
#    x 1.825090 0.000000 0.003490 
#    y 0.000000 1.765110 0.000000 
#    z 0.003490 0.000000 1.816840 
# 
# From -- ./inp_files/97773.got.cif
#   From: 2010.06.25/outbox.cif.g09.slc.cpg/sg15_49_cif.got.tgz:97773.got - 2010.06.28 07:06:18.
