data_PCOD8137563
_publ_section_title
;
Structure prediction by ZEFSAII (Michael W. Deem and Ramdas Pophale) SiO2 
 PCOD8137563
Probable space group: C 2/C
;
_chemical_formula_sum "Si O2"
_cell_formula_units_Z 60
_cell_length_a 8.908706
_cell_length_b 14.865471
_cell_length_c 25.335034
_cell_angle_alpha 90.000000
_cell_angle_beta 73.130131
_cell_angle_gamma 90.000000
_cell_volume 3210.786654
_symmetry_space_group_name_H-M "C 2/C"
_symmetry_group_IT_number 15
_symmetry_cell_setting 'monoclinic'
loop_
_space_group_symop_operation_xyz
x,y,z
-x,y,1/2-z
-x,-y,-z
x,-y,1/2+z
1/2+x,1/2+y,z
1/2-x,1/2+y,1/2-z
1/2-x,1/2-y,-z
1/2+x,1/2-y,1/2+z
loop_
_atom_site_type_symbol
_atom_site_label
_atom_site_fract_x
_atom_site_fract_y
_atom_site_fract_z
Si Si1 0.694437 0.308456 0.054939
Si Si2 0.988795 0.944342 0.860341
Si Si3 0.865697 0.117522 0.604406
Si Si4 0.178937 0.497180 0.433529
Si Si5 0.591206 0.797297 0.193595
Si Si6 0.621528 0.897754 0.040899
Si Si7 0.000000 0.127164 0.250000
Si Si8 0.058931 0.245912 0.395743
O O1 0.505750 0.312018 0.078690
O O2 0.755865 0.410305 0.041382
O O3 0.764130 0.263181 0.101482
O O4 0.750000 0.250000 0.000000
O O5 0.802622 0.967960 0.877227
O O6 0.055829 0.933185 0.793795
O O7 0.020260 0.859067 0.894876
O O8 0.077941 0.024991 0.877757
O O9 0.753062 0.159497 0.660047
O O10 0.777463 0.093241 0.559468
O O11 0.157131 0.578844 0.476786
O O12 0.013796 0.467422 0.423875
O O13 0.500000 0.851256 0.250000
O O14 0.630705 0.695599 0.211399
O O15 0.467671 0.793361 0.157944
O O16 0.558582 0.794721 0.050460
#
# Coordination Sequence:
#
# PCOD8137563 Si02
#       8
#     8   8   8   8   8   8   4   8
#     4  10  22  36  53  84 119 154 180 228 286 344
#     4  10  20  36  60  82 110 145 189 234 292 332
#     4  10  21  37  58  84 110 151 190 230 288 338
#     4   9  20  37  54  81 116 149 188 230 277 347
#     4   8  17  40  61  73 106 147 191 230 280 333
#     4   9  19  38  54  82 114 150 188 225 281 341
#     4   8  18  40  56  80 106 142 182 228 288 330
#     4   9  19  37  56  79 114 149 183 232 282 347
#
# _framework density 18.687010000000001
#
# number of rings (size 3 to 8) (size 9 to 14) (size 15 to 20)
#    0.400    2.400    0.000    0.000    3.733    1.600 
#   28.800    0.000    0.000    0.000    0.000    0.000 
#    0.000    0.000    0.000    0.000    0.000    0.000 
#
# Total GULP energy -371658.425032 kJ/mol
# GULP energy per Si atom -12388.614168 kJ/mol
# Density = 1.864448 g / cm^3
# Si number density = 18.687010 Si / 1000 Ang^3
#
#
#
# Elastic Constant Matrix: (Units=GPa)
#
#
# Indices 1 2 3 4 5 6 
#
# 1 139.9733 42.1393 55.2233 0.0000 0.4583 0.0000
# 2 42.1393 93.0233 50.5190 0.0000 0.4257 0.0000
# 3 55.2233 50.5190 98.7684 0.0000 -4.5068 0.0000
# 4 0.0000 0.0000 0.0000 32.3553 0.0000 -1.2194
# 5 0.4583 0.4257 -4.5068 0.0000 22.9517 0.0000
# 6 0.0000 0.0000 0.0000 -1.2194 0.0000 18.6643
#
#
#
# Elastic Compliance Matrix: (Units=1/GPa)
#
#
# Indices 1 2 3 4 5 6 
#
# 1 0.009437 -0.001911 -0.004345 0.000000 -0.001006 0.000000
# 2 -0.001911 0.015344 -0.006853 0.000000 -0.001592 0.000000
# 3 -0.004345 -0.006853 0.016214 0.000000 0.003398 0.000000
# 4 0.000000 0.000000 0.000000 0.030983 0.000000 0.002024
# 5 -0.001006 -0.001592 0.003398 0.000000 0.044287 0.000000
# 6 0.000000 0.000000 0.000000 0.002024 0.000000 0.053710
#
#
# Mechanical properties :
#
#
# Convention : Reuss Voigt Hill
#
# Bulk Modulus (GPa) = 67.66541 69.72537 68.69539
# Shear Modulus (GPa) = 24.86089 27.05316 25.95702
#
# Velocity S-wave (km/s) = 3.65140 3.80899 3.73103
# Velocity P-wave (km/s) = 7.35292 7.53245 7.44322
#
# Compressibility (1/GPa) = 0.01477860
#
# Stress axis : x y z
#
# Youngs Moduli (GPa) = 105.96657 65.17005 61.67390
#
# Poissons Ratio (x) = 0.12451 0.26797
# Poissons Ratio (y) = 0.20246 0.42265
# Poissons Ratio (z) = 0.46043 0.44661
#
# Static dielectric constant tensor:
#      x y z
#    x 3.537330 0.000000 -0.031080 
#    y 0.000000 3.452690 0.000000 
#    z -0.031080 0.000000 3.460340 
# 
# 
# High freq. dielectric constant tensor:
#      x y z
#    x 1.715130 0.000000 0.001460 
#    y 0.000000 1.725280 0.000000 
#    z 0.001460 0.000000 1.713970 
# 
# From -- ./inp_files/288422.got.cif
#   From: 2010.06.25/outbox.cif.g09.slc.cpg/sg15_145_cif.got.tgz:288422.got - 2010.06.28 07:06:18.
