data_PCOD8137796
_publ_section_title
;
Structure prediction by ZEFSAII (Michael W. Deem and Ramdas Pophale) SiO2 
 PCOD8137796
Probable space group: C 2/C
;
_chemical_formula_sum "Si O2"
_cell_formula_units_Z 56
_cell_length_a 20.738708
_cell_length_b 8.703614
_cell_length_c 16.910103
_cell_angle_alpha 90.000000
_cell_angle_beta 120.000296
_cell_angle_gamma 90.000000
_cell_volume 2643.363617
_symmetry_space_group_name_H-M "C 2/C"
_symmetry_group_IT_number 15
_symmetry_cell_setting 'monoclinic'
loop_
_space_group_symop_operation_xyz
x,y,z
-x,y,1/2-z
-x,-y,-z
x,-y,1/2+z
1/2+x,1/2+y,z
1/2-x,1/2+y,1/2-z
1/2-x,1/2-y,-z
1/2+x,1/2-y,1/2+z
loop_
_atom_site_type_symbol
_atom_site_label
_atom_site_fract_x
_atom_site_fract_y
_atom_site_fract_z
Si Si1 0.302216 0.170523 0.762572
Si Si2 0.500000 0.965194 0.250000
Si Si3 0.412242 0.340417 0.510886
Si Si4 0.007507 0.718268 0.371740
Si Si5 0.384507 0.284783 0.674776
Si Si6 0.924437 0.838963 0.936728
Si Si7 0.848041 0.677862 0.328653
Si Si8 0.000000 0.027816 0.750000
O O1 0.309126 0.242802 0.676673
O O2 0.355449 0.271053 0.849331
O O3 0.216867 0.201668 0.733115
O O4 0.320237 0.993007 0.790205
O O5 0.569666 0.863884 0.269598
O O6 0.531007 0.064371 0.341881
O O7 0.375648 0.314392 0.575123
O O8 0.502518 0.346985 0.575245
O O9 0.394638 0.500840 0.455302
O O10 0.377833 0.201647 0.437211
O O11 0.917860 0.721150 0.317260
O O12 0.032560 0.870520 0.340949
O O13 0.049722 0.718904 0.480239
O O14 0.430001 0.428505 0.738177
#
# Coordination Sequence:
#
# PCOD8137796 Si02
#       8
#     8   4   8   8   8   8   8   4
#     4  12  26  43  65  90 134 173 218 258 325 381
#     4  10  20  36  62  98 132 156 210 276 320 374
#     4  10  22  40  67  96 129 161 219 264 322 373
#     4  10  21  39  66  98 128 161 214 267 322 371
#     4  11  22  38  65  96 128 172 207 266 322 383
#     4  10  21  39  66  99 126 165 212 266 312 388
#     4  11  26  43  64  91 129 178 215 264 314 390
#     4  10  20  36  66  98 128 166 202 268 324 378
#
# _framework density 21.185129
#
# number of rings (size 3 to 8) (size 9 to 14) (size 15 to 20)
#    0.000    1.429    2.857    2.571    8.000    1.714 
#    0.000    0.000    0.000    5.143    0.000    0.000 
#    0.000    0.000    0.000    0.000    0.000    0.000 
#
# Total GULP energy -346890.720003 kJ/mol
# GULP energy per Si atom -12388.954286 kJ/mol
# Density = 2.113691 g / cm^3
# Si number density = 21.185129 Si / 1000 Ang^3
#
#
#
# Elastic Constant Matrix: (Units=GPa)
#
#
# Indices 1 2 3 4 5 6 
#
# 1 45.5146 28.0808 26.7652 0.0000 -0.8885 0.0000
# 2 28.0808 112.5204 32.0716 0.0000 -5.4074 0.0000
# 3 26.7652 32.0716 91.3024 0.0000 -9.2567 0.0000
# 4 0.0000 0.0000 0.0000 28.9553 0.0000 7.8259
# 5 -0.8885 -5.4074 -9.2567 0.0000 31.5269 0.0000
# 6 0.0000 0.0000 0.0000 7.8259 0.0000 15.0310
#
#
#
# Elastic Compliance Matrix: (Units=1/GPa)
#
#
# Indices 1 2 3 4 5 6 
#
# 1 0.029359 -0.005462 -0.006905 0.000000 -0.002137 0.000000
# 2 -0.005462 0.010907 -0.002119 0.000000 0.001095 0.000000
# 3 -0.006905 -0.002119 0.014084 0.000000 0.003577 0.000000
# 4 0.000000 0.000000 0.000000 0.040192 0.000000 -0.020926
# 5 -0.002137 0.001095 0.003577 0.000000 0.032897 0.000000
# 6 0.000000 0.000000 0.000000 -0.020926 0.000000 0.077424
#
#
# Mechanical properties :
#
#
# Convention : Reuss Voigt Hill
#
# Bulk Modulus (GPa) = 39.40291 47.01919 43.21105
# Shear Modulus (GPa) = 20.63612 25.93063 23.28338
#
# Velocity S-wave (km/s) = 3.12442 3.50237 3.31878
# Velocity P-wave (km/s) = 5.62634 6.21273 5.92679
#
# Compressibility (1/GPa) = 0.02537884
#
# Stress axis : x y z
#
# Youngs Moduli (GPa) = 34.06079 91.68492 71.00343
#
# Poissons Ratio (x) = 0.50074 0.49026
# Poissons Ratio (y) = 0.18603 0.15047
# Poissons Ratio (z) = 0.23518 0.19430
#
# Static dielectric constant tensor:
#      x y z
#    x 3.835430 0.000000 -0.154040 
#    y 0.000000 4.004540 0.000000 
#    z -0.154040 0.000000 3.733930 
# 
# 
# High freq. dielectric constant tensor:
#      x y z
#    x 1.810020 0.000000 -0.013850 
#    y 0.000000 1.844610 0.000000 
#    z -0.013850 0.000000 1.829830 
# 
# From -- ./inp_files/214047.got.cif
#   From: 2010.06.25/outbox.cif.g09.slc.cpg/sg15_108_cif.got.tgz:214047.got - 2010.06.28 07:06:18.
