data_PCOD8137927
_publ_section_title
;
Structure prediction by ZEFSAII (Michael W. Deem and Ramdas Pophale) SiO2 
 PCOD8137927
Probable space group: C 2/C
;
_chemical_formula_sum "Si O2"
_cell_formula_units_Z 48
_cell_length_a 8.942105
_cell_length_b 11.121063
_cell_length_c 22.969083
_cell_angle_alpha 90.000000
_cell_angle_beta 106.401729
_cell_angle_gamma 90.000000
_cell_volume 2191.223298
_symmetry_space_group_name_H-M "C 2/C"
_symmetry_group_IT_number 15
_symmetry_cell_setting 'monoclinic'
loop_
_space_group_symop_operation_xyz
x,y,z
-x,y,1/2-z
-x,-y,-z
x,-y,1/2+z
1/2+x,1/2+y,z
1/2-x,1/2+y,1/2-z
1/2-x,1/2-y,-z
1/2+x,1/2-y,1/2+z
loop_
_atom_site_type_symbol
_atom_site_label
_atom_site_fract_x
_atom_site_fract_y
_atom_site_fract_z
Si Si1 0.107328 0.849463 0.314908
Si Si2 0.117126 0.229667 0.612450
Si Si3 0.603307 0.629447 0.315180
Si Si4 0.885290 0.655136 0.503887
Si Si5 0.388093 0.718632 0.389589
Si Si6 0.673476 0.502055 0.545087
O O1 0.271629 0.780807 0.331211
O O2 0.000000 0.804913 0.250000
O O3 0.030734 0.815240 0.367872
O O4 0.143720 0.989837 0.313054
O O5 0.240544 0.291426 0.669249
O O6 0.064949 0.328708 0.558157
O O7 0.194406 0.111693 0.592413
O O8 0.500000 0.674378 0.250000
O O9 0.517850 0.647531 0.367364
O O10 0.750000 0.750000 0.500000
O O11 0.807629 0.524042 0.509825
O O12 0.033171 0.680361 0.561196
O O13 0.294668 0.623532 0.419488
O O14 0.500000 0.500000 0.500000
#
# Coordination Sequence:
#
# PCOD8137927 Si02
#       6
#     8   8   8   8   8   8
#     4  11  27  44  62  95 129 167 220 265 315 376
#     4  11  21  41  66  93 129 167 214 260 316 387
#     4  11  23  43  67  87 125 177 217 265 313 371
#     4  10  20  36  66  99 123 167 217 249 318 400
#     4  12  22  42  67  91 131 171 205 268 327 370
#     4  11  19  37  67  94 132 168 200 258 331 379
#
# _framework density 21.905573
#
# number of rings (size 3 to 8) (size 9 to 14) (size 15 to 20)
#    0.000    1.000    8.333    1.000    0.000    2.000 
#    0.000    2.500    0.000    0.000    0.000    0.000 
#    0.000    0.000    0.000    0.000    0.000    0.000 
#
# Total GULP energy -297611.717508 kJ/mol
# GULP energy per Si atom -12400.488229 kJ/mol
# Density = 2.185571 g / cm^3
# Si number density = 21.905573 Si / 1000 Ang^3
#
#
#
# Elastic Constant Matrix: (Units=GPa)
#
#
# Indices 1 2 3 4 5 6 
#
# 1 34.0430 28.4028 13.0760 0.0000 10.0746 0.0000
# 2 28.4028 87.8224 33.7586 0.0000 22.0700 0.0000
# 3 13.0760 33.7586 111.4729 0.0000 24.6557 0.0000
# 4 0.0000 0.0000 0.0000 36.3308 0.0000 5.8371
# 5 10.0746 22.0700 24.6557 0.0000 46.0252 0.0000
# 6 0.0000 0.0000 0.0000 5.8371 0.0000 35.5068
#
#
#
# Elastic Compliance Matrix: (Units=1/GPa)
#
#
# Indices 1 2 3 4 5 6 
#
# 1 0.040595 -0.012265 -0.000434 0.000000 -0.002772 0.000000
# 2 -0.012265 0.017529 -0.002955 0.000000 -0.004138 0.000000
# 3 -0.000434 -0.002955 0.010870 0.000000 -0.004311 0.000000
# 4 0.000000 0.000000 0.000000 0.028272 0.000000 -0.004648
# 5 -0.002772 -0.004138 -0.004311 0.000000 0.026628 0.000000
# 6 0.000000 0.000000 0.000000 -0.004648 0.000000 0.028928
#
#
# Mechanical properties :
#
#
# Convention : Reuss Voigt Hill
#
# Bulk Modulus (GPa) = 26.53535 42.64590 34.59063
# Shear Modulus (GPa) = 25.42055 34.11260 29.76658
#
# Velocity S-wave (km/s) = 3.41025 3.95049 3.69027
# Velocity P-wave (km/s) = 5.25797 6.34971 5.82945
#
# Compressibility (1/GPa) = 0.03768558
#
# Stress axis : x y z
#
# Youngs Moduli (GPa) = 24.63360 57.04844 91.99578
#
# Poissons Ratio (x) = 0.69972 0.03996
# Poissons Ratio (y) = 0.30214 0.27180
# Poissons Ratio (z) = 0.01070 0.16855
#
# Static dielectric constant tensor:
#      x y z
#    x 3.965850 0.000000 -0.133310 
#    y 0.000000 4.090620 0.000000 
#    z -0.133310 0.000000 4.117470 
# 
# 
# High freq. dielectric constant tensor:
#      x y z
#    x 1.851050 0.000000 0.002340 
#    y 0.000000 1.854260 0.000000 
#    z 0.002340 0.000000 1.867170 
# 
# From -- ./inp_files/263485.got.cif
#   From: 2010.06.25/outbox.cif.g09.slc.cpg/sg15_132_cif.got.tgz:263485.got - 2010.06.28 07:06:18.
