data_PCOD8137215
_publ_section_title
;
Structure prediction by ZEFSAII (Michael W. Deem and Ramdas Pophale) SiO2 
 PCOD8137215
Probable space group: C 2/C
;
_chemical_formula_sum "Si O2"
_cell_formula_units_Z 44
_cell_length_a 18.273376
_cell_length_b 15.040593
_cell_length_c 9.721952
_cell_angle_alpha 90.000000
_cell_angle_beta 53.214220
_cell_angle_gamma 90.000000
_cell_volume 2139.955188
_symmetry_space_group_name_H-M "C 2/C"
_symmetry_group_IT_number 15
_symmetry_cell_setting 'monoclinic'
loop_
_space_group_symop_operation_xyz
x,y,z
-x,y,1/2-z
-x,-y,-z
x,-y,1/2+z
1/2+x,1/2+y,z
1/2-x,1/2+y,1/2-z
1/2-x,1/2-y,-z
1/2+x,1/2-y,1/2+z
loop_
_atom_site_type_symbol
_atom_site_label
_atom_site_fract_x
_atom_site_fract_y
_atom_site_fract_z
Si Si1 0.312818 0.681540 0.345602
Si Si2 0.384681 0.949540 0.074974
Si Si3 0.553548 0.861350 0.957476
Si Si4 0.245308 0.323108 0.623547
Si Si5 0.230719 0.498475 0.037266
Si Si6 0.500000 0.735762 0.250000
O O1 0.250000 0.750000 0.500000
O O2 0.296425 0.708388 0.204681
O O3 0.286893 0.579043 0.401025
O O4 0.420462 0.681368 0.261846
O O5 0.335680 0.950912 0.278660
O O6 0.436163 0.041883 0.985948
O O7 0.455334 0.865995 0.990556
O O8 0.316151 0.939952 0.026461
O O9 0.636764 0.838579 0.764558
O O10 0.555863 0.792052 0.077447
O O11 0.250000 0.250000 0.500000
O O12 0.289456 0.421121 0.540459
#
# Coordination Sequence:
#
# PCOD8137215 Si02
#       6
#     8   8   8   8   8   4
#     4  12  24  46  69  99 136 184 229 277 341 408
#     4  10  20  35  67  96 138 164 216 282 350 403
#     4  10  20  38  61 104 128 169 222 275 347 395
#     4  11  26  43  66  99 139 181 223 282 349 400
#     4  11  22  42  65  99 135 180 219 278 343 400
#     4  12  24  40  72  96 134 178 240 270 332 414
#
# _framework density 20.561178999999999
#
# number of rings (size 3 to 8) (size 9 to 14) (size 15 to 20)
#    0.000    1.091    5.455    2.182    5.091    5.818 
#    0.000    0.909    0.000    0.000    0.000    0.000 
#    0.000    0.000    0.000    0.000    0.000    0.000 
#
# Total GULP energy -272594.420200 kJ/mol
# GULP energy per Si atom -12390.655464 kJ/mol
# Density = 2.051438 g / cm^3
# Si number density = 20.561179 Si / 1000 Ang^3
#
#
#
# Elastic Constant Matrix: (Units=GPa)
#
#
# Indices 1 2 3 4 5 6 
#
# 1 135.3992 37.3186 52.8943 0.0000 14.2003 0.0000
# 2 37.3186 83.0193 36.4792 0.0000 6.7119 0.0000
# 3 52.8943 36.4792 93.9946 0.0000 19.6017 0.0000
# 4 0.0000 0.0000 0.0000 39.3327 0.0000 -1.2456
# 5 14.2003 6.7119 19.6017 0.0000 31.5942 0.0000
# 6 0.0000 0.0000 0.0000 -1.2456 0.0000 33.5934
#
#
#
# Elastic Compliance Matrix: (Units=1/GPa)
#
#
# Indices 1 2 3 4 5 6 
#
# 1 0.009889 -0.002427 -0.004369 0.000000 -0.001219 0.000000
# 2 -0.002427 0.015124 -0.004665 0.000000 0.000772 0.000000
# 3 -0.004369 -0.004665 0.016416 0.000000 -0.007230 0.000000
# 4 0.000000 0.000000 0.000000 0.025454 0.000000 0.000944
# 5 -0.001219 0.000772 -0.007230 0.000000 0.036521 0.000000
# 6 0.000000 0.000000 0.000000 0.000944 0.000000 0.029803
#
#
# Mechanical properties :
#
#
# Convention : Reuss Voigt Hill
#
# Bulk Modulus (GPa) = 54.03364 62.86638 58.45001
# Shear Modulus (GPa) = 30.80792 33.28544 32.04668
#
# Velocity S-wave (km/s) = 3.87506 4.02786 3.95220
# Velocity P-wave (km/s) = 6.80866 7.23002 7.02250
#
# Compressibility (1/GPa) = 0.01850699
#
# Stress axis : x y z
#
# Youngs Moduli (GPa) = 101.12207 66.12151 60.91795
#
# Poissons Ratio (x) = 0.16048 0.26614
# Poissons Ratio (y) = 0.24543 0.28416
# Poissons Ratio (z) = 0.44179 0.30844
#
# Static dielectric constant tensor:
#      x y z
#    x 4.023890 0.000000 0.217440 
#    y 0.000000 3.749610 0.000000 
#    z 0.217440 0.000000 3.698330 
# 
# 
# High freq. dielectric constant tensor:
#      x y z
#    x 1.798250 0.000000 0.023370 
#    y 0.000000 1.797060 0.000000 
#    z 0.023370 0.000000 1.799760 
# 
# From -- ./inp_files/39749.got.cif
#   From: 2010.06.25/outbox.cif.g09.slc.cpg/sg15_20_cif.got.tgz:39749.got - 2010.06.28 07:06:18.
