data_PCOD8137028
_publ_section_title
;
Structure prediction by ZEFSAII (Michael W. Deem and Ramdas Pophale) SiO2 
 PCOD8137028
Probable space group: C 2/C
;
_chemical_formula_sum "Si O2"
_cell_formula_units_Z 36
_cell_length_a 11.388031
_cell_length_b 28.473306
_cell_length_c 12.910045
_cell_angle_alpha 90.000000
_cell_angle_beta 22.919689
_cell_angle_gamma 90.000000
_cell_volume 1630.254417
_symmetry_space_group_name_H-M "C 2/C"
_symmetry_group_IT_number 15
_symmetry_cell_setting 'monoclinic'
loop_
_space_group_symop_operation_xyz
x,y,z
-x,y,1/2-z
-x,-y,-z
x,-y,1/2+z
1/2+x,1/2+y,z
1/2-x,1/2+y,1/2-z
1/2-x,1/2-y,-z
1/2+x,1/2-y,1/2+z
loop_
_atom_site_type_symbol
_atom_site_label
_atom_site_fract_x
_atom_site_fract_y
_atom_site_fract_z
Si Si1 0.342998 0.934173 0.486751
Si Si2 0.844519 0.536503 0.482948
Si Si3 0.904657 0.365945 0.709063
Si Si4 0.201628 0.348907 0.272294
Si Si5 0.000000 0.717140 0.750000
O O1 0.500000 0.935488 0.250000
O O2 0.522976 0.897582 0.409278
O O3 0.350583 0.985834 0.537527
O O4 0.000000 0.916950 0.750000
O O5 0.000000 0.523573 0.250000
O O6 0.029562 0.580043 0.379691
O O7 0.500000 0.553933 0.750000
O O8 0.000000 0.356204 0.750000
O O9 0.089777 0.331938 0.478368
O O10 0.554659 0.356466 0.982310
O O11 0.122338 0.314015 0.244403
O O12 0.250000 0.750000 0.500000
#
# Coordination Sequence:
#
# PCOD8137028 Si02
#       5
#     8   8   8   8   4
#     4  10  20  35  58  92 136 173 226 276 322 383
#     4   9  18  34  55  87 136 185 221 269 309 361
#     4  11  23  40  64  98 139 180 228 258 310 396
#     4  12  24  41  72  96 128 177 217 279 342 393
#     4  12  28  50  76 104 132 156 214 288 362 414
#
# _framework density 22.082443000000001
#
# number of rings (size 3 to 8) (size 9 to 14) (size 15 to 20)
#    0.000    1.333    1.111    6.000    1.556    1.778 
#    0.000    0.000    0.000   13.333    0.000    0.000 
#    0.000    0.000    0.000    0.000    0.000    0.000 
#
# Total GULP energy -222996.024996 kJ/mol
# GULP energy per Si atom -12388.668055 kJ/mol
# Density = 2.203218 g / cm^3
# Si number density = 22.082443 Si / 1000 Ang^3
#
#
#
# Elastic Constant Matrix: (Units=GPa)
#
#
# Indices 1 2 3 4 5 6 
#
# 1 124.6939 84.5933 59.6362 0.0013 6.9845 0.0000
# 2 84.5933 92.6564 66.5846 0.0002 -7.6365 0.0000
# 3 59.6362 66.5846 210.0923 0.0042 -3.1359 -0.0003
# 4 0.0013 0.0002 0.0042 4.8224 -0.0010 2.5955
# 5 6.9845 -7.6365 -3.1359 -0.0010 39.3738 0.0000
# 6 0.0000 0.0000 -0.0003 2.5955 0.0000 4.9070
#
#
#
# Elastic Compliance Matrix: (Units=1/GPa)
#
#
# Indices 1 2 3 4 5 6 
#
# 1 0.023579 -0.022438 0.000291 -0.000010 -0.008511 0.000005
# 2 -0.022438 0.035550 -0.004741 0.000015 0.010498 -0.000008
# 3 0.000291 -0.004741 0.006173 -0.000008 -0.000480 0.000004
# 4 -0.000010 0.000015 -0.000008 0.289890 0.000011 -0.153333
# 5 -0.008511 0.010498 -0.000480 0.000011 0.028905 -0.000006
# 6 0.000005 -0.000008 0.000004 -0.153333 -0.000006 0.284893
#
#
# Mechanical properties :
#
#
# Convention : Reuss Voigt Hill
#
# Bulk Modulus (GPa) = 86.75956 94.34121 90.55039
# Shear Modulus (GPa) = 6.88128 24.26254 15.57191
#
# Velocity S-wave (km/s) = 1.76718 3.31830 2.65839
# Velocity P-wave (km/s) = 6.59834 7.58264 7.10755
#
# Compressibility (1/GPa) = 0.01152611
#
# Stress axis : x y z
#
# Youngs Moduli (GPa) = 42.41001 28.12919 162.00620
#
# Poissons Ratio (x) = 0.63117 -0.04716
# Poissons Ratio (y) = 0.95160 0.76808
# Poissons Ratio (z) = -0.01235 0.13336
#
# Static dielectric constant tensor:
#      x y z
#    x 4.305610 0.000000 0.298470 
#    y 0.000000 4.049350 0.000000 
#    z 0.298470 0.000000 4.188820 
# 
# 
# High freq. dielectric constant tensor:
#      x y z
#    x 1.879240 0.000000 0.018410 
#    y 0.000000 1.838420 0.000000 
#    z 0.018410 0.000000 1.893590 
# 
# From -- ./inp_files/149100.got.cif
#   From: 2010.06.25/outbox.cif.g09.slc.cpg/sg15_75_cif.got.tgz:149100.got - 2010.06.28 07:06:18.
