data_PCOD8137619
_publ_section_title
;
Structure prediction by ZEFSAII (Michael W. Deem and Ramdas Pophale) SiO2 
 PCOD8137619
Probable space group: C 2/C
;
_chemical_formula_sum "Si O2"
_cell_formula_units_Z 60
_cell_length_a 17.534609
_cell_length_b 17.982846
_cell_length_c 11.655521
_cell_angle_alpha 90.000000
_cell_angle_beta 53.597999
_cell_angle_gamma 90.000000
_cell_volume 2958.105101
_symmetry_space_group_name_H-M "C 2/C"
_symmetry_group_IT_number 15
_symmetry_cell_setting 'monoclinic'
loop_
_space_group_symop_operation_xyz
x,y,z
-x,y,1/2-z
-x,-y,-z
x,-y,1/2+z
1/2+x,1/2+y,z
1/2-x,1/2+y,1/2-z
1/2-x,1/2-y,-z
1/2+x,1/2-y,1/2+z
loop_
_atom_site_type_symbol
_atom_site_label
_atom_site_fract_x
_atom_site_fract_y
_atom_site_fract_z
Si Si1 0.263256 0.363319 0.042392
Si Si2 0.349053 0.272695 0.360617
Si Si3 0.263704 0.613733 0.797404
Si Si4 0.397351 0.740581 0.291840
Si Si5 0.408529 0.221836 0.536532
Si Si6 0.000000 0.468193 0.750000
Si Si7 0.410794 0.138142 0.158690
Si Si8 0.163846 0.464931 0.965983
O O1 0.300563 0.386840 0.134129
O O2 0.171888 0.310150 0.127180
O O3 0.352876 0.330061 0.895073
O O4 0.229880 0.437733 0.009599
O O5 0.250000 0.250000 0.500000
O O6 0.347474 0.357148 0.309026
O O7 0.423923 0.266228 0.401270
O O8 0.366960 0.215331 0.240670
O O9 0.189137 0.679095 0.879290
O O10 0.218388 0.535095 0.866228
O O11 0.500000 0.760511 0.250000
O O12 0.408679 0.722835 0.145789
O O13 0.487518 0.158387 0.485209
O O14 0.922248 0.417957 0.755082
O O15 0.057980 0.516727 0.605866
O O16 0.345120 0.099671 0.121683
#
# Coordination Sequence:
#
# PCOD8137619 Si02
#       8
#     8   8   8   8   8   4   8   8
#     4  10  24  40  60  95 125 166 215 252 327 385
#     4  10  21  37  58  84 121 165 210 254 298 370
#     4  10  22  40  57  87 130 162 207 257 308 377
#     4  10  22  40  64  92 125 163 211 271 311 372
#     4  10  20  36  60  90 118 157 209 254 306 377
#     4  12  22  38  54  96 134 166 210 246 324 400
#     4  12  22  37  61  91 128 165 207 258 319 386
#     4  12  25  36  61  91 130 177 199 258 325 393
#
# _framework density 20.283256999999999
#
# number of rings (size 3 to 8) (size 9 to 14) (size 15 to 20)
#    0.000    1.333    2.667    2.800   14.000    0.000 
#    0.000    0.000    0.000    2.400    0.000    0.000 
#    0.000    0.000    0.000    0.000    0.000    0.000 
#
# Total GULP energy -371901.621916 kJ/mol
# GULP energy per Si atom -12396.720731 kJ/mol
# Density = 2.023709 g / cm^3
# Si number density = 20.283257 Si / 1000 Ang^3
#
#
#
# Elastic Constant Matrix: (Units=GPa)
#
#
# Indices 1 2 3 4 5 6 
#
# 1 79.0745 41.9571 35.4307 0.0000 28.3373 0.0000
# 2 41.9571 71.5815 52.1780 0.0000 20.2136 0.0000
# 3 35.4307 52.1780 111.8558 0.0000 30.3956 0.0000
# 4 0.0000 0.0000 0.0000 19.2769 0.0000 1.7754
# 5 28.3373 20.2136 30.3956 0.0000 34.3639 0.0000
# 6 0.0000 0.0000 0.0000 1.7754 0.0000 35.2807
#
#
#
# Elastic Compliance Matrix: (Units=1/GPa)
#
#
# Indices 1 2 3 4 5 6 
#
# 1 0.022358 -0.010292 0.001427 0.000000 -0.013645 0.000000
# 2 -0.010292 0.026549 -0.009461 0.000000 0.001239 0.000000
# 3 0.001427 -0.009461 0.015414 0.000000 -0.009245 0.000000
# 4 0.000000 0.000000 0.000000 0.052117 0.000000 -0.002623
# 5 -0.013645 0.001239 -0.009245 0.000000 0.047801 0.000000
# 6 0.000000 0.000000 0.000000 -0.002623 0.000000 0.028476
#
#
# Mechanical properties :
#
#
# Convention : Reuss Voigt Hill
#
# Bulk Modulus (GPa) = 36.14212 57.96035 47.05124
# Shear Modulus (GPa) = 20.95641 26.64736 23.80189
#
# Velocity S-wave (km/s) = 3.21781 3.62852 3.42932
# Velocity P-wave (km/s) = 5.62700 6.79650 6.23921
#
# Compressibility (1/GPa) = 0.02766855
#
# Stress axis : x y z
#
# Youngs Moduli (GPa) = 44.72744 37.66563 64.87667
#
# Poissons Ratio (x) = 0.38765 -0.09257
# Poissons Ratio (y) = 0.46032 0.61382
# Poissons Ratio (z) = -0.06382 0.35637
#
# Static dielectric constant tensor:
#      x y z
#    x 3.345730 0.000000 0.745830 
#    y 0.000000 3.569150 0.000000 
#    z 0.745830 0.000000 3.909140 
# 
# 
# High freq. dielectric constant tensor:
#      x y z
#    x 1.782080 0.000000 0.021310 
#    y 0.000000 1.763630 0.000000 
#    z 0.021310 0.000000 1.806620 
# 
# From -- ./inp_files/106686.got.cif
#   From: 2010.06.25/outbox.cif.g09.slc.cpg/sg15_54_cif.got.tgz:106686.got - 2010.06.28 07:06:18.
