data_PCOD8137653
_publ_section_title
;
Structure prediction by ZEFSAII (Michael W. Deem and Ramdas Pophale) SiO2 
 PCOD8137653
Probable space group: C 2/C
;
_chemical_formula_sum "Si O2"
_cell_formula_units_Z 64
_cell_length_a 28.631567
_cell_length_b 18.205298
_cell_length_c 9.084000
_cell_angle_alpha 90.000000
_cell_angle_beta 133.759810
_cell_angle_gamma 90.000000
_cell_volume 3419.833102
_symmetry_space_group_name_H-M "C 2/C"
_symmetry_group_IT_number 15
_symmetry_cell_setting 'monoclinic'
loop_
_space_group_symop_operation_xyz
x,y,z
-x,y,1/2-z
-x,-y,-z
x,-y,1/2+z
1/2+x,1/2+y,z
1/2-x,1/2+y,1/2-z
1/2-x,1/2-y,-z
1/2+x,1/2-y,1/2+z
loop_
_atom_site_type_symbol
_atom_site_label
_atom_site_fract_x
_atom_site_fract_y
_atom_site_fract_z
Si Si1 0.057602 0.425465 0.986140
Si Si2 0.058534 0.339176 0.271032
Si Si3 0.207407 0.797316 0.713535
Si Si4 0.299040 0.415484 0.316901
Si Si5 0.659231 0.148038 0.506721
Si Si6 0.365339 0.929571 0.837372
Si Si7 0.783732 0.057788 0.452475
Si Si8 0.839291 0.777505 0.567619
O O1 0.030286 0.383503 0.069618
O O2 0.090453 0.501148 0.108273
O O3 0.109589 0.371714 0.026475
O O4 0.000000 0.444385 0.750000
O O5 0.110501 0.391830 0.461578
O O6 0.092546 0.263966 0.294949
O O7 0.000000 0.318485 0.250000
O O8 0.173170 0.734561 0.541682
O O9 0.200078 0.872380 0.611020
O O10 0.172182 0.806327 0.792674
O O11 0.282782 0.778941 0.899108
O O12 0.316808 0.487231 0.450317
O O13 0.314531 0.430174 0.180004
O O14 0.342123 0.347315 0.465487
O O15 0.223889 0.397614 0.177859
O O16 0.630071 0.129223 0.284243
O O17 0.292638 0.956523 0.703526
#
# Coordination Sequence:
#
# PCOD8137653 Si02
#       8
#     8   8   8   8   8   8   8   8
#     4  12  24  41  57  81 117 170 213 243 288 339
#     4  12  25  40  59  84 114 164 207 255 292 349
#     4  10  20  36  61  84 117 155 198 249 304 363
#     4  10  22  34  58  89 122 152 190 246 299 366
#     4  10  21  36  55  85 116 160 198 246 295 342
#     4  11  23  35  58  83 124 158 208 243 284 352
#     4  11  21  35  59  92 123 156 192 240 307 363
#     4  10  21  38  59  84 116 154 199 250 307 355
#
# _framework density 18.714364
#
# number of rings (size 3 to 8) (size 9 to 14) (size 15 to 20)
#    0.000    1.250    3.750    2.625    3.500    3.000 
#    0.000    0.000    0.000    0.000    0.000    4.375 
#    0.000    0.000    0.000    0.000    0.000    0.000 
#
# Total GULP energy -396971.004949 kJ/mol
# GULP energy per Si atom -12405.343905 kJ/mol
# Density = 1.867177 g / cm^3
# Si number density = 18.714364 Si / 1000 Ang^3
#
#
#
# Elastic Constant Matrix: (Units=GPa)
#
#
# Indices 1 2 3 4 5 6 
#
# 1 77.9250 44.1793 32.2645 0.0000 -15.6603 0.0000
# 2 44.1793 124.2859 46.8017 0.0000 -13.5590 0.0000
# 3 32.2645 46.8017 84.3989 0.0000 -18.9658 0.0000
# 4 0.0000 0.0000 0.0000 28.7911 0.0000 -9.4731
# 5 -15.6603 -13.5590 -18.9658 0.0000 29.0827 0.0000
# 6 0.0000 0.0000 0.0000 -9.4731 0.0000 31.8471
#
#
#
# Elastic Compliance Matrix: (Units=1/GPa)
#
#
# Indices 1 2 3 4 5 6 
#
# 1 0.017784 -0.004585 -0.003028 0.000000 0.005464 0.000000
# 2 -0.004585 0.011390 -0.004599 0.000000 -0.000158 0.000000
# 3 -0.003028 -0.004599 0.017234 0.000000 0.007464 0.000000
# 4 0.000000 0.000000 0.000000 0.038501 0.000000 0.011452
# 5 0.005464 -0.000158 0.007464 0.000000 0.042121 0.000000
# 6 0.000000 0.000000 0.000000 0.011452 0.000000 0.034807
#
#
# Mechanical properties :
#
#
# Convention : Reuss Voigt Hill
#
# Bulk Modulus (GPa) = 45.48840 59.23343 52.36091
# Shear Modulus (GPa) = 25.82785 28.83516 27.33151
#
# Velocity S-wave (km/s) = 3.71901 3.92957 3.82574
# Velocity P-wave (km/s) = 6.54223 7.23247 6.89600
#
# Compressibility (1/GPa) = 0.02198363
#
# Stress axis : x y z
#
# Youngs Moduli (GPa) = 56.22924 87.79277 58.02616
#
# Poissons Ratio (x) = 0.40256 0.17571
# Poissons Ratio (y) = 0.25783 0.26685
# Poissons Ratio (z) = 0.17027 0.40375
#
# Static dielectric constant tensor:
#      x y z
#    x 3.341850 0.000000 -0.238620 
#    y 0.000000 3.410060 0.000000 
#    z -0.238620 0.000000 3.414510 
# 
# 
# High freq. dielectric constant tensor:
#      x y z
#    x 1.718850 0.000000 -0.030570 
#    y 0.000000 1.727340 0.000000 
#    z -0.030570 0.000000 1.712450 
# 
# From -- ./inp_files/62484.got.cif
#   From: 2010.06.25/outbox.cif.g09.slc.cpg/sg15_32_cif.got.tgz:62484.got - 2010.06.28 07:06:18.
