data_PCOD8137255
_publ_section_title
;
Structure prediction by ZEFSAII (Michael W. Deem and Ramdas Pophale) SiO2 
 PCOD8137255
Probable space group: C 2/C
;
_chemical_formula_sum "Si O2"
_cell_formula_units_Z 64
_cell_length_a 26.052187
_cell_length_b 12.513467
_cell_length_c 9.848463
_cell_angle_alpha 90.000000
_cell_angle_beta 95.194395
_cell_angle_gamma 90.000000
_cell_volume 3197.445055
_symmetry_space_group_name_H-M "C 2/C"
_symmetry_group_IT_number 15
_symmetry_cell_setting 'monoclinic'
loop_
_space_group_symop_operation_xyz
x,y,z
-x,y,1/2-z
-x,-y,-z
x,-y,1/2+z
1/2+x,1/2+y,z
1/2-x,1/2+y,1/2-z
1/2-x,1/2-y,-z
1/2+x,1/2-y,1/2+z
loop_
_atom_site_type_symbol
_atom_site_label
_atom_site_fract_x
_atom_site_fract_y
_atom_site_fract_z
Si Si1 0.693420 0.905144 0.035133
Si Si2 0.143528 0.697073 0.292128
Si Si3 0.819941 0.901278 0.337938
Si Si4 0.288890 0.206819 0.688082
Si Si5 0.292070 0.444384 0.613999
Si Si6 0.973526 0.619749 0.615470
Si Si7 0.961289 0.377076 0.631976
Si Si8 0.136120 0.610344 0.006082
O O1 0.693059 0.824911 0.903752
O O2 0.644648 0.982955 0.986439
O O3 0.683797 0.830355 0.164847
O O4 0.744463 0.978277 0.058848
O O5 0.144040 0.812955 0.221945
O O6 0.092132 0.686531 0.369846
O O7 0.144647 0.613744 0.169627
O O8 0.761817 0.861635 0.336733
O O9 0.832337 0.931599 0.497489
O O10 0.824468 0.003805 0.243196
O O11 0.273583 0.331303 0.672328
O O12 0.323294 0.180811 0.565962
O O13 0.956962 0.502408 0.663895
O O14 0.919055 0.662407 0.546342
O O15 0.000000 0.680560 0.750000
O O16 0.017178 0.630832 0.513880
O O17 0.000000 0.323775 0.750000
#
# Coordination Sequence:
#
# PCOD8137255 Si02
#       8
#     8   8   8   8   8   8   8   8
#     4  11  25  35  62  87 122 167 210 252 301 370
#     4  12  24  38  60  92 122 164 211 247 315 372
#     4  11  25  40  61  86 122 164 210 260 306 366
#     4  11  24  40  60  85 123 165 212 257 302 365
#     4  11  24  43  58  85 125 166 211 260 303 356
#     4  10  22  35  56  87 124 163 199 244 303 370
#     4  10  20  36  54  84 124 158 195 247 300 370
#     4  12  21  38  59  91 127 166 201 250 311 365
#
# _framework density 20.015979999999999
#
# number of rings (size 3 to 8) (size 9 to 14) (size 15 to 20)
#    0.000    1.000    5.000    1.875    7.000    1.000 
#    0.000    0.000    0.000    0.000    0.000    4.375 
#    0.000    0.000    0.000    0.000    0.000    0.000 
#
# Total GULP energy -396529.443303 kJ/mol
# GULP energy per Si atom -12391.545103 kJ/mol
# Density = 1.997042 g / cm^3
# Si number density = 20.015980 Si / 1000 Ang^3
#
#
#
# Elastic Constant Matrix: (Units=GPa)
#
#
# Indices 1 2 3 4 5 6 
#
# 1 71.1907 15.2857 27.4483 0.0000 -12.2698 0.0000
# 2 15.2857 73.8704 38.5932 0.0000 -8.7332 0.0000
# 3 27.4483 38.5932 131.0294 0.0000 0.5250 0.0000
# 4 0.0000 0.0000 0.0000 31.5098 0.0000 -3.9424
# 5 -12.2698 -8.7332 0.5250 0.0000 29.7413 0.0000
# 6 0.0000 0.0000 0.0000 -3.9424 0.0000 14.9648
#
#
#
# Elastic Compliance Matrix: (Units=1/GPa)
#
#
# Indices 1 2 3 4 5 6 
#
# 1 0.016644 -0.000974 -0.003226 0.000000 0.006637 0.000000
# 2 -0.000974 0.016766 -0.004753 0.000000 0.004605 0.000000
# 3 -0.003226 -0.004753 0.009719 0.000000 -0.002898 0.000000
# 4 0.000000 0.000000 0.000000 0.032818 0.000000 0.008646
# 5 0.006637 0.004605 -0.002898 0.000000 0.037765 0.000000
# 6 0.000000 0.000000 0.000000 0.008646 0.000000 0.069101
#
#
# Mechanical properties :
#
#
# Convention : Reuss Voigt Hill
#
# Bulk Modulus (GPa) = 39.64556 48.74944 44.19750
# Shear Modulus (GPa) = 23.90891 28.22740 26.06816
#
# Velocity S-wave (km/s) = 3.45989 3.75939 3.61275
# Velocity P-wave (km/s) = 5.98424 6.57664 6.28742
#
# Compressibility (1/GPa) = 0.02522351
#
# Stress axis : x y z
#
# Youngs Moduli (GPa) = 60.08252 59.64368 102.88874
#
# Poissons Ratio (x) = 0.05808 0.33196
# Poissons Ratio (y) = 0.05850 0.48901
# Poissons Ratio (z) = 0.19385 0.28347
#
# Static dielectric constant tensor:
#      x y z
#    x 3.439300 0.000000 0.102230 
#    y 0.000000 3.454730 0.000000 
#    z 0.102230 0.000000 4.299290 
# 
# 
# High freq. dielectric constant tensor:
#      x y z
#    x 1.748840 0.000000 -0.001910 
#    y 0.000000 1.744440 0.000000 
#    z -0.001910 0.000000 1.813420 
# 
# From -- ./inp_files/69383.got.cif
#   From: 2010.06.25/outbox.cif.g09.slc.cpg/sg15_35_cif.got.tgz:69383.got - 2010.06.28 07:06:18.
