data_PCOD8137624
_publ_section_title
;
Structure prediction by ZEFSAII (Michael W. Deem and Ramdas Pophale) SiO2 
 PCOD8137624
Probable space group: C 2/C
;
_chemical_formula_sum "Si O2"
_cell_formula_units_Z 44
_cell_length_a 9.646944
_cell_length_b 16.426258
_cell_length_c 22.200090
_cell_angle_alpha 90.000000
_cell_angle_beta 142.401805
_cell_angle_gamma 90.000000
_cell_volume 2146.340098
_symmetry_space_group_name_H-M "C 2/C"
_symmetry_group_IT_number 15
_symmetry_cell_setting 'monoclinic'
loop_
_space_group_symop_operation_xyz
x,y,z
-x,y,1/2-z
-x,-y,-z
x,-y,1/2+z
1/2+x,1/2+y,z
1/2-x,1/2+y,1/2-z
1/2-x,1/2-y,-z
1/2+x,1/2-y,1/2+z
loop_
_atom_site_type_symbol
_atom_site_label
_atom_site_fract_x
_atom_site_fract_y
_atom_site_fract_z
Si Si1 0.627439 0.654268 0.415966
Si Si2 0.959228 0.322848 0.360770
Si Si3 0.734914 0.989014 0.614621
Si Si4 0.844292 0.953773 0.898977
Si Si5 0.000000 0.129157 0.750000
Si Si6 0.100775 0.495352 0.203435
O O1 0.529630 0.737991 0.353435
O O2 0.625150 0.586962 0.363066
O O3 0.470395 0.628439 0.419663
O O4 0.886110 0.667388 0.526352
O O5 0.693923 0.315317 0.287319
O O6 0.996951 0.402704 0.332584
O O7 0.695852 0.975653 0.672227
O O8 0.500000 0.000000 0.500000
O O9 0.886483 0.070631 0.659736
O O10 0.600616 0.941354 0.847823
O O11 0.797350 0.005088 0.821648
O O12 0.000000 0.000000 0.000000
#
# Coordination Sequence:
#
# PCOD8137624 Si02
#       6
#     8   8   8   8   4   8
#     4  11  21  37  67  92 129 167 207 268 331 378
#     4  10  21  38  60  95 128 168 207 263 332 385
#     4  11  19  38  65  99 122 166 220 269 310 391
#     4  11  21  40  63  90 126 170 216 268 310 385
#     4  10  20  36  60  90 132 172 212 256 322 378
#     4  10  22  38  64  95 121 168 217 255 324 381
#
# _framework density 20.500014
#
# number of rings (size 3 to 8) (size 9 to 14) (size 15 to 20)
#    0.000    1.455    5.455    2.182    0.000    1.455 
#    0.000    5.455    0.000    8.727    0.000    0.000 
#    0.000    0.000    0.000    0.000    0.000    0.000 
#
# Total GULP energy -272555.413622 kJ/mol
# GULP energy per Si atom -12388.882437 kJ/mol
# Density = 2.045336 g / cm^3
# Si number density = 20.500014 Si / 1000 Ang^3
#
#
#
# Elastic Constant Matrix: (Units=GPa)
#
#
# Indices 1 2 3 4 5 6 
#
# 1 110.6477 32.0705 30.8145 0.0000 1.2848 0.0000
# 2 32.0705 104.7415 31.6763 0.0000 4.5066 0.0000
# 3 30.8145 31.6763 140.4028 -0.0001 1.8920 -0.0001
# 4 0.0000 0.0000 -0.0001 30.8844 -0.0001 3.6761
# 5 1.2848 4.5066 1.8920 -0.0001 36.3848 0.0000
# 6 0.0000 0.0000 -0.0001 3.6761 0.0000 29.4819
#
#
#
# Elastic Compliance Matrix: (Units=1/GPa)
#
#
# Indices 1 2 3 4 5 6 
#
# 1 0.010265 -0.002644 -0.001657 0.000000 0.000051 0.000000
# 2 -0.002644 0.010976 -0.001880 0.000000 -0.001168 0.000000
# 3 -0.001657 -0.001880 0.007912 0.000000 -0.000120 0.000000
# 4 0.000000 0.000000 0.000000 0.032867 0.000000 -0.004098
# 5 0.000051 -0.001168 -0.000120 0.000000 0.027633 0.000000
# 6 0.000000 0.000000 0.000000 -0.004098 0.000000 0.034430
#
#
# Mechanical properties :
#
#
# Convention : Reuss Voigt Hill
#
# Bulk Modulus (GPa) = 59.55940 60.54606 60.05273
# Shear Modulus (GPa) = 35.20095 36.76561 35.98328
#
# Velocity S-wave (km/s) = 4.14831 4.23950 4.19415
# Velocity P-wave (km/s) = 7.21533 7.31869 7.26720
#
# Compressibility (1/GPa) = 0.01678996
#
# Stress axis : x y z
#
# Youngs Moduli (GPa) = 97.41907 91.10974 126.39272
#
# Poissons Ratio (x) = 0.24090 0.20944
# Poissons Ratio (y) = 0.25758 0.23764
# Poissons Ratio (z) = 0.16143 0.17130
#
# Static dielectric constant tensor:
#      x y z
#    x 3.931420 0.000000 0.241050 
#    y 0.000000 3.767540 0.000000 
#    z 0.241050 0.000000 4.052340 
# 
# 
# High freq. dielectric constant tensor:
#      x y z
#    x 1.793340 0.000000 0.022140 
#    y 0.000000 1.773870 0.000000 
#    z 0.022140 0.000000 1.821730 
# 
# From -- ./inp_files/292943.got.cif
#   From: 2010.06.25/outbox.cif.g09.slc.cpg/sg15_147_cif.got.tgz:292943.got - 2010.06.28 07:06:18.
