data_PCOD8137299
_publ_section_title
;
Structure prediction by ZEFSAII (Michael W. Deem and Ramdas Pophale) SiO2 
 PCOD8137299
Probable space group: C 2/C
;
_chemical_formula_sum "Si O2"
_cell_formula_units_Z 52
_cell_length_a 14.417261
_cell_length_b 11.540780
_cell_length_c 18.360978
_cell_angle_alpha 90.000000
_cell_angle_beta 96.254224
_cell_angle_gamma 90.000000
_cell_volume 3036.835197
_symmetry_space_group_name_H-M "C 2/C"
_symmetry_group_IT_number 15
_symmetry_cell_setting 'monoclinic'
loop_
_space_group_symop_operation_xyz
x,y,z
-x,y,1/2-z
-x,-y,-z
x,-y,1/2+z
1/2+x,1/2+y,z
1/2-x,1/2+y,1/2-z
1/2-x,1/2-y,-z
1/2+x,1/2-y,1/2+z
loop_
_atom_site_type_symbol
_atom_site_label
_atom_site_fract_x
_atom_site_fract_y
_atom_site_fract_z
Si Si1 0.165525 0.979983 0.345956
Si Si2 0.500000 0.121539 0.750000
Si Si3 0.607239 0.718457 0.363777
Si Si4 0.318561 0.020788 0.253515
Si Si5 0.902683 0.943758 0.514989
Si Si6 0.210930 0.869579 0.132290
Si Si7 0.895094 0.234581 0.751532
O O1 0.121246 0.865058 0.308971
O O2 0.114172 0.100023 0.315822
O O3 0.271929 0.995448 0.328158
O O4 0.153939 0.973099 0.432868
O O5 0.469328 0.198979 0.678603
O O6 0.582972 0.041477 0.730360
O O7 0.576468 0.680058 0.443110
O O8 0.708762 0.777554 0.379384
O O9 0.328313 0.155461 0.233716
O O10 0.254129 0.971238 0.184427
O O11 0.833090 0.926328 0.442437
O O12 0.000000 0.000000 0.500000
O O13 0.125646 0.811161 0.169073
O O14 0.000000 0.277536 0.750000
#
# Coordination Sequence:
#
# PCOD8137299 Si02
#       7
#     8   4   8   8   8   8   8
#     4   9  21  34  53  83 106 143 185 220 274 318
#     4  10  20  36  58  84 108 142 184 230 268 326
#     4   9  20  34  57  77 106 143 185 219 263 330
#     4  10  20  36  56  84 110 143 183 226 278 325
#     4  10  20  37  55  84 108 143 189 222 268 326
#     4  10  20  36  58  75 110 151 180 219 279 327
#     4  11  19  33  55  83 111 139 179 236 271 322
#
# _framework density 17.123090000000001
#
# number of rings (size 3 to 8) (size 9 to 14) (size 15 to 20)
#    0.923    1.231    2.308    1.385    1.077    1.231 
#    0.000    0.769    3.385    2.769    0.000    0.000 
#    0.000    0.000    0.000    0.000    0.000    0.000 
#
# Total GULP energy -322134.911743 kJ/mol
# GULP energy per Si atom -12389.804298 kJ/mol
# Density = 1.708412 g / cm^3
# Si number density = 17.123090 Si / 1000 Ang^3
#
#
#
# Elastic Constant Matrix: (Units=GPa)
#
#
# Indices 1 2 3 4 5 6 
#
# 1 102.6439 45.6930 66.6513 0.0000 -8.2269 0.0000
# 2 45.6930 94.8383 43.4862 0.0000 -7.6955 0.0000
# 3 66.6513 43.4862 117.0218 0.0000 -12.8050 0.0000
# 4 0.0000 0.0000 0.0000 22.9657 0.0000 -4.1625
# 5 -8.2269 -7.6955 -12.8050 0.0000 26.1378 0.0000
# 6 0.0000 0.0000 0.0000 -4.1625 0.0000 25.5148
#
#
#
# Elastic Compliance Matrix: (Units=1/GPa)
#
#
# Indices 1 2 3 4 5 6 
#
# 1 0.016916 -0.004495 -0.007953 0.000000 0.000105 0.000000
# 2 -0.004495 0.013961 -0.002465 0.000000 0.001488 0.000000
# 3 -0.007953 -0.002465 0.014410 0.000000 0.003831 0.000000
# 4 0.000000 0.000000 0.000000 0.044870 0.000000 0.007320
# 5 0.000105 0.001488 0.003831 0.000000 0.040607 0.000000
# 6 0.000000 0.000000 0.000000 0.007320 0.000000 0.040387
#
#
# Mechanical properties :
#
#
# Convention : Reuss Voigt Hill
#
# Bulk Modulus (GPa) = 64.67685 69.57387 67.12536
# Shear Modulus (GPa) = 24.25649 25.50188 24.87918
#
# Velocity S-wave (km/s) = 3.76785 3.86337 3.81591
# Velocity P-wave (km/s) = 7.53543 7.78592 7.66170
#
# Compressibility (1/GPa) = 0.01546148
#
# Stress axis : x y z
#
# Youngs Moduli (GPa) = 59.11577 71.62834 69.39491
#
# Poissons Ratio (x) = 0.32197 0.55189
# Poissons Ratio (y) = 0.26572 0.17106
# Poissons Ratio (z) = 0.47014 0.17656
#
# Static dielectric constant tensor:
#      x y z
#    x 3.246080 0.000000 -0.210950 
#    y 0.000000 3.263720 0.000000 
#    z -0.210950 0.000000 3.039430 
# 
# 
# High freq. dielectric constant tensor:
#      x y z
#    x 1.666250 0.000000 -0.016170 
#    y 0.000000 1.667690 0.000000 
#    z -0.016170 0.000000 1.640920 
# 
# From -- ./inp_files/203613.got.cif
#   From: 2010.06.25/outbox.cif.g09.slc.cpg/sg15_102_cif.got.tgz:203613.got - 2010.06.28 07:06:18.
