data_PCOD8137658
_publ_section_title
;
Structure prediction by ZEFSAII (Michael W. Deem and Ramdas Pophale) SiO2 
 PCOD8137658
Probable space group: C 2/C
;
_chemical_formula_sum "Si O2"
_cell_formula_units_Z 36
_cell_length_a 8.781851
_cell_length_b 9.944315
_cell_length_c 20.756539
_cell_angle_alpha 90.000000
_cell_angle_beta 70.028489
_cell_angle_gamma 90.000000
_cell_volume 1703.649418
_symmetry_space_group_name_H-M "C 2/C"
_symmetry_group_IT_number 15
_symmetry_cell_setting 'monoclinic'
loop_
_space_group_symop_operation_xyz
x,y,z
-x,y,1/2-z
-x,-y,-z
x,-y,1/2+z
1/2+x,1/2+y,z
1/2-x,1/2+y,1/2-z
1/2-x,1/2-y,-z
1/2+x,1/2-y,1/2+z
loop_
_atom_site_type_symbol
_atom_site_label
_atom_site_fract_x
_atom_site_fract_y
_atom_site_fract_z
Si Si1 0.626615 0.942437 0.864415
Si Si2 0.664495 0.647051 0.602279
Si Si3 0.797504 0.848180 0.140813
Si Si4 0.217792 0.437645 0.549610
Si Si5 0.000000 0.478870 0.250000
O O1 0.726107 0.809986 0.871358
O O2 0.473615 0.961951 0.934172
O O3 0.741131 0.072075 0.854119
O O4 0.556588 0.929314 0.801619
O O5 0.474914 0.640378 0.647453
O O6 0.691628 0.568926 0.531209
O O7 0.735140 0.797996 0.587119
O O8 0.653792 0.887758 0.209519
O O9 0.794895 0.937925 0.076949
#
# Coordination Sequence:
#
# PCOD8137658 Si02
#       5
#     8   8   8   8   4
#     4  10  22  38  59  83 110 149 188 229 277 326
#     4  10  20  36  61  86 113 147 180 224 284 336
#     4  10  22  37  57  83 111 148 188 229 274 328
#     4   9  20  38  57  87 120 140 175 231 282 335
#     4  10  24  40  52  78 118 146 188 240 272 316
#
# _framework density 21.131108000000001
#
# number of rings (size 3 to 8) (size 9 to 14) (size 15 to 20)
#    0.000    2.222    0.000    1.333    0.000   12.444 
#    0.000    0.000    0.000    1.333    0.000    0.000 
#    0.000    0.000    0.000    0.000    0.000    0.000 
#
# Total GULP energy -223152.279173 kJ/mol
# GULP energy per Si atom -12397.348843 kJ/mol
# Density = 2.108301 g / cm^3
# Si number density = 21.131108 Si / 1000 Ang^3
#
#
#
# Elastic Constant Matrix: (Units=GPa)
#
#
# Indices 1 2 3 4 5 6 
#
# 1 80.1966 54.7611 40.0659 0.0000 -9.3187 0.0000
# 2 54.7611 107.1472 18.9114 0.0000 13.9760 0.0000
# 3 40.0659 18.9114 77.1981 0.0000 -6.5969 0.0000
# 4 0.0000 0.0000 0.0000 21.4512 0.0000 0.8659
# 5 -9.3187 13.9760 -6.5969 0.0000 36.8680 0.0000
# 6 0.0000 0.0000 0.0000 0.8659 0.0000 39.9998
#
#
#
# Elastic Compliance Matrix: (Units=1/GPa)
#
#
# Indices 1 2 3 4 5 6 
#
# 1 0.028637 -0.014190 -0.010468 0.000000 0.010744 0.000000
# 2 -0.014190 0.017467 0.002247 0.000000 -0.009806 0.000000
# 3 -0.010468 0.002247 0.017810 0.000000 -0.000311 0.000000
# 4 0.000000 0.000000 0.000000 0.046658 0.000000 -0.001010
# 5 0.010744 -0.009806 -0.000311 0.000000 0.033501 0.000000
# 6 0.000000 0.000000 0.000000 -0.001010 0.000000 0.025022
#
#
# Mechanical properties :
#
#
# Convention : Reuss Voigt Hill
#
# Bulk Modulus (GPa) = 52.37572 54.66876 53.52224
# Shear Modulus (GPa) = 22.69827 29.71734 26.20781
#
# Velocity S-wave (km/s) = 3.28100 3.75418 3.52554
# Velocity P-wave (km/s) = 6.26044 6.68724 6.47736
#
# Compressibility (1/GPa) = 0.01909281
#
# Stress axis : x y z
#
# Youngs Moduli (GPa) = 34.91983 57.24933 56.14924
#
# Poissons Ratio (x) = 0.81235 0.58780
# Poissons Ratio (y) = 0.49550 -0.12619
# Poissons Ratio (z) = 0.36556 -0.12866
#
# Static dielectric constant tensor:
#      x y z
#    x 3.768830 0.000000 -0.275700 
#    y 0.000000 3.848700 0.000000 
#    z -0.275700 0.000000 3.679220 
# 
# 
# High freq. dielectric constant tensor:
#      x y z
#    x 1.824640 0.000000 -0.019540 
#    y 0.000000 1.831050 0.000000 
#    z -0.019540 0.000000 1.818070 
# 
# From -- ./inp_files/187654.got.cif
#   From: 2010.06.25/outbox.cif.g09.slc.cpg/sg15_94_cif.got.tgz:187654.got - 2010.06.28 07:06:18.
