data_PCOD8137373
_publ_section_title
;
Structure prediction by ZEFSAII (Michael W. Deem and Ramdas Pophale) SiO2 
 PCOD8137373
Probable space group: C 2/C
;
_chemical_formula_sum "Si O2"
_cell_formula_units_Z 60
_cell_length_a 20.051759
_cell_length_b 12.023047
_cell_length_c 14.615751
_cell_angle_alpha 90.000000
_cell_angle_beta 120.108829
_cell_angle_gamma 90.000000
_cell_volume 3048.186121
_symmetry_space_group_name_H-M "C 2/C"
_symmetry_group_IT_number 15
_symmetry_cell_setting 'monoclinic'
loop_
_space_group_symop_operation_xyz
x,y,z
-x,y,1/2-z
-x,-y,-z
x,-y,1/2+z
1/2+x,1/2+y,z
1/2-x,1/2+y,1/2-z
1/2-x,1/2-y,-z
1/2+x,1/2-y,1/2+z
loop_
_atom_site_type_symbol
_atom_site_label
_atom_site_fract_x
_atom_site_fract_y
_atom_site_fract_z
Si Si1 0.796834 0.737328 0.855851
Si Si2 0.711570 0.986785 0.050898
Si Si3 0.160112 0.841646 0.910277
Si Si4 0.200544 0.431195 0.842435
Si Si5 0.749354 0.829209 0.361325
Si Si6 0.500000 0.718000 0.250000
Si Si7 0.594206 0.919555 0.611570
Si Si8 0.038010 0.335630 0.087928
O O1 0.767247 0.629032 0.887758
O O2 0.774513 0.848142 0.896428
O O3 0.748264 0.745723 0.727463
O O4 0.888598 0.732814 0.900204
O O5 0.790096 0.055436 0.092445
O O6 0.653723 0.062061 0.069269
O O7 0.672742 0.956735 0.926277
O O8 0.186062 0.722411 0.887248
O O9 0.071934 0.862528 0.821750
O O10 0.169728 0.833956 0.027780
O O11 0.223835 0.547950 0.811363
O O12 0.134495 0.376393 0.733047
O O13 0.514433 0.792665 0.171046
O O14 0.531805 0.828153 0.534180
O O15 0.554901 0.034975 0.612161
#
# Coordination Sequence:
#
# PCOD8137373 Si02
#       8
#     8   8   8   8   8   4   8   8
#     4  11  21  39  58  86 125 151 198 242 299 364
#     4  10  22  39  64  89 116 157 204 242 297 359
#     4  10  22  36  60  89 118 150 202 248 295 350
#     4  11  21  36  65  88 115 160 201 247 293 356
#     4  10  20  36  57  90 111 154 200 245 293 338
#     4  12  22  34  60  88 122 152 194 256 302 350
#     4  10  21  38  57  87 120 152 195 251 302 352
#     4  10  23  35  53  88 123 153 186 251 306 344
#
# _framework density 19.683837
#
# number of rings (size 3 to 8) (size 9 to 14) (size 15 to 20)
#    0.000    1.600    4.000    1.200    9.333    0.000 
#    0.000    0.000    5.867    4.000    0.000    0.000 
#    0.000    0.000    0.000    0.000    0.000    0.000 
#
# Total GULP energy -371875.160889 kJ/mol
# GULP energy per Si atom -12395.838696 kJ/mol
# Density = 1.963904 g / cm^3
# Si number density = 19.683837 Si / 1000 Ang^3
#
#
#
# Elastic Constant Matrix: (Units=GPa)
#
#
# Indices 1 2 3 4 5 6 
#
# 1 93.2845 35.1580 64.7514 0.0000 7.7543 0.0000
# 2 35.1580 62.1844 25.3445 0.0000 5.4821 0.0000
# 3 64.7514 25.3445 161.9056 0.0000 11.4300 0.0000
# 4 0.0000 0.0000 0.0000 22.7225 0.0000 -1.1310
# 5 7.7543 5.4821 11.4300 0.0000 32.7691 0.0000
# 6 0.0000 0.0000 0.0000 -1.1310 0.0000 26.3496
#
#
#
# Elastic Compliance Matrix: (Units=1/GPa)
#
#
# Indices 1 2 3 4 5 6 
#
# 1 0.017682 -0.007544 -0.005828 0.000000 -0.000889 0.000000
# 2 -0.007544 0.020522 -0.000081 0.000000 -0.001620 0.000000
# 3 -0.005828 -0.000081 0.008634 0.000000 -0.001619 0.000000
# 4 0.000000 0.000000 0.000000 0.044103 0.000000 0.001893
# 5 -0.000889 -0.001620 -0.001619 0.000000 0.031563 0.000000
# 6 0.000000 0.000000 0.000000 0.001893 0.000000 0.038032
#
#
# Mechanical properties :
#
#
# Convention : Reuss Voigt Hill
#
# Bulk Modulus (GPa) = 50.16808 63.09803 56.63306
# Shear Modulus (GPa) = 25.76159 29.17629 27.46894
#
# Velocity S-wave (km/s) = 3.62162 3.85417 3.73970
# Velocity P-wave (km/s) = 6.55976 7.20635 6.89064
#
# Compressibility (1/GPa) = 0.01993299
#
# Stress axis : x y z
#
# Youngs Moduli (GPa) = 56.55358 48.72798 115.81714
#
# Poissons Ratio (x) = 0.36758 0.67500
# Poissons Ratio (y) = 0.42661 0.00941
# Poissons Ratio (z) = 0.32960 0.00396
#
# Static dielectric constant tensor:
#      x y z
#    x 3.502120 0.000000 0.067770 
#    y 0.000000 3.387100 0.000000 
#    z 0.067770 0.000000 3.977430 
# 
# 
# High freq. dielectric constant tensor:
#      x y z
#    x 1.743260 0.000000 -0.006420 
#    y 0.000000 1.747190 0.000000 
#    z -0.006420 0.000000 1.787270 
# 
# From -- ./inp_files/167693.got.cif
#   From: 2010.06.25/outbox.cif.g09.slc.cpg/sg15_84_cif.got.tgz:167693.got - 2010.06.28 07:06:18.
