data_PCOD8137134
_publ_section_title
;
Structure prediction by ZEFSAII (Michael W. Deem and Ramdas Pophale) SiO2 
 PCOD8137134
Probable space group: C 2/C
;
_chemical_formula_sum "Si O2"
_cell_formula_units_Z 64
_cell_length_a 16.210595
_cell_length_b 7.930689
_cell_length_c 24.368596
_cell_angle_alpha 90.000000
_cell_angle_beta 106.287262
_cell_angle_gamma 90.000000
_cell_volume 3007.126830
_symmetry_space_group_name_H-M "C 2/C"
_symmetry_group_IT_number 15
_symmetry_cell_setting 'monoclinic'
loop_
_space_group_symop_operation_xyz
x,y,z
-x,y,1/2-z
-x,-y,-z
x,-y,1/2+z
1/2+x,1/2+y,z
1/2-x,1/2+y,1/2-z
1/2-x,1/2-y,-z
1/2+x,1/2-y,1/2+z
loop_
_atom_site_type_symbol
_atom_site_label
_atom_site_fract_x
_atom_site_fract_y
_atom_site_fract_z
Si Si1 0.999186 0.595339 0.376335
Si Si2 0.219632 0.167784 0.088676
Si Si3 0.836453 0.576837 0.554141
Si Si4 0.233175 0.939778 0.189097
Si Si5 0.135912 0.496427 0.563137
Si Si6 0.391227 0.663133 0.658044
Si Si7 0.868382 0.671330 0.266171
Si Si8 0.804091 0.163162 0.131123
O O1 0.952762 0.565154 0.425802
O O2 0.934531 0.556550 0.313737
O O3 0.084664 0.481392 0.391794
O O4 0.034120 0.787101 0.371837
O O5 0.143278 0.298388 0.057945
O O6 0.298538 0.283899 0.119900
O O7 0.252925 0.046491 0.045510
O O8 0.188056 0.053416 0.133691
O O9 0.863456 0.587122 0.496361
O O10 0.814962 0.764732 0.571190
O O11 0.158602 0.838560 0.205546
O O12 0.303257 0.816285 0.174156
O O13 0.284070 0.057873 0.241011
O O14 0.211500 0.427594 0.616189
O O15 0.412179 0.760322 0.718687
O O16 0.383347 0.460346 0.661821
#
# Coordination Sequence:
#
# PCOD8137134 Si02
#       8
#     8   8   8   8   8   8   8   8
#     4  11  23  39  56  87 123 155 193 245 303 358
#     4   8  19  36  61  87 117 151 202 242 289 360
#     4  10  21  39  61  88 123 158 200 248 303 357
#     4  10  20  35  61  92 112 146 203 253 291 360
#     4  11  20  38  64  87 118 163 202 248 298 348
#     4   9  20  38  57  80 121 157 185 240 306 354
#     4  11  21  37  62  83 120 155 192 243 309 356
#     4  10  20  40  59  90 114 153 205 250 286 363
#
# _framework density 21.282774
#
# number of rings (size 3 to 8) (size 9 to 14) (size 15 to 20)
#    0.000    2.000    1.250    3.000    3.500    0.000 
#    2.250    1.875    0.000    0.000    0.000    0.000 
#    0.000    0.000    0.000    0.000    0.000    0.000 
#
# Total GULP energy -396604.529741 kJ/mol
# GULP energy per Si atom -12393.891554 kJ/mol
# Density = 2.123433 g / cm^3
# Si number density = 21.282774 Si / 1000 Ang^3
#
#
#
# Elastic Constant Matrix: (Units=GPa)
#
#
# Indices 1 2 3 4 5 6 
#
# 1 76.0417 29.8983 15.9069 0.0000 -17.6643 0.0000
# 2 29.8983 75.3605 15.8397 0.0000 -13.7402 0.0000
# 3 15.9069 15.8397 63.1909 0.0000 -15.1642 0.0000
# 4 0.0000 0.0000 0.0000 29.7957 0.0000 -1.5683
# 5 -17.6643 -13.7402 -15.1642 0.0000 30.4205 0.0000
# 6 0.0000 0.0000 0.0000 -1.5683 0.0000 26.4179
#
#
#
# Elastic Compliance Matrix: (Units=1/GPa)
#
#
# Indices 1 2 3 4 5 6 
#
# 1 0.017093 -0.005244 -0.001334 0.000000 0.006891 0.000000
# 2 -0.005244 0.016380 -0.001978 0.000000 0.003367 0.000000
# 3 -0.001334 -0.001978 0.018465 0.000000 0.007537 0.000000
# 4 0.000000 0.000000 0.000000 0.033667 0.000000 0.001999
# 5 0.006891 0.003367 0.007537 0.000000 0.042152 0.000000
# 6 0.000000 0.000000 0.000000 0.001999 0.000000 0.037972
#
#
# Mechanical properties :
#
#
# Convention : Reuss Voigt Hill
#
# Bulk Modulus (GPa) = 28.71502 37.54255 33.12879
# Shear Modulus (GPa) = 25.71362 27.52337 26.61850
#
# Velocity S-wave (km/s) = 3.47967 3.60004 3.54037
# Velocity P-wave (km/s) = 5.44661 5.91258 5.68437
#
# Compressibility (1/GPa) = 0.03482498
#
# Stress axis : x y z
#
# Youngs Moduli (GPa) = 58.50478 61.05079 54.15567
#
# Poissons Ratio (x) = 0.32017 0.07227
# Poissons Ratio (y) = 0.30682 0.10710
# Poissons Ratio (z) = 0.07807 0.12074
#
# Static dielectric constant tensor:
#      x y z
#    x 3.668380 0.000000 -0.082750 
#    y 0.000000 4.030460 0.000000 
#    z -0.082750 0.000000 3.775530 
# 
# 
# High freq. dielectric constant tensor:
#      x y z
#    x 1.813310 0.000000 -0.013920 
#    y 0.000000 1.829090 0.000000 
#    z -0.013920 0.000000 1.831250 
# 
# From -- ./inp_files/276299.got.cif
#   From: 2010.06.25/outbox.cif.g09.slc.cpg/sg15_139_cif.got.tgz:276299.got - 2010.06.28 07:06:18.
