data_PCOD8137581
_publ_section_title
;
Structure prediction by ZEFSAII (Michael W. Deem and Ramdas Pophale) SiO2 
 PCOD8137581
Probable space group: C 2/C
;
_chemical_formula_sum "Si O2"
_cell_formula_units_Z 60
_cell_length_a 11.728266
_cell_length_b 13.598630
_cell_length_c 25.642170
_cell_angle_alpha 90.000000
_cell_angle_beta 130.435501
_cell_angle_gamma 90.000000
_cell_volume 3112.764999
_symmetry_space_group_name_H-M "C 2/C"
_symmetry_group_IT_number 15
_symmetry_cell_setting 'monoclinic'
loop_
_space_group_symop_operation_xyz
x,y,z
-x,y,1/2-z
-x,-y,-z
x,-y,1/2+z
1/2+x,1/2+y,z
1/2-x,1/2+y,1/2-z
1/2-x,1/2-y,-z
1/2+x,1/2-y,1/2+z
loop_
_atom_site_type_symbol
_atom_site_label
_atom_site_fract_x
_atom_site_fract_y
_atom_site_fract_z
Si Si1 0.609962 0.325766 0.676965
Si Si2 0.660708 0.670485 0.776563
Si Si3 0.230045 0.435750 0.090402
Si Si4 0.500000 0.730003 0.250000
Si Si5 0.068023 0.627330 0.031787
Si Si6 0.222252 0.823657 0.117534
Si Si7 0.372247 0.181655 0.559883
Si Si8 0.564865 0.453422 0.151757
O O1 0.771422 0.272765 0.725271
O O2 0.537956 0.339906 0.712814
O O3 0.509594 0.251954 0.614177
O O4 0.617524 0.435018 0.656321
O O5 0.500000 0.700930 0.750000
O O6 0.756998 0.624727 0.852090
O O7 0.651174 0.591042 0.727186
O O8 0.167084 0.543050 0.088320
O O9 0.387049 0.445714 0.106927
O O10 0.112200 0.384169 0.015004
O O11 0.354983 0.797053 0.196698
O O12 0.124141 0.730090 0.070800
O O13 0.084927 0.608034 0.973870
O O14 0.303174 0.872104 0.090652
O O15 0.109296 0.897814 0.111844
O O16 0.250000 0.250000 0.500000
#
# Coordination Sequence:
#
# PCOD8137581 Si02
#       8
#     8   8   8   4   8   8   8   8
#     4  11  21  38  61  84 117 153 194 240 293 344
#     4  10  22  39  59  84 121 153 189 246 294 345
#     4  10  21  38  63  88 115 155 200 238 290 348
#     4  10  20  36  60  86 112 154 200 248 280 340
#     4  10  20  38  64  88 115 154 201 238 286 351
#     4  10  21  36  58  88 120 149 196 248 292 341
#     4   9  18  36  59  84 116 152 189 242 286 338
#     4  11  23  37  61  90 117 154 198 239 298 350
#
# _framework density 19.275469000000001
#
# number of rings (size 3 to 8) (size 9 to 14) (size 15 to 20)
#    0.000    1.867    2.667    2.400    4.667    0.533 
#    1.200    6.000   11.733    0.000    0.000    0.000 
#    0.000    0.000    0.000    0.000    0.000    0.000 
#
# Total GULP energy -371798.872610 kJ/mol
# GULP energy per Si atom -12393.295754 kJ/mol
# Density = 1.923160 g / cm^3
# Si number density = 19.275469 Si / 1000 Ang^3
#
#
#
# Elastic Constant Matrix: (Units=GPa)
#
#
# Indices 1 2 3 4 5 6 
#
# 1 94.4573 68.6465 41.3322 0.0000 6.9606 0.0000
# 2 68.6465 106.0338 33.0595 0.0000 1.1270 0.0000
# 3 41.3322 33.0595 81.0427 0.0000 11.7471 0.0000
# 4 0.0000 0.0000 0.0000 21.3063 0.0000 -1.5930
# 5 6.9606 1.1270 11.7471 0.0000 27.3913 0.0000
# 6 0.0000 0.0000 0.0000 -1.5930 0.0000 26.2928
#
#
#
# Elastic Compliance Matrix: (Units=1/GPa)
#
#
# Indices 1 2 3 4 5 6 
#
# 1 0.022705 -0.012811 -0.005965 0.000000 -0.002685 0.000000
# 2 -0.012811 0.018095 -0.001292 0.000000 0.003065 0.000000
# 3 -0.005965 -0.001292 0.016720 0.000000 -0.005602 0.000000
# 4 0.000000 0.000000 0.000000 0.047148 0.000000 0.002856
# 5 -0.002685 0.003065 -0.005602 0.000000 0.039466 0.000000
# 6 0.000000 0.000000 0.000000 0.002856 0.000000 0.038206
#
#
# Mechanical properties :
#
#
# Convention : Reuss Voigt Hill
#
# Bulk Modulus (GPa) = 57.52113 63.06781 60.29447
# Shear Modulus (GPa) = 21.90376 24.23112 23.06744
#
# Velocity S-wave (km/s) = 3.37464 3.54940 3.46312
# Velocity P-wave (km/s) = 6.71496 7.04187 6.88036
#
# Compressibility (1/GPa) = 0.01738491
#
# Stress axis : x y z
#
# Youngs Moduli (GPa) = 44.04324 55.26350 59.80807
#
# Poissons Ratio (x) = 0.70798 0.35673
# Poissons Ratio (y) = 0.56424 0.07728
# Poissons Ratio (z) = 0.26270 0.07140
#
# Static dielectric constant tensor:
#      x y z
#    x 15.239540 0.000000 -4.486070 
#    y 0.000000 1.759820 0.000000 
#    z -4.486070 0.000000 5.449590 
# 
# 
# High freq. dielectric constant tensor:
#      x y z
#    x 1.755280 0.000000 0.011530 
#    y 0.000000 1.726260 0.000000 
#    z 0.011530 0.000000 1.760630 
# 
# From -- ./inp_files/197904.got.cif
#   From: 2010.06.25/outbox.cif.g09.slc.cpg/sg15_99_cif.got.tgz:197904.got - 2010.06.28 07:06:18.
