data_PCOD8137348
_publ_section_title
;
Structure prediction by ZEFSAII (Michael W. Deem and Ramdas Pophale) SiO2 
 PCOD8137348
Probable space group: C 2/C
;
_chemical_formula_sum "Si O2"
_cell_formula_units_Z 64
_cell_length_a 18.844236
_cell_length_b 11.221645
_cell_length_c 21.799567
_cell_angle_alpha 90.000000
_cell_angle_beta 132.853318
_cell_angle_gamma 90.000000
_cell_volume 3379.438390
_symmetry_space_group_name_H-M "C 2/C"
_symmetry_group_IT_number 15
_symmetry_cell_setting 'monoclinic'
loop_
_space_group_symop_operation_xyz
x,y,z
-x,y,1/2-z
-x,-y,-z
x,-y,1/2+z
1/2+x,1/2+y,z
1/2-x,1/2+y,1/2-z
1/2-x,1/2-y,-z
1/2+x,1/2-y,1/2+z
loop_
_atom_site_type_symbol
_atom_site_label
_atom_site_fract_x
_atom_site_fract_y
_atom_site_fract_z
Si Si1 0.112874 0.385443 0.610847
Si Si2 0.149352 0.819838 0.870979
Si Si3 0.326460 0.560361 0.243860
Si Si4 0.079197 0.112846 0.618663
Si Si5 0.498855 0.699802 0.379336
Si Si6 0.287043 0.077592 0.554186
Si Si7 0.447060 0.955938 0.057681
Si Si8 0.609915 0.494748 0.013584
O O1 0.214529 0.432182 0.697527
O O2 0.110364 0.243842 0.617502
O O3 0.109431 0.430029 0.538741
O O4 0.023247 0.437327 0.596422
O O5 0.158816 0.905648 0.818447
O O6 0.174281 0.678936 0.875126
O O7 0.041268 0.826756 0.836007
O O8 0.227390 0.862166 0.965383
O O9 0.370079 0.429106 0.287362
O O10 0.388970 0.655528 0.319278
O O11 0.115624 0.014430 0.590353
O O12 0.961452 0.100324 0.552205
O O13 0.493899 0.838288 0.390757
O O14 0.568143 0.634011 0.468503
O O15 0.375146 0.009817 0.571447
O O16 0.218010 0.984791 0.550073
#
# Coordination Sequence:
#
# PCOD8137348 Si02
#       8
#     8   8   8   8   8   8   8   8
#     4  11  22  36  54  79 122 152 190 229 285 349
#     4   9  16  29  53  88 112 133 170 247 287 325
#     4  11  21  32  53  84 114 148 185 235 300 334
#     4  10  21  35  52  82 116 149 189 233 283 351
#     4   9  18  32  56  84 111 136 190 237 290 332
#     4   9  16  32  58  85 110 136 193 232 286 331
#     4  10  20  36  57  84 111 152 188 239 278 346
#     4   9  17  34  57  80 107 150 185 237 280 334
#
# _framework density 18.938058000000002
#
# number of rings (size 3 to 8) (size 9 to 14) (size 15 to 20)
#    0.000    2.250    2.500    1.875    1.750    0.000 
#    0.000    0.625    0.000    0.000    9.750    0.000 
#    0.000    0.000    0.000    0.000    0.000    0.000 
#
# Total GULP energy -396482.569813 kJ/mol
# GULP energy per Si atom -12390.080307 kJ/mol
# Density = 1.889495 g / cm^3
# Si number density = 18.938058 Si / 1000 Ang^3
#
#
#
# Elastic Constant Matrix: (Units=GPa)
#
#
# Indices 1 2 3 4 5 6 
#
# 1 105.0789 19.3835 33.2480 0.0000 15.0554 0.0000
# 2 19.3835 46.4914 25.6472 0.0000 7.1938 0.0000
# 3 33.2480 25.6472 70.1132 0.0000 9.0592 0.0000
# 4 0.0000 0.0000 0.0000 22.5837 0.0000 -1.4604
# 5 15.0554 7.1938 9.0592 0.0000 32.5136 0.0000
# 6 0.0000 0.0000 0.0000 -1.4604 0.0000 23.4828
#
#
#
# Elastic Compliance Matrix: (Units=1/GPa)
#
#
# Indices 1 2 3 4 5 6 
#
# 1 0.011810 -0.001899 -0.004412 0.000000 -0.003819 0.000000
# 2 -0.001899 0.027606 -0.008840 0.000000 -0.002765 0.000000
# 3 -0.004412 -0.008840 0.019784 0.000000 -0.001513 0.000000
# 4 0.000000 0.000000 0.000000 0.044459 0.000000 0.002765
# 5 -0.003819 -0.002765 -0.001513 0.000000 0.033558 0.000000
# 6 0.000000 0.000000 0.000000 0.002765 0.000000 0.042756
#
#
# Mechanical properties :
#
#
# Convention : Reuss Voigt Hill
#
# Bulk Modulus (GPa) = 34.60558 42.02679 38.31618
# Shear Modulus (GPa) = 22.73665 25.27634 24.00649
#
# Velocity S-wave (km/s) = 3.46870 3.65730 3.56424
# Velocity P-wave (km/s) = 5.86133 6.33043 6.10039
#
# Compressibility (1/GPa) = 0.02889708
#
# Stress axis : x y z
#
# Youngs Moduli (GPa) = 84.67204 36.22432 50.54503
#
# Poissons Ratio (x) = 0.06879 0.22302
# Poissons Ratio (y) = 0.16079 0.44683
# Poissons Ratio (z) = 0.37361 0.32023
#
# Static dielectric constant tensor:
#      x y z
#    x 3.780850 0.000000 0.139660 
#    y 0.000000 3.153480 0.000000 
#    z 0.139660 0.000000 3.515680 
# 
# 
# High freq. dielectric constant tensor:
#      x y z
#    x 1.739340 0.000000 0.010320 
#    y 0.000000 1.692910 0.000000 
#    z 0.010320 0.000000 1.732520 
# 
# From -- ./inp_files/279913.got.cif
#   From: 2010.06.25/outbox.cif.g09.slc.cpg/sg15_140_cif.got.tgz:279913.got - 2010.06.28 07:06:18.
