data_PCOD8137235
_publ_section_title
;
Structure prediction by ZEFSAII (Michael W. Deem and Ramdas Pophale) SiO2 
 PCOD8137235
Probable space group: C 2/C
;
_chemical_formula_sum "Si O2"
_cell_formula_units_Z 64
_cell_length_a 18.221709
_cell_length_b 21.440924
_cell_length_c 8.575719
_cell_angle_alpha 90.000000
_cell_angle_beta 79.186343
_cell_angle_gamma 90.000000
_cell_volume 3290.954619
_symmetry_space_group_name_H-M "C 2/C"
_symmetry_group_IT_number 15
_symmetry_cell_setting 'monoclinic'
loop_
_space_group_symop_operation_xyz
x,y,z
-x,y,1/2-z
-x,-y,-z
x,-y,1/2+z
1/2+x,1/2+y,z
1/2-x,1/2+y,1/2-z
1/2-x,1/2-y,-z
1/2+x,1/2-y,1/2+z
loop_
_atom_site_type_symbol
_atom_site_label
_atom_site_fract_x
_atom_site_fract_y
_atom_site_fract_z
Si Si1 0.679838 0.166712 0.979675
Si Si2 0.653637 0.488583 0.227731
Si Si3 0.180306 0.182403 0.209154
Si Si4 0.276465 0.420703 0.587426
Si Si5 0.965469 0.808765 0.099585
Si Si6 0.603428 0.589694 0.038127
Si Si7 0.193837 0.764857 0.235208
Si Si8 0.056821 0.721753 0.854307
O O1 0.753929 0.178769 0.845891
O O2 0.606419 0.164196 0.899853
O O3 0.692991 0.101065 0.066129
O O4 0.665691 0.224750 0.099647
O O5 0.723613 0.526757 0.276995
O O6 0.618344 0.445122 0.370821
O O7 0.679596 0.445993 0.077629
O O8 0.593097 0.538894 0.181524
O O9 0.182825 0.142094 0.368226
O O10 0.257387 0.221600 0.165297
O O11 0.108581 0.226848 0.250441
O O12 0.171274 0.136150 0.064709
O O13 0.968600 0.866972 0.973885
O O14 0.877900 0.791414 0.148129
O O15 0.000000 0.830191 0.250000
O O16 0.011294 0.750881 0.016026
O O17 0.000000 0.693946 0.750000
#
# Coordination Sequence:
#
# PCOD8137235 Si02
#       8
#     8   8   8   8   8   8   8   8
#     4   9  17  33  55  77 107 145 172 214 271 319
#     4   9  19  34  55  77 103 132 192 236 253 301
#     4   9  19  35  56  75 108 146 170 219 272 316
#     4   9  17  32  56  77 104 135 178 228 265 301
#     4  12  23  34  54  79 112 147 179 213 265 324
#     4  10  20  36  53  75 103 140 181 230 263 302
#     4   9  18  32  52  81 105 139 182 210 259 334
#     4  11  21  36  51  79 117 143 174 210 269 332
#
# _framework density 19.447244999999999
#
# number of rings (size 3 to 8) (size 9 to 14) (size 15 to 20)
#    0.000    2.250    2.500    1.500    1.750    0.500 
#    2.250    0.625    0.000    0.000    0.000    0.875 
#    0.000    0.125    0.000    0.000    0.000    0.000 
#
# Total GULP energy -396427.498745 kJ/mol
# GULP energy per Si atom -12388.359336 kJ/mol
# Density = 1.940298 g / cm^3
# Si number density = 19.447245 Si / 1000 Ang^3
#
#
#
# Elastic Constant Matrix: (Units=GPa)
#
#
# Indices 1 2 3 4 5 6 
#
# 1 83.2606 5.0753 15.8105 0.0000 10.6627 0.0000
# 2 5.0753 26.9886 0.9240 0.0000 3.2910 0.0000
# 3 15.8105 0.9240 61.7842 0.0000 10.7021 0.0000
# 4 0.0000 0.0000 0.0000 25.1209 0.0000 11.5637
# 5 10.6627 3.2910 10.7021 0.0000 31.0007 0.0000
# 6 0.0000 0.0000 0.0000 11.5637 0.0000 21.7253
#
#
#
# Elastic Compliance Matrix: (Units=1/GPa)
#
#
# Indices 1 2 3 4 5 6 
#
# 1 0.013078 -0.001958 -0.002738 0.000000 -0.003345 0.000000
# 2 -0.001958 0.037833 0.000547 0.000000 -0.003532 0.000000
# 3 -0.002738 0.000547 0.017788 0.000000 -0.005257 0.000000
# 4 0.000000 0.000000 0.000000 0.052726 0.000000 -0.028065
# 5 -0.003345 -0.003532 -0.005257 0.000000 0.035598 0.000000
# 6 0.000000 0.000000 0.000000 -0.028065 0.000000 0.060967
#
#
# Mechanical properties :
#
#
# Convention : Reuss Voigt Hill
#
# Bulk Modulus (GPa) = 16.55576 23.96143 20.25860
# Shear Modulus (GPa) = 20.29040 25.58431 22.93736
#
# Velocity S-wave (km/s) = 3.23361 3.63102 3.43806
# Velocity P-wave (km/s) = 4.74060 5.47056 5.11861
#
# Compressibility (1/GPa) = 0.06040193
#
# Stress axis : x y z
#
# Youngs Moduli (GPa) = 76.46351 26.43214 56.21615
#
# Poissons Ratio (x) = 0.05175 0.15392
# Poissons Ratio (y) = 0.14969 -0.03075
# Poissons Ratio (z) = 0.20935 -0.01446
#
# Static dielectric constant tensor:
#      x y z
#    x 3.526770 0.000000 0.497830 
#    y 0.000000 3.618060 0.000000 
#    z 0.497830 0.000000 3.634540 
# 
# 
# High freq. dielectric constant tensor:
#      x y z
#    x 1.732710 0.000000 0.041730 
#    y 0.000000 1.737260 0.000000 
#    z 0.041730 0.000000 1.764000 
# 
# From -- ./inp_files/51220.got.cif
#   From: 2010.06.25/outbox.cif.g09.slc.cpg/sg15_26_cif.got.tgz:51220.got - 2010.06.28 07:06:18.
