data_PCOD8137711
_publ_section_title
;
Structure prediction by ZEFSAII (Michael W. Deem and Ramdas Pophale) SiO2 
 PCOD8137711
Probable space group: C 2/C
;
_chemical_formula_sum "Si O2"
_cell_formula_units_Z 64
_cell_length_a 23.002923
_cell_length_b 11.688040
_cell_length_c 12.033562
_cell_angle_alpha 90.000000
_cell_angle_beta 109.394260
_cell_angle_gamma 90.000000
_cell_volume 3051.746526
_symmetry_space_group_name_H-M "C 2/C"
_symmetry_group_IT_number 15
_symmetry_cell_setting 'monoclinic'
loop_
_space_group_symop_operation_xyz
x,y,z
-x,y,1/2-z
-x,-y,-z
x,-y,1/2+z
1/2+x,1/2+y,z
1/2-x,1/2+y,1/2-z
1/2-x,1/2-y,-z
1/2+x,1/2-y,1/2+z
loop_
_atom_site_type_symbol
_atom_site_label
_atom_site_fract_x
_atom_site_fract_y
_atom_site_fract_z
Si Si1 0.121396 0.293460 0.985282
Si Si2 0.006464 0.076201 0.134465
Si Si3 0.508865 0.320033 0.089352
Si Si4 0.177608 0.503038 0.642964
Si Si5 0.287555 0.596255 0.829863
Si Si6 0.223579 0.135120 0.435298
Si Si7 0.645240 0.375196 0.685238
Si Si8 0.635001 0.213735 0.239006
O O1 0.150467 0.286620 0.880290
O O2 0.048353 0.266886 0.939718
O O3 0.130399 0.420475 0.040904
O O4 0.159451 0.205831 0.088883
O O5 0.074727 0.093077 0.134717
O O6 0.000000 0.133762 0.250000
O O7 0.988072 0.942346 0.128851
O O8 0.967063 0.149935 0.020749
O O9 0.566142 0.264118 0.188173
O O10 0.215252 0.585561 0.751903
O O11 0.223606 0.439341 0.588448
O O12 0.137616 0.413728 0.690414
O O13 0.320118 0.493940 0.789140
O O14 0.314190 0.714379 0.797083
O O15 0.301407 0.573706 0.969257
O O16 0.250000 0.250000 0.500000
O O17 0.168356 0.175457 0.317841
#
# Coordination Sequence:
#
# PCOD8137711 Si02
#       8
#     8   8   8   8   8   8   8   8
#     4  11  25  44  66  96 137 167 216 273 323 401
#     4  10  20  36  61  96 133 166 215 274 323 384
#     4  10  23  40  63  99 131 170 218 264 331 390
#     4  11  26  43  63  98 124 178 225 264 333 390
#     4  11  24  40  63  96 127 169 216 268 329 388
#     4  11  22  41  62  90 132 166 216 275 319 385
#     4  10  24  37  64  97 129 173 210 268 332 389
#     4  12  24  44  70  93 129 178 216 268 333 389
#
# _framework density 20.971598
#
# number of rings (size 3 to 8) (size 9 to 14) (size 15 to 20)
#    0.000    1.250    2.500    2.625    7.000    1.000 
#    0.000    0.000    0.000    0.000    0.000    0.000 
#    0.000    0.000    0.000    0.000    0.000    0.000 
#
# Total GULP energy -396601.491174 kJ/mol
# GULP energy per Si atom -12393.796599 kJ/mol
# Density = 2.092387 g / cm^3
# Si number density = 20.971598 Si / 1000 Ang^3
#
#
#
# Elastic Constant Matrix: (Units=GPa)
#
#
# Indices 1 2 3 4 5 6 
#
# 1 48.9629 28.1918 28.9084 0.0000 -2.7664 0.0000
# 2 28.1918 100.8654 43.5641 0.0000 2.5969 0.0000
# 3 28.9084 43.5641 170.4719 0.0000 -18.4379 0.0000
# 4 0.0000 0.0000 0.0000 29.3279 0.0000 -1.6038
# 5 -2.7664 2.5969 -18.4379 0.0000 38.1269 0.0000
# 6 0.0000 0.0000 0.0000 -1.6038 0.0000 19.1642
#
#
#
# Elastic Compliance Matrix: (Units=1/GPa)
#
#
# Indices 1 2 3 4 5 6 
#
# 1 0.025519 -0.005994 -0.002692 0.000000 0.000958 0.000000
# 2 -0.005994 0.012739 -0.002511 0.000000 -0.002517 0.000000
# 3 -0.002692 -0.002511 0.007346 0.000000 0.003528 0.000000
# 4 0.000000 0.000000 0.000000 0.034254 0.000000 0.002867
# 5 0.000958 -0.002517 0.003528 0.000000 0.028175 0.000000
# 6 0.000000 0.000000 0.000000 0.002867 0.000000 0.052420
#
#
# Mechanical properties :
#
#
# Convention : Reuss Voigt Hill
#
# Bulk Modulus (GPa) = 43.08776 57.95877 50.52326
# Shear Modulus (GPa) = 26.23509 31.96619 29.10064
#
# Velocity S-wave (km/s) = 3.54076 3.90841 3.72912
# Velocity P-wave (km/s) = 6.10789 6.93285 6.53340
#
# Compressibility (1/GPa) = 0.02320845
#
# Stress axis : x y z
#
# Youngs Moduli (GPa) = 39.18716 78.49895 136.13067
#
# Poissons Ratio (x) = 0.47056 0.36645
# Poissons Ratio (y) = 0.23491 0.34185
# Poissons Ratio (z) = 0.10549 0.19712
#
# Static dielectric constant tensor:
#      x y z
#    x 3.642510 0.000000 0.754760 
#    y 0.000000 3.768640 0.000000 
#    z 0.754760 0.000000 5.067390 
# 
# 
# High freq. dielectric constant tensor:
#      x y z
#    x 1.800900 0.000000 -0.000490 
#    y 0.000000 1.814260 0.000000 
#    z -0.000490 0.000000 1.851280 
# 
# From -- ./inp_files/118026.got.cif
#   From: 2010.06.25/outbox.cif.g09.slc.cpg/sg15_60_cif.got.tgz:118026.got - 2010.06.28 07:06:18.
