data_PCOD8137098
_publ_section_title
;
Structure prediction by ZEFSAII (Michael W. Deem and Ramdas Pophale) SiO2 
 PCOD8137098
Probable space group: C 2/C
;
_chemical_formula_sum "Si O2"
_cell_formula_units_Z 56
_cell_length_a 7.976449
_cell_length_b 18.327424
_cell_length_c 26.815905
_cell_angle_alpha 90.000000
_cell_angle_beta 47.775020
_cell_angle_gamma 90.000000
_cell_volume 2902.922114
_symmetry_space_group_name_H-M "C 2/C"
_symmetry_group_IT_number 15
_symmetry_cell_setting 'monoclinic'
loop_
_space_group_symop_operation_xyz
x,y,z
-x,y,1/2-z
-x,-y,-z
x,-y,1/2+z
1/2+x,1/2+y,z
1/2-x,1/2+y,1/2-z
1/2-x,1/2-y,-z
1/2+x,1/2-y,1/2+z
loop_
_atom_site_type_symbol
_atom_site_label
_atom_site_fract_x
_atom_site_fract_y
_atom_site_fract_z
Si Si1 0.897705 0.415401 0.631439
Si Si2 0.089737 0.661142 0.501714
Si Si3 0.385694 0.541598 0.396906
Si Si4 0.799413 0.092056 0.982568
Si Si5 0.081604 0.782733 0.682606
Si Si6 0.782582 0.596949 0.264629
Si Si7 0.288236 0.313182 0.061896
O O1 0.767770 0.473722 0.621742
O O2 0.807109 0.332343 0.643070
O O3 0.855688 0.438744 0.697076
O O4 0.161132 0.416072 0.562223
O O5 0.300731 0.622008 0.431699
O O6 0.128367 0.646838 0.553043
O O7 0.083342 0.747036 0.491272
O O8 0.849421 0.630905 0.530600
O O9 0.356303 0.486741 0.448452
O O10 0.646264 0.539210 0.326481
O O11 0.030063 0.133540 0.948963
O O12 0.121654 0.716224 0.637560
O O13 0.000000 0.745324 0.750000
O O14 0.875991 0.833805 0.707958
O O15 0.000000 0.624388 0.250000
#
# Coordination Sequence:
#
# PCOD8137098 Si02
#       7
#     8   8   8   8   8   8   8
#     4   9  18  35  62  83 110 155 196 245 283 341
#     4  10  21  36  59  88 121 151 194 244 296 355
#     4  10  20  40  57  87 116 154 197 244 293 357
#     4  11  22  37  62  90 117 157 192 240 310 358
#     4   9  18  37  57  79 116 151 196 242 288 342
#     4  10  20  35  60  91 111 150 209 247 282 345
#     4  11  21  36  60  89 124 146 194 251 294 356
#
# _framework density 19.290906
#
# number of rings (size 3 to 8) (size 9 to 14) (size 15 to 20)
#    0.000    2.000    4.286    3.429    2.000    0.571 
#    5.143    0.714    3.143    0.000    0.000    0.000 
#    0.000    0.000    0.000    0.000    0.000    0.000 
#
# Total GULP energy -346977.397777 kJ/mol
# GULP energy per Si atom -12392.049921 kJ/mol
# Density = 1.924700 g / cm^3
# Si number density = 19.290906 Si / 1000 Ang^3
#
#
#
# Elastic Constant Matrix: (Units=GPa)
#
#
# Indices 1 2 3 4 5 6 
#
# 1 93.5522 21.3945 47.4225 -0.0002 7.9707 0.0008
# 2 21.3945 47.2901 27.0140 -0.0064 3.0521 0.0023
# 3 47.4225 27.0140 141.1712 -0.0125 17.2232 0.0068
# 4 -0.0002 -0.0064 -0.0125 25.6527 0.0048 6.4122
# 5 7.9707 3.0521 17.2232 0.0048 25.4659 0.0016
# 6 0.0008 0.0023 0.0068 6.4122 0.0016 15.7622
#
#
#
# Elastic Compliance Matrix: (Units=1/GPa)
#
#
# Indices 1 2 3 4 5 6 
#
# 1 0.013550 -0.003971 -0.003632 -0.000003 -0.001309 0.000003
# 2 -0.003971 0.024906 -0.003509 0.000005 0.000631 -0.000004
# 3 -0.003632 -0.003509 0.009575 0.000006 -0.004919 -0.000005
# 4 -0.000003 0.000005 0.000006 0.043395 -0.000011 -0.017653
# 5 -0.001309 0.000631 -0.004919 -0.000011 0.042929 0.000002
# 6 0.000003 -0.000004 -0.000005 -0.017653 0.000002 0.070624
#
#
# Mechanical properties :
#
#
# Convention : Reuss Voigt Hill
#
# Bulk Modulus (GPa) = 38.74865 52.63060 45.68962
# Shear Modulus (GPa) = 21.20386 25.78834 23.49610
#
# Velocity S-wave (km/s) = 3.31896 3.66021 3.49376
# Velocity P-wave (km/s) = 5.90063 6.72344 6.32543
#
# Compressibility (1/GPa) = 0.02580735
#
# Stress axis : x y z
#
# Youngs Moduli (GPa) = 73.80060 40.15047 104.43526
#
# Poissons Ratio (x) = 0.15943 0.37934
# Poissons Ratio (y) = 0.29305 0.36647
# Poissons Ratio (z) = 0.26806 0.14089
#
# Static dielectric constant tensor:
#      x y z
#    x 3.643350 0.000000 0.223800 
#    y 0.000000 3.151630 0.000000 
#    z 0.223800 0.000000 3.854900 
# 
# 
# High freq. dielectric constant tensor:
#      x y z
#    x 1.752870 0.000000 0.014380 
#    y 0.000000 1.709100 0.000000 
#    z 0.014380 0.000000 1.758340 
# 
# From -- ./inp_files/308590.got.cif
#   From: 2010.06.25/outbox.cif.g09.slc.cpg/sg15_155_cif.got.tgz:308590.got - 2010.06.28 07:06:18.
