data_PCOD8137124
_publ_section_title
;
Structure prediction by ZEFSAII (Michael W. Deem and Ramdas Pophale) SiO2 
 PCOD8137124
Probable space group: C 2/C
;
_chemical_formula_sum "Si O2"
_cell_formula_units_Z 56
_cell_length_a 19.381577
_cell_length_b 19.315056
_cell_length_c 7.867490
_cell_angle_alpha 90.000000
_cell_angle_beta 64.108372
_cell_angle_gamma 90.000000
_cell_volume 2649.605117
_symmetry_space_group_name_H-M "C 2/C"
_symmetry_group_IT_number 15
_symmetry_cell_setting 'monoclinic'
loop_
_space_group_symop_operation_xyz
x,y,z
-x,y,1/2-z
-x,-y,-z
x,-y,1/2+z
1/2+x,1/2+y,z
1/2-x,1/2+y,1/2-z
1/2-x,1/2-y,-z
1/2+x,1/2-y,1/2+z
loop_
_atom_site_type_symbol
_atom_site_label
_atom_site_fract_x
_atom_site_fract_y
_atom_site_fract_z
Si Si1 0.760950 0.435033 0.709884
Si Si2 0.587932 0.574378 0.474164
Si Si3 0.000000 0.811827 0.250000
Si Si4 0.464259 0.220931 0.959915
Si Si5 0.080780 0.604124 0.861617
Si Si6 0.500000 0.456380 0.750000
Si Si7 0.189187 0.690986 0.535219
Si Si8 0.139189 0.473214 0.606220
O O1 0.758365 0.369053 0.593946
O O2 0.828406 0.426706 0.776591
O O3 0.784454 0.502668 0.576884
O O4 0.677450 0.441266 0.877405
O O5 0.570618 0.638817 0.618238
O O6 0.556894 0.502710 0.579308
O O7 0.550169 0.589763 0.328552
O O8 0.021809 0.764917 0.386441
O O9 0.500000 0.256114 0.750000
O O10 0.498796 0.142549 0.936850
O O11 0.373152 0.215651 0.035624
O O12 0.145674 0.662674 0.751194
O O13 0.088940 0.539545 0.722142
O O14 0.087113 0.576146 0.046257
O O15 0.250000 0.750000 0.500000
#
# Coordination Sequence:
#
# PCOD8137124 Si02
#       8
#     8   8   4   8   8   4   8   8
#     4  10  20  35  61  88 128 155 206 260 318 381
#     4  10  21  37  59  93 119 166 209 266 321 386
#     4  11  26  38  64  94 120 175 224 242 324 385
#     4  10  24  45  63  87 133 169 212 269 308 379
#     4   9  20  41  67  90 129 165 212 265 325 376
#     4   9  20  38  60  84 128 155 212 268 326 371
#     4  10  23  40  60  90 123 173 210 254 326 376
#     4   9  19  38  63  98 119 164 208 260 328 384
#
# _framework density 21.135225999999999
#
# number of rings (size 3 to 8) (size 9 to 14) (size 15 to 20)
#    0.000    2.286    0.000    0.857    7.000    1.143 
#    0.000   23.571    0.000    0.000    0.000    0.000 
#    0.000    0.000    0.000    0.000    0.000    0.000 
#
# Total GULP energy -347050.752514 kJ/mol
# GULP energy per Si atom -12394.669733 kJ/mol
# Density = 2.108712 g / cm^3
# Si number density = 21.135226 Si / 1000 Ang^3
#
#
#
# Elastic Constant Matrix: (Units=GPa)
#
#
# Indices 1 2 3 4 5 6 
#
# 1 113.3586 52.9015 43.9146 0.0000 -0.7489 0.0000
# 2 52.9015 84.4971 25.1478 0.0000 9.0466 0.0000
# 3 43.9146 25.1478 72.4115 0.0000 13.7908 0.0000
# 4 0.0000 0.0000 0.0000 27.4619 0.0000 11.6152
# 5 -0.7489 9.0466 13.7908 0.0000 42.4202 0.0000
# 6 0.0000 0.0000 0.0000 11.6152 0.0000 31.6775
#
#
#
# Elastic Compliance Matrix: (Units=1/GPa)
#
#
# Indices 1 2 3 4 5 6 
#
# 1 0.015425 -0.007912 -0.007441 0.000000 0.004379 0.000000
# 2 -0.007912 0.017337 -0.000525 0.000000 -0.003666 0.000000
# 3 -0.007441 -0.000525 0.019730 0.000000 -0.006434 0.000000
# 4 0.000000 0.000000 0.000000 0.043098 0.000000 -0.015803
# 5 0.004379 -0.003666 -0.006434 0.000000 0.026525 0.000000
# 6 0.000000 0.000000 0.000000 -0.015803 0.000000 0.037363
#
#
# Mechanical properties :
#
#
# Convention : Reuss Voigt Hill
#
# Bulk Modulus (GPa) = 48.22147 57.13277 52.67712
# Shear Modulus (GPa) = 25.23418 30.19879 27.71648
#
# Velocity S-wave (km/s) = 3.45909 3.78410 3.62524
# Velocity P-wave (km/s) = 6.23049 6.79582 6.51929
#
# Compressibility (1/GPa) = 0.02073765
#
# Stress axis : x y z
#
# Youngs Moduli (GPa) = 64.82881 57.68144 50.68384
#
# Poissons Ratio (x) = 0.45635 0.37714
# Poissons Ratio (y) = 0.51290 0.02659
# Poissons Ratio (z) = 0.48240 0.03026
#
# Static dielectric constant tensor:
#      x y z
#    x 3.743560 0.000000 0.203510 
#    y 0.000000 3.706960 0.000000 
#    z 0.203510 0.000000 4.095730 
# 
# 
# High freq. dielectric constant tensor:
#      x y z
#    x 1.821630 0.000000 0.003900 
#    y 0.000000 1.818420 0.000000 
#    z 0.003900 0.000000 1.837060 
# 
# From -- ./inp_files/56530.got.cif
#   From: 2010.06.25/outbox.cif.g09.slc.cpg/sg15_29_cif.got.tgz:56530.got - 2010.06.28 07:06:18.
