data_PCOD8137290
_publ_section_title
;
Structure prediction by ZEFSAII (Michael W. Deem and Ramdas Pophale) SiO2 
 PCOD8137290
Probable space group: C 2/C
;
_chemical_formula_sum "Si O2"
_cell_formula_units_Z 56
_cell_length_a 10.664555
_cell_length_b 21.550802
_cell_length_c 13.180408
_cell_angle_alpha 90.000000
_cell_angle_beta 81.865611
_cell_angle_gamma 90.000000
_cell_volume 2998.771841
_symmetry_space_group_name_H-M "C 2/C"
_symmetry_group_IT_number 15
_symmetry_cell_setting 'monoclinic'
loop_
_space_group_symop_operation_xyz
x,y,z
-x,y,1/2-z
-x,-y,-z
x,-y,1/2+z
1/2+x,1/2+y,z
1/2-x,1/2+y,1/2-z
1/2-x,1/2-y,-z
1/2+x,1/2-y,1/2+z
loop_
_atom_site_type_symbol
_atom_site_label
_atom_site_fract_x
_atom_site_fract_y
_atom_site_fract_z
Si Si1 0.933270 0.037010 0.864157
Si Si2 0.843976 0.184449 0.108019
Si Si3 0.735154 0.311128 0.440124
Si Si4 0.488569 0.802666 0.135159
Si Si5 0.358876 0.256657 0.256315
Si Si6 0.754706 0.143881 0.908040
Si Si7 0.052557 0.909307 0.548634
O O1 0.801130 0.073651 0.887410
O O2 0.000000 0.049751 0.750000
O O3 0.903878 0.964023 0.881230
O O4 0.023733 0.062173 0.942003
O O5 0.941949 0.241800 0.077096
O O6 0.748924 0.203290 0.211746
O O7 0.931922 0.124087 0.116445
O O8 0.753460 0.168027 0.023859
O O9 0.750000 0.250000 0.500000
O O10 0.662261 0.293229 0.345922
O O11 0.665786 0.361608 0.517075
O O12 0.878977 0.334215 0.408778
O O13 0.500000 0.781379 0.250000
O O14 0.383761 0.855321 0.126817
O O15 0.500000 0.227569 0.250000
O O16 0.350718 0.308910 0.343111
#
# Coordination Sequence:
#
# PCOD8137290 Si02
#       7
#     8   8   8   8   8   8   8
#     4  10  21  38  62  79 105 147 195 236 276 328
#     4  10  20  36  56  81 121 145 183 231 291 338
#     4  12  23  33  54  85 122 147 184 227 286 342
#     4  11  20  34  53  87 117 150 182 233 285 340
#     4  11  21  33  54  84 119 151 184 226 281 354
#     4  10  20  36  58  81 112 150 192 232 281 336
#     4  10  22  38  56  87 110 143 191 239 273 333
#
# _framework density 18.674310999999999
#
# number of rings (size 3 to 8) (size 9 to 14) (size 15 to 20)
#    0.000    1.429    4.286    4.714    2.000    1.714 
#    0.000    0.714    0.000    0.000    0.000    0.000 
#    0.000    0.000    0.000    0.000    0.000    0.000 
#
# Total GULP energy -346996.501444 kJ/mol
# GULP energy per Si atom -12392.732194 kJ/mol
# Density = 1.863181 g / cm^3
# Si number density = 18.674311 Si / 1000 Ang^3
#
#
#
# Elastic Constant Matrix: (Units=GPa)
#
#
# Indices 1 2 3 4 5 6 
#
# 1 131.4267 48.9780 28.1434 0.0000 -5.3696 0.0000
# 2 48.9780 110.5179 24.6032 0.0000 -5.9068 0.0000
# 3 28.1434 24.6032 42.1621 0.0000 -3.2739 0.0000
# 4 0.0000 0.0000 0.0000 23.0426 0.0000 -2.4570
# 5 -5.3696 -5.9068 -3.2739 0.0000 25.5435 0.0000
# 6 0.0000 0.0000 0.0000 -2.4570 0.0000 27.0270
#
#
#
# Elastic Compliance Matrix: (Units=1/GPa)
#
#
# Indices 1 2 3 4 5 6 
#
# 1 0.009854 -0.003306 -0.004592 0.000000 0.000718 0.000000
# 2 -0.003306 0.011577 -0.004439 0.000000 0.001413 0.000000
# 3 -0.004592 -0.004439 0.029513 0.000000 0.001791 0.000000
# 4 0.000000 0.000000 0.000000 0.043823 0.000000 0.003984
# 5 0.000718 0.001413 0.001791 0.000000 0.039856 0.000000
# 6 0.000000 0.000000 0.000000 0.003984 0.000000 0.037362
#
#
# Mechanical properties :
#
#
# Convention : Reuss Voigt Hill
#
# Bulk Modulus (GPa) = 38.06842 54.17288 46.12065
# Shear Modulus (GPa) = 24.34083 27.28142 25.81113
#
# Velocity S-wave (km/s) = 3.61423 3.82633 3.72179
# Velocity P-wave (km/s) = 6.15196 6.97089 6.57419
#
# Compressibility (1/GPa) = 0.02626849
#
# Stress axis : x y z
#
# Youngs Moduli (GPa) = 101.48577 86.37641 33.88350
#
# Poissons Ratio (x) = 0.28557 0.15560
# Poissons Ratio (y) = 0.33552 0.15042
# Poissons Ratio (z) = 0.46606 0.38344
#
# Static dielectric constant tensor:
#      x y z
#    x 3.253910 0.000000 0.131660 
#    y 0.000000 3.320270 0.000000 
#    z 0.131660 0.000000 3.313270 
# 
# 
# High freq. dielectric constant tensor:
#      x y z
#    x 1.725480 0.000000 0.003240 
#    y 0.000000 1.700550 0.000000 
#    z 0.003240 0.000000 1.727300 
# 
# From -- ./inp_files/88909.got.cif
#   From: 2010.06.25/outbox.cif.g09.slc.cpg/sg15_45_cif.got.tgz:88909.got - 2010.06.28 07:06:18.
