data_PCOD8137787
_publ_section_title
;
Structure prediction by ZEFSAII (Michael W. Deem and Ramdas Pophale) SiO2 
 PCOD8137787
Probable space group: C 2/C
;
_chemical_formula_sum "Si O2"
_cell_formula_units_Z 48
_cell_length_a 11.717149
_cell_length_b 8.234163
_cell_length_c 23.034181
_cell_angle_alpha 90.000000
_cell_angle_beta 74.168059
_cell_angle_gamma 90.000000
_cell_volume 2138.056014
_symmetry_space_group_name_H-M "C 2/C"
_symmetry_group_IT_number 15
_symmetry_cell_setting 'monoclinic'
loop_
_space_group_symop_operation_xyz
x,y,z
-x,y,1/2-z
-x,-y,-z
x,-y,1/2+z
1/2+x,1/2+y,z
1/2-x,1/2+y,1/2-z
1/2-x,1/2-y,-z
1/2+x,1/2-y,1/2+z
loop_
_atom_site_type_symbol
_atom_site_label
_atom_site_fract_x
_atom_site_fract_y
_atom_site_fract_z
Si Si1 0.774070 0.921114 0.070779
Si Si2 0.290356 0.550787 0.186236
Si Si3 0.117701 0.199216 0.506446
Si Si4 0.094791 0.312593 0.020556
Si Si5 0.447039 0.471257 0.887577
Si Si6 0.363753 0.372457 0.286762
O O1 0.656581 0.963589 0.045993
O O2 0.742429 0.925872 0.143229
O O3 0.875510 0.055149 0.042691
O O4 0.825240 0.745555 0.045031
O O5 0.426776 0.589339 0.153576
O O6 0.286253 0.467401 0.249478
O O7 0.205930 0.705670 0.193496
O O8 0.250000 0.250000 0.500000
O O9 0.049092 0.135063 0.573103
O O10 0.039135 0.340475 0.484946
O O11 0.108476 0.174078 0.068376
O O12 0.363267 0.517466 0.844555
O O13 0.500000 0.333675 0.250000
#
# Coordination Sequence:
#
# PCOD8137787 Si02
#       6
#     8   8   8   8   8   8
#     4  10  20  37  61  89 125 158 201 258 312 374
#     4  11  21  44  65  86 128 164 212 268 311 373
#     4  11  20  36  62  94 129 162 204 255 316 386
#     4  10  20  36  62  95 119 166 199 248 326 377
#     4  10  20  40  64  86 127 164 205 254 319 378
#     4  10  25  42  61  91 118 167 215 263 315 368
#
# _framework density 22.450302000000001
#
# number of rings (size 3 to 8) (size 9 to 14) (size 15 to 20)
#    0.000    1.667    3.333    2.000    2.333    0.667 
#    3.000    0.000    0.000    0.000    0.000    0.000 
#    0.000    0.000    0.000    0.000    0.000    0.000 
#
# Total GULP energy -297342.224437 kJ/mol
# GULP energy per Si atom -12389.259352 kJ/mol
# Density = 2.239920 g / cm^3
# Si number density = 22.450302 Si / 1000 Ang^3
#
#
#
# Elastic Constant Matrix: (Units=GPa)
#
#
# Indices 1 2 3 4 5 6 
#
# 1 146.4624 17.4295 31.9027 0.0000 18.2086 0.0000
# 2 17.4295 19.1393 16.1019 0.0000 -4.2549 0.0000
# 3 31.9027 16.1019 103.9624 0.0000 25.8125 0.0000
# 4 0.0000 0.0000 0.0000 23.4229 0.0000 3.1548
# 5 18.2086 -4.2549 25.8125 0.0000 43.6460 0.0000
# 6 0.0000 0.0000 0.0000 3.1548 0.0000 46.2600
#
#
#
# Elastic Compliance Matrix: (Units=1/GPa)
#
#
# Indices 1 2 3 4 5 6 
#
# 1 0.008396 -0.008368 -0.000244 0.000000 -0.004174 0.000000
# 2 -0.008368 0.075834 -0.013924 0.000000 0.019119 0.000000
# 3 -0.000244 -0.013924 0.014255 0.000000 -0.009686 0.000000
# 4 0.000000 0.000000 0.000000 0.043089 0.000000 -0.002939
# 5 -0.004174 0.019119 -0.009686 0.000000 0.032245 0.000000
# 6 0.000000 0.000000 0.000000 -0.002939 0.000000 0.021817
#
#
# Mechanical properties :
#
#
# Convention : Reuss Voigt Hill
#
# Bulk Modulus (GPa) = 18.72238 44.49249 31.60743
# Shear Modulus (GPa) = 19.34128 36.27444 27.80786
#
# Velocity S-wave (km/s) = 2.93834 4.02402 3.52325
# Velocity P-wave (km/s) = 4.45751 6.43829 5.53719
#
# Compressibility (1/GPa) = 0.05341202
#
# Stress axis : x y z
#
# Youngs Moduli (GPa) = 119.10980 13.18663 70.14919
#
# Poissons Ratio (x) = 0.11035 0.01710
# Poissons Ratio (y) = 0.99676 0.97678
# Poissons Ratio (z) = 0.02904 0.18362
#
# Static dielectric constant tensor:
#      x y z
#    x 4.290390 0.000000 0.288330 
#    y 0.000000 3.881680 0.000000 
#    z 0.288330 0.000000 4.270650 
# 
# 
# High freq. dielectric constant tensor:
#      x y z
#    x 1.910040 0.000000 0.018780 
#    y 0.000000 1.853520 0.000000 
#    z 0.018780 0.000000 1.882560 
# 
# From -- ./inp_files/267665.got.cif
#   From: 2010.06.25/outbox.cif.g09.slc.cpg/sg15_134_cif.got.tgz:267665.got - 2010.06.28 07:06:18.
