data_PCOD8137782
_publ_section_title
;
Structure prediction by ZEFSAII (Michael W. Deem and Ramdas Pophale) SiO2 
 PCOD8137782
Probable space group: C 2/C
;
_chemical_formula_sum "Si O2"
_cell_formula_units_Z 56
_cell_length_a 8.369844
_cell_length_b 18.180182
_cell_length_c 18.274362
_cell_angle_alpha 90.000000
_cell_angle_beta 99.183002
_cell_angle_gamma 90.000000
_cell_volume 2745.084827
_symmetry_space_group_name_H-M "C 2/C"
_symmetry_group_IT_number 15
_symmetry_cell_setting 'monoclinic'
loop_
_space_group_symop_operation_xyz
x,y,z
-x,y,1/2-z
-x,-y,-z
x,-y,1/2+z
1/2+x,1/2+y,z
1/2-x,1/2+y,1/2-z
1/2-x,1/2-y,-z
1/2+x,1/2-y,1/2+z
loop_
_atom_site_type_symbol
_atom_site_label
_atom_site_fract_x
_atom_site_fract_y
_atom_site_fract_z
Si Si1 0.573713 0.759395 0.182321
Si Si2 0.285729 0.084116 0.956793
Si Si3 0.344565 0.621353 0.396836
Si Si4 0.174249 0.115689 0.792723
Si Si5 0.339245 0.996905 0.205303
Si Si6 0.392275 0.877121 0.090828
Si Si7 0.133612 0.056917 0.478960
O O1 0.500000 0.722292 0.250000
O O2 0.674988 0.699691 0.143574
O O3 0.696796 0.821993 0.218833
O O4 0.428240 0.794929 0.123093
O O5 0.171969 0.108625 0.880630
O O6 0.471479 0.105320 0.959624
O O7 0.277023 0.994975 0.959910
O O8 0.223468 0.124832 0.025515
O O9 0.257114 0.557769 0.345931
O O10 0.538529 0.604749 0.411804
O O11 0.223881 0.038468 0.758631
O O12 0.000000 0.140032 0.750000
O O13 0.500000 0.034971 0.250000
O O14 0.408878 0.933551 0.158338
O O15 0.213119 0.886131 0.042935
O O16 0.000000 0.000000 0.500000
#
# Coordination Sequence:
#
# PCOD8137782 Si02
#       7
#     8   8   8   8   8   8   8
#     4  11  24  45  61  87 134 177 213 266 336 394
#     4  10  21  38  64  96 127 158 216 271 324 375
#     4  11  26  39  62  98 135 161 211 283 321 376
#     4  11  23  38  70  93 122 170 227 263 321 395
#     4  12  21  42  66  95 125 175 222 258 318 396
#     4  11  20  39  69  87 122 172 217 255 324 398
#     4  10  20  36  62  94 126 159 210 276 314 378
#
# _framework density 20.400099000000001
#
# number of rings (size 3 to 8) (size 9 to 14) (size 15 to 20)
#    0.000    1.143    7.143    1.286    2.000    5.143 
#    0.000    1.429    0.000    0.000    0.000    0.000 
#    0.000    0.000    0.000    0.000    0.000    0.000 
#
# Total GULP energy -347074.769875 kJ/mol
# GULP energy per Si atom -12395.527496 kJ/mol
# Density = 2.035367 g / cm^3
# Si number density = 20.400099 Si / 1000 Ang^3
#
#
#
# Elastic Constant Matrix: (Units=GPa)
#
#
# Indices 1 2 3 4 5 6 
#
# 1 86.6499 28.6069 58.3583 0.0000 12.2274 0.0000
# 2 28.6069 80.1870 45.4309 0.0000 -11.3951 0.0000
# 3 58.3583 45.4309 134.0418 0.0000 -2.8652 0.0000
# 4 0.0000 0.0000 0.0000 30.8660 0.0000 1.5568
# 5 12.2274 -11.3951 -2.8652 0.0000 41.9375 0.0000
# 6 0.0000 0.0000 0.0000 1.5568 0.0000 17.7980
#
#
#
# Elastic Compliance Matrix: (Units=1/GPa)
#
#
# Indices 1 2 3 4 5 6 
#
# 1 0.018342 -0.003592 -0.006913 0.000000 -0.006796 0.000000
# 2 -0.003592 0.016782 -0.004010 0.000000 0.005333 0.000000
# 3 -0.006913 -0.004010 0.011866 0.000000 0.001737 0.000000
# 4 0.000000 0.000000 0.000000 0.032542 0.000000 -0.002846
# 5 -0.006796 0.005333 0.001737 0.000000 0.027394 0.000000
# 6 0.000000 0.000000 0.000000 -0.002846 0.000000 0.056435
#
#
# Mechanical properties :
#
#
# Convention : Reuss Voigt Hill
#
# Bulk Modulus (GPa) = 55.68184 62.85232 59.26708
# Shear Modulus (GPa) = 25.20427 29.35248 27.27837
#
# Velocity S-wave (km/s) = 3.51878 3.79732 3.66070
# Velocity P-wave (km/s) = 6.62293 7.07834 6.85442
#
# Compressibility (1/GPa) = 0.01795918
#
# Stress axis : x y z
#
# Youngs Moduli (GPa) = 54.52036 59.58667 84.27153
#
# Poissons Ratio (x) = 0.21407 0.58259
# Poissons Ratio (y) = 0.19586 0.33792
# Poissons Ratio (z) = 0.37691 0.23894
#
# Static dielectric constant tensor:
#      x y z
#    x 3.775590 0.000000 0.087770 
#    y 0.000000 3.646880 0.000000 
#    z 0.087770 0.000000 3.841780 
# 
# 
# High freq. dielectric constant tensor:
#      x y z
#    x 1.798320 0.000000 0.007060 
#    y 0.000000 1.771420 0.000000 
#    z 0.007060 0.000000 1.805350 
# 
# From -- ./inp_files/191697.got.cif
#   From: 2010.06.25/outbox.cif.g09.slc.cpg/sg15_96_cif.got.tgz:191697.got - 2010.06.28 07:06:18.
