data_PCOD8137702
_publ_section_title
;
Structure prediction by ZEFSAII (Michael W. Deem and Ramdas Pophale) SiO2 
 PCOD8137702
Probable space group: C 2/C
;
_chemical_formula_sum "Si O2"
_cell_formula_units_Z 64
_cell_length_a 9.058975
_cell_length_b 24.645932
_cell_length_c 14.312888
_cell_angle_alpha 90.000000
_cell_angle_beta 96.860540
_cell_angle_gamma 90.000000
_cell_volume 3172.712928
_symmetry_space_group_name_H-M "C 2/C"
_symmetry_group_IT_number 15
_symmetry_cell_setting 'monoclinic'
loop_
_space_group_symop_operation_xyz
x,y,z
-x,y,1/2-z
-x,-y,-z
x,-y,1/2+z
1/2+x,1/2+y,z
1/2-x,1/2+y,1/2-z
1/2-x,1/2-y,-z
1/2+x,1/2-y,1/2+z
loop_
_atom_site_type_symbol
_atom_site_label
_atom_site_fract_x
_atom_site_fract_y
_atom_site_fract_z
Si Si1 0.449223 0.526083 0.648410
Si Si2 0.670783 0.668008 0.251488
Si Si3 0.815651 0.196659 0.044781
Si Si4 0.283177 0.092216 0.985914
Si Si5 0.614290 0.906870 0.493137
Si Si6 0.730654 0.002663 0.875141
Si Si7 0.163356 0.202784 0.049741
Si Si8 0.727824 0.945173 0.690326
O O1 0.500000 0.552858 0.750000
O O2 0.320691 0.564509 0.599213
O O3 0.594759 0.517122 0.596181
O O4 0.384604 0.465292 0.659435
O O5 0.500000 0.651845 0.250000
O O6 0.714756 0.701218 0.346861
O O7 0.707807 0.704444 0.163263
O O8 0.760241 0.611621 0.254192
O O9 0.986347 0.201859 0.027362
O O10 0.750000 0.250000 0.000000
O O11 0.732718 0.142661 0.000002
O O12 0.445224 0.111538 0.961725
O O13 0.203721 0.145716 0.011432
O O14 0.306956 0.051315 0.072118
O O15 0.643326 0.946384 0.408700
O O16 0.618390 0.939021 0.593193
O O17 0.680757 0.990921 0.763521
O O18 0.250000 0.250000 0.000000
#
# Coordination Sequence:
#
# PCOD8137702 Si02
#       8
#     8   8   8   8   8   8   8   8
#     4  10  22  37  60  91 125 164 214 252 308 380
#     4   9  18  36  63  92 118 156 204 258 308 367
#     4  10  22  43  68  90 125 162 209 261 320 373
#     4  12  23  39  60  89 131 162 208 256 310 372
#     4  11  24  39  60  94 130 167 207 256 318 378
#     4  11  21  37  62  88 129 165 200 251 316 364
#     4  11  23  41  66  95 120 164 214 263 311 368
#     4  10  20  36  61  93 125 159 212 254 308 376
#
# _framework density 20.172011000000001
#
# number of rings (size 3 to 8) (size 9 to 14) (size 15 to 20)
#    0.000    1.500    2.500    3.375    3.500    0.500 
#    2.250    5.625    0.000    0.000    0.000    0.000 
#    0.000    0.000    0.000    0.000    0.000    0.000 
#
# Total GULP energy -396522.736841 kJ/mol
# GULP energy per Si atom -12391.335526 kJ/mol
# Density = 2.012610 g / cm^3
# Si number density = 20.172011 Si / 1000 Ang^3
#
#
#
# Elastic Constant Matrix: (Units=GPa)
#
#
# Indices 1 2 3 4 5 6 
#
# 1 123.9760 52.0991 47.3715 0.0000 -3.6147 0.0000
# 2 52.0991 120.5766 61.0515 0.0000 -6.8870 0.0000
# 3 47.3715 61.0515 86.2327 0.0000 -9.0149 0.0000
# 4 0.0000 0.0000 0.0000 488.6678 0.0000 -65.0545
# 5 -3.6147 -6.8870 -9.0149 0.0000 24.8126 0.0000
# 6 0.0000 0.0000 0.0000 -65.0545 0.0000 46.1160
#
#
#
# Elastic Compliance Matrix: (Units=1/GPa)
#
#
# Indices 1 2 3 4 5 6 
#
# 1 0.010706 -0.002573 -0.004128 0.000000 -0.000654 0.000000
# 2 -0.002573 0.013548 -0.008133 0.000000 0.000431 0.000000
# 3 -0.004128 -0.008133 0.020086 0.000000 0.004439 0.000000
# 4 0.000000 0.000000 0.000000 0.002520 0.000000 0.003554
# 5 -0.000654 0.000431 0.004439 0.000000 0.041939 0.000000
# 6 0.000000 0.000000 0.000000 0.003554 0.000000 0.026698
#
#
# Mechanical properties :
#
#
# Convention : Reuss Voigt Hill
#
# Bulk Modulus (GPa) = 68.15819 72.42551 70.29185
# Shear Modulus (GPa) = 33.32101 123.27015 78.29558
#
# Velocity S-wave (km/s) = 4.06870 7.82574 6.23684
# Velocity P-wave (km/s) = 7.47892 10.84611 9.31591
#
# Compressibility (1/GPa) = 0.01467175
#
# Stress axis : x y z
#
# Youngs Moduli (GPa) = 93.40992 73.81190 49.78500
#
# Poissons Ratio (x) = 0.18992 0.20550
# Poissons Ratio (y) = 0.24035 0.40491
# Poissons Ratio (z) = 0.38557 0.60033
#
# Static dielectric constant tensor:
#      x y z
#    x 3.209870 0.000000 0.101590 
#    y 0.000000 2.411920 0.000000 
#    z 0.101590 0.000000 4.231200 
# 
# 
# High freq. dielectric constant tensor:
#      x y z
#    x 1.796660 0.000000 -0.000630 
#    y 0.000000 1.768810 0.000000 
#    z -0.000630 0.000000 1.790900 
# 
# From -- ./inp_files/137858.got.cif
#   From: 2010.06.25/outbox.cif.g09.slc.cpg/sg15_69_cif.got.tgz:137858.got - 2010.06.28 07:06:18.
