data_PCOD8137639
_publ_section_title
;
Structure prediction by ZEFSAII (Michael W. Deem and Ramdas Pophale) SiO2 
 PCOD8137639
Probable space group: C 2/C
;
_chemical_formula_sum "Si O2"
_cell_formula_units_Z 60
_cell_length_a 14.753100
_cell_length_b 12.570933
_cell_length_c 16.117515
_cell_angle_alpha 90.000000
_cell_angle_beta 117.441419
_cell_angle_gamma 90.000000
_cell_volume 2652.825400
_symmetry_space_group_name_H-M "C 2/C"
_symmetry_group_IT_number 15
_symmetry_cell_setting 'monoclinic'
loop_
_space_group_symop_operation_xyz
x,y,z
-x,y,1/2-z
-x,-y,-z
x,-y,1/2+z
1/2+x,1/2+y,z
1/2-x,1/2+y,1/2-z
1/2-x,1/2-y,-z
1/2+x,1/2-y,1/2+z
loop_
_atom_site_type_symbol
_atom_site_label
_atom_site_fract_x
_atom_site_fract_y
_atom_site_fract_z
Si Si1 0.110983 0.736527 0.184531
Si Si2 0.096502 0.771833 0.997541
Si Si3 0.790994 0.340971 0.336859
Si Si4 0.324246 0.437672 0.070968
Si Si5 0.199035 0.391358 0.433951
Si Si6 0.195010 0.475150 0.775001
Si Si7 0.607841 0.635086 0.080746
Si Si8 0.500000 0.601362 0.750000
O O1 0.072247 0.714979 0.074843
O O2 0.222518 0.790516 0.234895
O O3 0.119674 0.625366 0.237695
O O4 0.034065 0.819538 0.191924
O O5 0.207371 0.821302 0.057921
O O6 0.106013 0.682236 0.929231
O O7 0.014374 0.870503 0.948643
O O8 0.731981 0.345919 0.400000
O O9 0.823570 0.456356 0.316217
O O10 0.882899 0.260838 0.394141
O O11 0.415927 0.474991 0.171570
O O12 0.244259 0.533135 0.025377
O O13 0.367596 0.390276 0.004067
O O14 0.157465 0.461186 0.340203
O O15 0.315848 0.438915 0.832571
#
# Coordination Sequence:
#
# PCOD8137639 Si02
#       8
#     8   8   8   8   8   8   8   4
#     4  10  20  37  61  86 122 156 202 257 312 360
#     4  11  21  41  61  88 126 163 204 259 317 368
#     4  10  20  38  62  87 123 160 204 252 313 368
#     4  10  20  37  62  92 121 162 207 258 312 365
#     4  10  23  39  61  86 126 168 203 254 320 380
#     4  10  21  40  62  89 123 171 207 252 316 379
#     4  10  22  38  64  91 122 163 210 259 307 376
#     4  10  20  36  60  94 122 152 212 272 298 358
#
# _framework density 22.617395999999999
#
# number of rings (size 3 to 8) (size 9 to 14) (size 15 to 20)
#    0.000    1.867    2.667    1.200    0.000    5.333 
#    2.400    1.333    0.000    0.000    0.000    0.000 
#    0.000    0.000    0.000    0.000    0.000    0.000 
#
# Total GULP energy -371666.252127 kJ/mol
# GULP energy per Si atom -12388.875071 kJ/mol
# Density = 2.256592 g / cm^3
# Si number density = 22.617396 Si / 1000 Ang^3
#
#
#
# Elastic Constant Matrix: (Units=GPa)
#
#
# Indices 1 2 3 4 5 6 
#
# 1 41.9497 -2.5637 12.8505 0.0000 -17.0754 0.0000
# 2 -2.5637 75.2977 26.5713 0.0000 -13.8868 0.0000
# 3 12.8505 26.5713 70.3309 0.0000 -17.9623 0.0000
# 4 0.0000 0.0000 0.0000 37.6772 0.0000 -7.0015
# 5 -17.0754 -13.8868 -17.9623 0.0000 19.0281 0.0000
# 6 0.0000 0.0000 0.0000 -7.0015 0.0000 18.4668
#
#
#
# Elastic Compliance Matrix: (Units=1/GPa)
#
#
# Indices 1 2 3 4 5 6 
#
# 1 0.043175 0.009926 0.000140 0.000000 0.046121 0.000000
# 2 0.009926 0.018472 -0.004051 0.000000 0.018564 0.000000
# 3 0.000140 -0.004051 0.019766 0.000000 0.015828 0.000000
# 4 0.000000 0.000000 0.000000 0.028553 0.000000 0.010826
# 5 0.046121 0.018564 0.015828 0.000000 0.122431 0.000000
# 6 0.000000 0.000000 0.000000 0.010826 0.000000 0.058256
#
#
# Mechanical properties :
#
#
# Convention : Reuss Voigt Hill
#
# Bulk Modulus (GPa) = 10.70166 29.03272 19.86719
# Shear Modulus (GPa) = 16.14103 25.08243 20.61173
#
# Velocity S-wave (km/s) = 2.67433 3.33376 3.02209
# Velocity P-wave (km/s) = 3.77862 5.26146 4.58044
#
# Compressibility (1/GPa) = 0.09344344
#
# Stress axis : x y z
#
# Youngs Moduli (GPa) = 23.16158 54.13639 50.59222
#
# Poissons Ratio (x) = -0.53738 -0.00710
# Poissons Ratio (y) = -0.22991 0.20496
# Poissons Ratio (z) = -0.00325 0.21932
#
# Static dielectric constant tensor:
#      x y z
#    x 3.987790 0.000000 0.117850 
#    y 0.000000 4.110740 0.000000 
#    z 0.117850 0.000000 4.063150 
# 
# 
# High freq. dielectric constant tensor:
#      x y z
#    x 1.869760 0.000000 -0.004170 
#    y 0.000000 1.884700 0.000000 
#    z -0.004170 0.000000 1.895070 
# 
# From -- ./inp_files/154031.got.cif
#   From: 2010.06.25/outbox.cif.g09.slc.cpg/sg15_78_cif.got.tgz:154031.got - 2010.06.28 07:06:18.
