data_PCOD8137258
_publ_section_title
;
Structure prediction by ZEFSAII (Michael W. Deem and Ramdas Pophale) SiO2 
 PCOD8137258
Probable space group: C 2/C
;
_chemical_formula_sum "Si O2"
_cell_formula_units_Z 60
_cell_length_a 8.049445
_cell_length_b 25.668660
_cell_length_c 21.323062
_cell_angle_alpha 90.000000
_cell_angle_beta 42.742747
_cell_angle_gamma 90.000000
_cell_volume 2990.208929
_symmetry_space_group_name_H-M "C 2/C"
_symmetry_group_IT_number 15
_symmetry_cell_setting 'monoclinic'
loop_
_space_group_symop_operation_xyz
x,y,z
-x,y,1/2-z
-x,-y,-z
x,-y,1/2+z
1/2+x,1/2+y,z
1/2-x,1/2+y,1/2-z
1/2-x,1/2-y,-z
1/2+x,1/2-y,1/2+z
loop_
_atom_site_type_symbol
_atom_site_label
_atom_site_fract_x
_atom_site_fract_y
_atom_site_fract_z
Si Si1 0.385960 0.829486 0.414975
Si Si2 0.150780 0.186499 0.453633
Si Si3 0.207732 0.586038 0.143508
Si Si4 0.582238 0.047854 0.041131
Si Si5 0.500000 0.864164 0.250000
Si Si6 0.535148 0.621439 0.606006
Si Si7 0.663716 0.715106 0.648747
Si Si8 0.757183 0.565642 0.022664
O O1 0.501451 0.830082 0.312852
O O2 0.558493 0.793957 0.408504
O O3 0.359669 0.887148 0.452211
O O4 0.128532 0.799912 0.485534
O O5 0.255472 0.148198 0.370618
O O6 0.152898 0.156555 0.518572
O O7 0.316374 0.239060 0.409291
O O8 0.108698 0.566758 0.104315
O O9 0.465083 0.559811 0.093522
O O10 0.000000 0.570800 0.250000
O O11 0.332708 0.069366 0.076178
O O12 0.804290 0.069408 0.935079
O O13 0.599452 0.985710 0.040014
O O14 0.753081 0.897278 0.175390
O O15 0.546078 0.659909 0.661992
O O16 0.500000 0.737697 0.750000
#
# Coordination Sequence:
#
# PCOD8137258 Si02
#       8
#     8   8   8   8   4   8   8   8
#     4  10  20  37  57  81 115 149 192 234 294 340
#     4   9  21  36  57  77 113 155 186 231 282 352
#     4  10  21  39  59  86 117 153 194 243 296 338
#     4  10  21  40  62  84 116 157 198 238 291 357
#     4  10  20  36  54  86 118 148 182 254 288 340
#     4  10  20  37  57  81 115 149 192 234 294 340
#     4  12  20  33  57  86 112 143 191 237 285 338
#     4  10  21  40  62  84 116 157 198 238 291 357
#
# _framework density 20.065487999999998
#
# number of rings (size 3 to 8) (size 9 to 14) (size 15 to 20)
#    0.000    1.867    2.667    2.400    0.000    0.533 
#    4.800    0.000    0.000    0.000    0.000    0.000 
#    0.000    0.000    0.000    0.000    0.000    0.000 
#
# Total GULP energy -371681.462081 kJ/mol
# GULP energy per Si atom -12389.382069 kJ/mol
# Density = 2.001982 g / cm^3
# Si number density = 20.065488 Si / 1000 Ang^3
#
#
#
# Elastic Constant Matrix: (Units=GPa)
#
#
# Indices 1 2 3 4 5 6 
#
# 1 113.2254 4.9811 31.9215 0.0000 5.9495 0.0000
# 2 4.9811 61.4842 25.3203 0.0000 0.0565 0.0000
# 3 31.9215 25.3203 99.7850 0.0000 4.8063 0.0000
# 4 0.0000 0.0000 0.0000 16.0609 0.0000 0.7247
# 5 5.9495 0.0565 4.8063 0.0000 21.5112 0.0000
# 6 0.0000 0.0000 0.0000 0.7247 0.0000 25.0764
#
#
#
# Elastic Compliance Matrix: (Units=1/GPa)
#
#
# Indices 1 2 3 4 5 6 
#
# 1 0.009809 0.000513 -0.003172 0.000000 -0.002006 0.000000
# 2 0.000513 0.018210 -0.004828 0.000000 0.000889 0.000000
# 3 -0.003172 -0.004828 0.012351 0.000000 -0.001870 0.000000
# 4 0.000000 0.000000 0.000000 0.062344 0.000000 -0.001802
# 5 -0.002006 0.000889 -0.001870 0.000000 0.047458 0.000000
# 6 0.000000 0.000000 0.000000 -0.001802 0.000000 0.039930
#
#
# Mechanical properties :
#
#
# Convention : Reuss Voigt Hill
#
# Bulk Modulus (GPa) = 39.37299 44.32673 41.84986
# Shear Modulus (GPa) = 23.41475 26.68114 25.04795
#
# Velocity S-wave (km/s) = 3.41972 3.65047 3.53698
# Velocity P-wave (km/s) = 5.93780 6.31719 6.13043
#
# Compressibility (1/GPa) = 0.02539812
#
# Stress axis : x y z
#
# Youngs Moduli (GPa) = 101.94833 54.91449 80.96349
#
# Poissons Ratio (x) = -0.02819 0.25678
# Poissons Ratio (y) = -0.05233 0.39088
# Poissons Ratio (z) = 0.32333 0.26512
#
# Static dielectric constant tensor:
#      x y z
#    x 3.893460 0.000000 -0.035910 
#    y 0.000000 3.479500 0.000000 
#    z -0.035910 0.000000 3.542930 
# 
# 
# High freq. dielectric constant tensor:
#      x y z
#    x 1.795190 0.000000 -0.002870 
#    y 0.000000 1.768750 0.000000 
#    z -0.002870 0.000000 1.771330 
# 
# From -- ./inp_files/234762.got.cif
#   From: 2010.06.25/outbox.cif.g09.slc.cpg/sg15_118_cif.got.tgz:234762.got - 2010.06.28 07:06:18.
