data_PCOD8137959
_publ_section_title
;
Structure prediction by ZEFSAII (Michael W. Deem and Ramdas Pophale) SiO2 
 PCOD8137959
Probable space group: C 2/C
;
_chemical_formula_sum "Si O2"
_cell_formula_units_Z 56
_cell_length_a 24.764135
_cell_length_b 13.851707
_cell_length_c 9.931636
_cell_angle_alpha 90.000000
_cell_angle_beta 61.900817
_cell_angle_gamma 90.000000
_cell_volume 3005.256943
_symmetry_space_group_name_H-M "C 2/C"
_symmetry_group_IT_number 15
_symmetry_cell_setting 'monoclinic'
loop_
_space_group_symop_operation_xyz
x,y,z
-x,y,1/2-z
-x,-y,-z
x,-y,1/2+z
1/2+x,1/2+y,z
1/2-x,1/2+y,1/2-z
1/2-x,1/2-y,-z
1/2+x,1/2-y,1/2+z
loop_
_atom_site_type_symbol
_atom_site_label
_atom_site_fract_x
_atom_site_fract_y
_atom_site_fract_z
Si Si1 0.325488 0.695481 0.319184
Si Si2 0.957834 0.504214 0.178567
Si Si3 0.255939 0.638305 0.663729
Si Si4 0.431264 0.203370 0.818579
Si Si5 0.194250 0.186597 0.615558
Si Si6 0.734792 0.419742 0.828248
Si Si7 0.631107 0.161056 0.322719
O O1 0.297367 0.680794 0.498032
O O2 0.303393 0.792619 0.266378
O O3 0.396807 0.717201 0.266594
O O4 0.309184 0.600617 0.249536
O O5 0.930278 0.400255 0.246960
O O6 0.900698 0.573210 0.216616
O O7 0.000000 0.544620 0.250000
O O8 0.000000 0.500000 0.000000
O O9 0.292204 0.637163 0.759337
O O10 0.239610 0.525907 0.669474
O O11 0.500000 0.242588 0.750000
O O12 0.402064 0.189799 0.000602
O O13 0.250000 0.250000 0.500000
O O14 0.189244 0.106100 0.505816
O O15 0.132590 0.250364 0.712547
O O16 0.796638 0.357534 0.731613
#
# Coordination Sequence:
#
# PCOD8137959 Si02
#       7
#     8   8   8   8   8   8   8
#     4  11  21  38  62  90 118 163 209 241 308 382
#     4  11  22  38  58  90 124 164 211 241 299 377
#     4  11  20  37  60  88 126 156 197 247 312 369
#     4  11  22  39  60  84 122 166 205 246 299 363
#     4  10  20  37  52  85 124 152 191 249 302 354
#     4  11  23  37  61  95 120 159 199 257 315 358
#     4  11  20  39  57  83 131 157 190 259 297 365
#
# _framework density 18.634014000000001
#
# number of rings (size 3 to 8) (size 9 to 14) (size 15 to 20)
#    0.000    1.143    7.143    2.571    0.000    3.429 
#    0.000    0.000    0.000    0.857    0.000    0.000 
#    0.000    0.000    0.000    0.000    0.000    0.000 
#
# Total GULP energy -346865.468339 kJ/mol
# GULP energy per Si atom -12388.052441 kJ/mol
# Density = 1.859160 g / cm^3
# Si number density = 18.634014 Si / 1000 Ang^3
#
#
#
# Elastic Constant Matrix: (Units=GPa)
#
#
# Indices 1 2 3 4 5 6 
#
# 1 109.0611 18.7199 28.1890 0.0000 2.2918 0.0000
# 2 18.7199 57.5035 16.8237 0.0000 -6.2238 0.0000
# 3 28.1890 16.8237 114.0302 0.0000 3.1551 0.0000
# 4 0.0000 0.0000 0.0000 18.5143 0.0000 9.1453
# 5 2.2918 -6.2238 3.1551 0.0000 27.8730 0.0000
# 6 0.0000 0.0000 0.0000 9.1453 0.0000 35.8934
#
#
#
# Elastic Compliance Matrix: (Units=1/GPa)
#
#
# Indices 1 2 3 4 5 6 
#
# 1 0.010221 -0.002856 -0.002071 0.000000 -0.001244 0.000000
# 2 -0.002856 0.019521 -0.002308 0.000000 0.004855 0.000000
# 3 -0.002071 -0.002308 0.009662 0.000000 -0.001439 0.000000
# 4 0.000000 0.000000 0.000000 0.061789 0.000000 -0.015743
# 5 -0.001244 0.004855 -0.001439 0.000000 0.037226 0.000000
# 6 0.000000 0.000000 0.000000 -0.015743 0.000000 0.031872
#
#
# Mechanical properties :
#
#
# Convention : Reuss Voigt Hill
#
# Bulk Modulus (GPa) = 40.10747 45.34002 42.72374
# Shear Modulus (GPa) = 25.89713 30.91361 28.40537
#
# Velocity S-wave (km/s) = 3.73202 4.07749 3.90857
# Velocity P-wave (km/s) = 6.33570 6.82294 6.58383
#
# Compressibility (1/GPa) = 0.02493301
#
# Stress axis : x y z
#
# Youngs Moduli (GPa) = 97.83974 51.22727 103.49912
#
# Poissons Ratio (x) = 0.14631 0.21433
# Poissons Ratio (y) = 0.27944 0.23891
# Poissons Ratio (z) = 0.20261 0.11825
#
# Static dielectric constant tensor:
#      x y z
#    x 3.388490 0.000000 0.224150 
#    y 0.000000 7.867890 0.000000 
#    z 0.224150 0.000000 3.950350 
# 
# 
# High freq. dielectric constant tensor:
#      x y z
#    x 1.698670 0.000000 0.016460 
#    y 0.000000 1.713030 0.000000 
#    z 0.016460 0.000000 1.737410 
# 
# From -- ./inp_files/66153.got.cif
#   From: 2010.06.25/outbox.cif.g09.slc.cpg/sg15_34_cif.got.tgz:66153.got - 2010.06.28 07:06:18.
