data_PCOD8137531
_publ_section_title
;
Structure prediction by ZEFSAII (Michael W. Deem and Ramdas Pophale) SiO2 
 PCOD8137531
Probable space group: C 2/C
;
_chemical_formula_sum "Si O2"
_cell_formula_units_Z 48
_cell_length_a 15.068325
_cell_length_b 16.889210
_cell_length_c 8.812499
_cell_angle_alpha 90.000000
_cell_angle_beta 92.732066
_cell_angle_gamma 90.000000
_cell_volume 2240.162257
_symmetry_space_group_name_H-M "C 2/C"
_symmetry_group_IT_number 15
_symmetry_cell_setting 'monoclinic'
loop_
_space_group_symop_operation_xyz
x,y,z
-x,y,1/2-z
-x,-y,-z
x,-y,1/2+z
1/2+x,1/2+y,z
1/2-x,1/2+y,1/2-z
1/2-x,1/2-y,-z
1/2+x,1/2-y,1/2+z
loop_
_atom_site_type_symbol
_atom_site_label
_atom_site_fract_x
_atom_site_fract_y
_atom_site_fract_z
Si Si1 0.699047 0.454208 0.962434
Si Si2 0.980342 0.089511 0.914332
Si Si3 0.140369 0.917096 0.632690
Si Si4 0.815926 0.683215 0.563054
Si Si5 0.668239 0.762968 0.105271
Si Si6 0.501083 0.225459 0.079597
O O1 0.663333 0.459246 0.790482
O O2 0.623735 0.414061 0.060985
O O3 0.712912 0.545877 0.019683
O O4 0.787387 0.402290 0.994489
O O5 0.008767 0.180817 0.914435
O O6 0.000000 0.053056 0.750000
O O7 0.044382 0.052269 0.054715
O O8 0.141511 0.824242 0.661123
O O9 0.750000 0.750000 0.500000
O O10 0.810941 0.683922 0.745834
O O11 0.914363 0.698007 0.509572
O O12 0.750000 0.750000 0.000000
O O13 0.587435 0.805808 0.012085
O O14 0.500000 0.189864 0.250000
#
# Coordination Sequence:
#
# PCOD8137531 Si02
#       6
#     8   8   8   8   8   8
#     4  12  24  38  61  88 132 166 208 253 316 386
#     4  10  20  36  59  88 129 167 204 251 313 380
#     4  11  24  38  57  89 126 169 206 255 315 370
#     4  12  22  40  63  94 127 167 208 256 313 374
#     4  11  24  40  67  93 123 160 214 265 315 367
#     4  10  21  38  63  94 126 160 210 262 312 366
#
# _framework density 21.427021
#
# number of rings (size 3 to 8) (size 9 to 14) (size 15 to 20)
#    0.000    1.000    3.333    3.500    7.000    2.667 
#    0.000    0.000    0.000    1.000    0.000    0.000 
#    0.000    0.000    0.000    0.000    0.000    0.000 
#
# Total GULP energy -297528.685041 kJ/mol
# GULP energy per Si atom -12397.028543 kJ/mol
# Density = 2.137825 g / cm^3
# Si number density = 21.427021 Si / 1000 Ang^3
#
#
#
# Elastic Constant Matrix: (Units=GPa)
#
#
# Indices 1 2 3 4 5 6 
#
# 1 132.6771 3.6905 56.5272 0.0000 3.9522 0.0000
# 2 3.6905 37.5328 12.3693 0.0000 17.6312 0.0000
# 3 56.5272 12.3693 180.5605 0.0000 11.2579 0.0000
# 4 0.0000 0.0000 0.0000 24.4884 0.0000 0.4750
# 5 3.9522 17.6312 11.2579 0.0000 39.9033 0.0000
# 6 0.0000 0.0000 0.0000 0.4750 0.0000 32.5336
#
#
#
# Elastic Compliance Matrix: (Units=1/GPa)
#
#
# Indices 1 2 3 4 5 6 
#
# 1 0.008698 0.000108 -0.002722 0.000000 -0.000141 0.000000
# 2 0.000108 0.033975 -0.001450 0.000000 -0.014614 0.000000
# 3 -0.002722 -0.001450 0.006548 0.000000 -0.000937 0.000000
# 4 0.000000 0.000000 0.000000 0.040847 0.000000 -0.000596
# 5 -0.000141 -0.014614 -0.000937 0.000000 0.031796 0.000000
# 6 0.000000 0.000000 0.000000 -0.000596 0.000000 0.030746
#
#
# Mechanical properties :
#
#
# Convention : Reuss Voigt Hill
#
# Bulk Modulus (GPa) = 24.33437 55.10493 39.71965
# Shear Modulus (GPa) = 28.66379 37.93062 33.29720
#
# Velocity S-wave (km/s) = 3.66148 4.21197 3.94633
# Velocity P-wave (km/s) = 5.40895 7.03047 6.27233
#
# Compressibility (1/GPa) = 0.04109414
#
# Stress axis : x y z
#
# Youngs Moduli (GPa) = 114.97120 29.43299 152.71572
#
# Poissons Ratio (x) = -0.00318 0.41563
# Poissons Ratio (y) = -0.01243 0.22146
# Poissons Ratio (z) = 0.31290 0.04268
#
# Static dielectric constant tensor:
#      x y z
#    x 3.834430 0.000000 0.196460 
#    y 0.000000 3.903580 0.000000 
#    z 0.196460 0.000000 4.228550 
# 
# 
# High freq. dielectric constant tensor:
#      x y z
#    x 1.824760 0.000000 0.011230 
#    y 0.000000 1.819760 0.000000 
#    z 0.011230 0.000000 1.867250 
# 
# From -- ./inp_files/39622.got.cif
#   From: 2010.06.25/outbox.cif.g09.slc.cpg/sg15_20_cif.got.tgz:39622.got - 2010.06.28 07:06:18.
