data_PCOD8137894
_publ_section_title
;
Structure prediction by ZEFSAII (Michael W. Deem and Ramdas Pophale) SiO2 
 PCOD8137894
Probable space group: C 2/C
;
_chemical_formula_sum "Si O2"
_cell_formula_units_Z 64
_cell_length_a 19.972265
_cell_length_b 14.006687
_cell_length_c 11.730791
_cell_angle_alpha 90.000000
_cell_angle_beta 110.235453
_cell_angle_gamma 90.000000
_cell_volume 3079.088145
_symmetry_space_group_name_H-M "C 2/C"
_symmetry_group_IT_number 15
_symmetry_cell_setting 'monoclinic'
loop_
_space_group_symop_operation_xyz
x,y,z
-x,y,1/2-z
-x,-y,-z
x,-y,1/2+z
1/2+x,1/2+y,z
1/2-x,1/2+y,1/2-z
1/2-x,1/2-y,-z
1/2+x,1/2-y,1/2+z
loop_
_atom_site_type_symbol
_atom_site_label
_atom_site_fract_x
_atom_site_fract_y
_atom_site_fract_z
Si Si1 0.166448 0.651196 0.737342
Si Si2 0.220938 0.516394 0.137777
Si Si3 0.914741 0.817537 0.428709
Si Si4 0.818999 0.305483 0.009412
Si Si5 0.800375 0.245059 0.698833
Si Si6 0.631422 0.472675 0.645942
Si Si7 0.225419 0.106316 0.019966
Si Si8 0.542501 0.702371 0.155798
O O1 0.163797 0.548803 0.672267
O O2 0.157744 0.633352 0.867045
O O3 0.241924 0.702715 0.752740
O O4 0.100389 0.716525 0.661433
O O5 0.297701 0.507067 0.240653
O O6 0.191801 0.624712 0.106896
O O7 0.230457 0.477234 0.014864
O O8 0.874022 0.779356 0.516828
O O9 0.879751 0.760202 0.300962
O O10 0.995813 0.794915 0.511536
O O11 0.909719 0.929459 0.401493
O O12 0.750000 0.250000 0.000000
O O13 0.800817 0.185960 0.582738
O O14 0.777763 0.352507 0.650442
O O15 0.653516 0.432014 0.535898
O O16 0.580889 0.400727 0.686045
O O17 0.500000 0.719123 0.250000
#
# Coordination Sequence:
#
# PCOD8137894 Si02
#       8
#     8   8   8   8   8   8   8   8
#     4  11  21  44  64  96 131 172 228 279 328 388
#     4  11  23  38  72 103 124 166 231 291 332 381
#     4  12  24  40  60  98 133 177 221 266 331 410
#     4  12  21  37  67  99 131 173 226 280 328 392
#     4  10  20  39  64  90 128 172 222 273 325 385
#     4  12  23  41  63 101 136 171 219 276 337 407
#     4  10  20  36  65  93 129 164 214 284 334 367
#     4  12  27  43  67  95 143 186 214 263 346 409
#
# _framework density 20.785374999999998
#
# number of rings (size 3 to 8) (size 9 to 14) (size 15 to 20)
#    0.000    0.750    6.250    3.375    1.750    0.000 
#    0.000    1.250    0.000    0.000    0.000    0.000 
#    0.000    0.000    0.000    0.000    0.000    0.000 
#
# Total GULP energy -396625.390994 kJ/mol
# GULP energy per Si atom -12394.543469 kJ/mol
# Density = 2.073807 g / cm^3
# Si number density = 20.785375 Si / 1000 Ang^3
#
#
#
# Elastic Constant Matrix: (Units=GPa)
#
#
# Indices 1 2 3 4 5 6 
#
# 1 65.2489 36.4647 33.1881 0.0000 14.2997 0.0000
# 2 36.4647 96.3885 21.5515 0.0000 15.7559 0.0000
# 3 33.1881 21.5515 113.9169 0.0000 18.8881 0.0000
# 4 0.0000 0.0000 0.0000 26.0783 0.0000 2.6187
# 5 14.2997 15.7559 18.8881 0.0000 39.5005 0.0000
# 6 0.0000 0.0000 0.0000 2.6187 0.0000 33.0046
#
#
#
# Elastic Compliance Matrix: (Units=1/GPa)
#
#
# Indices 1 2 3 4 5 6 
#
# 1 0.022201 -0.006854 -0.004662 0.000000 -0.003074 0.000000
# 2 -0.006854 0.013450 -0.000076 0.000000 -0.002847 0.000000
# 3 -0.004662 -0.000076 0.010715 0.000000 -0.003406 0.000000
# 4 0.000000 0.000000 0.000000 0.038654 0.000000 -0.003067
# 5 -0.003074 -0.002847 -0.003406 0.000000 0.029194 0.000000
# 6 0.000000 0.000000 0.000000 -0.003067 0.000000 0.030542
#
#
# Mechanical properties :
#
#
# Convention : Reuss Voigt Hill
#
# Bulk Modulus (GPa) = 43.13300 50.88475 47.00888
# Shear Modulus (GPa) = 28.46293 32.00666 30.23480
#
# Velocity S-wave (km/s) = 3.70452 3.92837 3.81808
# Velocity P-wave (km/s) = 6.25257 6.71642 6.48864
#
# Compressibility (1/GPa) = 0.02318410
#
# Stress axis : x y z
#
# Youngs Moduli (GPa) = 45.04270 74.34935 93.32301
#
# Poissons Ratio (x) = 0.50960 0.43503
# Poissons Ratio (y) = 0.30873 0.00705
# Poissons Ratio (z) = 0.20997 0.00562
#
# Static dielectric constant tensor:
#      x y z
#    x 3.477520 0.000000 -0.204350 
#    y 0.000000 3.882360 0.000000 
#    z -0.204350 0.000000 4.688720 
# 
# 
# High freq. dielectric constant tensor:
#      x y z
#    x 1.776810 0.000000 -0.008120 
#    y 0.000000 1.820720 0.000000 
#    z -0.008120 0.000000 1.833760 
# 
# From -- ./inp_files/112751.got.cif
#   From: 2010.06.25/outbox.cif.g09.slc.cpg/sg15_57_cif.got.tgz:112751.got - 2010.06.28 07:06:18.
