data_PCOD8137628
_publ_section_title
;
Structure prediction by ZEFSAII (Michael W. Deem and Ramdas Pophale) SiO2 
 PCOD8137628
Probable space group: C 2/C
;
_chemical_formula_sum "Si O2"
_cell_formula_units_Z 56
_cell_length_a 18.124373
_cell_length_b 19.297439
_cell_length_c 8.809323
_cell_angle_alpha 90.000000
_cell_angle_beta 67.998431
_cell_angle_gamma 90.000000
_cell_volume 2856.710673
_symmetry_space_group_name_H-M "C 2/C"
_symmetry_group_IT_number 15
_symmetry_cell_setting 'monoclinic'
loop_
_space_group_symop_operation_xyz
x,y,z
-x,y,1/2-z
-x,-y,-z
x,-y,1/2+z
1/2+x,1/2+y,z
1/2-x,1/2+y,1/2-z
1/2-x,1/2-y,-z
1/2+x,1/2-y,1/2+z
loop_
_atom_site_type_symbol
_atom_site_label
_atom_site_fract_x
_atom_site_fract_y
_atom_site_fract_z
Si Si1 0.368657 0.944011 0.017853
Si Si2 0.875524 0.588186 0.169211
Si Si3 0.546829 0.684107 0.369853
Si Si4 0.968426 0.933554 0.111837
Si Si5 0.983344 0.659974 0.586883
Si Si6 0.304855 0.405458 0.711765
Si Si7 0.310812 0.457067 0.370485
O O1 0.414323 0.892175 0.092376
O O2 0.275315 0.927510 0.108525
O O3 0.387516 0.022460 0.050768
O O4 0.396554 0.934746 0.823558
O O5 0.786540 0.619582 0.227949
O O6 0.936139 0.647589 0.070452
O O7 0.500000 0.675323 0.250000
O O8 0.500650 0.638490 0.526744
O O9 0.546970 0.762911 0.425779
O O10 0.638570 0.659003 0.289620
O O11 0.873076 0.924832 0.202440
O O12 0.000000 0.950670 0.250000
O O13 0.000000 0.000000 0.000000
O O14 0.000000 0.649071 0.750000
O O15 0.331119 0.440118 0.530623
O O16 0.313239 0.459978 0.843147
#
# Coordination Sequence:
#
# PCOD8137628 Si02
#       7
#     8   8   8   8   8   8   8
#     4  10  21  39  66  93 118 152 195 252 303 357
#     4  10  21  40  68  93 118 153 196 251 304 356
#     4  11  25  41  57  83 122 167 204 242 296 355
#     4  12  21  35  60  86 121 161 202 247 294 348
#     4  11  24  44  59  86 122 160 202 247 301 362
#     4  10  21  39  60  92 122 153 198 250 298 355
#     4  10  20  36  60  92 119 150 199 245 300 347
#
# _framework density 19.602965999999999
#
# number of rings (size 3 to 8) (size 9 to 14) (size 15 to 20)
#    0.000    1.429    2.857    2.143    2.000    2.286 
#    2.571    2.857    0.000    0.000    0.000    0.000 
#    0.000    0.000    0.000    0.000    0.000    0.000 
#
# Total GULP energy -347183.562444 kJ/mol
# GULP energy per Si atom -12399.412944 kJ/mol
# Density = 1.955835 g / cm^3
# Si number density = 19.602966 Si / 1000 Ang^3
#
#
#
# Elastic Constant Matrix: (Units=GPa)
#
#
# Indices 1 2 3 4 5 6 
#
# 1 115.6106 68.0700 48.8126 0.0000 -14.4654 0.0000
# 2 68.0700 115.3679 47.8438 0.0000 -5.9730 0.0000
# 3 48.8126 47.8438 108.0928 0.0000 -11.4904 0.0000
# 4 0.0000 0.0000 0.0000 30.3316 0.0000 -1.3306
# 5 -14.4654 -5.9730 -11.4904 0.0000 37.4378 0.0000
# 6 0.0000 0.0000 0.0000 -1.3306 0.0000 27.9279
#
#
#
# Elastic Compliance Matrix: (Units=1/GPa)
#
#
# Indices 1 2 3 4 5 6 
#
# 1 0.014601 -0.007169 -0.003041 0.000000 0.003564 0.000000
# 2 -0.007169 0.014139 -0.003179 0.000000 -0.001490 0.000000
# 3 -0.003041 -0.003179 0.012253 0.000000 0.002078 0.000000
# 4 0.000000 0.000000 0.000000 0.033038 0.000000 0.001574
# 5 0.003564 -0.001490 0.002078 0.000000 0.028488 0.000000
# 6 0.000000 0.000000 0.000000 0.001574 0.000000 0.035882
#
#
# Mechanical properties :
#
#
# Convention : Reuss Voigt Hill
#
# Bulk Modulus (GPa) = 70.35573 74.28046 72.31809
# Shear Modulus (GPa) = 29.42596 30.76244 30.09420
#
# Velocity S-wave (km/s) = 3.87860 3.96570 3.92240
# Velocity P-wave (km/s) = 7.48507 7.67749 7.58189
#
# Compressibility (1/GPa) = 0.01421348
#
# Stress axis : x y z
#
# Youngs Moduli (GPa) = 68.48894 70.72553 81.61359
#
# Poissons Ratio (x) = 0.50704 0.24822
# Poissons Ratio (y) = 0.49100 0.25947
# Poissons Ratio (z) = 0.20830 0.22485
#
# Static dielectric constant tensor:
#      x y z
#    x 3.884140 0.000000 -0.088380 
#    y 0.000000 3.414820 0.000000 
#    z -0.088380 0.000000 3.854720 
# 
# 
# High freq. dielectric constant tensor:
#      x y z
#    x 1.785190 0.000000 -0.002960 
#    y 0.000000 1.736510 0.000000 
#    z -0.002960 0.000000 1.775740 
# 
# From -- ./inp_files/48988.got.cif
#   From: 2010.06.25/outbox.cif.g09.slc.cpg/sg15_25_cif.got.tgz:48988.got - 2010.06.28 07:06:18.
