data_PCOD8137566
_publ_section_title
;
Structure prediction by ZEFSAII (Michael W. Deem and Ramdas Pophale) SiO2 
 PCOD8137566
Probable space group: C 2/C
;
_chemical_formula_sum "Si O2"
_cell_formula_units_Z 44
_cell_length_a 6.579302
_cell_length_b 25.740237
_cell_length_c 13.456011
_cell_angle_alpha 90.000000
_cell_angle_beta 109.435631
_cell_angle_gamma 90.000000
_cell_volume 2148.956959
_symmetry_space_group_name_H-M "C 2/C"
_symmetry_group_IT_number 15
_symmetry_cell_setting 'monoclinic'
loop_
_space_group_symop_operation_xyz
x,y,z
-x,y,1/2-z
-x,-y,-z
x,-y,1/2+z
1/2+x,1/2+y,z
1/2-x,1/2+y,1/2-z
1/2-x,1/2-y,-z
1/2+x,1/2-y,1/2+z
loop_
_atom_site_type_symbol
_atom_site_label
_atom_site_fract_x
_atom_site_fract_y
_atom_site_fract_z
Si Si1 0.500000 0.989242 0.750000
Si Si2 0.797846 0.130282 0.983162
Si Si3 0.754824 0.090774 0.421293
Si Si4 0.461370 0.299073 0.130380
Si Si5 0.469882 0.186993 0.055850
Si Si6 0.067086 0.547796 0.577673
O O1 0.328799 0.955217 0.661634
O O2 0.640963 0.024728 0.696401
O O3 0.629388 0.085907 0.926666
O O4 0.879132 0.163067 0.902776
O O5 0.694929 0.170264 0.044010
O O6 0.999635 0.101690 0.068464
O O7 0.610279 0.142392 0.380551
O O8 0.744542 0.077767 0.539509
O O9 0.500000 0.313977 0.250000
O O10 0.523519 0.239180 0.123468
O O11 0.212214 0.305744 0.058842
O O12 0.000000 0.500000 0.500000
#
# Coordination Sequence:
#
# PCOD8137566 Si02
#       6
#     4   8   8   8   8   8
#     4  10  20  36  60  82 114 160 200 250 304 356
#     4  10  20  38  60  82 119 158 193 245 302 350
#     4   9  20  38  59  82 117 154 195 249 300 354
#     4  10  21  36  62  88 118 158 195 241 299 359
#     4   9  20  39  58  86 124 151 192 247 295 356
#     4   9  20  37  54  80 114 150 195 246 288 350
#
# _framework density 20.475048999999999
#
# number of rings (size 3 to 8) (size 9 to 14) (size 15 to 20)
#    0.000    2.545    0.000    0.545    1.273    8.000 
#    0.000   13.636    0.000    0.000    0.000    0.000 
#    0.000    0.000    0.000    0.000    0.000    0.000 
#
# Total GULP energy -272656.705569 kJ/mol
# GULP energy per Si atom -12393.486617 kJ/mol
# Density = 2.042845 g / cm^3
# Si number density = 20.475049 Si / 1000 Ang^3
#
#
#
# Elastic Constant Matrix: (Units=GPa)
#
#
# Indices 1 2 3 4 5 6 
#
# 1 128.8445 40.3034 31.9148 0.0000 -1.9411 0.0000
# 2 40.3034 114.9994 22.6919 0.0000 -8.7268 0.0000
# 3 31.9148 22.6919 70.4432 0.0000 -12.6486 0.0000
# 4 0.0000 0.0000 0.0000 27.6809 0.0000 3.9815
# 5 -1.9411 -8.7268 -12.6486 0.0000 13.8574 0.0000
# 6 0.0000 0.0000 0.0000 3.9815 0.0000 22.9083
#
#
#
# Elastic Compliance Matrix: (Units=1/GPa)
#
#
# Indices 1 2 3 4 5 6 
#
# 1 0.009639 -0.002873 -0.004215 0.000000 -0.004306 0.000000
# 2 -0.002873 0.010306 -0.001106 0.000000 0.005078 0.000000
# 3 -0.004215 -0.001106 0.019412 0.000000 0.016432 0.000000
# 4 0.000000 0.000000 0.000000 0.037052 0.000000 -0.006440
# 5 -0.004306 0.005078 0.016432 0.000000 0.089757 0.000000
# 6 0.000000 0.000000 0.000000 -0.006440 0.000000 0.044771
#
#
# Mechanical properties :
#
#
# Convention : Reuss Voigt Hill
#
# Bulk Modulus (GPa) = 43.53735 56.01191 49.77463
# Shear Modulus (GPa) = 21.27811 27.51447 24.39629
#
# Velocity S-wave (km/s) = 3.22719 3.66977 3.45557
# Velocity P-wave (km/s) = 5.93263 6.73586 6.34697
#
# Compressibility (1/GPa) = 0.02296878
#
# Stress axis : x y z
#
# Youngs Moduli (GPa) = 103.74289 97.02732 51.51396
#
# Poissons Ratio (x) = 0.27879 0.21712
# Poissons Ratio (y) = 0.29809 0.05700
# Poissons Ratio (z) = 0.43725 0.10735
#
# Static dielectric constant tensor:
#      x y z
#    x 3.784550 0.000000 -0.313930 
#    y 0.000000 4.215230 0.000000 
#    z -0.313930 0.000000 3.535370 
# 
# 
# High freq. dielectric constant tensor:
#      x y z
#    x 1.791500 0.000000 -0.016350 
#    y 0.000000 1.832850 0.000000 
#    z -0.016350 0.000000 1.769930 
# 
# From -- ./inp_files/129876.got.cif
#   From: 2010.06.25/outbox.cif.g09.slc.cpg/sg15_65_cif.got.tgz:129876.got - 2010.06.28 07:06:18.
