data_PCOD8137630
_publ_section_title
;
Structure prediction by ZEFSAII (Michael W. Deem and Ramdas Pophale) SiO2 
 PCOD8137630
Probable space group: C 2/C
;
_chemical_formula_sum "Si O2"
_cell_formula_units_Z 48
_cell_length_a 11.057949
_cell_length_b 19.737190
_cell_length_c 11.996109
_cell_angle_alpha 90.000000
_cell_angle_beta 108.067616
_cell_angle_gamma 90.000000
_cell_volume 2489.085248
_symmetry_space_group_name_H-M "C 2/C"
_symmetry_group_IT_number 15
_symmetry_cell_setting 'monoclinic'
loop_
_space_group_symop_operation_xyz
x,y,z
-x,y,1/2-z
-x,-y,-z
x,-y,1/2+z
1/2+x,1/2+y,z
1/2-x,1/2+y,1/2-z
1/2-x,1/2-y,-z
1/2+x,1/2-y,1/2+z
loop_
_atom_site_type_symbol
_atom_site_label
_atom_site_fract_x
_atom_site_fract_y
_atom_site_fract_z
Si Si1 0.583440 0.465884 0.878689
Si Si2 0.060609 0.279436 0.381541
Si Si3 0.254433 0.659455 0.095373
Si Si4 0.102049 0.756986 0.455865
Si Si5 0.869840 0.351071 0.710522
Si Si6 0.120242 0.096522 0.016007
O O1 0.500000 0.486566 0.750000
O O2 0.702133 0.418122 0.882971
O O3 0.494194 0.425965 0.938049
O O4 0.646997 0.534870 0.940503
O O5 0.170395 0.329267 0.459820
O O6 0.121598 0.206790 0.370348
O O7 0.000000 0.309479 0.250000
O O8 0.952372 0.271073 0.443135
O O9 0.171396 0.676670 0.180344
O O10 0.250000 0.750000 0.500000
O O11 0.066375 0.711932 0.340003
O O12 0.069803 0.837120 0.435449
O O13 0.751156 0.388518 0.619431
O O14 0.000000 0.398158 0.750000
#
# Coordination Sequence:
#
# PCOD8137630 Si02
#       6
#     8   8   8   8   8   8
#     4  11  21  40  64  87 120 161 207 251 298 367
#     4  11  21  37  60  94 124 158 205 254 302 365
#     4  11  22  38  64  89 122 169 203 244 311 370
#     4  10  20  36  60  92 122 157 198 255 305 353
#     4  11  21  39  63  89 125 164 202 247 314 368
#     4  10  22  38  62  92 119 157 208 253 301 356
#
# _framework density 19.284192000000001
#
# number of rings (size 3 to 8) (size 9 to 14) (size 15 to 20)
#    0.000    1.333    5.000    2.500    0.000    0.667 
#    0.000    8.333    0.000    0.000    0.000    0.000 
#    0.000    0.000    0.000    0.000    0.000    0.000 
#
# Total GULP energy -297390.898921 kJ/mol
# GULP energy per Si atom -12391.287455 kJ/mol
# Density = 1.924030 g / cm^3
# Si number density = 19.284192 Si / 1000 Ang^3
#
#
#
# Elastic Constant Matrix: (Units=GPa)
#
#
# Indices 1 2 3 4 5 6 
#
# 1 90.5745 17.7063 37.3860 0.0000 -4.8158 0.0000
# 2 17.7063 94.0253 47.5485 0.0000 0.1434 0.0000
# 3 37.3860 47.5485 132.0496 0.0000 2.2376 0.0000
# 4 0.0000 0.0000 0.0000 21.3027 0.0000 -0.8999
# 5 -4.8158 0.1434 2.2376 0.0000 41.5172 0.0000
# 6 0.0000 0.0000 0.0000 -0.8999 0.0000 6.7502
#
#
#
# Elastic Compliance Matrix: (Units=1/GPa)
#
#
# Indices 1 2 3 4 5 6 
#
# 1 0.012650 -0.000684 -0.003363 0.000000 0.001651 0.000000
# 2 -0.000684 0.013042 -0.004505 0.000000 0.000118 0.000000
# 3 -0.003363 -0.004505 0.010163 0.000000 -0.000922 0.000000
# 4 0.000000 0.000000 0.000000 0.047208 0.000000 0.006293
# 5 0.001651 0.000118 -0.000922 0.000000 0.024327 0.000000
# 6 0.000000 0.000000 0.000000 0.006293 0.000000 0.148982
#
#
# Mechanical properties :
#
#
# Convention : Reuss Voigt Hill
#
# Bulk Modulus (GPa) = 53.32887 57.99235 55.66061
# Shear Modulus (GPa) = 17.87459 28.18126 23.02793
#
# Velocity S-wave (km/s) = 3.04781 3.82693 3.45937
# Velocity P-wave (km/s) = 6.33244 7.04734 6.69943
#
# Compressibility (1/GPa) = 0.01875157
#
# Stress axis : x y z
#
# Youngs Moduli (GPa) = 79.04915 76.67535 98.39860
#
# Poissons Ratio (x) = 0.05244 0.33094
# Poissons Ratio (y) = 0.05407 0.44324
# Poissons Ratio (z) = 0.26586 0.34539
#
# Static dielectric constant tensor:
#      x y z
#    x 3.642470 0.000000 -0.090480 
#    y 0.000000 3.033830 0.000000 
#    z -0.090480 0.000000 4.241270 
# 
# 
# High freq. dielectric constant tensor:
#      x y z
#    x 1.770940 0.000000 0.000390 
#    y 0.000000 1.721690 0.000000 
#    z 0.000390 0.000000 1.757690 
# 
# From -- ./inp_files/87465.got.cif
#   From: 2010.06.25/outbox.cif.g09.slc.cpg/sg15_44_cif.got.tgz:87465.got - 2010.06.28 07:06:18.
