data_PCOD8137038
_publ_section_title
;
Structure prediction by ZEFSAII (Michael W. Deem and Ramdas Pophale) SiO2 
 PCOD8137038
Probable space group: C 2/C
;
_chemical_formula_sum "Si O2"
_cell_formula_units_Z 48
_cell_length_a 10.269938
_cell_length_b 17.204410
_cell_length_c 18.521047
_cell_angle_alpha 90.000000
_cell_angle_beta 123.189301
_cell_angle_gamma 90.000000
_cell_volume 2738.604686
_symmetry_space_group_name_H-M "C 2/C"
_symmetry_group_IT_number 15
_symmetry_cell_setting 'monoclinic'
loop_
_space_group_symop_operation_xyz
x,y,z
-x,y,1/2-z
-x,-y,-z
x,-y,1/2+z
1/2+x,1/2+y,z
1/2-x,1/2+y,1/2-z
1/2-x,1/2-y,-z
1/2+x,1/2-y,1/2+z
loop_
_atom_site_type_symbol
_atom_site_label
_atom_site_fract_x
_atom_site_fract_y
_atom_site_fract_z
Si Si1 0.406040 0.564577 0.157763
Si Si2 0.871729 0.535122 0.512610
Si Si3 0.333616 0.176580 0.337152
Si Si4 0.355891 0.328056 0.853677
Si Si5 0.600712 0.782239 0.493849
Si Si6 0.594321 0.075912 0.349083
O O1 0.500000 0.517843 0.250000
O O2 0.291200 0.619588 0.166523
O O3 0.519529 0.614039 0.142332
O O4 0.297872 0.512583 0.073039
O O5 0.905615 0.626686 0.526431
O O6 0.871036 0.500467 0.592954
O O7 0.000000 0.500000 0.500000
O O8 0.254000 0.212340 0.241108
O O9 0.379696 0.236958 0.414379
O O10 0.491791 0.133529 0.365325
O O11 0.441541 0.258186 0.920468
O O12 0.252082 0.379103 0.876560
O O13 0.750000 0.750000 0.500000
O O14 0.500000 0.047806 0.250000
#
# Coordination Sequence:
#
# PCOD8137038 Si02
#       6
#     8   8   8   8   8   8
#     4   9  17  33  58  79 109 152 189 219 280 345
#     4  11  20  38  61  83 115 151 189 231 287 340
#     4   9  18  36  58  78 114 151 187 214 291 346
#     4  10  20  35  59  84 111 148 190 233 275 334
#     4  11  20  36  59  86 108 145 195 233 272 332
#     4  10  21  38  59  86 113 152 188 230 286 345
#
# _framework density 17.527173999999999
#
# number of rings (size 3 to 8) (size 9 to 14) (size 15 to 20)
#    0.000    2.000    6.667    0.000    0.000    1.333 
#    3.000    0.000    3.667    0.000    0.000    0.000 
#    0.000    0.000    0.000    0.000    0.000    0.000 
#
# Total GULP energy -297339.771811 kJ/mol
# GULP energy per Si atom -12389.157159 kJ/mol
# Density = 1.748728 g / cm^3
# Si number density = 17.527174 Si / 1000 Ang^3
#
#
#
# Elastic Constant Matrix: (Units=GPa)
#
#
# Indices 1 2 3 4 5 6 
#
# 1 124.9685 44.9903 45.3088 0.0000 0.6013 0.0000
# 2 44.9903 81.6932 63.3898 0.0000 1.4397 0.0000
# 3 45.3088 63.3898 173.1847 0.0000 1.2968 0.0000
# 4 0.0000 0.0000 0.0000 35.5885 0.0000 -0.3077
# 5 0.6013 1.4397 1.2968 0.0000 31.1872 0.0000
# 6 0.0000 0.0000 0.0000 -0.3077 0.0000 23.8010
#
#
#
# Elastic Compliance Matrix: (Units=1/GPa)
#
#
# Indices 1 2 3 4 5 6 
#
# 1 0.010069 -0.004891 -0.000844 0.000000 0.000067 0.000000
# 2 -0.004891 0.019481 -0.005847 0.000000 -0.000562 0.000000
# 3 -0.000844 -0.005847 0.008136 0.000000 -0.000052 0.000000
# 4 0.000000 0.000000 0.000000 0.028102 0.000000 0.000363
# 5 0.000067 -0.000562 -0.000052 0.000000 0.032091 0.000000
# 6 0.000000 0.000000 0.000000 0.000363 0.000000 0.042020
#
#
# Mechanical properties :
#
#
# Convention : Reuss Voigt Hill
#
# Bulk Modulus (GPa) = 68.86582 76.35825 72.61203
# Shear Modulus (GPa) = 29.77905 33.19253 31.48579
#
# Velocity S-wave (km/s) = 4.12639 4.35647 4.24299
# Velocity P-wave (km/s) = 7.87902 8.30454 8.09458
#
# Compressibility (1/GPa) = 0.01452099
#
# Stress axis : x y z
#
# Youngs Moduli (GPa) = 99.31793 51.33150 122.91690
#
# Poissons Ratio (x) = 0.25106 0.10380
# Poissons Ratio (y) = 0.48576 0.71867
# Poissons Ratio (z) = 0.08387 0.30013
#
# Static dielectric constant tensor:
#      x y z
#    x 3.244190 0.000000 0.072450 
#    y 0.000000 2.613100 0.000000 
#    z 0.072450 0.000000 4.223460 
# 
# 
# High freq. dielectric constant tensor:
#      x y z
#    x 1.696300 0.000000 0.000910 
#    y 0.000000 1.623390 0.000000 
#    z 0.000910 0.000000 1.703100 
# 
# From -- ./inp_files/135473.got.cif
#   From: 2010.06.25/outbox.cif.g09.slc.cpg/sg15_68_cif.got.tgz:135473.got - 2010.06.28 07:06:18.
