data_PCOD8137808
_publ_section_title
;
Structure prediction by ZEFSAII (Michael W. Deem and Ramdas Pophale) SiO2 
 PCOD8137808
Probable space group: C 2/C
;
_chemical_formula_sum "Si O2"
_cell_formula_units_Z 48
_cell_length_a 17.820317
_cell_length_b 8.519579
_cell_length_c 21.721702
_cell_angle_alpha 90.000000
_cell_angle_beta 49.803529
_cell_angle_gamma 90.000000
_cell_volume 2518.995609
_symmetry_space_group_name_H-M "C 2/C"
_symmetry_group_IT_number 15
_symmetry_cell_setting 'monoclinic'
loop_
_space_group_symop_operation_xyz
x,y,z
-x,y,1/2-z
-x,-y,-z
x,-y,1/2+z
1/2+x,1/2+y,z
1/2-x,1/2+y,1/2-z
1/2-x,1/2-y,-z
1/2+x,1/2-y,1/2+z
loop_
_atom_site_type_symbol
_atom_site_label
_atom_site_fract_x
_atom_site_fract_y
_atom_site_fract_z
Si Si1 0.859597 0.924919 0.333470
Si Si2 0.857940 0.818132 0.933486
Si Si3 0.570597 0.432217 0.012249
Si Si4 0.499854 0.271731 0.338565
Si Si5 0.491936 0.958031 0.401828
Si Si6 0.638949 0.874748 0.427528
O O1 0.888835 0.792473 0.369195
O O2 0.750970 0.925831 0.364546
O O3 0.929049 0.883626 0.238882
O O4 0.874330 0.094508 0.359110
O O5 0.942410 0.686683 0.892607
O O6 0.867464 0.936723 0.985658
O O7 0.750000 0.750000 0.000000
O O8 0.495608 0.339690 0.095800
O O9 0.500000 0.500000 0.000000
O O10 0.642998 0.309344 0.941118
O O11 0.524011 0.086165 0.332504
O O12 0.588126 0.903555 0.388387
O O13 0.412866 0.027943 0.491016
#
# Coordination Sequence:
#
# PCOD8137808 Si02
#       6
#     8   8   8   8   8   8
#     4  10  21  41  58  86 126 163 195 246 314 364
#     4  11  21  34  64  95 117 149 208 255 296 356
#     4  10  20  37  60  84 119 160 199 245 300 353
#     4   9  22  39  59  80 127 162 195 244 307 363
#     4  10  20  37  60  94 116 154 202 257 294 361
#     4  10  20  36  63  87 123 155 201 249 304 359
#
# _framework density 19.055212999999998
#
# number of rings (size 3 to 8) (size 9 to 14) (size 15 to 20)
#    0.000    2.000    3.333    0.000    2.333    2.000 
#    3.000    6.667    0.000    0.000    0.000    0.000 
#    0.000    0.000    0.000    0.000    0.000    0.000 
#
# Total GULP energy -297350.059767 kJ/mol
# GULP energy per Si atom -12389.585824 kJ/mol
# Density = 1.901184 g / cm^3
# Si number density = 19.055213 Si / 1000 Ang^3
#
#
#
# Elastic Constant Matrix: (Units=GPa)
#
#
# Indices 1 2 3 4 5 6 
#
# 1 145.7091 72.7555 49.1008 0.0000 -12.7769 0.0004
# 2 72.7555 140.8348 42.0127 0.0001 1.6504 0.0009
# 3 49.1008 42.0127 63.1549 0.0000 -1.4556 0.0000
# 4 0.0000 0.0001 0.0000 30.7354 0.0000 5.1370
# 5 -12.7769 1.6504 -1.4556 0.0000 26.3462 0.0000
# 6 0.0004 0.0009 0.0000 5.1370 0.0000 37.6444
#
#
#
# Elastic Compliance Matrix: (Units=1/GPa)
#
#
# Indices 1 2 3 4 5 6 
#
# 1 0.011458 -0.004197 -0.005990 0.000000 0.005489 0.000000
# 2 -0.004197 0.010416 -0.003733 0.000000 -0.002894 0.000000
# 3 -0.005990 -0.003733 0.022942 0.000000 -0.001404 0.000000
# 4 0.000000 0.000000 0.000000 0.033295 0.000000 -0.004543
# 5 0.005489 -0.002894 -0.001404 0.000000 0.040722 0.000000
# 6 0.000000 0.000000 0.000000 -0.004543 0.000000 0.027184
#
#
# Mechanical properties :
#
#
# Convention : Reuss Voigt Hill
#
# Bulk Modulus (GPa) = 58.90383 75.27074 67.08728
# Shear Modulus (GPa) = 27.85255 31.33385 29.59320
#
# Velocity S-wave (km/s) = 3.82733 4.05948 3.94512
# Velocity P-wave (km/s) = 7.10708 7.84600 7.48566
#
# Compressibility (1/GPa) = 0.01697683
#
# Stress axis : x y z
#
# Youngs Moduli (GPa) = 87.27216 96.00523 43.58788
#
# Poissons Ratio (x) = 0.40292 0.26110
# Poissons Ratio (y) = 0.36627 0.16271
# Poissons Ratio (z) = 0.52277 0.35838
#
# Static dielectric constant tensor:
#      x y z
#    x 3.224640 0.000000 0.483110 
#    y 0.000000 3.744220 0.000000 
#    z 0.483110 0.000000 2.766550 
# 
# 
# High freq. dielectric constant tensor:
#      x y z
#    x 1.755150 0.000000 0.008850 
#    y 0.000000 1.750230 0.000000 
#    z 0.008850 0.000000 1.707030 
# 
# From -- ./inp_files/208707.got.cif
#   From: 2010.06.25/outbox.cif.g09.slc.cpg/sg15_105_cif.got.tgz:208707.got - 2010.06.28 07:06:18.
