data_PCOD8137760
_publ_section_title
;
Structure prediction by ZEFSAII (Michael W. Deem and Ramdas Pophale) SiO2 
 PCOD8137760
Probable space group: C 2/C
;
_chemical_formula_sum "Si O2"
_cell_formula_units_Z 56
_cell_length_a 12.805079
_cell_length_b 29.373514
_cell_length_c 8.698039
_cell_angle_alpha 90.000000
_cell_angle_beta 56.919906
_cell_angle_gamma 90.000000
_cell_volume 2741.296804
_symmetry_space_group_name_H-M "C 2/C"
_symmetry_group_IT_number 15
_symmetry_cell_setting 'monoclinic'
loop_
_space_group_symop_operation_xyz
x,y,z
-x,y,1/2-z
-x,-y,-z
x,-y,1/2+z
1/2+x,1/2+y,z
1/2-x,1/2+y,1/2-z
1/2-x,1/2-y,-z
1/2+x,1/2-y,1/2+z
loop_
_atom_site_type_symbol
_atom_site_label
_atom_site_fract_x
_atom_site_fract_y
_atom_site_fract_z
Si Si1 0.624493 0.854666 0.570774
Si Si2 0.500000 0.009854 0.250000
Si Si3 0.612598 0.755012 0.543006
Si Si4 0.858600 0.093568 0.353753
Si Si5 0.500000 0.393671 0.250000
Si Si6 0.826614 0.474962 0.638983
Si Si7 0.271265 0.575726 0.758791
Si Si8 0.146311 0.163112 0.393894
O O1 0.500000 0.872970 0.750000
O O2 0.597329 0.807276 0.499395
O O3 0.665763 0.892354 0.415958
O O4 0.723017 0.844522 0.625951
O O5 0.595659 0.041165 0.271976
O O6 0.421668 0.975931 0.421003
O O7 0.500000 0.743338 0.750000
O O8 0.750000 0.750000 0.500000
O O9 0.607982 0.716580 0.412501
O O10 0.786376 0.058932 0.299326
O O11 0.800271 0.096213 0.568660
O O12 0.850293 0.143286 0.281711
O O13 0.000000 0.075939 0.250000
O O14 0.610076 0.425724 0.223470
O O15 0.460351 0.362482 0.424289
O O16 0.776171 0.524823 0.719206
#
# Coordination Sequence:
#
# PCOD8137760 Si02
#       8
#     8   4   8   8   4   8   8   8
#     4   9  21  38  63  97 122 163 214 262 308 374
#     4  10  24  44  62  85 116 162 215 252 314 386
#     4   9  17  34  62  93 125 159 215 265 309 379
#     4  12  26  42  61  95 132 167 211 269 328 380
#     4  10  20  36  62  91 114 164 209 254 308 382
#     4  11  25  43  63  89 120 169 212 265 322 377
#     4  11  24  40  61  92 126 162 210 266 322 378
#     4  10  20  37  62  90 124 164 209 253 321 374
#
# _framework density 20.428287999999998
#
# number of rings (size 3 to 8) (size 9 to 14) (size 15 to 20)
#    0.000    1.714    3.571    0.000    6.000    1.714 
#    0.000    0.714    0.000    0.000    0.000    0.000 
#    0.000    0.000    0.000    0.000    0.000    0.000 
#
# Total GULP energy -347101.988113 kJ/mol
# GULP energy per Si atom -12396.499575 kJ/mol
# Density = 2.038179 g / cm^3
# Si number density = 20.428288 Si / 1000 Ang^3
#
#
#
# Elastic Constant Matrix: (Units=GPa)
#
#
# Indices 1 2 3 4 5 6 
#
# 1 117.5103 49.7924 49.5729 0.0000 -6.0641 0.0000
# 2 49.7924 104.9856 50.2587 0.0000 1.7123 0.0000
# 3 49.5729 50.2587 126.0638 0.0000 -5.4870 0.0000
# 4 0.0000 0.0000 0.0000 18.3555 0.0000 2.4534
# 5 -6.0641 1.7123 -5.4870 0.0000 38.6439 0.0000
# 6 0.0000 0.0000 0.0000 2.4534 0.0000 21.6380
#
#
#
# Elastic Compliance Matrix: (Units=1/GPa)
#
#
# Indices 1 2 3 4 5 6 
#
# 1 0.011538 -0.004152 -0.002812 0.000000 0.001595 0.000000
# 2 -0.004152 0.013321 -0.003755 0.000000 -0.001775 0.000000
# 3 -0.002812 -0.003755 0.010589 0.000000 0.001229 0.000000
# 4 0.000000 0.000000 0.000000 0.055318 0.000000 -0.006272
# 5 0.001595 -0.001775 0.001229 0.000000 0.026381 0.000000
# 6 0.000000 0.000000 0.000000 -0.006272 0.000000 0.046926
#
#
# Mechanical properties :
#
#
# Convention : Reuss Voigt Hill
#
# Bulk Modulus (GPa) = 71.38429 71.97862 71.68145
# Shear Modulus (GPa) = 26.29065 28.98987 27.64026
#
# Velocity S-wave (km/s) = 3.59133 3.77119 3.68236
# Velocity P-wave (km/s) = 7.22610 7.36707 7.29693
#
# Compressibility (1/GPa) = 0.01400868
#
# Stress axis : x y z
#
# Youngs Moduli (GPa) = 86.67071 75.06973 94.43674
#
# Poissons Ratio (x) = 0.31168 0.26560
# Poissons Ratio (y) = 0.35984 0.35464
# Poissons Ratio (z) = 0.24376 0.28191
#
# Static dielectric constant tensor:
#      x y z
#    x 3.916010 0.000000 -0.183360 
#    y 0.000000 3.845150 0.000000 
#    z -0.183360 0.000000 3.748240 
# 
# 
# High freq. dielectric constant tensor:
#      x y z
#    x 1.799640 0.000000 -0.023610 
#    y 0.000000 1.794290 0.000000 
#    z -0.023610 0.000000 1.796450 
# 
# From -- ./inp_files/44523.got.cif
#   From: 2010.06.25/outbox.cif.g09.slc.cpg/sg15_23_cif.got.tgz:44523.got - 2010.06.28 07:06:18.
