data_PCOD8137977
_publ_section_title
;
Structure prediction by ZEFSAII (Michael W. Deem and Ramdas Pophale) SiO2 
 PCOD8137977
Probable space group: C 2/C
;
_chemical_formula_sum "Si O2"
_cell_formula_units_Z 48
_cell_length_a 8.792587
_cell_length_b 15.793191
_cell_length_c 18.281451
_cell_angle_alpha 90.000000
_cell_angle_beta 78.038081
_cell_angle_gamma 90.000000
_cell_volume 2483.492614
_symmetry_space_group_name_H-M "C 2/C"
_symmetry_group_IT_number 15
_symmetry_cell_setting 'monoclinic'
loop_
_space_group_symop_operation_xyz
x,y,z
-x,y,1/2-z
-x,-y,-z
x,-y,1/2+z
1/2+x,1/2+y,z
1/2-x,1/2+y,1/2-z
1/2-x,1/2-y,-z
1/2+x,1/2-y,1/2+z
loop_
_atom_site_type_symbol
_atom_site_label
_atom_site_fract_x
_atom_site_fract_y
_atom_site_fract_z
Si Si1 0.953221 0.981157 0.675304
Si Si2 0.776092 0.103035 0.434536
Si Si3 0.624033 0.072823 0.179889
Si Si4 0.813422 0.550634 0.481089
Si Si5 0.009033 0.696744 0.083070
Si Si6 0.985104 0.114299 0.549521
O O1 0.000000 0.016193 0.750000
O O2 0.929642 0.062205 0.625647
O O3 0.087201 0.917920 0.634946
O O4 0.794657 0.926613 0.698686
O O5 0.675004 0.178162 0.409549
O O6 0.844828 0.127986 0.506748
O O7 0.659928 0.021030 0.459324
O O8 0.500000 0.035465 0.250000
O O9 0.632396 0.016332 0.104501
O O10 0.567823 0.166744 0.158126
O O11 0.625896 0.564959 0.495456
O O12 0.898607 0.640677 0.488263
O O13 0.045597 0.794677 0.070337
#
# Coordination Sequence:
#
# PCOD8137977 Si02
#       6
#     8   8   8   8   8   8
#     4  11  22  37  58  79 107 149 190 225 274 325
#     4  11  18  37  58  86 109 144 186 231 262 332
#     4  10  20  37  55  78 111 146 186 227 268 331
#     4   9  19  34  57  77 108 145 187 218 265 320
#     4  10  21  31  58  85 112 140 178 226 286 318
#     4  11  19  37  57  84 115 140 182 232 276 327
#
# _framework density 19.327618999999999
#
# number of rings (size 3 to 8) (size 9 to 14) (size 15 to 20)
#    1.000    0.667    3.333    3.500    0.000    0.667 
#    0.000    0.000    0.000    3.000    0.000    0.000 
#    0.000    0.000    0.000    0.000    0.000    0.000 
#
# Total GULP energy -297360.458905 kJ/mol
# GULP energy per Si atom -12390.019121 kJ/mol
# Density = 1.928363 g / cm^3
# Si number density = 19.327619 Si / 1000 Ang^3
#
#
#
# Elastic Constant Matrix: (Units=GPa)
#
#
# Indices 1 2 3 4 5 6 
#
# 1 63.6161 21.0238 54.9339 0.0000 -7.8540 0.0000
# 2 21.0238 61.8840 27.6050 0.0000 0.6958 0.0000
# 3 54.9339 27.6050 108.8377 0.0000 -5.4524 0.0000
# 4 0.0000 0.0000 0.0000 12.8062 0.0000 4.3438
# 5 -7.8540 0.6958 -5.4524 0.0000 37.9546 0.0000
# 6 0.0000 0.0000 0.0000 4.3438 0.0000 23.2509
#
#
#
# Elastic Compliance Matrix: (Units=1/GPa)
#
#
# Indices 1 2 3 4 5 6 
#
# 1 0.029235 -0.003935 -0.013548 0.000000 0.004175 0.000000
# 2 -0.003935 0.018789 -0.002858 0.000000 -0.001569 0.000000
# 3 -0.013548 -0.002858 0.016734 0.000000 -0.000347 0.000000
# 4 0.000000 0.000000 0.000000 0.083371 0.000000 -0.015575
# 5 0.004175 -0.001569 -0.000347 0.000000 0.027190 0.000000
# 6 0.000000 0.000000 0.000000 -0.015575 0.000000 0.045919
#
#
# Mechanical properties :
#
#
# Convention : Reuss Voigt Hill
#
# Bulk Modulus (GPa) = 41.53830 49.05147 45.29488
# Shear Modulus (GPa) = 18.52237 23.52070 21.02154
#
# Velocity S-wave (km/s) = 3.09906 3.49226 3.30152
# Velocity P-wave (km/s) = 5.86037 6.45718 6.16600
#
# Compressibility (1/GPa) = 0.02407417
#
# Stress axis : x y z
#
# Youngs Moduli (GPa) = 34.20609 53.22376 59.75955
#
# Poissons Ratio (x) = 0.20944 0.80964
# Poissons Ratio (y) = 0.13461 0.17078
# Poissons Ratio (z) = 0.46344 0.15211
#
# Static dielectric constant tensor:
#      x y z
#    x 3.650600 0.000000 -0.022300 
#    y 0.000000 3.224870 0.000000 
#    z -0.022300 0.000000 3.368180 
# 
# 
# High freq. dielectric constant tensor:
#      x y z
#    x 1.770470 0.000000 -0.000830 
#    y 0.000000 1.715050 0.000000 
#    z -0.000830 0.000000 1.736130 
# 
# From -- ./inp_files/230738.got.cif
#   From: 2010.06.25/outbox.cif.g09.slc.cpg/sg15_116_cif.got.tgz:230738.got - 2010.06.28 07:06:18.
