data_PCOD8137989
_publ_section_title
;
Structure prediction by ZEFSAII (Michael W. Deem and Ramdas Pophale) SiO2 
 PCOD8137989
Probable space group: C 2/C
;
_chemical_formula_sum "Si O2"
_cell_formula_units_Z 48
_cell_length_a 11.012768
_cell_length_b 24.355852
_cell_length_c 12.431962
_cell_angle_alpha 90.000000
_cell_angle_beta 127.808923
_cell_angle_gamma 90.000000
_cell_volume 2634.506767
_symmetry_space_group_name_H-M "C 2/C"
_symmetry_group_IT_number 15
_symmetry_cell_setting 'monoclinic'
loop_
_space_group_symop_operation_xyz
x,y,z
-x,y,1/2-z
-x,-y,-z
x,-y,1/2+z
1/2+x,1/2+y,z
1/2-x,1/2+y,1/2-z
1/2-x,1/2-y,-z
1/2+x,1/2-y,1/2+z
loop_
_atom_site_type_symbol
_atom_site_label
_atom_site_fract_x
_atom_site_fract_y
_atom_site_fract_z
Si Si1 0.942886 0.787801 0.336972
Si Si2 0.500000 0.510162 0.750000
Si Si3 0.700712 0.417023 0.942422
Si Si4 0.023468 0.376341 0.139819
Si Si5 0.098227 0.258178 0.121636
Si Si6 0.142502 0.090914 0.659939
Si Si7 0.500000 0.322883 0.750000
O O1 0.774698 0.760804 0.255668
O O2 0.938203 0.851983 0.358298
O O3 0.000000 0.775464 0.250000
O O4 0.069273 0.762089 0.485009
O O5 0.646076 0.472270 0.855244
O O6 0.545072 0.545478 0.670251
O O7 0.644481 0.362382 0.850536
O O8 0.637803 0.419277 0.030009
O O9 0.884674 0.416027 0.029823
O O10 0.021636 0.318221 0.078903
O O11 0.181222 0.408978 0.203377
O O12 0.000000 0.359963 0.250000
O O13 0.015816 0.215520 0.155253
#
# Coordination Sequence:
#
# PCOD8137989 Si02
#       7
#     8   4   8   8   8   8   4
#     4  11  22  37  55  81 116 156 186 218 268 339
#     4  11  22  36  58  76 102 146 184 229 278 318
#     4  10  21  36  54  82 110 135 181 232 276 323
#     4   9  19  34  56  83 110 138 175 223 277 330
#     4  11  21  34  59  85 118 148 179 225 277 331
#     4  10  20  37  56  77 105 145 185 224 272 327
#     4  11  20  32  58  90 112 140 178 227 280 326
#
# _framework density 18.219729000000001
#
# number of rings (size 3 to 8) (size 9 to 14) (size 15 to 20)
#    0.000    1.667    3.333    2.000    0.000    2.000 
#    0.000    0.000    0.000    0.000    0.000    0.000 
#    0.000    0.000    0.000    0.000    0.000    0.000 
#
# Total GULP energy -297591.239124 kJ/mol
# GULP energy per Si atom -12399.634964 kJ/mol
# Density = 1.817826 g / cm^3
# Si number density = 18.219729 Si / 1000 Ang^3
#
#
#
# Elastic Constant Matrix: (Units=GPa)
#
#
# Indices 1 2 3 4 5 6 
#
# 1 44.2258 20.9700 6.1757 0.0000 0.1395 0.0000
# 2 20.9700 85.6250 34.8543 0.0000 7.6334 0.0000
# 3 6.1757 34.8543 84.0596 0.0000 -0.2369 0.0000
# 4 0.0000 0.0000 0.0000-1275.8748 0.0000 -72.7896
# 5 0.1395 7.6334 -0.2369 0.0000 31.0045 0.0000
# 6 0.0000 0.0000 0.0000 -72.7896 0.0000 9.3196
#
#
#
# Elastic Compliance Matrix: (Units=1/GPa)
#
#
# Indices 1 2 3 4 5 6 
#
# 1 0.025708 -0.006820 0.000944 0.000000 0.001571 0.000000
# 2 -0.006820 0.016251 -0.006248 0.000000 -0.004018 0.000000
# 3 0.000944 -0.006248 0.014422 0.000000 0.001644 0.000000
# 4 0.000000 0.000000 0.000000 -0.000542 0.000000 -0.004235
# 5 0.001571 -0.004018 0.001644 0.000000 0.033248 0.000000
# 6 0.000000 0.000000 0.000000 -0.004235 0.000000 0.074227
#
#
# Mechanical properties :
#
#
# Convention : Reuss Voigt Hill
#
# Bulk Modulus (GPa) = 31.12208 37.54558 34.33383
# Shear Modulus (GPa) = 25.21752 -236.98279 -105.88264
#
# Velocity S-wave (km/s) = 3.72436 -11.41717 -7.63154
# Velocity P-wave (km/s) = 5.96767 12.37540 7.66607
#
# Compressibility (1/GPa) = 0.03213153
#
# Stress axis : x y z
#
# Youngs Moduli (GPa) = 38.89781 61.53532 69.33619
#
# Poissons Ratio (x) = 0.41969 -0.06543
# Poissons Ratio (y) = 0.26529 0.43324
# Poissons Ratio (z) = -0.03670 0.38450
#
# Static dielectric constant tensor:
#      x y z
#    x 3.318130 0.000000 0.099420 
#    y 0.000000 3.253110 0.000000 
#    z 0.099420 0.000000 3.469440 
# 
# 
# High freq. dielectric constant tensor:
#      x y z
#    x 1.700300 0.000000 0.002380 
#    y 0.000000 1.704840 0.000000 
#    z 0.002380 0.000000 1.712040 
# 
# From -- ./inp_files/89178.got.cif
#   From: 2010.06.25/outbox.cif.g09.slc.cpg/sg15_45_cif.got.tgz:89178.got - 2010.06.28 07:06:18.
