data_PCOD8137601
_publ_section_title
;
Structure prediction by ZEFSAII (Michael W. Deem and Ramdas Pophale) SiO2 
 PCOD8137601
Probable space group: C 2/C
;
_chemical_formula_sum "Si O2"
_cell_formula_units_Z 48
_cell_length_a 9.081867
_cell_length_b 15.860707
_cell_length_c 31.025895
_cell_angle_alpha 90.000000
_cell_angle_beta 147.797189
_cell_angle_gamma 90.000000
_cell_volume 2381.673459
_symmetry_space_group_name_H-M "C 2/C"
_symmetry_group_IT_number 15
_symmetry_cell_setting 'monoclinic'
loop_
_space_group_symop_operation_xyz
x,y,z
-x,y,1/2-z
-x,-y,-z
x,-y,1/2+z
1/2+x,1/2+y,z
1/2-x,1/2+y,1/2-z
1/2-x,1/2-y,-z
1/2+x,1/2-y,1/2+z
loop_
_atom_site_type_symbol
_atom_site_label
_atom_site_fract_x
_atom_site_fract_y
_atom_site_fract_z
Si Si1 0.754516 0.295971 0.591208
Si Si2 0.240948 0.823822 0.844233
Si Si3 0.240148 0.984609 0.905693
Si Si4 0.664985 0.235008 0.907002
Si Si5 0.197605 0.106686 0.154942
Si Si6 0.782496 0.855180 0.159413
O O1 0.470664 0.260554 0.501855
O O2 0.723423 0.385477 0.609204
O O3 0.868087 0.226717 0.652949
O O4 0.967564 0.309399 0.605854
O O5 0.274426 0.903535 0.883832
O O6 0.176830 0.740766 0.857687
O O7 0.000000 0.839011 0.750000
O O8 0.969948 0.975045 0.869803
O O9 0.206838 0.065214 0.868282
O O10 0.500000 0.000000 0.000000
O O11 0.483628 0.313239 0.877128
O O12 0.514014 0.152848 0.889388
O O13 0.500000 0.107590 0.250000
O O14 0.000000 0.870047 0.250000
#
# Coordination Sequence:
#
# PCOD8137601 Si02
#       6
#     8   8   8   8   8   8
#     4  11  20  37  62  89 115 151 198 244 289 347
#     4  11  22  39  60  86 118 157 196 237 291 360
#     4  11  23  41  59  83 118 158 195 240 294 350
#     4  10  20  36  60  88 115 151 194 239 290 350
#     4  10  20  38  62  85 114 160 201 232 284 360
#     4  11  21  37  59  85 115 151 192 244 296 341
#
# _framework density 20.153896
#
# number of rings (size 3 to 8) (size 9 to 14) (size 15 to 20)
#    0.000    1.333    0.000   11.000    0.000    0.000 
#    0.000    9.167    0.000    0.000    0.000    0.000 
#    0.000    0.000    0.000    0.000    0.000    0.000 
#
# Total GULP energy -297463.338366 kJ/mol
# GULP energy per Si atom -12394.305765 kJ/mol
# Density = 2.010803 g / cm^3
# Si number density = 20.153896 Si / 1000 Ang^3
#
#
#
# Elastic Constant Matrix: (Units=GPa)
#
#
# Indices 1 2 3 4 5 6 
#
# 1 127.9334 47.3024 14.6005 -0.0033 -0.4456 -0.0001
# 2 47.3024 81.2825 27.0393 -0.0010 -6.2525 0.0003
# 3 14.6005 27.0393 125.5885 -0.0051 -10.7194 0.0005
# 4 -0.0033 -0.0010 -0.0051 143.2589 -0.0017 -21.4657
# 5 -0.4456 -6.2525 -10.7194 -0.0017 39.1558 -0.0004
# 6 -0.0001 0.0003 0.0005 -21.4657 -0.0004 61.2205
#
#
#
# Elastic Compliance Matrix: (Units=1/GPa)
#
#
# Indices 1 2 3 4 5 6 
#
# 1 0.009986 -0.005886 0.000037 0.000000 -0.000816 0.000000
# 2 -0.005886 0.016794 -0.002773 0.000000 0.001856 0.000000
# 3 0.000037 -0.002773 0.008721 0.000000 0.001945 0.000000
# 4 0.000000 0.000000 0.000000 0.007367 0.000000 0.002583
# 5 -0.000816 0.001856 0.001945 0.000000 0.026359 0.000000
# 6 0.000000 0.000000 0.000000 0.002583 0.000000 0.017240
#
#
# Mechanical properties :
#
#
# Convention : Reuss Voigt Hill
#
# Bulk Modulus (GPa) = 54.77762 56.96541 55.87151
# Shear Modulus (GPa) = 45.53848 65.11786 55.32817
#
# Velocity S-wave (km/s) = 4.75862 5.69038 5.24523
# Velocity P-wave (km/s) = 7.57834 8.45580 8.02906
#
# Compressibility (1/GPa) = 0.01825563
#
# Stress axis : x y z
#
# Youngs Moduli (GPa) = 100.14052 59.54681 114.66190
#
# Poissons Ratio (x) = 0.35051 -0.00421
# Poissons Ratio (y) = 0.58946 0.31795
# Poissons Ratio (z) = -0.00368 0.16512
#
# Static dielectric constant tensor:
#      x y z
#    x 4.636840 0.000000 -0.066520 
#    y 0.000000 3.767080 0.000000 
#    z -0.066520 0.000000 3.683710 
# 
# 
# High freq. dielectric constant tensor:
#      x y z
#    x 1.809090 0.000000 -0.002370 
#    y 0.000000 1.755080 0.000000 
#    z -0.002370 0.000000 1.803390 
# 
# From -- ./inp_files/134795.got.cif
#   From: 2010.06.25/outbox.cif.g09.slc.cpg/sg15_68_cif.got.tgz:134795.got - 2010.06.28 07:06:18.
