data_PCOD8137710
_publ_section_title
;
Structure prediction by ZEFSAII (Michael W. Deem and Ramdas Pophale) SiO2 
 PCOD8137710
Probable space group: C 2/C
;
_chemical_formula_sum "Si O2"
_cell_formula_units_Z 56
_cell_length_a 8.578004
_cell_length_b 19.201705
_cell_length_c 26.708814
_cell_angle_alpha 90.000000
_cell_angle_beta 143.483731
_cell_angle_gamma 90.000000
_cell_volume 2617.790229
_symmetry_space_group_name_H-M "C 2/C"
_symmetry_group_IT_number 15
_symmetry_cell_setting 'monoclinic'
loop_
_space_group_symop_operation_xyz
x,y,z
-x,y,1/2-z
-x,-y,-z
x,-y,1/2+z
1/2+x,1/2+y,z
1/2-x,1/2+y,1/2-z
1/2-x,1/2-y,-z
1/2+x,1/2-y,1/2+z
loop_
_atom_site_type_symbol
_atom_site_label
_atom_site_fract_x
_atom_site_fract_y
_atom_site_fract_z
Si Si1 0.500000 0.812199 0.750000
Si Si2 0.183174 0.849461 0.444552
Si Si3 0.928437 0.595185 0.909160
Si Si4 0.639521 0.773818 0.615975
Si Si5 0.852887 0.609116 0.309986
Si Si6 0.713544 0.473897 0.517114
Si Si7 0.450370 0.235287 0.597833
Si Si8 0.500000 0.497722 0.250000
O O1 0.550986 0.863739 0.717819
O O2 0.756953 0.767449 0.831967
O O3 0.346239 0.860343 0.436133
O O4 0.370528 0.810218 0.531225
O O5 0.091077 0.923999 0.442872
O O6 0.927678 0.799630 0.373256
O O7 0.683311 0.551794 0.828399
O O8 0.163577 0.540923 0.979684
O O9 0.018257 0.651650 0.890914
O O10 0.767202 0.825967 0.689340
O O11 0.832080 0.762973 0.619050
O O12 0.636119 0.549306 0.244917
O O13 0.079245 0.570228 0.398533
O O14 0.500000 0.500000 0.500000
O O15 0.250000 0.250000 0.500000
#
# Coordination Sequence:
#
# PCOD8137710 Si02
#       8
#     4   8   8   8   8   8   8   4
#     4  12  27  42  68 102 133 176 232 286 340 409
#     4  10  20  36  61  96 125 170 219 280 332 407
#     4  11  22  39  62  92 130 176 224 271 335 412
#     4  10  21  39  67  95 132 171 222 280 345 402
#     4  10  23  42  65  91 132 177 219 282 334 404
#     4  10  22  36  60  92 130 170 220 279 338 409
#     4  12  25  42  69 101 135 177 226 287 346 409
#     4  10  23  44  60  88 135 178 218 266 338 405
#
# _framework density 21.392088999999999
#
# number of rings (size 3 to 8) (size 9 to 14) (size 15 to 20)
#    0.000    1.429    1.429    3.429    6.000    1.143 
#    0.000    0.000    0.000    1.714    0.000    0.000 
#    0.000    0.000    0.000    0.000    0.000    0.000 
#
# Total GULP energy -347023.648446 kJ/mol
# GULP energy per Si atom -12393.701730 kJ/mol
# Density = 2.134340 g / cm^3
# Si number density = 21.392089 Si / 1000 Ang^3
#
#
#
# Elastic Constant Matrix: (Units=GPa)
#
#
# Indices 1 2 3 4 5 6 
#
# 1 130.0916 60.7767 25.2428 -0.0009 -4.1067 0.0001
# 2 60.7767 152.5653 32.5869 -0.0001 3.1684 0.0000
# 3 25.2428 32.5869 45.4819 0.0019 9.8107 -0.0003
# 4 -0.0009 -0.0001 0.0019 13.9884 -0.0001 -0.0116
# 5 -4.1067 3.1684 9.8107 -0.0001 34.5655 -0.0001
# 6 0.0001 0.0000 -0.0003 -0.0116 -0.0001 51.2710
#
#
#
# Elastic Compliance Matrix: (Units=1/GPa)
#
#
# Indices 1 2 3 4 5 6 
#
# 1 0.010014 -0.003232 -0.003795 0.000001 0.002563 0.000000
# 2 -0.003232 0.008810 -0.004539 0.000001 0.000097 0.000000
# 3 -0.003795 -0.004539 0.029137 -0.000004 -0.008305 0.000000
# 4 0.000001 0.000001 -0.000004 0.071488 0.000002 0.000016
# 5 0.002563 0.000097 -0.008305 0.000002 0.031583 0.000000
# 6 0.000000 0.000000 0.000000 0.000016 0.000000 0.019504
#
#
# Mechanical properties :
#
#
# Convention : Reuss Voigt Hill
#
# Bulk Modulus (GPa) = 40.27705 62.81683 51.54694
# Shear Modulus (GPa) = 24.75932 33.93380 29.34656
#
# Velocity S-wave (km/s) = 3.40576 3.98713 3.70786
# Velocity P-wave (km/s) = 5.85956 7.11509 6.51763
#
# Compressibility (1/GPa) = 0.02482803
#
# Stress axis : x y z
#
# Youngs Moduli (GPa) = 99.85914 113.51342 34.32103
#
# Poissons Ratio (x) = 0.36686 0.13026
# Poissons Ratio (y) = 0.32273 0.15578
# Poissons Ratio (z) = 0.37899 0.51524
#
# Static dielectric constant tensor:
#      x y z
#    x 3.865610 0.000000 0.497610 
#    y 0.000000 4.422370 -0.000010 
#    z 0.497610 -0.000010 5.651800 
# 
# 
# High freq. dielectric constant tensor:
#      x y z
#    x 1.843320 0.000000 0.010160 
#    y 0.000000 1.866850 0.000000 
#    z 0.010160 0.000000 1.817990 
# 
# From -- ./inp_files/289790.got.cif
#   From: 2010.06.25/outbox.cif.g09.slc.cpg/sg15_145_cif.got.tgz:289790.got - 2010.06.28 07:06:18.
