data_PCOD8137781
_publ_section_title
;
Structure prediction by ZEFSAII (Michael W. Deem and Ramdas Pophale) SiO2 
 PCOD8137781
Probable space group: C 2/C
;
_chemical_formula_sum "Si O2"
_cell_formula_units_Z 60
_cell_length_a 19.285717
_cell_length_b 14.718074
_cell_length_c 14.817080
_cell_angle_alpha 90.000000
_cell_angle_beta 44.480520
_cell_angle_gamma 90.000000
_cell_volume 2946.869413
_symmetry_space_group_name_H-M "C 2/C"
_symmetry_group_IT_number 15
_symmetry_cell_setting 'monoclinic'
loop_
_space_group_symop_operation_xyz
x,y,z
-x,y,1/2-z
-x,-y,-z
x,-y,1/2+z
1/2+x,1/2+y,z
1/2-x,1/2+y,1/2-z
1/2-x,1/2-y,-z
1/2+x,1/2-y,1/2+z
loop_
_atom_site_type_symbol
_atom_site_label
_atom_site_fract_x
_atom_site_fract_y
_atom_site_fract_z
Si Si1 0.500000 0.786190 0.750000
Si Si2 0.979228 0.845653 0.427591
Si Si3 0.350061 0.505868 0.961419
Si Si4 0.293107 0.629892 0.378838
Si Si5 0.853802 0.157037 0.583882
Si Si6 0.204278 0.336879 0.591600
Si Si7 0.219041 0.201449 0.294615
Si Si8 0.393433 0.214275 0.884014
O O1 0.477190 0.722979 0.685685
O O2 0.594825 0.850816 0.653283
O O3 0.945194 0.937765 0.407118
O O4 0.888668 0.793302 0.559952
O O5 0.064732 0.870529 0.418007
O O6 0.363549 0.448696 0.855681
O O7 0.318008 0.435477 0.069352
O O8 0.263563 0.573364 0.012993
O O9 0.284871 0.622198 0.278141
O O10 0.344984 0.726705 0.349215
O O11 0.181996 0.630558 0.525777
O O12 0.756450 0.203084 0.718162
O O13 0.904416 0.224944 0.464525
O O14 0.250000 0.250000 0.500000
O O15 0.202463 0.326219 0.701681
O O16 0.500000 0.178363 0.750000
#
# Coordination Sequence:
#
# PCOD8137781 Si02
#       8
#     4   8   8   8   8   8   8   8
#     4  12  22  42  66  78 114 166 206 238 296 364
#     4  11  22  39  62  91 117 160 203 243 299 356
#     4  10  22  40  59  91 126 154 192 252 305 346
#     4   9  19  36  57  88 122 153 192 242 299 349
#     4  10  20  36  62  94 123 153 197 249 297 352
#     4  11  22  44  61  83 116 164 204 239 303 356
#     4  10  20  38  64  88 121 159 193 244 297 361
#     4   9  17  33  58  84 122 164 188 228 295 364
#
# _framework density 20.360589999999998
#
# number of rings (size 3 to 8) (size 9 to 14) (size 15 to 20)
#    0.000    1.867    4.000    2.000    0.000    0.000 
#   18.000    0.000    0.000    1.600    0.000    0.000 
#    0.000    0.000    0.000    0.000    0.000    0.000 
#
# Total GULP energy -371793.952097 kJ/mol
# GULP energy per Si atom -12393.131737 kJ/mol
# Density = 2.031425 g / cm^3
# Si number density = 20.360590 Si / 1000 Ang^3
#
#
#
# Elastic Constant Matrix: (Units=GPa)
#
#
# Indices 1 2 3 4 5 6 
#
# 1 132.2569 33.3822 24.5093 0.0000 8.3383 0.0000
# 2 33.3822 66.1440 3.0018 0.0000 4.6697 0.0000
# 3 24.5093 3.0018 67.7977 0.0000 -1.2490 0.0000
# 4 0.0000 0.0000 0.0000 15.0583 0.0000 2.2715
# 5 8.3383 4.6697 -1.2490 0.0000 39.9064 0.0000
# 6 0.0000 0.0000 0.0000 2.2715 0.0000 35.2524
#
#
#
# Elastic Compliance Matrix: (Units=1/GPa)
#
#
# Indices 1 2 3 4 5 6 
#
# 1 0.009387 -0.004483 -0.003223 0.000000 -0.001538 0.000000
# 2 -0.004483 0.017419 0.000829 0.000000 -0.001076 0.000000
# 3 -0.003223 0.000829 0.015898 0.000000 0.001074 0.000000
# 4 0.000000 0.000000 0.000000 0.067060 0.000000 -0.004321
# 5 -0.001538 -0.001076 0.001074 0.000000 0.025539 0.000000
# 6 0.000000 0.000000 0.000000 -0.004321 0.000000 0.028645
#
#
# Mechanical properties :
#
#
# Convention : Reuss Voigt Hill
#
# Bulk Modulus (GPa) = 34.54095 43.10950 38.82523
# Shear Modulus (GPa) = 26.68776 31.73046 29.20911
#
# Velocity S-wave (km/s) = 3.62436 3.95197 3.79171
# Velocity P-wave (km/s) = 5.87504 6.48406 6.18705
#
# Compressibility (1/GPa) = 0.02895114
#
# Stress axis : x y z
#
# Youngs Moduli (GPa) = 106.53359 57.40814 62.90088
#
# Poissons Ratio (x) = 0.25733 0.20274
# Poissons Ratio (y) = 0.47754 -0.05217
# Poissons Ratio (z) = 0.34338 -0.04761
#
# Static dielectric constant tensor:
#      x y z
#    x 4.096720 0.000000 0.136320 
#    y 0.000000 3.492360 0.000000 
#    z 0.136320 0.000000 3.655850 
# 
# 
# High freq. dielectric constant tensor:
#      x y z
#    x 1.816190 0.000000 0.011240 
#    y 0.000000 1.761510 0.000000 
#    z 0.011240 0.000000 1.786880 
# 
# From -- ./inp_files/168618.got.cif
#   From: 2010.06.25/outbox.cif.g09.slc.cpg/sg15_85_cif.got.tgz:168618.got - 2010.06.28 07:06:18.
