data_PCOD8137223
_publ_section_title
;
Structure prediction by ZEFSAII (Michael W. Deem and Ramdas Pophale) SiO2 
 PCOD8137223
Probable space group: C 2/C
;
_chemical_formula_sum "Si O2"
_cell_formula_units_Z 44
_cell_length_a 14.215861
_cell_length_b 27.195822
_cell_length_c 17.941443
_cell_angle_alpha 90.000000
_cell_angle_beta 158.989421
_cell_angle_gamma 90.000000
_cell_volume 2486.971038
_symmetry_space_group_name_H-M "C 2/C"
_symmetry_group_IT_number 15
_symmetry_cell_setting 'monoclinic'
loop_
_space_group_symop_operation_xyz
x,y,z
-x,y,1/2-z
-x,-y,-z
x,-y,1/2+z
1/2+x,1/2+y,z
1/2-x,1/2+y,1/2-z
1/2-x,1/2-y,-z
1/2+x,1/2-y,1/2+z
loop_
_atom_site_type_symbol
_atom_site_label
_atom_site_fract_x
_atom_site_fract_y
_atom_site_fract_z
Si Si1 0.369665 0.709241 0.734217
Si Si2 0.748263 0.990556 0.487305
Si Si3 0.793713 0.320352 0.657640
Si Si4 0.307077 0.958571 0.889937
Si Si5 0.002497 0.630984 0.445623
Si Si6 0.500000 0.420850 0.250000
O O1 0.500000 0.697465 0.750000
O O2 0.379621 0.767512 0.754676
O O3 0.075895 0.686599 0.525435
O O4 0.518144 0.683624 0.912979
O O5 0.500000 0.989274 0.250000
O O6 0.674727 0.960233 0.507324
O O7 0.007767 0.967355 0.640958
O O8 0.825623 0.046136 0.565112
O O9 0.000000 0.339143 0.750000
O O10 0.797941 0.362022 0.725751
O O11 0.379504 0.903861 0.916967
O O12 0.500000 0.000000 0.000000
O O13 0.292646 0.611385 0.640792
#
# Coordination Sequence:
#
# PCOD8137223 Si02
#       6
#     8   8   8   8   8   4
#     4  11  19  32  49  74 116 155 184 220 266 326
#     4  10  22  40  60  77 115 149 184 231 283 324
#     4  11  19  32  49  75 114 156 186 217 269 327
#     4  10  21  41  55  82 116 142 185 236 273 325
#     4  12  20  34  55  79 114 152 189 222 270 328
#     4  10  20  36  50  86 114 148 186 224 264 328
#
# _framework density 17.692202999999999
#
# number of rings (size 3 to 8) (size 9 to 14) (size 15 to 20)
#    0.000    1.455    8.182    1.091    0.000    4.364 
#    0.000    0.000    0.000    0.000    0.000    5.091 
#    0.000    0.000    0.000    0.000    0.000    0.000 
#
# Total GULP energy -272564.531212 kJ/mol
# GULP energy per Si atom -12389.296873 kJ/mol
# Density = 1.765194 g / cm^3
# Si number density = 17.692203 Si / 1000 Ang^3
#
#
#
# Elastic Constant Matrix: (Units=GPa)
#
#
# Indices 1 2 3 4 5 6 
#
# 1 72.0949 37.7771 43.5932 -0.0343 0.2169 -0.0689
# 2 37.7771 62.3137 21.9238 0.0070 -6.4772 0.0163
# 3 43.5932 21.9238 136.2168 -0.0299 -16.6743 -0.0565
# 4 -0.0343 0.0070 -0.0299 5.8190 -0.0306 -44.5264
# 5 0.2169 -6.4772 -16.6743 -0.0306 29.5610 -0.0619
# 6 -0.0689 0.0163 -0.0565 -44.5264 -0.0619 -75.2044
#
#
#
# Elastic Compliance Matrix: (Units=1/GPa)
#
#
# Indices 1 2 3 4 5 6 
#
# 1 0.025022 -0.013540 -0.006675 -0.000004 -0.006916 -0.000013
# 2 -0.013540 0.024490 0.001139 0.000003 0.006108 0.000010
# 3 -0.006675 0.001139 0.010023 -0.000001 0.005952 -0.000006
# 4 -0.000004 0.000003 -0.000001 0.031073 -0.000006 -0.018398
# 5 -0.006916 0.006108 0.005952 -0.000006 0.038575 -0.000025
# 6 -0.000013 0.000010 -0.000006 -0.018398 -0.000025 -0.002404
#
#
# Mechanical properties :
#
#
# Convention : Reuss Voigt Hill
#
# Bulk Modulus (GPa) = 46.76469 53.02372 49.89420
# Shear Modulus (GPa) = 29.05972 3.19054 16.12513
#
# Velocity S-wave (km/s) = 4.05719 1.34435 3.02226
# Velocity P-wave (km/s) = 6.95971 5.69604 6.35934
#
# Compressibility (1/GPa) = 0.02138366
#
# Stress axis : x y z
#
# Youngs Moduli (GPa) = 39.96404 40.83225 99.77327
#
# Poissons Ratio (x) = 0.55287 0.66601
# Poissons Ratio (y) = 0.54111 -0.11366
# Poissons Ratio (z) = 0.26677 -0.04652
#
# Static dielectric constant tensor:
#      x y z
#    x 3.113510 0.000000 -0.014810 
#    y 0.000000 3.424330 -0.000010 
#    z -0.014810 -0.000010 3.451850 
# 
# 
# High freq. dielectric constant tensor:
#      x y z
#    x 1.635410 0.000000 -0.014290 
#    y 0.000000 1.687800 0.000000 
#    z -0.014290 0.000000 1.695600 
# 
# From -- ./inp_files/149073.got.cif
#   From: 2010.06.25/outbox.cif.g09.slc.cpg/sg15_75_cif.got.tgz:149073.got - 2010.06.28 07:06:18.
