data_PCOD8137428
_publ_section_title
;
Structure prediction by ZEFSAII (Michael W. Deem and Ramdas Pophale) SiO2 
 PCOD8137428
Probable space group: C 2/C
;
_chemical_formula_sum "Si O2"
_cell_formula_units_Z 48
_cell_length_a 13.760475
_cell_length_b 8.173782
_cell_length_c 19.715980
_cell_angle_alpha 90.000000
_cell_angle_beta 88.860341
_cell_angle_gamma 90.000000
_cell_volume 2217.118606
_symmetry_space_group_name_H-M "C 2/C"
_symmetry_group_IT_number 15
_symmetry_cell_setting 'monoclinic'
loop_
_space_group_symop_operation_xyz
x,y,z
-x,y,1/2-z
-x,-y,-z
x,-y,1/2+z
1/2+x,1/2+y,z
1/2-x,1/2+y,1/2-z
1/2-x,1/2-y,-z
1/2+x,1/2-y,1/2+z
loop_
_atom_site_type_symbol
_atom_site_label
_atom_site_fract_x
_atom_site_fract_y
_atom_site_fract_z
Si Si1 0.832037 0.353319 0.189674
Si Si2 0.966495 0.433463 0.607908
Si Si3 0.859179 0.545933 0.486106
Si Si4 0.470650 0.566480 0.647897
Si Si5 0.644799 0.550305 0.225750
Si Si6 0.338046 0.364884 0.563176
O O1 0.932192 0.446373 0.168819
O O2 0.751162 0.489066 0.204709
O O3 0.850812 0.243048 0.256024
O O4 0.798227 0.235605 0.128778
O O5 0.881876 0.433126 0.551324
O O6 0.988338 0.256096 0.636299
O O7 0.066359 0.502421 0.574665
O O8 0.748761 0.519493 0.463247
O O9 0.873707 0.738403 0.505040
O O10 0.393784 0.552599 0.709873
O O11 0.571562 0.475649 0.664014
O O12 0.428249 0.480347 0.581310
#
# Coordination Sequence:
#
# PCOD8137428 Si02
#       6
#     8   8   8   8   8   8
#     4  10  20  38  60  82 113 152 194 240 294 348
#     4  10  20  36  58  85 115 153 192 236 292 346
#     4   9  19  37  58  82 115 154 197 234 284 347
#     4  10  21  37  57  86 118 147 190 241 293 347
#     4  10  21  39  59  84 115 150 195 243 292 348
#     4   9  19  37  58  82 116 156 194 240 287 342
#
# _framework density 21.649722000000001
#
# number of rings (size 3 to 8) (size 9 to 14) (size 15 to 20)
#    0.000    2.333    0.000    2.000    0.000    1.333 
#    0.000   46.667    0.000    0.000    0.000    0.000 
#    0.000    0.000    0.000    0.000    0.000    0.000 
#
# Total GULP energy -297611.032440 kJ/mol
# GULP energy per Si atom -12400.459685 kJ/mol
# Density = 2.160045 g / cm^3
# Si number density = 21.649722 Si / 1000 Ang^3
#
#
#
# Elastic Constant Matrix: (Units=GPa)
#
#
# Indices 1 2 3 4 5 6 
#
# 1 111.8515 48.8904 43.7012 0.0000 9.4158 0.0000
# 2 48.8904 93.5023 38.9280 0.0000 6.7198 0.0000
# 3 43.7012 38.9280 51.5379 0.0000 9.0465 0.0000
# 4 0.0000 0.0000 0.0000 33.3599 0.0000 4.2895
# 5 9.4158 6.7198 9.0465 0.0000 42.7890 0.0000
# 6 0.0000 0.0000 0.0000 4.2895 0.0000 30.0299
#
#
#
# Elastic Compliance Matrix: (Units=1/GPa)
#
#
# Indices 1 2 3 4 5 6 
#
# 1 0.014127 -0.003501 -0.009228 0.000000 -0.000608 0.000000
# 2 -0.003501 0.016469 -0.009504 0.000000 0.000194 0.000000
# 3 -0.009228 -0.009504 0.035091 0.000000 -0.003896 0.000000
# 4 0.000000 0.000000 0.000000 0.030537 0.000000 -0.004362
# 5 -0.000608 0.000194 -0.003896 0.000000 0.024298 0.000000
# 6 0.000000 0.000000 0.000000 -0.004362 0.000000 0.033923
#
#
# Mechanical properties :
#
#
# Convention : Reuss Voigt Hill
#
# Bulk Modulus (GPa) = 47.12608 57.77010 52.44809
# Shear Modulus (GPa) = 24.27363 29.59390 26.93376
#
# Velocity S-wave (km/s) = 3.35206 3.70123 3.53096
# Velocity P-wave (km/s) = 6.06601 6.70875 6.39546
#
# Compressibility (1/GPa) = 0.02121967
#
# Stress axis : x y z
#
# Youngs Moduli (GPa) = 70.78401 60.72099 28.49765
#
# Poissons Ratio (x) = 0.21261 0.26297
# Poissons Ratio (y) = 0.24784 0.27085
# Poissons Ratio (z) = 0.65319 0.57711
#
# Static dielectric constant tensor:
#      x y z
#    x 3.794940 0.000000 0.092670 
#    y 0.000000 3.733000 0.000000 
#    z 0.092670 0.000000 3.948320 
# 
# 
# High freq. dielectric constant tensor:
#      x y z
#    x 1.845280 0.000000 0.001810 
#    y 0.000000 1.833960 0.000000 
#    z 0.001810 0.000000 1.845190 
# 
# From -- ./inp_files/241989.got.cif
#   From: 2010.06.25/outbox.cif.g09.slc.cpg/sg15_121_cif.got.tgz:241989.got - 2010.06.28 07:06:18.
