data_PCOD8137392
_publ_section_title
;
Structure prediction by ZEFSAII (Michael W. Deem and Ramdas Pophale) SiO2 
 PCOD8137392
Probable space group: C 2/C
;
_chemical_formula_sum "Si O2"
_cell_formula_units_Z 64
_cell_length_a 8.209991
_cell_length_b 16.159634
_cell_length_c 24.503462
_cell_angle_alpha 90.000000
_cell_angle_beta 92.374829
_cell_angle_gamma 90.000000
_cell_volume 3248.093236
_symmetry_space_group_name_H-M "C 2/C"
_symmetry_group_IT_number 15
_symmetry_cell_setting 'monoclinic'
loop_
_space_group_symop_operation_xyz
x,y,z
-x,y,1/2-z
-x,-y,-z
x,-y,1/2+z
1/2+x,1/2+y,z
1/2-x,1/2+y,1/2-z
1/2-x,1/2-y,-z
1/2+x,1/2-y,1/2+z
loop_
_atom_site_type_symbol
_atom_site_label
_atom_site_fract_x
_atom_site_fract_y
_atom_site_fract_z
Si Si1 0.828833 0.830831 0.023623
Si Si2 0.684502 0.554886 0.365330
Si Si3 0.507761 0.593257 0.686513
Si Si4 0.108109 0.752067 0.371450
Si Si5 0.886576 0.133913 0.407117
Si Si6 0.574670 0.965553 0.056336
Si Si7 0.311569 0.019936 0.638419
Si Si8 0.533853 0.892815 0.691649
O O1 0.948746 0.801754 0.074541
O O2 0.688343 0.888026 0.046188
O O3 0.750000 0.750000 0.000000
O O4 0.920509 0.870179 0.973040
O O5 0.591730 0.470991 0.351073
O O6 0.562576 0.628368 0.381107
O O7 0.818945 0.538207 0.414128
O O8 0.776304 0.584299 0.311697
O O9 0.500000 0.570237 0.750000
O O10 0.420154 0.682504 0.677888
O O11 0.694994 0.587498 0.666676
O O12 0.293300 0.716505 0.383262
O O13 0.999367 0.672460 0.357314
O O14 0.788675 0.050770 0.393752
O O15 0.429789 0.936767 0.095449
O O16 0.500000 0.000000 0.000000
O O17 0.421716 0.974670 0.685768
O O18 0.500000 0.852063 0.750000
#
# Coordination Sequence:
#
# PCOD8137392 Si02
#       8
#     8   8   8   8   8   8   8   8
#     4  10  20  36  58  80 119 154 180 226 303 341
#     4  10  22  37  61  91 112 151 203 246 279 353
#     4  11  21  38  61  87 117 152 195 248 304 336
#     4  10  21  38  57  81 118 156 186 238 292 356
#     4   9  19  38  59  82 115 154 190 228 294 353
#     4  11  20  36  61  88 117 151 195 239 293 350
#     4   9  20  35  59  87 111 146 198 242 279 354
#     4  10  20  39  60  79 114 155 196 239 291 340
#
# _framework density 19.703869000000001
#
# number of rings (size 3 to 8) (size 9 to 14) (size 15 to 20)
#    0.000    2.000    2.500    1.125    1.750    1.500 
#    4.500    0.625    2.750    0.000    0.000    0.000 
#    0.000    0.000    0.000    0.000    0.000    0.000 
#
# Total GULP energy -396501.952510 kJ/mol
# GULP energy per Si atom -12390.686016 kJ/mol
# Density = 1.965902 g / cm^3
# Si number density = 19.703869 Si / 1000 Ang^3
#
#
#
# Elastic Constant Matrix: (Units=GPa)
#
#
# Indices 1 2 3 4 5 6 
#
# 1 114.9765 38.8437 50.3071 0.0000 -24.3521 0.0000
# 2 38.8437 75.9034 28.9928 0.0000 -12.6320 0.0000
# 3 50.3071 28.9928 104.2431 0.0000 -15.1274 0.0000
# 4 0.0000 0.0000 0.0000 24.7754 0.0000 0.8455
# 5 -24.3521 -12.6320 -15.1274 0.0000 32.8621 0.0000
# 6 0.0000 0.0000 0.0000 0.8455 0.0000 19.7479
#
#
#
# Elastic Compliance Matrix: (Units=1/GPa)
#
#
# Indices 1 2 3 4 5 6 
#
# 1 0.013332 -0.004103 -0.004380 0.000000 0.006286 0.000000
# 2 -0.004103 0.016524 -0.002288 0.000000 0.002258 0.000000
# 3 -0.004380 -0.002288 0.012585 0.000000 0.001668 0.000000
# 4 0.000000 0.000000 0.000000 0.040422 0.000000 -0.001731
# 5 0.006286 0.002258 0.001668 0.000000 0.036724 0.000000
# 6 0.000000 0.000000 0.000000 -0.001731 0.000000 0.050712
#
#
# Mechanical properties :
#
#
# Convention : Reuss Voigt Hill
#
# Bulk Modulus (GPa) = 47.85176 59.04557 53.44866
# Shear Modulus (GPa) = 25.14993 27.27573 26.21283
#
# Velocity S-wave (km/s) = 3.57654 3.72463 3.65134
# Velocity P-wave (km/s) = 6.43380 6.96626 6.70531
#
# Compressibility (1/GPa) = 0.02089787
#
# Stress axis : x y z
#
# Youngs Moduli (GPa) = 75.01002 60.51740 79.45792
#
# Poissons Ratio (x) = 0.24832 0.34806
# Poissons Ratio (y) = 0.30778 0.18180
# Poissons Ratio (z) = 0.32857 0.13846
#
# Static dielectric constant tensor:
#      x y z
#    x 3.699240 0.000000 -0.070920 
#    y 0.000000 3.518710 0.000000 
#    z -0.070920 0.000000 4.386210 
# 
# 
# High freq. dielectric constant tensor:
#      x y z
#    x 1.754430 0.000000 0.004520 
#    y 0.000000 1.756190 0.000000 
#    z 0.004520 0.000000 1.776700 
# 
# From -- ./inp_files/265264.got.cif
#   From: 2010.06.25/outbox.cif.g09.slc.cpg/sg15_133_cif.got.tgz:265264.got - 2010.06.28 07:06:18.
