data_PCOD8137303
_publ_section_title
;
Structure prediction by ZEFSAII (Michael W. Deem and Ramdas Pophale) SiO2 
 PCOD8137303
Probable space group: C 2/C
;
_chemical_formula_sum "Si O2"
_cell_formula_units_Z 56
_cell_length_a 29.543423
_cell_length_b 14.512213
_cell_length_c 9.539908
_cell_angle_alpha 90.000000
_cell_angle_beta 133.632179
_cell_angle_gamma 90.000000
_cell_volume 2960.382877
_symmetry_space_group_name_H-M "C 2/C"
_symmetry_group_IT_number 15
_symmetry_cell_setting 'monoclinic'
loop_
_space_group_symop_operation_xyz
x,y,z
-x,y,1/2-z
-x,-y,-z
x,-y,1/2+z
1/2+x,1/2+y,z
1/2-x,1/2+y,1/2-z
1/2-x,1/2-y,-z
1/2+x,1/2-y,1/2+z
loop_
_atom_site_type_symbol
_atom_site_label
_atom_site_fract_x
_atom_site_fract_y
_atom_site_fract_z
Si Si1 0.132087 0.531052 0.763248
Si Si2 0.315006 0.602853 0.454064
Si Si3 0.246987 0.717254 0.777520
Si Si4 0.236227 0.956774 0.371371
Si Si5 0.148244 0.729887 0.810831
Si Si6 0.930028 0.417858 0.643840
Si Si7 0.928895 0.794380 0.087939
O O1 0.119400 0.632962 0.801694
O O2 0.085757 0.459023 0.738262
O O3 0.116823 0.533391 0.565622
O O4 0.204295 0.505808 0.933484
O O5 0.266213 0.686263 0.327828
O O6 0.299926 0.522723 0.311928
O O7 0.310890 0.566578 0.603336
O O8 0.386229 0.636174 0.585331
O O9 0.240133 0.635252 0.653572
O O10 0.198555 0.702219 0.799202
O O11 0.317941 0.717005 0.990171
O O12 0.094365 0.793122 0.624940
O O13 0.920815 0.308139 0.632930
O O14 0.000000 0.442811 0.750000
O O15 0.000000 0.829051 0.250000
#
# Coordination Sequence:
#
# PCOD8137303 Si02
#       7
#     8   8   8   8   8   8   8
#     4  11  19  34  53  87 112 148 185 233 281 342
#     4  11  23  38  58  89 115 149 190 241 294 344
#     4  10  20  36  56  84 122 151 187 230 291 350
#     4  12  23  35  60  89 120 148 186 242 297 347
#     4   9  18  33  58  81 112 153 189 230 288 337
#     4  10  21  36  57  81 114 155 193 229 278 341
#     4   9  20  40  60  77 110 159 198 232 285 348
#
# _framework density 18.916473
#
# number of rings (size 3 to 8) (size 9 to 14) (size 15 to 20)
#    0.000    1.714    1.429    5.143    4.000    0.000 
#    0.000    0.714    0.000    0.000    0.000    0.000 
#    0.000    0.000    0.000    0.000    0.000    0.000 
#
# Total GULP energy -347232.634294 kJ/mol
# GULP energy per Si atom -12401.165511 kJ/mol
# Density = 1.887342 g / cm^3
# Si number density = 18.916473 Si / 1000 Ang^3
#
#
#
# Elastic Constant Matrix: (Units=GPa)
#
#
# Indices 1 2 3 4 5 6 
#
# 1 80.5582 34.1625 32.1900 0.0000 4.4572 0.0000
# 2 34.1625 71.9895 27.0072 0.0000 -10.8929 0.0000
# 3 32.1900 27.0072 95.0064 0.0000 8.6342 0.0000
# 4 0.0000 0.0000 0.0000 25.1394 0.0000 2.8635
# 5 4.4572 -10.8929 8.6342 0.0000 31.2216 0.0000
# 6 0.0000 0.0000 0.0000 2.8635 0.0000 21.8844
#
#
#
# Elastic Compliance Matrix: (Units=1/GPa)
#
#
# Indices 1 2 3 4 5 6 
#
# 1 0.017155 -0.007537 -0.003291 0.000000 -0.004169 0.000000
# 2 -0.007537 0.020417 -0.004098 0.000000 0.009333 0.000000
# 3 -0.003291 -0.004098 0.013225 0.000000 -0.004617 0.000000
# 4 0.000000 0.000000 0.000000 0.040380 0.000000 -0.005284
# 5 -0.004169 0.009333 -0.004617 0.000000 0.037157 0.000000
# 6 0.000000 0.000000 0.000000 -0.005284 0.000000 0.046386
#
#
# Mechanical properties :
#
#
# Convention : Reuss Voigt Hill
#
# Bulk Modulus (GPa) = 47.74476 48.25260 47.99868
# Shear Modulus (GPa) = 23.63433 25.92871 24.78152
#
# Velocity S-wave (km/s) = 3.53853 3.70631 3.62339
# Velocity P-wave (km/s) = 6.47993 6.62414 6.55243
#
# Compressibility (1/GPa) = 0.02094471
#
# Stress axis : x y z
#
# Youngs Moduli (GPa) = 58.29056 48.97787 75.61206
#
# Poissons Ratio (x) = 0.36915 0.24885
# Poissons Ratio (y) = 0.43935 0.30989
# Poissons Ratio (z) = 0.19184 0.20073
#
# Static dielectric constant tensor:
#      x y z
#    x 3.199260 0.000000 0.099720 
#    y 0.000000 3.503180 0.000000 
#    z 0.099720 0.000000 3.693120 
# 
# 
# High freq. dielectric constant tensor:
#      x y z
#    x 1.705300 0.000000 0.002950 
#    y 0.000000 1.734240 0.000000 
#    z 0.002950 0.000000 1.740860 
# 
# From -- ./inp_files/69884.got.cif
#   From: 2010.06.25/outbox.cif.g09.slc.cpg/sg15_35_cif.got.tgz:69884.got - 2010.06.28 07:06:18.
