data_PCOD8137956
_publ_section_title
;
Structure prediction by ZEFSAII (Michael W. Deem and Ramdas Pophale) SiO2 
 PCOD8137956
Probable space group: C 2/C
;
_chemical_formula_sum "Si O2"
_cell_formula_units_Z 60
_cell_length_a 31.313111
_cell_length_b 9.113198
_cell_length_c 9.184080
_cell_angle_alpha 90.000000
_cell_angle_beta 76.481007
_cell_angle_gamma 90.000000
_cell_volume 2548.177106
_symmetry_space_group_name_H-M "C 2/C"
_symmetry_group_IT_number 15
_symmetry_cell_setting 'monoclinic'
loop_
_space_group_symop_operation_xyz
x,y,z
-x,y,1/2-z
-x,-y,-z
x,-y,1/2+z
1/2+x,1/2+y,z
1/2-x,1/2+y,1/2-z
1/2-x,1/2-y,-z
1/2+x,1/2-y,1/2+z
loop_
_atom_site_type_symbol
_atom_site_label
_atom_site_fract_x
_atom_site_fract_y
_atom_site_fract_z
Si Si1 0.915810 0.522929 0.455278
Si Si2 0.136153 0.220450 0.552336
Si Si3 0.786511 0.480675 0.134529
Si Si4 0.000000 0.336445 0.750000
Si Si5 0.141940 0.889897 0.482711
Si Si6 0.841551 0.628063 0.845461
Si Si7 0.573143 0.253855 0.369617
Si Si8 0.790233 0.242275 0.802016
O O1 0.889762 0.668680 0.536307
O O2 0.963538 0.560187 0.352867
O O3 0.886966 0.455794 0.345130
O O4 0.919232 0.414178 0.587385
O O5 0.102245 0.203879 0.709889
O O6 0.182784 0.288651 0.571826
O O7 0.148074 0.062492 0.481001
O O8 0.825095 0.391901 0.191392
O O9 0.768645 0.611855 0.253123
O O10 0.746194 0.375744 0.126020
O O11 0.803690 0.561365 0.977934
O O12 0.022320 0.233505 0.857920
O O13 0.153143 0.803346 0.623983
O O14 0.090043 0.859315 0.485563
O O15 0.173449 0.826416 0.333356
#
# Coordination Sequence:
#
# PCOD8137956 Si02
#       8
#     8   8   8   4   8   8   8   8
#     4  10  20  39  66  90 126 162 210 260 328 381
#     4  10  20  40  62  89 124 171 212 261 318 387
#     4  11  24  40  60  93 131 173 219 279 321 381
#     4  10  20  36  72  96 124 154 208 266 326 392
#     4   9  21  40  63  85 129 173 214 258 322 389
#     4  10  23  41  63  89 132 171 216 275 326 379
#     4   9  20  40  60  96 124 159 203 270 316 392
#     4  10  23  38  58  90 130 165 227 265 323 372
#
# _framework density 23.546244999999999
#
# number of rings (size 3 to 8) (size 9 to 14) (size 15 to 20)
#    0.000    2.133    1.333    1.200    7.467    2.667 
#    2.400    2.667    0.000   13.600    0.000    0.000 
#    0.000    0.000    0.000    0.000    0.000    0.000 
#
# Total GULP energy -371696.738626 kJ/mol
# GULP energy per Si atom -12389.891288 kJ/mol
# Density = 2.349265 g / cm^3
# Si number density = 23.546245 Si / 1000 Ang^3
#
#
#
# Elastic Constant Matrix: (Units=GPa)
#
#
# Indices 1 2 3 4 5 6 
#
# 1 125.1343 18.8125 8.6443 0.0000 8.3711 0.0000
# 2 18.8125 83.9307 -17.7578 0.0000 -0.0685 0.0000
# 3 8.6443 -17.7578 27.8372 0.0000 5.0488 0.0000
# 4 0.0000 0.0000 0.0000 21.9679 0.0000 0.2228
# 5 8.3711 -0.0685 5.0488 0.0000 38.4330 0.0000
# 6 0.0000 0.0000 0.0000 0.2228 0.0000 31.9508
#
#
#
# Elastic Compliance Matrix: (Units=1/GPa)
#
#
# Indices 1 2 3 4 5 6 
#
# 1 0.008817 -0.002895 -0.004339 0.000000 -0.001356 0.000000
# 2 -0.002895 0.014775 0.010454 0.000000 -0.000716 0.000000
# 3 -0.004339 0.010454 0.044833 0.000000 -0.004926 0.000000
# 4 0.000000 0.000000 0.000000 0.045524 0.000000 -0.000317
# 5 -0.001356 -0.000716 -0.004926 0.000000 0.026960 0.000000
# 6 0.000000 0.000000 0.000000 -0.000317 0.000000 0.031300
#
#
# Mechanical properties :
#
#
# Convention : Reuss Voigt Hill
#
# Bulk Modulus (GPa) = 13.35760 28.47782 20.91771
# Shear Modulus (GPa) = 26.21570 33.61722 29.91646
#
# Velocity S-wave (km/s) = 3.34034 3.78260 3.56833
# Velocity P-wave (km/s) = 4.53458 5.58553 5.08727
#
# Compressibility (1/GPa) = 0.07486376
#
# Stress axis : x y z
#
# Youngs Moduli (GPa) = 113.41519 67.68246 22.30510
#
# Poissons Ratio (x) = 0.19597 0.09679
# Poissons Ratio (y) = 0.32839 -0.23318
# Poissons Ratio (z) = 0.49213 -0.70756
#
# Static dielectric constant tensor:
#      x y z
#    x 4.650760 0.000000 0.318490 
#    y 0.000000 4.327730 0.000000 
#    z 0.318490 0.000000 4.292640 
# 
# 
# High freq. dielectric constant tensor:
#      x y z
#    x 1.931550 0.000000 0.007030 
#    y 0.000000 1.926280 0.000000 
#    z 0.007030 0.000000 1.934990 
# 
# From -- ./inp_files/125559.got.cif
#   From: 2010.06.25/outbox.cif.g09.slc.cpg/sg15_63_cif.got.tgz:125559.got - 2010.06.28 07:06:18.
