data_PCOD8137460
_publ_section_title
;
Structure prediction by ZEFSAII (Michael W. Deem and Ramdas Pophale) SiO2 
 PCOD8137460
Probable space group: C 2/C
;
_chemical_formula_sum "Si O2"
_cell_formula_units_Z 52
_cell_length_a 13.709538
_cell_length_b 16.567191
_cell_length_c 12.138065
_cell_angle_alpha 90.000000
_cell_angle_beta 67.702190
_cell_angle_gamma 90.000000
_cell_volume 2550.751504
_symmetry_space_group_name_H-M "C 2/C"
_symmetry_group_IT_number 15
_symmetry_cell_setting 'monoclinic'
loop_
_space_group_symop_operation_xyz
x,y,z
-x,y,1/2-z
-x,-y,-z
x,-y,1/2+z
1/2+x,1/2+y,z
1/2-x,1/2+y,1/2-z
1/2-x,1/2-y,-z
1/2+x,1/2-y,1/2+z
loop_
_atom_site_type_symbol
_atom_site_label
_atom_site_fract_x
_atom_site_fract_y
_atom_site_fract_z
Si Si1 0.478350 0.306734 0.531653
Si Si2 0.325983 0.407599 0.487875
Si Si3 0.500000 0.557150 0.750000
Si Si4 0.633362 0.442696 0.386467
Si Si5 0.408647 0.862461 0.979764
Si Si6 0.639496 0.092332 0.762198
Si Si7 0.000000 0.542977 0.250000
Si Si8 0.500000 0.227788 0.750000
O O1 0.370102 0.357937 0.573649
O O2 0.574457 0.360678 0.445873
O O3 0.451566 0.228449 0.469088
O O4 0.508383 0.285294 0.642302
O O5 0.404989 0.392185 0.349583
O O6 0.333864 0.501820 0.523352
O O7 0.210590 0.373226 0.512999
O O8 0.441140 0.510066 0.673191
O O9 0.735895 0.410768 0.279174
O O10 0.490583 0.903641 0.862685
O O11 0.416160 0.905015 0.094966
O O12 0.604070 0.171336 0.709015
O O13 0.603783 0.011845 0.714711
#
# Coordination Sequence:
#
# PCOD8137460 Si02
#       8
#     8   8   4   8   8   8   4   4
#     4  10  23  40  60  92 127 164 210 258 322 376
#     4  11  22  39  64  92 127 169 213 258 316 379
#     4  10  20  36  58  90 124 162 204 258 312 366
#     4  11  22  39  64  93 123 170 212 257 319 380
#     4  11  22  41  63  93 127 166 208 267 317 370
#     4  10  21  42  66  87 124 166 208 255 328 369
#     4  11  22  41  66  94 120 160 220 263 300 387
#     4   9  22  43  62  84 126 164 200 271 306 377
#
# _framework density 20.386149
#
# number of rings (size 3 to 8) (size 9 to 14) (size 15 to 20)
#    0.000    1.538    3.077    2.769    0.000    5.538 
#    5.538    0.000    0.000    0.000    0.000    0.000 
#    0.000    0.000    0.000    0.000    0.000    0.000 
#
# Total GULP energy -322107.588273 kJ/mol
# GULP energy per Si atom -12388.753395 kJ/mol
# Density = 2.033975 g / cm^3
# Si number density = 20.386149 Si / 1000 Ang^3
#
#
#
# Elastic Constant Matrix: (Units=GPa)
#
#
# Indices 1 2 3 4 5 6 
#
# 1 109.7567 38.0705 36.4389 0.0000 8.3511 0.0000
# 2 38.0705 109.2530 48.7876 0.0000 3.2380 0.0000
# 3 36.4389 48.7876 95.9412 0.0000 8.5974 0.0000
# 4 0.0000 0.0000 0.0000 -90.4269 0.0000 -15.4356
# 5 8.3511 3.2380 8.5974 0.0000 33.9676 0.0000
# 6 0.0000 0.0000 0.0000 -15.4356 0.0000 24.6125
#
#
#
# Elastic Compliance Matrix: (Units=1/GPa)
#
#
# Indices 1 2 3 4 5 6 
#
# 1 0.011046 -0.002580 -0.002724 0.000000 -0.001780 0.000000
# 2 -0.002580 0.012450 -0.005425 0.000000 0.000820 0.000000
# 3 -0.002724 -0.005425 0.014437 0.000000 -0.002467 0.000000
# 4 0.000000 0.000000 0.000000 -0.009989 0.000000 -0.006265
# 5 -0.001780 0.000820 -0.002467 0.000000 0.030424 0.000000
# 6 0.000000 0.000000 0.000000 -0.006265 0.000000 0.036701
#
#
# Mechanical properties :
#
#
# Convention : Reuss Voigt Hill
#
# Bulk Modulus (GPa) = 60.69351 62.39390 61.54370
# Shear Modulus (GPa) = 40.97772 6.40756 23.69264
#
# Velocity S-wave (km/s) = 4.48825 1.77480 3.41279
# Velocity P-wave (km/s) = 7.52966 5.90528 6.76639
#
# Compressibility (1/GPa) = 0.01647623
#
# Stress axis : x y z
#
# Youngs Moduli (GPa) = 90.53316 80.31978 69.26531
#
# Poissons Ratio (x) = 0.20722 0.18866
# Poissons Ratio (y) = 0.23357 0.37575
# Poissons Ratio (z) = 0.24659 0.43572
#
# Static dielectric constant tensor:
#      x y z
#    x 3.880550 0.000000 0.214400 
#    y 0.000000 3.592340 0.000000 
#    z 0.214400 0.000000 3.729000 
# 
# 
# High freq. dielectric constant tensor:
#      x y z
#    x 1.811750 0.000000 0.012310 
#    y 0.000000 1.782430 0.000000 
#    z 0.012310 0.000000 1.794170 
# 
# From -- ./inp_files/96986.got.cif
#   From: 2010.06.25/outbox.cif.g09.slc.cpg/sg15_49_cif.got.tgz:96986.got - 2010.06.28 07:06:18.
