data_PCOD8137041
_publ_section_title
;
Structure prediction by ZEFSAII (Michael W. Deem and Ramdas Pophale) SiO2 
 PCOD8137041
Probable space group: C 2/C
;
_chemical_formula_sum "Si O2"
_cell_formula_units_Z 48
_cell_length_a 18.859307
_cell_length_b 8.228082
_cell_length_c 20.302877
_cell_angle_alpha 90.000000
_cell_angle_beta 47.670274
_cell_angle_gamma 90.000000
_cell_volume 2329.120482
_symmetry_space_group_name_H-M "C 2/C"
_symmetry_group_IT_number 15
_symmetry_cell_setting 'monoclinic'
loop_
_space_group_symop_operation_xyz
x,y,z
-x,y,1/2-z
-x,-y,-z
x,-y,1/2+z
1/2+x,1/2+y,z
1/2-x,1/2+y,1/2-z
1/2-x,1/2-y,-z
1/2+x,1/2-y,1/2+z
loop_
_atom_site_type_symbol
_atom_site_label
_atom_site_fract_x
_atom_site_fract_y
_atom_site_fract_z
Si Si1 0.019092 0.563234 0.888502
Si Si2 0.839919 0.154029 0.632785
Si Si3 0.264559 0.205474 0.565350
Si Si4 0.812449 0.613136 0.271613
Si Si5 0.689941 0.156447 0.482230
Si Si6 0.038818 0.248922 0.497861
O O1 0.097699 0.513594 0.784020
O O2 0.009303 0.408362 0.941096
O O3 0.060061 0.711118 0.907666
O O4 0.916312 0.616075 0.922081
O O5 0.810391 0.266510 0.711675
O O6 0.813433 0.235476 0.580225
O O7 0.954786 0.113520 0.560187
O O8 0.787069 0.983465 0.671027
O O9 0.250000 0.250000 0.500000
O O10 0.182751 0.282083 0.663666
O O11 0.363943 0.291854 0.525135
O O12 0.261504 0.011168 0.572215
O O13 0.750000 0.250000 0.500000
#
# Coordination Sequence:
#
# PCOD8137041 Si02
#       6
#     8   8   8   8   8   8
#     4   8  16  33  59  81 105 148 193 236 288 345
#     4  10  20  35  59  85 111 153 200 246 293 345
#     4  11  22  36  55  83 117 152 191 238 299 360
#     4  11  20  35  59  87 117 152 199 250 294 348
#     4  10  20  39  61  83 115 155 199 244 301 361
#     4   8  16  34  55  79 111 148 191 233 286 350
#
# _framework density 20.608637000000002
#
# number of rings (size 3 to 8) (size 9 to 14) (size 15 to 20)
#    0.000    2.333    0.000    6.000    0.000    0.667 
#    0.000   15.000    0.000    6.000    0.000    0.000 
#    0.000    0.000    0.000    0.000    0.000    0.000 
#
# Total GULP energy -297424.178188 kJ/mol
# GULP energy per Si atom -12392.674091 kJ/mol
# Density = 2.056173 g / cm^3
# Si number density = 20.608637 Si / 1000 Ang^3
#
#
#
# Elastic Constant Matrix: (Units=GPa)
#
#
# Indices 1 2 3 4 5 6 
#
# 1 121.1763 38.5993 70.5258 0.0001 6.8992 0.0000
# 2 38.5993 73.3217 59.9127 0.0002 -4.4395 -0.0003
# 3 70.5258 59.9127 133.7270 0.0000 6.0252 0.0000
# 4 0.0001 0.0002 0.0000 43.2835 0.0000 -3.4785
# 5 6.8992 -4.4395 6.0252 0.0000 28.4498 0.0000
# 6 0.0000 -0.0003 0.0000 -3.4785 0.0000 31.3971
#
#
#
# Elastic Compliance Matrix: (Units=1/GPa)
#
#
# Indices 1 2 3 4 5 6 
#
# 1 0.012184 -0.002167 -0.005357 0.000000 -0.002158 0.000000
# 2 -0.002167 0.022771 -0.009332 0.000000 0.006055 0.000000
# 3 -0.005357 -0.009332 0.014631 0.000000 -0.003256 0.000000
# 4 0.000000 0.000000 0.000000 0.023311 0.000000 0.002583
# 5 -0.002158 0.006055 -0.003256 0.000000 0.037307 0.000000
# 6 0.000000 0.000000 0.000000 0.002583 0.000000 0.032136
#
#
# Mechanical properties :
#
#
# Convention : Reuss Voigt Hill
#
# Bulk Modulus (GPa) = 62.99953 74.03338 68.51646
# Shear Modulus (GPa) = 27.57183 31.23856 29.40519
#
# Velocity S-wave (km/s) = 3.66167 3.89755 3.78145
# Velocity P-wave (km/s) = 6.96512 7.50040 7.23771
#
# Compressibility (1/GPa) = 0.01587313
#
# Stress axis : x y z
#
# Youngs Moduli (GPa) = 82.07733 43.91484 68.34796
#
# Poissons Ratio (x) = 0.09516 0.36617
# Poissons Ratio (y) = 0.17786 0.63783
# Poissons Ratio (z) = 0.43972 0.40982
#
# Static dielectric constant tensor:
#      x y z
#    x 0.000000 0.000000 0.000000 
#    y 0.000000 0.000000 0.000000 
#    z 0.000000 0.000000 0.000000 
# 
# 
# High freq. dielectric constant tensor:
#      x y z
#    x 1.791740 0.000000 -0.008880 
#    y 0.000000 1.808530 0.000000 
#    z -0.008880 0.000000 1.806010 
# 
# From -- ./inp_files/247287.got.cif
#   From: 2010.06.25/outbox.cif.g09.slc.cpg/sg15_124_cif.got.tgz:247287.got - 2010.06.28 07:06:18.
