data_PCOD8137276
_publ_section_title
;
Structure prediction by ZEFSAII (Michael W. Deem and Ramdas Pophale) SiO2 
 PCOD8137276
Probable space group: C 2/C
;
_chemical_formula_sum "Si O2"
_cell_formula_units_Z 48
_cell_length_a 10.160882
_cell_length_b 23.123331
_cell_length_c 13.153261
_cell_angle_alpha 90.000000
_cell_angle_beta 46.417496
_cell_angle_gamma 90.000000
_cell_volume 2238.634223
_symmetry_space_group_name_H-M "C 2/C"
_symmetry_group_IT_number 15
_symmetry_cell_setting 'monoclinic'
loop_
_space_group_symop_operation_xyz
x,y,z
-x,y,1/2-z
-x,-y,-z
x,-y,1/2+z
1/2+x,1/2+y,z
1/2-x,1/2+y,1/2-z
1/2-x,1/2-y,-z
1/2+x,1/2-y,1/2+z
loop_
_atom_site_type_symbol
_atom_site_label
_atom_site_fract_x
_atom_site_fract_y
_atom_site_fract_z
Si Si1 0.000000 0.270645 0.750000
Si Si2 0.000000 0.992632 0.750000
Si Si3 0.732436 0.439608 0.467600
Si Si4 0.256488 0.178849 0.704062
Si Si5 0.500000 0.034290 0.250000
Si Si6 0.604775 0.873805 0.561902
Si Si7 0.008788 0.913543 0.081654
Si Si8 0.500000 0.845739 0.250000
O O1 0.820167 0.234592 0.813622
O O2 0.943635 0.309901 0.874481
O O3 0.167740 0.953149 0.618010
O O4 0.938409 0.034025 0.690345
O O5 0.825555 0.495136 0.366413
O O6 0.549002 0.427262 0.502423
O O7 0.867873 0.385279 0.389655
O O8 0.367860 0.134144 0.572648
O O9 0.080450 0.146078 0.836115
O O10 0.386503 0.194135 0.731343
O O11 0.542146 0.077272 0.325494
O O12 0.779649 0.900756 0.525221
#
# Coordination Sequence:
#
# PCOD8137276 Si02
#       8
#     4   4   8   8   4   8   8   4
#     4  11  23  37  68  90 114 153 206 262 300 358
#     4  12  19  34  59  89 119 173 196 235 298 358
#     4  10  22  37  58  87 128 164 198 237 299 358
#     4  11  20  41  63  86 117 160 202 248 313 351
#     4  10  20  36  55  94 124 159 200 252 284 360
#     4  11  21  36  61  92 117 150 209 255 295 350
#     4  11  20  36  60  87 120 162 204 247 290 359
#     4   9  24  41  60  89 127 159 196 249 294 368
#
# _framework density 21.441642999999999
#
# number of rings (size 3 to 8) (size 9 to 14) (size 15 to 20)
#    0.000    1.333    5.000    1.000    0.000    1.333 
#    3.000    5.833    0.000    0.000    0.000    0.000 
#    0.000    0.000    0.000    0.000    0.000    0.000 
#
# Total GULP energy -297367.768695 kJ/mol
# GULP energy per Si atom -12390.323696 kJ/mol
# Density = 2.139284 g / cm^3
# Si number density = 21.441643 Si / 1000 Ang^3
#
#
#
# Elastic Constant Matrix: (Units=GPa)
#
#
# Indices 1 2 3 4 5 6 
#
# 1 81.0211 19.9842 17.6064 0.0000 -1.1641 0.0000
# 2 19.9842 64.0993 17.3736 0.0000 -0.2223 0.0000
# 3 17.6064 17.3736 104.3236 0.0000 -1.4892 0.0000
# 4 0.0000 0.0000 0.0000 22.9133 0.0000 4.0138
# 5 -1.1641 -0.2223 -1.4892 0.0000 14.3677 0.0000
# 6 0.0000 0.0000 0.0000 4.0138 0.0000 4.9117
#
#
#
# Elastic Compliance Matrix: (Units=1/GPa)
#
#
# Indices 1 2 3 4 5 6 
#
# 1 0.013654 -0.003804 -0.001658 0.000000 0.000876 0.000000
# 2 -0.003804 0.017398 -0.002259 0.000000 -0.000273 0.000000
# 3 -0.001658 -0.002259 0.010254 0.000000 0.000894 0.000000
# 4 0.000000 0.000000 0.000000 0.050934 0.000000 -0.041623
# 5 0.000876 -0.000273 0.000894 0.000000 0.069760 0.000000
# 6 0.000000 0.000000 0.000000 -0.041623 0.000000 0.237610
#
#
# Mechanical properties :
#
#
# Convention : Reuss Voigt Hill
#
# Bulk Modulus (GPa) = 38.66569 39.93026 39.29797
# Shear Modulus (GPa) = 11.80150 21.40387 16.60269
#
# Velocity S-wave (km/s) = 2.34861 3.16292 2.78568
# Velocity P-wave (km/s) = 5.04249 5.65702 5.35858
#
# Compressibility (1/GPa) = 0.02586272
#
# Stress axis : x y z
#
# Youngs Moduli (GPa) = 73.24005 57.47702 97.51890
#
# Poissons Ratio (x) = 0.21866 0.16171
# Poissons Ratio (y) = 0.27863 0.22032
# Poissons Ratio (z) = 0.12145 0.12986
#
# Static dielectric constant tensor:
#      x y z
#    x 3.653810 0.000000 0.012290 
#    y 0.000000 3.793950 0.000000 
#    z 0.012290 0.000000 4.095230 
# 
# 
# High freq. dielectric constant tensor:
#      x y z
#    x 1.811760 0.000000 0.000800 
#    y 0.000000 1.832250 0.000000 
#    z 0.000800 0.000000 1.856170 
# 
# From -- ./inp_files/89845.got.cif
#   From: 2010.06.25/outbox.cif.g09.slc.cpg/sg15_45_cif.got.tgz:89845.got - 2010.06.28 07:06:18.
