data_PCOD8137203
_publ_section_title
;
Structure prediction by ZEFSAII (Michael W. Deem and Ramdas Pophale) SiO2 
 PCOD8137203
Probable space group: C 2/C
;
_chemical_formula_sum "Si O2"
_cell_formula_units_Z 64
_cell_length_a 11.797757
_cell_length_b 15.675192
_cell_length_c 17.787569
_cell_angle_alpha 90.000000
_cell_angle_beta 89.601512
_cell_angle_gamma 90.000000
_cell_volume 3289.413041
_symmetry_space_group_name_H-M "C 2/C"
_symmetry_group_IT_number 15
_symmetry_cell_setting 'monoclinic'
loop_
_space_group_symop_operation_xyz
x,y,z
-x,y,1/2-z
-x,-y,-z
x,-y,1/2+z
1/2+x,1/2+y,z
1/2-x,1/2+y,1/2-z
1/2-x,1/2-y,-z
1/2+x,1/2-y,1/2+z
loop_
_atom_site_type_symbol
_atom_site_label
_atom_site_fract_x
_atom_site_fract_y
_atom_site_fract_z
Si Si1 0.820561 0.098424 0.332538
Si Si2 0.655621 0.284126 0.902871
Si Si3 0.409989 0.947551 0.398867
Si Si4 0.562429 0.228330 0.671896
Si Si5 0.689838 0.360165 0.063458
Si Si6 0.707691 0.541821 0.330716
Si Si7 0.646268 0.015987 0.435035
Si Si8 0.493407 0.515273 0.911257
O O1 0.841300 0.198907 0.317104
O O2 0.805095 0.038812 0.259063
O O3 0.708546 0.086271 0.383374
O O4 0.932153 0.065821 0.374765
O O5 0.528268 0.254482 0.890049
O O6 0.743509 0.206937 0.884631
O O7 0.689489 0.359769 0.848670
O O8 0.655419 0.311871 0.988706
O O9 0.381844 0.858773 0.357731
O O10 0.387879 0.937400 0.487848
O O11 0.331976 0.016885 0.358066
O O12 0.539428 0.979086 0.389192
O O13 0.500000 0.210642 0.750000
O O14 0.769953 0.439580 0.043015
O O15 0.576880 0.397350 0.104470
O O16 0.617307 0.479675 0.372877
O O17 0.500000 0.500000 0.000000
#
# Coordination Sequence:
#
# PCOD8137203 Si02
#       8
#     8   8   8   8   8   8   8   8
#     4  11  23  39  65  89 125 161 211 263 312 370
#     4  11  20  37  61  94 121 162 208 252 307 364
#     4  11  25  40  63  91 130 164 210 251 310 384
#     4  12  23  39  62  94 123 159 210 257 306 377
#     4  10  20  35  65  92 119 160 213 258 301 368
#     4  12  22  39  62  93 125 165 204 258 320 368
#     4  10  22  42  60  93 125 168 208 255 312 374
#     4  11  19  37  62  92 121 157 204 258 305 362
#
# _framework density 19.456358000000002
#
# number of rings (size 3 to 8) (size 9 to 14) (size 15 to 20)
#    0.000    1.000    6.250    1.125    1.750    0.500 
#    0.000    1.250    0.000    0.000    0.000    0.000 
#    0.000    0.000    0.000    0.000    0.000    0.000 
#
# Total GULP energy -396823.965151 kJ/mol
# GULP energy per Si atom -12400.748911 kJ/mol
# Density = 1.941207 g / cm^3
# Si number density = 19.456358 Si / 1000 Ang^3
#
#
#
# Elastic Constant Matrix: (Units=GPa)
#
#
# Indices 1 2 3 4 5 6 
#
# 1 89.3357 24.2596 25.5293 0.0000 -1.9389 0.0000
# 2 24.2596 64.7318 8.4425 0.0000 -18.5639 0.0000
# 3 25.5293 8.4425 84.0328 0.0000 -7.3106 0.0000
# 4 0.0000 0.0000 0.0000 27.5160 0.0000 5.5910
# 5 -1.9389 -18.5639 -7.3106 0.0000 26.1094 0.0000
# 6 0.0000 0.0000 0.0000 5.5910 0.0000 33.1101
#
#
#
# Elastic Compliance Matrix: (Units=1/GPa)
#
#
# Indices 1 2 3 4 5 6 
#
# 1 0.013840 -0.005894 -0.003985 0.000000 -0.004279 0.000000
# 2 -0.005894 0.021964 0.000927 0.000000 0.015438 0.000000
# 3 -0.003985 0.000927 0.013375 0.000000 0.004108 0.000000
# 4 0.000000 0.000000 0.000000 0.037634 0.000000 -0.006355
# 5 -0.004279 0.015438 0.004108 0.000000 0.050110 0.000000
# 6 0.000000 0.000000 0.000000 -0.006355 0.000000 0.031275
#
#
# Mechanical properties :
#
#
# Convention : Reuss Voigt Hill
#
# Bulk Modulus (GPa) = 31.97418 39.39591 35.68504
# Shear Modulus (GPa) = 25.44182 29.33836 27.39009
#
# Velocity S-wave (km/s) = 3.62005 3.88739 3.75610
# Velocity P-wave (km/s) = 5.82602 6.35935 6.09852
#
# Compressibility (1/GPa) = 0.03127524
#
# Stress axis : x y z
#
# Youngs Moduli (GPa) = 72.25317 45.52925 74.76666
#
# Poissons Ratio (x) = 0.26836 0.29793
# Poissons Ratio (y) = 0.42588 -0.06932
# Poissons Ratio (z) = 0.28791 -0.04221
#
# Static dielectric constant tensor:
#      x y z
#    x 3.734160 0.000000 0.169930 
#    y 0.000000 3.649830 0.000000 
#    z 0.169930 0.000000 3.536340 
# 
# 
# High freq. dielectric constant tensor:
#      x y z
#    x 1.759210 0.000000 0.016630 
#    y 0.000000 1.750810 0.000000 
#    z 0.016630 0.000000 1.758090 
# 
# From -- ./inp_files/198353.got.cif
#   From: 2010.06.25/outbox.cif.g09.slc.cpg/sg15_100_cif.got.tgz:198353.got - 2010.06.28 07:06:18.
