data_PCOD8137179
_publ_section_title
;
Structure prediction by ZEFSAII (Michael W. Deem and Ramdas Pophale) SiO2 
 PCOD8137179
Probable space group: C 2/C
;
_chemical_formula_sum "Si O2"
_cell_formula_units_Z 60
_cell_length_a 21.032066
_cell_length_b 29.860027
_cell_length_c 13.216192
_cell_angle_alpha 90.000000
_cell_angle_beta 156.893874
_cell_angle_gamma 90.000000
_cell_volume 3257.217165
_symmetry_space_group_name_H-M "C 2/C"
_symmetry_group_IT_number 15
_symmetry_cell_setting 'monoclinic'
loop_
_space_group_symop_operation_xyz
x,y,z
-x,y,1/2-z
-x,-y,-z
x,-y,1/2+z
1/2+x,1/2+y,z
1/2-x,1/2+y,1/2-z
1/2-x,1/2-y,-z
1/2+x,1/2-y,1/2+z
loop_
_atom_site_type_symbol
_atom_site_label
_atom_site_fract_x
_atom_site_fract_y
_atom_site_fract_z
Si Si1 0.691466 0.803883 0.521247
Si Si2 0.191009 0.205448 0.529595
Si Si3 0.108987 0.116381 0.120383
Si Si4 0.500000 0.582343 0.750000
Si Si5 0.354447 0.958903 0.349232
Si Si6 0.116421 0.121326 0.518597
Si Si7 0.318316 0.970647 0.956286
Si Si8 0.705363 0.975123 0.894384
O O1 0.500000 0.807989 0.250000
O O2 0.741835 0.811922 0.478986
O O3 0.759988 0.754887 0.657199
O O4 0.769595 0.841567 0.706688
O O5 0.226410 0.166252 0.663200
O O6 0.000000 0.211651 0.250000
O O7 0.200962 0.071548 0.287890
O O8 0.031785 0.112715 0.895525
O O9 0.976085 0.126348 0.011305
O O10 0.348381 0.550973 0.550285
O O11 0.237685 0.919458 0.210268
O O12 0.540788 0.945354 0.644992
O O13 0.312914 0.006990 0.338786
O O14 0.325949 0.973814 0.192090
O O15 0.000000 0.114555 0.250000
O O16 0.500000 0.955269 0.250000
O O17 0.254270 0.012541 0.930855
#
# Coordination Sequence:
#
# PCOD8137179 Si02
#       8
#     8   8   8   4   8   8   8   8
#     4  10  20  35  63  91 124 149 184 255 321 359
#     4   9  18  37  57  94 119 145 190 247 320 359
#     4  12  23  37  57  89 122 159 199 243 300 370
#     4  12  26  38  54  84 128 166 200 240 296 356
#     4  10  21  36  54  80 114 156 196 246 289 351
#     4  11  21  35  62  90 115 152 201 249 301 362
#     4  10  21  37  56  81 115 154 203 252 291 338
#     4  10  22  37  53  76 117 157 200 245 291 339
#
# _framework density 18.420632999999999
#
# number of rings (size 3 to 8) (size 9 to 14) (size 15 to 20)
#    0.000    1.600    4.000    2.000    2.800    2.133 
#    0.000    0.000    0.000    0.800    5.200    0.000 
#    0.000    0.000    0.000    0.000    0.000    0.000 
#
# Total GULP energy -371766.995171 kJ/mol
# GULP energy per Si atom -12392.233172 kJ/mol
# Density = 1.837871 g / cm^3
# Si number density = 18.420633 Si / 1000 Ang^3
#
#
#
# Elastic Constant Matrix: (Units=GPa)
#
#
# Indices 1 2 3 4 5 6 
#
# 1 109.5848 34.3596 44.6637 0.0000 7.8297 0.0000
# 2 34.3596 112.4486 50.1673 0.0000 2.8567 0.0000
# 3 44.6637 50.1673 76.7208 0.0000 -0.5107 0.0000
# 4 0.0000 0.0000 0.0000 21.6339 0.0000 3.7907
# 5 7.8297 2.8567 -0.5107 0.0000 28.3099 0.0000
# 6 0.0000 0.0000 0.0000 3.7907 0.0000 30.4849
#
#
#
# Elastic Compliance Matrix: (Units=1/GPa)
#
#
# Indices 1 2 3 4 5 6 
#
# 1 0.012342 -0.000660 -0.006777 0.000000 -0.003469 0.000000
# 2 -0.000660 0.012648 -0.007895 0.000000 -0.001236 0.000000
# 3 -0.006777 -0.007895 0.022162 0.000000 0.003071 0.000000
# 4 0.000000 0.000000 0.000000 0.047253 0.000000 -0.005876
# 5 -0.003469 -0.001236 0.003071 0.000000 0.036463 0.000000
# 6 0.000000 0.000000 0.000000 -0.005876 0.000000 0.033534
#
#
# Mechanical properties :
#
#
# Convention : Reuss Voigt Hill
#
# Bulk Modulus (GPa) = 60.64288 61.90396 61.27342
# Shear Modulus (GPa) = 24.93005 27.38998 26.16001
#
# Velocity S-wave (km/s) = 3.68282 3.86024 3.77257
# Velocity P-wave (km/s) = 7.14681 7.31761 7.23271
#
# Compressibility (1/GPa) = 0.01648998
#
# Stress axis : x y z
#
# Youngs Moduli (GPa) = 81.02353 79.06372 45.12199
#
# Poissons Ratio (x) = 0.05216 0.30578
# Poissons Ratio (y) = 0.05346 0.35622
# Poissons Ratio (z) = 0.54908 0.62418
#
# Static dielectric constant tensor:
#      x y z
#    x 3.505060 0.000000 0.029520 
#    y 0.000000 3.653000 0.000000 
#    z 0.029520 0.000000 3.228870 
# 
# 
# High freq. dielectric constant tensor:
#      x y z
#    x 1.734490 0.000000 0.018600 
#    y 0.000000 1.707590 0.000000 
#    z 0.018600 0.000000 1.689120 
# 
# From -- ./inp_files/174971.got.cif
#   From: 2010.06.25/outbox.cif.g09.slc.cpg/sg15_88_cif.got.tgz:174971.got - 2010.06.28 07:06:18.
