data_PCOD8137111
_publ_section_title
;
Structure prediction by ZEFSAII (Michael W. Deem and Ramdas Pophale) SiO2 
 PCOD8137111
Probable space group: C 2/C
;
_chemical_formula_sum "Si O2"
_cell_formula_units_Z 52
_cell_length_a 29.265834
_cell_length_b 9.316401
_cell_length_c 14.547321
_cell_angle_alpha 90.000000
_cell_angle_beta 143.267460
_cell_angle_gamma 90.000000
_cell_volume 2372.202027
_symmetry_space_group_name_H-M "C 2/C"
_symmetry_group_IT_number 15
_symmetry_cell_setting 'monoclinic'
loop_
_space_group_symop_operation_xyz
x,y,z
-x,y,1/2-z
-x,-y,-z
x,-y,1/2+z
1/2+x,1/2+y,z
1/2-x,1/2+y,1/2-z
1/2-x,1/2-y,-z
1/2+x,1/2-y,1/2+z
loop_
_atom_site_type_symbol
_atom_site_label
_atom_site_fract_x
_atom_site_fract_y
_atom_site_fract_z
Si Si1 0.957593 0.483446 0.335518
Si Si2 0.275902 0.251915 0.186671
Si Si3 0.746814 0.055059 0.799609
Si Si4 0.172273 0.716118 0.822076
Si Si5 0.000000 0.278977 0.250000
Si Si6 0.886729 0.932574 0.652526
Si Si7 0.623178 0.740661 0.828075
O O1 0.872121 0.419691 0.206081
O O2 0.942787 0.639917 0.267650
O O3 0.000000 0.500000 0.500000
O O4 0.010031 0.382849 0.354543
O O5 0.285283 0.390001 0.268355
O O6 0.342303 0.261358 0.218886
O O7 0.287676 0.105402 0.265560
O O8 0.191255 0.267487 0.009158
O O9 0.684999 0.176036 0.734935
O O10 0.803357 0.040861 0.976795
O O11 0.119067 0.855684 0.755897
O O12 0.250000 0.750000 0.000000
O O13 0.070669 0.170606 0.351135
O O14 0.921612 0.090575 0.724587
#
# Coordination Sequence:
#
# PCOD8137111 Si02
#       7
#     8   8   8   8   4   8   8
#     4  11  24  42  67  96 130 178 217 269 326 397
#     4  10  22  35  62  95 129 160 205 268 324 379
#     4  10  20  35  60  96 121 163 214 261 316 386
#     4   9  19  38  60  90 128 163 211 263 323 376
#     4  10  24  44  64  90 128 176 224 262 320 402
#     4   9  21  39  63  87 122 168 210 267 323 374
#     4  10  22  42  60  91 133 166 207 269 331 370
#
# _framework density 21.920560999999999
#
# number of rings (size 3 to 8) (size 9 to 14) (size 15 to 20)
#    0.000    2.154    1.538    0.000    6.462    4.308 
#    0.000    4.615    0.000    0.000    0.000    0.000 
#    0.000    0.000    0.000    0.000    0.000    0.000 
#
# Total GULP energy -322110.526032 kJ/mol
# GULP energy per Si atom -12388.866386 kJ/mol
# Density = 2.187067 g / cm^3
# Si number density = 21.920561 Si / 1000 Ang^3
#
#
#
# Elastic Constant Matrix: (Units=GPa)
#
#
# Indices 1 2 3 4 5 6 
#
# 1 84.5494 54.7988 15.9322 0.0000 -6.3788 0.0000
# 2 54.7988 175.0616 40.8550 0.0000 -5.5844 0.0000
# 3 15.9322 40.8550 48.2755 0.0000 -3.8960 0.0000
# 4 0.0000 0.0000 0.0000 25.2094 0.0000 -0.7306
# 5 -6.3788 -5.5844 -3.8960 0.0000 25.7409 0.0000
# 6 0.0000 0.0000 0.0000 -0.7306 0.0000 41.4878
#
#
#
# Elastic Compliance Matrix: (Units=1/GPa)
#
#
# Indices 1 2 3 4 5 6 
#
# 1 0.015067 -0.004388 -0.001047 0.000000 0.002623 0.000000
# 2 -0.004388 0.008407 -0.005676 0.000000 -0.000123 0.000000
# 3 -0.001047 -0.005676 0.026062 0.000000 0.002454 0.000000
# 4 0.000000 0.000000 0.000000 0.039688 0.000000 0.000699
# 5 0.002623 -0.000123 0.002454 0.000000 0.039843 0.000000
# 6 0.000000 0.000000 0.000000 0.000699 0.000000 0.024116
#
#
# Mechanical properties :
#
#
# Convention : Reuss Voigt Hill
#
# Bulk Modulus (GPa) = 36.61355 59.00652 47.81003
# Shear Modulus (GPa) = 27.09891 31.57431 29.33661
#
# Velocity S-wave (km/s) = 3.51982 3.79937 3.66227
# Velocity P-wave (km/s) = 5.76697 6.79881 6.30404
#
# Compressibility (1/GPa) = 0.02731229
#
# Stress axis : x y z
#
# Youngs Moduli (GPa) = 66.37129 118.95327 38.37055
#
# Poissons Ratio (x) = 0.52200 0.04017
# Poissons Ratio (y) = 0.29125 0.21780
# Poissons Ratio (z) = 0.06949 0.67519
#
# Static dielectric constant tensor:
#      x y z
#    x 3.971440 0.000000 0.026970 
#    y 0.000000 4.467100 0.000000 
#    z 0.026970 0.000000 3.430520 
# 
# 
# High freq. dielectric constant tensor:
#      x y z
#    x 1.857800 0.000000 -0.003470 
#    y 0.000000 1.885150 0.000000 
#    z -0.003470 0.000000 1.813080 
# 
# From -- ./inp_files/181242.got.cif
#   From: 2010.06.25/outbox.cif.g09.slc.cpg/sg15_91_cif.got.tgz:181242.got - 2010.06.28 07:06:18.
