data_PCOD8137967
_publ_section_title
;
Structure prediction by ZEFSAII (Michael W. Deem and Ramdas Pophale) SiO2 
 PCOD8137967
Probable space group: C 2/C
;
_chemical_formula_sum "Si O2"
_cell_formula_units_Z 52
_cell_length_a 19.804748
_cell_length_b 22.515788
_cell_length_c 5.166867
_cell_angle_alpha 90.000000
_cell_angle_beta 108.762283
_cell_angle_gamma 90.000000
_cell_volume 2181.574627
_symmetry_space_group_name_H-M "C 2/C"
_symmetry_group_IT_number 15
_symmetry_cell_setting 'monoclinic'
loop_
_space_group_symop_operation_xyz
x,y,z
-x,y,1/2-z
-x,-y,-z
x,-y,1/2+z
1/2+x,1/2+y,z
1/2-x,1/2+y,1/2-z
1/2-x,1/2-y,-z
1/2+x,1/2-y,1/2+z
loop_
_atom_site_type_symbol
_atom_site_label
_atom_site_fract_x
_atom_site_fract_y
_atom_site_fract_z
Si Si1 0.171987 0.225963 0.424559
Si Si2 0.293995 0.664229 0.527078
Si Si3 0.500000 0.053895 0.750000
Si Si4 0.361016 0.833569 0.832713
Si Si5 0.500000 0.539468 0.750000
Si Si6 0.345429 0.460101 0.040415
Si Si7 0.349068 0.969097 0.962564
Si Si8 0.000000 0.629790 0.250000
O O1 0.250000 0.250000 0.500000
O O2 0.155173 0.192903 0.133909
O O3 0.122448 0.283399 0.427505
O O4 0.169332 0.178466 0.655106
O O5 0.211093 0.686542 0.409902
O O6 0.288909 0.593062 0.485249
O O7 0.566732 0.012655 0.917727
O O8 0.521969 0.093796 0.532280
O O9 0.428677 0.832590 0.725588
O O10 0.346421 0.897707 0.947012
O O11 0.500000 0.500000 0.500000
O O12 0.576214 0.573166 0.845755
O O13 0.333855 0.507285 0.253972
O O14 0.312340 0.996844 0.174638
#
# Coordination Sequence:
#
# PCOD8137967 Si02
#       8
#     8   8   4   8   4   8   8   4
#     4  10  22  41  64  85 111 158 205 249 296 352
#     4  11  23  39  65  91 118 157 204 245 292 357
#     4  10  20  37  54  78 112 154 202 241 292 358
#     4  10  23  41  60  84 119 158 202 249 299 352
#     4   8  16  32  57  86 120 158 187 218 284 368
#     4  10  20  37  62  93 126 156 188 238 300 357
#     4  11  22  34  54  81 111 149 194 247 298 347
#     4  10  22  37  61  84 112 158 199 247 304 348
#
# _framework density 23.835993999999999
#
# number of rings (size 3 to 8) (size 9 to 14) (size 15 to 20)
#    0.000    1.846    0.000    5.077    0.000   12.923 
#    0.000    0.769    0.000    3.692    0.000    0.000 
#    0.000    0.000    0.000    0.000    0.000    0.000 
#
# Total GULP energy -322147.014969 kJ/mol
# GULP energy per Si atom -12390.269807 kJ/mol
# Density = 2.378174 g / cm^3
# Si number density = 23.835994 Si / 1000 Ang^3
#
#
#
# Elastic Constant Matrix: (Units=GPa)
#
#
# Indices 1 2 3 4 5 6 
#
# 1 78.6087 29.3972 35.6393 0.0000 -18.8017 0.0000
# 2 29.3972 105.6005 29.6287 0.0000 -20.8420 0.0000
# 3 35.6393 29.6287 131.5996 0.0000 -30.6307 0.0000
# 4 0.0000 0.0000 0.0000 28.8911 0.0000 -8.2968
# 5 -18.8017 -20.8420 -30.6307 0.0000 37.1543 0.0000
# 6 0.0000 0.0000 0.0000 -8.2968 0.0000 35.4068
#
#
#
# Elastic Compliance Matrix: (Units=1/GPa)
#
#
# Indices 1 2 3 4 5 6 
#
# 1 0.016042 -0.002862 -0.002703 0.000000 0.004284 0.000000
# 2 -0.002862 0.011327 -0.000784 0.000000 0.004260 0.000000
# 3 -0.002703 -0.000784 0.010007 0.000000 0.006442 0.000000
# 4 0.000000 0.000000 0.000000 0.037110 0.000000 0.008696
# 5 0.004284 0.004260 0.006442 0.000000 0.036783 0.000000
# 6 0.000000 0.000000 0.000000 0.008696 0.000000 0.030281
#
#
# Mechanical properties :
#
#
# Convention : Reuss Voigt Hill
#
# Bulk Modulus (GPa) = 40.52107 56.12658 48.32382
# Shear Modulus (GPa) = 30.77450 35.03336 32.90393
#
# Velocity S-wave (km/s) = 3.59708 3.83791 3.71945
# Velocity P-wave (km/s) = 5.85566 6.57553 6.22601
#
# Compressibility (1/GPa) = 0.02467852
#
# Stress axis : x y z
#
# Youngs Moduli (GPa) = 62.33821 88.28529 99.93274
#
# Poissons Ratio (x) = 0.25265 0.27010
# Poissons Ratio (y) = 0.17840 0.07832
# Poissons Ratio (z) = 0.16849 0.06919
#
# Static dielectric constant tensor:
#      x y z
#    x 4.929800 0.000000 -0.287050 
#    y 0.000000 4.842510 0.000000 
#    z -0.287050 0.000000 4.987910 
# 
# 
# High freq. dielectric constant tensor:
#      x y z
#    x 1.934630 0.000000 -0.017750 
#    y 0.000000 1.925010 0.000000 
#    z -0.017750 0.000000 1.958440 
# 
# From -- ./inp_files/15737.got.cif
#   From: 2010.06.25/outbox.cif.g09.slc.cpg/sg15_8_cif.got.tgz:15737.got - 2010.06.28 07:06:18.
