data_PCOD8137873
_publ_section_title
;
Structure prediction by ZEFSAII (Michael W. Deem and Ramdas Pophale) SiO2 
 PCOD8137873
Probable space group: C 2/C
;
_chemical_formula_sum "Si O2"
_cell_formula_units_Z 44
_cell_length_a 16.232782
_cell_length_b 9.969661
_cell_length_c 18.459485
_cell_angle_alpha 90.000000
_cell_angle_beta 126.807029
_cell_angle_gamma 90.000000
_cell_volume 2391.882871
_symmetry_space_group_name_H-M "C 2/C"
_symmetry_group_IT_number 15
_symmetry_cell_setting 'monoclinic'
loop_
_space_group_symop_operation_xyz
x,y,z
-x,y,1/2-z
-x,-y,-z
x,-y,1/2+z
1/2+x,1/2+y,z
1/2-x,1/2+y,1/2-z
1/2-x,1/2-y,-z
1/2+x,1/2-y,1/2+z
loop_
_atom_site_type_symbol
_atom_site_label
_atom_site_fract_x
_atom_site_fract_y
_atom_site_fract_z
Si Si1 0.710316 0.248027 0.690960
Si Si2 0.293011 0.391776 0.499783
Si Si3 0.500000 0.424222 0.250000
Si Si4 0.789585 0.964654 0.341545
Si Si5 0.530608 0.589177 0.126555
Si Si6 0.214554 0.152030 0.917196
O O1 0.768814 0.160711 0.779934
O O2 0.764062 0.396486 0.714494
O O3 0.592030 0.268311 0.655319
O O4 0.713341 0.178710 0.613730
O O5 0.250000 0.250000 0.500000
O O6 0.245580 0.435833 0.398091
O O7 0.413717 0.381166 0.548209
O O8 0.266439 0.499349 0.547408
O O9 0.546955 0.520463 0.213357
O O10 0.406952 0.332272 0.168364
O O11 0.913936 0.991009 0.403674
O O12 0.250000 0.250000 0.000000
#
# Coordination Sequence:
#
# PCOD8137873 Si02
#       6
#     8   8   4   8   8   8
#     4  10  21  38  63  89 119 161 201 254 305 375
#     4  11  24  38  65  89 121 162 209 260 309 374
#     4  10  20  36  64  96 116 176 206 252 310 386
#     4  10  21  38  63  86 121 161 204 248 313 368
#     4   9  21  38  62  86 122 162 209 246 313 378
#     4  11  20  41  61  92 127 162 208 258 310 371
#
# _framework density 18.39555
#
# number of rings (size 3 to 8) (size 9 to 14) (size 15 to 20)
#    1.091    0.727    3.636    0.545    7.636    0.000 
#    0.000    2.727    0.000    0.000    0.000    0.000 
#    0.000    0.000    0.000    0.000    0.000    0.000 
#
# Total GULP energy -272542.390638 kJ/mol
# GULP energy per Si atom -12388.290484 kJ/mol
# Density = 1.835368 g / cm^3
# Si number density = 18.395550 Si / 1000 Ang^3
#
#
#
# Elastic Constant Matrix: (Units=GPa)
#
#
# Indices 1 2 3 4 5 6 
#
# 1 88.4387 48.3089 31.0055 0.0000 -8.9989 0.0000
# 2 48.3089 131.8089 51.3825 0.0000 6.5085 0.0000
# 3 31.0055 51.3825 92.1921 0.0000 -2.7868 0.0000
# 4 0.0000 0.0000 0.0000 31.3609 0.0000 -5.0953
# 5 -8.9989 6.5085 -2.7868 0.0000 24.4203 0.0000
# 6 0.0000 0.0000 0.0000 -5.0953 0.0000 46.5607
#
#
#
# Elastic Compliance Matrix: (Units=1/GPa)
#
#
# Indices 1 2 3 4 5 6 
#
# 1 0.015615 -0.005236 -0.002125 0.000000 0.006907 0.000000
# 2 -0.005236 0.011706 -0.004933 0.000000 -0.005612 0.000000
# 3 -0.002125 -0.004933 0.014376 0.000000 0.002172 0.000000
# 4 0.000000 0.000000 0.000000 0.032464 0.000000 0.003553
# 5 0.006907 -0.005612 0.002172 0.000000 0.045239 0.000000
# 6 0.000000 0.000000 0.000000 0.003553 0.000000 0.021866
#
#
# Mechanical properties :
#
#
# Convention : Reuss Voigt Hill
#
# Bulk Modulus (GPa) = 58.44347 63.75928 61.10137
# Shear Modulus (GPa) = 29.14499 32.58458 30.86478
#
# Velocity S-wave (km/s) = 3.98471 4.21328 4.10059
# Velocity P-wave (km/s) = 7.28079 7.64228 7.46372
#
# Compressibility (1/GPa) = 0.01711055
#
# Stress axis : x y z
#
# Youngs Moduli (GPa) = 64.04102 85.42771 69.55839
#
# Poissons Ratio (x) = 0.44729 0.14778
# Poissons Ratio (y) = 0.33531 0.34312
# Poissons Ratio (z) = 0.13606 0.42140
#
# Static dielectric constant tensor:
#      x y z
#    x 3.479470 0.000000 -0.228590 
#    y 0.000000 3.358100 0.000000 
#    z -0.228590 0.000000 3.347330 
# 
# 
# High freq. dielectric constant tensor:
#      x y z
#    x 1.710600 0.000000 -0.024650 
#    y 0.000000 1.704580 0.000000 
#    z -0.024650 0.000000 1.708440 
# 
# From -- ./inp_files/203671.got.cif
#   From: 2010.06.25/outbox.cif.g09.slc.cpg/sg15_102_cif.got.tgz:203671.got - 2010.06.28 07:06:18.
