data_PCOD8137513
_publ_section_title
;
Structure prediction by ZEFSAII (Michael W. Deem and Ramdas Pophale) SiO2 
 PCOD8137513
Probable space group: C 2/C
;
_chemical_formula_sum "Si O2"
_cell_formula_units_Z 48
_cell_length_a 9.131201
_cell_length_b 27.317045
_cell_length_c 9.981276
_cell_angle_alpha 90.000000
_cell_angle_beta 63.381596
_cell_angle_gamma 90.000000
_cell_volume 2225.821023
_symmetry_space_group_name_H-M "C 2/C"
_symmetry_group_IT_number 15
_symmetry_cell_setting 'monoclinic'
loop_
_space_group_symop_operation_xyz
x,y,z
-x,y,1/2-z
-x,-y,-z
x,-y,1/2+z
1/2+x,1/2+y,z
1/2-x,1/2+y,1/2-z
1/2-x,1/2-y,-z
1/2+x,1/2-y,1/2+z
loop_
_atom_site_type_symbol
_atom_site_label
_atom_site_fract_x
_atom_site_fract_y
_atom_site_fract_z
Si Si1 0.811999 0.734072 0.329907
Si Si2 0.187681 0.286161 0.140417
Si Si3 0.319492 0.609694 0.575856
Si Si4 0.679508 0.059304 0.388079
Si Si5 0.878620 0.545132 0.674357
Si Si6 0.123570 0.861496 0.824866
O O1 0.750000 0.750000 0.500000
O O2 0.791715 0.778721 0.233913
O O3 0.700861 0.690548 0.321054
O O4 0.000000 0.717412 0.250000
O O5 0.213837 0.341905 0.082153
O O6 0.000000 0.275768 0.250000
O O7 0.250000 0.250000 0.000000
O O8 0.287782 0.568629 0.475682
O O9 0.257891 0.586815 0.741263
O O10 0.513104 0.622092 0.498192
O O11 0.485471 0.062836 0.502481
O O12 0.731194 0.099279 0.256058
O O13 0.716521 0.005135 0.317624
O O14 0.000000 0.537850 0.750000
O O15 0.000000 0.857133 0.750000
#
# Coordination Sequence:
#
# PCOD8137513 Si02
#       6
#     8   8   8   8   8   8
#     4  12  26  42  61  92 131 161 197 257 320 367
#     4  12  23  41  68  93 121 166 215 252 300 371
#     4  10  20  36  59  86 115 153 206 253 291 355
#     4   9  18  34  56  83 114 152 199 246 291 355
#     4   9  18  33  55  85 120 152 188 246 312 359
#     4  10  21  40  64  87 117 159 207 247 294 367
#
# _framework density 21.565076000000001
#
# number of rings (size 3 to 8) (size 9 to 14) (size 15 to 20)
#    0.000    1.667    0.000    7.000    0.000    2.667 
#    0.000    3.333    0.000    3.000    0.000    0.000 
#    0.000    0.000    0.000    0.000    0.000    0.000 
#
# Total GULP energy -297573.104257 kJ/mol
# GULP energy per Si atom -12398.879344 kJ/mol
# Density = 2.151599 g / cm^3
# Si number density = 21.565076 Si / 1000 Ang^3
#
#
#
# Elastic Constant Matrix: (Units=GPa)
#
#
# Indices 1 2 3 4 5 6 
#
# 1 70.5018 39.0381 37.8884 0.0000 -11.0752 0.0000
# 2 39.0381 141.2315 67.7118 0.0000 -13.6084 0.0000
# 3 37.8884 67.7118 146.8043 0.0000 -25.3314 0.0000
# 4 0.0000 0.0000 0.0000 46.1168 0.0000 -0.9647
# 5 -11.0752 -13.6084 -25.3314 0.0000 34.5910 0.0000
# 6 0.0000 0.0000 0.0000 -0.9647 0.0000 28.7371
#
#
#
# Elastic Compliance Matrix: (Units=1/GPa)
#
#
# Indices 1 2 3 4 5 6 
#
# 1 0.017882 -0.003462 -0.002593 0.000000 0.002464 0.000000
# 2 -0.003462 0.009771 -0.003596 0.000000 0.000102 0.000000
# 3 -0.002593 -0.003596 0.010018 0.000000 0.005092 0.000000
# 4 0.000000 0.000000 0.000000 0.021699 0.000000 0.000728
# 5 0.002464 0.000102 0.005092 0.000000 0.033467 0.000000
# 6 0.000000 0.000000 0.000000 0.000728 0.000000 0.034823
#
#
# Mechanical properties :
#
#
# Convention : Reuss Voigt Hill
#
# Bulk Modulus (GPa) = 54.43797 71.97936 63.20867
# Shear Modulus (GPa) = 32.66160 36.14892 34.40526
#
# Velocity S-wave (km/s) = 3.89596 4.09867 3.99860
# Velocity P-wave (km/s) = 6.74806 7.47322 7.11988
#
# Compressibility (1/GPa) = 0.01836953
#
# Stress axis : x y z
#
# Youngs Moduli (GPa) = 55.92321 102.34021 99.81991
#
# Poissons Ratio (x) = 0.35431 0.25883
# Poissons Ratio (y) = 0.19361 0.35892
# Poissons Ratio (z) = 0.14501 0.36799
#
# Static dielectric constant tensor:
#      x y z
#    x 3.622640 0.000000 -0.248240 
#    y 0.000000 4.028620 0.000000 
#    z -0.248240 0.000000 4.563910 
# 
# 
# High freq. dielectric constant tensor:
#      x y z
#    x 1.807730 0.000000 -0.021960 
#    y 0.000000 1.852300 0.000000 
#    z -0.021960 0.000000 1.869270 
# 
# From -- ./inp_files/80507.got.cif
#   From: 2010.06.25/outbox.cif.g09.slc.cpg/sg15_41_cif.got.tgz:80507.got - 2010.06.28 07:06:18.
