data_PCOD8137744
_publ_section_title
;
Structure prediction by ZEFSAII (Michael W. Deem and Ramdas Pophale) SiO2 
 PCOD8137744
Probable space group: C 2/C
;
_chemical_formula_sum "Si O2"
_cell_formula_units_Z 52
_cell_length_a 12.174379
_cell_length_b 9.040210
_cell_length_c 29.799628
_cell_angle_alpha 90.000000
_cell_angle_beta 48.171892
_cell_angle_gamma 90.000000
_cell_volume 2443.876517
_symmetry_space_group_name_H-M "C 2/C"
_symmetry_group_IT_number 15
_symmetry_cell_setting 'monoclinic'
loop_
_space_group_symop_operation_xyz
x,y,z
-x,y,1/2-z
-x,-y,-z
x,-y,1/2+z
1/2+x,1/2+y,z
1/2-x,1/2+y,1/2-z
1/2-x,1/2-y,-z
1/2+x,1/2-y,1/2+z
loop_
_atom_site_type_symbol
_atom_site_label
_atom_site_fract_x
_atom_site_fract_y
_atom_site_fract_z
Si Si1 0.817651 0.125499 0.225134
Si Si2 0.057796 0.199635 0.448369
Si Si3 0.588905 0.720688 0.103030
Si Si4 0.666347 0.621649 0.917205
Si Si5 0.000000 0.996689 0.250000
Si Si6 0.875971 0.819300 0.168671
Si Si7 0.329966 0.590023 0.880079
O O1 0.665152 0.201613 0.281187
O O2 0.922335 0.233031 0.167333
O O3 0.796833 0.972662 0.204596
O O4 0.894580 0.103749 0.251721
O O5 0.169136 0.337565 0.423294
O O6 0.930714 0.226756 0.445499
O O7 0.976466 0.181467 0.517764
O O8 0.149047 0.052233 0.411111
O O9 0.685414 0.858954 0.093789
O O10 0.676158 0.576363 0.098199
O O11 0.677093 0.713553 0.867566
O O12 0.100010 0.899492 0.188947
O O13 0.053827 0.825900 0.119245
#
# Coordination Sequence:
#
# PCOD8137744 Si02
#       7
#     8   8   8   8   4   8   8
#     4  10  20  36  62  88 126 155 207 253 313 367
#     4  11  24  43  63  93 126 168 207 262 298 376
#     4  10  22  44  62  92 126 165 204 261 307 372
#     4  11  23  43  65  89 130 162 212 255 313 362
#     4   8  18  36  58  86 122 164 196 260 306 368
#     4  10  21  40  61  94 123 165 200 261 308 373
#     4  10  22  39  63  89 129 162 208 255 313 366
#
# _framework density 21.277671999999999
#
# number of rings (size 3 to 8) (size 9 to 14) (size 15 to 20)
#    0.000    2.154    3.077    2.308    4.308    2.462 
#    2.769    0.000    0.000    0.000    0.000    0.000 
#    0.000    0.000    0.000    0.000    0.000    0.000 
#
# Total GULP energy -322241.566881 kJ/mol
# GULP energy per Si atom -12393.906419 kJ/mol
# Density = 2.122924 g / cm^3
# Si number density = 21.277672 Si / 1000 Ang^3
#
#
#
# Elastic Constant Matrix: (Units=GPa)
#
#
# Indices 1 2 3 4 5 6 
#
# 1 79.7902 28.1985 11.1813 0.0000 16.4428 0.0000
# 2 28.1985 42.0956 19.4925 0.0000 0.6509 0.0000
# 3 11.1813 19.4925 76.0763 0.0000 15.2347 0.0000
# 4 0.0000 0.0000 0.0000 23.7992 0.0000 -4.4318
# 5 16.4428 0.6509 15.2347 0.0000 30.9086 0.0000
# 6 0.0000 0.0000 0.0000 -4.4318 0.0000 34.6917
#
#
#
# Elastic Compliance Matrix: (Units=1/GPa)
#
#
# Indices 1 2 3 4 5 6 
#
# 1 0.019583 -0.014395 0.003146 0.000000 -0.011665 0.000000
# 2 -0.014395 0.037813 -0.009927 0.000000 0.011754 0.000000
# 3 0.003146 -0.009927 0.017219 0.000000 -0.009952 0.000000
# 4 0.000000 0.000000 0.000000 0.043042 0.000000 0.005499
# 5 -0.011665 0.011754 -0.009952 0.000000 0.043217 0.000000
# 6 0.000000 0.000000 0.000000 0.005499 0.000000 0.029528
#
#
# Mechanical properties :
#
#
# Convention : Reuss Voigt Hill
#
# Bulk Modulus (GPa) = 30.99419 35.07851 33.03635
# Shear Modulus (GPa) = 20.53335 27.15254 23.84294
#
# Velocity S-wave (km/s) = 3.10984 3.57614 3.35111
# Velocity P-wave (km/s) = 5.24338 5.79427 5.52569
#
# Compressibility (1/GPa) = 0.03226411
#
# Stress axis : x y z
#
# Youngs Moduli (GPa) = 51.06443 26.44613 58.07666
#
# Poissons Ratio (x) = 0.38068 -0.18271
# Poissons Ratio (y) = 0.73505 0.57651
# Poissons Ratio (z) = -0.16065 0.26252
#
# Static dielectric constant tensor:
#      x y z
#    x 3.823220 0.000000 0.160600 
#    y 0.000000 3.601490 0.000000 
#    z 0.160600 0.000000 3.892710 
# 
# 
# High freq. dielectric constant tensor:
#      x y z
#    x 1.832160 0.000000 0.014650 
#    y 0.000000 1.807280 0.000000 
#    z 0.014650 0.000000 1.841510 
# 
# From -- ./inp_files/309884.got.cif
#   From: 2010.06.25/outbox.cif.g09.slc.cpg/sg15_155_cif.got.tgz:309884.got - 2010.06.28 07:06:18.
