data_PCOD8137090
_publ_section_title
;
Structure prediction by ZEFSAII (Michael W. Deem and Ramdas Pophale) SiO2 
 PCOD8137090
Probable space group: C 2/C
;
_chemical_formula_sum "Si O2"
_cell_formula_units_Z 56
_cell_length_a 13.471683
_cell_length_b 22.098964
_cell_length_c 15.383592
_cell_angle_alpha 90.000000
_cell_angle_beta 144.670096
_cell_angle_gamma 90.000000
_cell_volume 2648.453355
_symmetry_space_group_name_H-M "C 2/C"
_symmetry_group_IT_number 15
_symmetry_cell_setting 'monoclinic'
loop_
_space_group_symop_operation_xyz
x,y,z
-x,y,1/2-z
-x,-y,-z
x,-y,1/2+z
1/2+x,1/2+y,z
1/2-x,1/2+y,1/2-z
1/2-x,1/2-y,-z
1/2+x,1/2-y,1/2+z
loop_
_atom_site_type_symbol
_atom_site_label
_atom_site_fract_x
_atom_site_fract_y
_atom_site_fract_z
Si Si1 0.905777 0.826899 0.377174
Si Si2 0.672027 0.033555 0.095472
Si Si3 0.627242 0.255919 0.644012
Si Si4 0.199944 0.669933 0.088023
Si Si5 0.682478 0.990814 0.402635
Si Si6 0.193750 0.643962 0.890955
Si Si7 0.976572 0.049305 0.835806
O O1 0.800257 0.780319 0.241303
O O2 0.805989 0.823449 0.398665
O O3 0.911185 0.890174 0.333905
O O4 0.091777 0.800386 0.536255
O O5 0.661327 0.105139 0.107407
O O6 0.838737 0.003237 0.260091
O O7 0.500000 0.000000 0.000000
O O8 0.699219 0.023151 0.014594
O O9 0.657501 0.295280 0.753413
O O10 0.475450 0.207240 0.546403
O O11 0.273687 0.657513 0.043470
O O12 0.500000 0.022952 0.250000
O O13 0.842259 0.032608 0.489290
O O14 0.693390 0.926537 0.361944
O O15 0.000000 0.668965 0.750000
O O16 0.000000 0.060755 0.750000
#
# Coordination Sequence:
#
# PCOD8137090 Si02
#       7
#     8   8   8   8   8   8   8
#     4  11  23  40  62  87 123 162 210 252 309 364
#     4  10  21  37  63  89 122 164 201 253 313 367
#     4  10  23  38  58  88 124 167 209 250 285 378
#     4  10  21  38  54  86 128 163 205 241 301 353
#     4   9  21  38  57  91 127 152 198 258 305 371
#     4  10  20  35  60  88 129 165 196 245 302 375
#     4  10  23  43  66  91 120 161 208 264 319 370
#
# _framework density 21.144416
#
# number of rings (size 3 to 8) (size 9 to 14) (size 15 to 20)
#    0.000    2.000    1.429    0.857    6.000    5.714 
#    0.000    2.143    0.000    0.000    0.000    0.000 
#    0.000    0.000    0.000    0.000    0.000    0.000 
#
# Total GULP energy -347054.018560 kJ/mol
# GULP energy per Si atom -12394.786377 kJ/mol
# Density = 2.109629 g / cm^3
# Si number density = 21.144416 Si / 1000 Ang^3
#
#
#
# Elastic Constant Matrix: (Units=GPa)
#
#
# Indices 1 2 3 4 5 6 
#
# 1 31.5189 35.5970 21.2758 0.0000 7.9901 0.0000
# 2 35.5970 146.2237 69.9979 0.0000 3.4768 0.0000
# 3 21.2758 69.9979 157.7491 0.0000 13.1020 0.0000
# 4 0.0000 0.0000 0.0000 34.6563 0.0000 -8.3426
# 5 7.9901 3.4768 13.1020 0.0000 22.4237 0.0000
# 6 0.0000 0.0000 0.0000 -8.3426 0.0000 26.2041
#
#
#
# Elastic Compliance Matrix: (Units=1/GPa)
#
#
# Indices 1 2 3 4 5 6 
#
# 1 0.048624 -0.011357 -0.000237 0.000000 -0.015426 0.000000
# 2 -0.011357 0.011355 -0.003885 0.000000 0.004556 0.000000
# 3 -0.000237 -0.003885 0.008448 0.000000 -0.004249 0.000000
# 4 0.000000 0.000000 0.000000 0.031250 0.000000 0.009949
# 5 -0.015426 0.004556 -0.004249 0.000000 0.051869 0.000000
# 6 0.000000 0.000000 0.000000 0.009949 0.000000 0.041329
#
#
# Mechanical properties :
#
#
# Convention : Reuss Voigt Hill
#
# Bulk Modulus (GPa) = 26.68923 65.47035 46.07979
# Shear Modulus (GPa) = 21.15746 30.56490 25.86118
#
# Velocity S-wave (km/s) = 3.16668 3.80614 3.50104
# Velocity P-wave (km/s) = 5.10101 7.09551 6.17926
#
# Compressibility (1/GPa) = 0.03746830
#
# Stress axis : x y z
#
# Youngs Moduli (GPa) = 20.56604 88.06611 118.36899
#
# Poissons Ratio (x) = 1.00013 0.02811
# Poissons Ratio (y) = 0.23356 0.45990
# Poissons Ratio (z) = 0.00488 0.34217
#
# Static dielectric constant tensor:
#      x y z
#    x 3.292410 0.000000 -0.083460 
#    y 0.000000 4.168510 0.000000 
#    z -0.083460 0.000000 4.228860 
# 
# 
# High freq. dielectric constant tensor:
#      x y z
#    x 1.782030 0.000000 -0.000480 
#    y 0.000000 1.835790 0.000000 
#    z -0.000480 0.000000 1.847340 
# 
# From -- ./inp_files/207005.got.cif
#   From: 2010.06.25/outbox.cif.g09.slc.cpg/sg15_104_cif.got.tgz:207005.got - 2010.06.28 07:06:18.
