data_PCOD8137069
_publ_section_title
;
Structure prediction by ZEFSAII (Michael W. Deem and Ramdas Pophale) SiO2 
 PCOD8137069
Probable space group: C 2/C
;
_chemical_formula_sum "Si O2"
_cell_formula_units_Z 64
_cell_length_a 11.213766
_cell_length_b 23.634741
_cell_length_c 11.763697
_cell_angle_alpha 90.000000
_cell_angle_beta 74.255137
_cell_angle_gamma 90.000000
_cell_volume 3000.804387
_symmetry_space_group_name_H-M "C 2/C"
_symmetry_group_IT_number 15
_symmetry_cell_setting 'monoclinic'
loop_
_space_group_symop_operation_xyz
x,y,z
-x,y,1/2-z
-x,-y,-z
x,-y,1/2+z
1/2+x,1/2+y,z
1/2-x,1/2+y,1/2-z
1/2-x,1/2-y,-z
1/2+x,1/2-y,1/2+z
loop_
_atom_site_type_symbol
_atom_site_label
_atom_site_fract_x
_atom_site_fract_y
_atom_site_fract_z
Si Si1 0.197246 0.266642 0.134315
Si Si2 0.137903 0.143468 0.188539
Si Si3 0.131657 0.615607 0.719820
Si Si4 0.430670 0.461979 0.378389
Si Si5 0.741369 0.868796 0.425392
Si Si6 0.845407 0.067136 0.523477
Si Si7 0.358034 0.137820 0.310445
Si Si8 0.363759 0.268971 0.300016
O O1 0.124110 0.211444 0.198231
O O2 0.118480 0.324767 0.152396
O O3 0.308687 0.280556 0.190195
O O4 0.250000 0.250000 0.000000
O O5 0.252423 0.123458 0.242227
O O6 0.000000 0.118419 0.250000
O O7 0.167901 0.121870 0.054234
O O8 0.143417 0.628873 0.849902
O O9 0.234685 0.572942 0.643108
O O10 0.000000 0.583792 0.750000
O O11 0.500000 0.487547 0.250000
O O12 0.350166 0.409930 0.357709
O O13 0.337632 0.509840 0.451457
O O14 0.522822 0.436545 0.448745
O O15 0.684874 0.889507 0.559602
O O16 0.794587 0.804659 0.416345
O O17 0.500000 0.116318 0.250000
O O18 0.363030 0.204027 0.334642
O O19 0.500000 0.293271 0.250000
#
# Coordination Sequence:
#
# PCOD8137069 Si02
#       8
#     8   8   8   8   8   8   8   8
#     4  10  20  35  59  93 132 168 208 254 316 386
#     4  11  22  39  63  94 127 172 215 261 320 377
#     4  11  24  40  63  95 129 172 210 261 322 388
#     4  11  23  43  68  98 121 157 215 275 333 378
#     4  11  22  39  65  90 123 167 213 262 314 388
#     4  11  24  42  68  93 128 159 209 281 323 375
#     4  10  23  40  59  93 133 173 209 257 322 388
#     4   9  20  34  58  92 126 166 210 260 312 375
#
# _framework density 21.327614000000001
#
# number of rings (size 3 to 8) (size 9 to 14) (size 15 to 20)
#    0.000    1.500    2.500    2.250    3.500    3.000 
#    0.000    1.250    0.000    0.000    0.000    0.000 
#    0.000    0.000    0.000    0.000    0.000    0.000 
#
# Total GULP energy -396558.946413 kJ/mol
# GULP energy per Si atom -12392.467075 kJ/mol
# Density = 2.127907 g / cm^3
# Si number density = 21.327614 Si / 1000 Ang^3
#
#
#
# Elastic Constant Matrix: (Units=GPa)
#
#
# Indices 1 2 3 4 5 6 
#
# 1 126.0984 26.8095 38.5468 0.0000 -13.1875 0.0000
# 2 26.8095 61.0378 17.4099 0.0000 4.5395 0.0000
# 3 38.5468 17.4099 116.6551 0.0000 -2.1622 0.0000
# 4 0.0000 0.0000 0.0000 26.1597 0.0000 1.2220
# 5 -13.1875 4.5395 -2.1622 0.0000 28.0176 0.0000
# 6 0.0000 0.0000 0.0000 1.2220 0.0000 19.1311
#
#
#
# Elastic Compliance Matrix: (Units=1/GPa)
#
#
# Indices 1 2 3 4 5 6 
#
# 1 0.010159 -0.004096 -0.002648 0.000000 0.005241 0.000000
# 2 -0.004096 0.019015 -0.001579 0.000000 -0.005131 0.000000
# 3 -0.002648 -0.001579 0.009679 0.000000 -0.000244 0.000000
# 4 0.000000 0.000000 0.000000 0.038341 0.000000 -0.002449
# 5 0.005241 -0.005131 -0.000244 0.000000 0.038971 0.000000
# 6 0.000000 0.000000 0.000000 -0.002449 0.000000 0.052427
#
#
# Mechanical properties :
#
#
# Convention : Reuss Voigt Hill
#
# Bulk Modulus (GPa) = 45.03712 52.14710 48.59211
# Shear Modulus (GPa) = 25.95499 29.39670 27.67584
#
# Velocity S-wave (km/s) = 3.49229 3.71663 3.60620
# Velocity P-wave (km/s) = 6.11752 6.55144 6.33820
#
# Compressibility (1/GPa) = 0.02220391
#
# Stress axis : x y z
#
# Youngs Moduli (GPa) = 98.43549 52.59113 103.32117
#
# Poissons Ratio (x) = 0.21544 0.27363
# Poissons Ratio (y) = 0.40324 0.16317
# Poissons Ratio (z) = 0.26069 0.08306
#
# Static dielectric constant tensor:
#      x y z
#    x 3.889030 0.000000 0.038600 
#    y 0.000000 3.763270 0.000000 
#    z 0.038600 0.000000 3.857750 
# 
# 
# High freq. dielectric constant tensor:
#      x y z
#    x 1.834370 0.000000 0.003750 
#    y 0.000000 1.819570 0.000000 
#    z 0.003750 0.000000 1.840520 
# 
# From -- ./inp_files/91261.got.cif
#   From: 2010.06.25/outbox.cif.g09.slc.cpg/sg15_46_cif.got.tgz:91261.got - 2010.06.28 07:06:18.
