data_PCOD8137005
_publ_section_title
;
Structure prediction by ZEFSAII (Michael W. Deem and Ramdas Pophale) SiO2 
 PCOD8137005
Probable space group: C 2/C
;
_chemical_formula_sum "Si O2"
_cell_formula_units_Z 56
_cell_length_a 21.013202
_cell_length_b 6.337692
_cell_length_c 27.831165
_cell_angle_alpha 90.000000
_cell_angle_beta 130.257098
_cell_angle_gamma 90.000000
_cell_volume 2828.564175
_symmetry_space_group_name_H-M "C 2/C"
_symmetry_group_IT_number 15
_symmetry_cell_setting 'monoclinic'
loop_
_space_group_symop_operation_xyz
x,y,z
-x,y,1/2-z
-x,-y,-z
x,-y,1/2+z
1/2+x,1/2+y,z
1/2-x,1/2+y,1/2-z
1/2-x,1/2-y,-z
1/2+x,1/2-y,1/2+z
loop_
_atom_site_type_symbol
_atom_site_label
_atom_site_fract_x
_atom_site_fract_y
_atom_site_fract_z
Si Si1 0.920684 0.175034 0.368596
Si Si2 0.708165 0.771595 0.552082
Si Si3 0.493921 0.299759 0.128198
Si Si4 0.041201 0.508638 0.969598
Si Si5 0.813657 0.940303 0.039537
Si Si6 0.848788 0.434797 0.787446
Si Si7 0.790907 0.108838 0.841463
O O1 0.855295 0.333810 0.313312
O O2 0.003347 0.285405 0.426971
O O3 0.871386 0.044205 0.385822
O O4 0.955232 0.016286 0.345341
O O5 0.639320 0.955494 0.520080
O O6 0.678325 0.567310 0.507008
O O7 0.730452 0.707542 0.617406
O O8 0.786999 0.887442 0.566412
O O9 0.400367 0.338497 0.102296
O O10 0.480594 0.207593 0.068010
O O11 0.558200 0.137556 0.186206
O O12 0.000000 0.500000 0.000000
O O13 0.750000 0.750000 0.000000
O O14 0.812045 0.282318 0.810941
O O15 0.786762 0.461227 0.712382
#
# Coordination Sequence:
#
# PCOD8137005 Si02
#       7
#     8   8   8   8   8   8   8
#     4  10  20  35  58  85 131 158 191 253 312 372
#     4  11  24  37  63  95 125 163 208 258 306 376
#     4  10  21  37  61  85 118 171 200 255 305 360
#     4  11  21  34  56  97 126 150 199 248 325 386
#     4  11  23  43  62  88 125 169 212 253 306 363
#     4  10  21  38  62  92 124 164 205 250 316 378
#     4  11  22  39  60  95 126 162 204 256 317 372
#
# _framework density 19.798029
#
# number of rings (size 3 to 8) (size 9 to 14) (size 15 to 20)
#    0.000    1.429    4.286    2.571    2.000    2.286 
#    0.000    0.000    0.000    5.143    0.000    0.000 
#    0.000    0.000    0.000    0.000    0.000    0.000 
#
# Total GULP energy -346896.119476 kJ/mol
# GULP energy per Si atom -12389.147124 kJ/mol
# Density = 1.975297 g / cm^3
# Si number density = 19.798029 Si / 1000 Ang^3
#
#
#
# Elastic Constant Matrix: (Units=GPa)
#
#
# Indices 1 2 3 4 5 6 
#
# 1 93.1434 29.9319 43.8102 0.0014 18.3174 -0.0015
# 2 29.9319 88.3647 22.5916 0.0027 8.2127 -0.0027
# 3 43.8102 22.5916 85.9499 0.0004 11.0033 -0.0006
# 4 0.0014 0.0027 0.0004 29.0774 -0.0010 9.5662
# 5 18.3174 8.2127 11.0033 -0.0010 30.2506 0.0012
# 6 -0.0015 -0.0027 -0.0006 9.5662 0.0012 35.7907
#
#
#
# Elastic Compliance Matrix: (Units=1/GPa)
#
#
# Indices 1 2 3 4 5 6 
#
# 1 0.016118 -0.003181 -0.006546 -0.000001 -0.006516 0.000001
# 2 -0.003181 0.012906 -0.001646 -0.000001 -0.000979 0.000001
# 3 -0.006546 -0.001646 0.015564 0.000000 -0.001251 0.000000
# 4 -0.000001 -0.000001 0.000000 0.037707 0.000002 -0.010078
# 5 -0.006516 -0.000979 -0.001251 0.000002 0.037723 -0.000002
# 6 0.000001 0.000001 0.000000 -0.010078 -0.000002 0.030634
#
#
# Mechanical properties :
#
#
# Convention : Reuss Voigt Hill
#
# Bulk Modulus (GPa) = 45.77912 51.12505 48.45208
# Shear Modulus (GPa) = 27.67361 30.43201 29.05281
#
# Velocity S-wave (km/s) = 3.74277 3.92487 3.83490
# Velocity P-wave (km/s) = 6.46924 6.81314 6.64341
#
# Compressibility (1/GPa) = 0.02184402
#
# Stress axis : x y z
#
# Youngs Moduli (GPa) = 62.04094 77.48403 64.25172
#
# Poissons Ratio (x) = 0.24646 0.42057
# Poissons Ratio (y) = 0.19734 0.10573
# Poissons Ratio (z) = 0.40610 0.12751
#
# Static dielectric constant tensor:
#      x y z
#    x 3.589270 -0.000010 0.258390 
#    y -0.000010 4.272120 0.000020 
#    z 0.258390 0.000020 3.533250 
# 
# 
# High freq. dielectric constant tensor:
#      x y z
#    x 1.756380 0.000000 0.034910 
#    y 0.000000 1.794920 0.000000 
#    z 0.034910 0.000000 1.748450 
# 
# From -- ./inp_files/315131.got.cif
#   From: 2010.06.25/outbox.cif.g09.slc.cpg/sg15_158_cif.got.tgz:315131.got - 2010.06.28 07:06:18.
