data_PCOD8137795
_publ_section_title
;
Structure prediction by ZEFSAII (Michael W. Deem and Ramdas Pophale) SiO2 
 PCOD8137795
Probable space group: C 2/C
;
_chemical_formula_sum "Si O2"
_cell_formula_units_Z 44
_cell_length_a 12.786793
_cell_length_b 32.575140
_cell_length_c 5.225507
_cell_angle_alpha 90.000000
_cell_angle_beta 97.188855
_cell_angle_gamma 90.000000
_cell_volume 2159.478617
_symmetry_space_group_name_H-M "C 2/C"
_symmetry_group_IT_number 15
_symmetry_cell_setting 'monoclinic'
loop_
_space_group_symop_operation_xyz
x,y,z
-x,y,1/2-z
-x,-y,-z
x,-y,1/2+z
1/2+x,1/2+y,z
1/2-x,1/2+y,1/2-z
1/2-x,1/2-y,-z
1/2+x,1/2-y,1/2+z
loop_
_atom_site_type_symbol
_atom_site_label
_atom_site_fract_x
_atom_site_fract_y
_atom_site_fract_z
Si Si1 0.000000 0.669137 0.250000
Si Si2 0.833842 0.112605 0.823181
Si Si3 0.274909 0.140532 0.228444
Si Si4 0.669304 0.277698 0.631402
Si Si5 0.120193 0.980660 0.258974
Si Si6 0.000000 0.723260 0.750000
Si Si7 0.500000 0.674561 0.750000
O O1 0.099109 0.639415 0.239034
O O2 0.018927 0.696697 0.504172
O O3 0.767349 0.127593 0.560182
O O4 0.876333 0.067725 0.779030
O O5 0.930569 0.143900 0.907038
O O6 0.762984 0.110598 0.056891
O O7 0.235357 0.186451 0.288210
O O8 0.750000 0.250000 0.500000
O O9 0.606711 0.250416 0.822409
O O10 0.576395 0.296326 0.430815
O O11 0.000000 0.995583 0.250000
O O12 0.176095 0.995313 0.539720
#
# Coordination Sequence:
#
# PCOD8137795 Si02
#       7
#     4   8   8   8   8   4   4
#     4  12  25  42  60  86 112 155 210 269 310 350
#     4  11  22  42  63  90 130 163 197 240 305 382
#     4  11  25  40  61  87 117 163 211 256 311 361
#     4  11  23  40  59  86 114 167 215 264 316 360
#     4  10  20  36  62  98 130 161 190 232 291 369
#     4  12  24  40  60  80 117 153 204 278 312 358
#     4  10  23  40  56  90 123 166 206 253 312 356
#
# _framework density 20.375287
#
# number of rings (size 3 to 8) (size 9 to 14) (size 15 to 20)
#    0.000    1.091    2.727    3.818    2.545    4.364 
#    0.000    0.000    0.000    0.000    0.000   12.727 
#    0.000    0.000    0.000    0.000    0.000    0.000 
#
# Total GULP energy -272796.026221 kJ/mol
# GULP energy per Si atom -12399.819374 kJ/mol
# Density = 2.032891 g / cm^3
# Si number density = 20.375287 Si / 1000 Ang^3
#
#
#
# Elastic Constant Matrix: (Units=GPa)
#
#
# Indices 1 2 3 4 5 6 
#
# 1 119.0360 25.8227 32.7099 0.0000 -8.5981 0.0000
# 2 25.8227 78.2195 26.5165 0.0000 -1.1653 0.0000
# 3 32.7099 26.5165 106.2351 0.0000 -9.5756 0.0000
# 4 0.0000 0.0000 0.0000 243.9398 0.0000 -38.1937
# 5 -8.5981 -1.1653 -9.5756 0.0000 25.6556 0.0000
# 6 0.0000 0.0000 0.0000 -38.1937 0.0000 22.7312
#
#
#
# Elastic Compliance Matrix: (Units=1/GPa)
#
#
# Indices 1 2 3 4 5 6 
#
# 1 0.009692 -0.002430 -0.002168 0.000000 0.002329 0.000000
# 2 -0.002430 0.014587 -0.003008 0.000000 -0.001274 0.000000
# 3 -0.002168 -0.003008 0.011128 0.000000 0.003290 0.000000
# 4 0.000000 0.000000 0.000000 0.005563 0.000000 0.009347
# 5 0.002329 -0.001274 0.003290 0.000000 0.040928 0.000000
# 6 0.000000 0.000000 0.000000 0.009347 0.000000 0.059697
#
#
# Mechanical properties :
#
#
# Convention : Reuss Voigt Hill
#
# Bulk Modulus (GPa) = 49.51430 52.62098 51.06764
# Shear Modulus (GPa) = 30.57390 73.02811 51.80101
#
# Velocity S-wave (km/s) = 3.87788 5.99327 5.04764
# Velocity P-wave (km/s) = 6.66367 8.58920 7.68697
#
# Compressibility (1/GPa) = 0.02019619
#
# Stress axis : x y z
#
# Youngs Moduli (GPa) = 103.17975 68.55232 89.86490
#
# Poissons Ratio (x) = 0.16658 0.19480
# Poissons Ratio (y) = 0.25073 0.27029
# Poissons Ratio (z) = 0.22366 0.20619
#
# Static dielectric constant tensor:
#      x y z
#    x 3.781840 0.000000 -0.021290 
#    y 0.000000 3.579210 0.000000 
#    z -0.021290 0.000000 3.467240 
# 
# 
# High freq. dielectric constant tensor:
#      x y z
#    x 1.788230 0.000000 -0.015480 
#    y 0.000000 1.781270 0.000000 
#    z -0.015480 0.000000 1.800770 
# 
# From -- ./inp_files/5835.got.cif
#   From: 2010.06.25/outbox.cif.g09.slc.cpg/sg15_3_cif.got.tgz:5835.got - 2010.06.28 07:06:18.
