data_PCOD8137542
_publ_section_title
;
Structure prediction by ZEFSAII (Michael W. Deem and Ramdas Pophale) SiO2 
 PCOD8137542
Probable space group: C 2/C
;
_chemical_formula_sum "Si O2"
_cell_formula_units_Z 52
_cell_length_a 13.726528
_cell_length_b 30.261889
_cell_length_c 7.825271
_cell_angle_alpha 90.000000
_cell_angle_beta 53.277261
_cell_angle_gamma 90.000000
_cell_volume 2605.436272
_symmetry_space_group_name_H-M "C 2/C"
_symmetry_group_IT_number 15
_symmetry_cell_setting 'monoclinic'
loop_
_space_group_symop_operation_xyz
x,y,z
-x,y,1/2-z
-x,-y,-z
x,-y,1/2+z
1/2+x,1/2+y,z
1/2-x,1/2+y,1/2-z
1/2-x,1/2-y,-z
1/2+x,1/2-y,1/2+z
loop_
_atom_site_type_symbol
_atom_site_label
_atom_site_fract_x
_atom_site_fract_y
_atom_site_fract_z
Si Si1 0.009237 0.779323 0.546886
Si Si2 0.131689 0.062227 0.176093
Si Si3 0.726123 0.628969 0.333938
Si Si4 0.762452 0.987209 0.247418
Si Si5 0.368817 0.053555 0.313528
Si Si6 0.500000 0.652991 0.750000
Si Si7 0.251233 0.732677 0.191515
O O1 0.026622 0.818047 0.391014
O O2 0.882442 0.753015 0.635608
O O3 0.000000 0.797953 0.750000
O O4 0.131320 0.749709 0.414245
O O5 0.187582 0.107341 0.193608
O O6 0.000000 0.074434 0.250000
O O7 0.129976 0.022477 0.318988
O O8 0.210050 0.046148 0.933680
O O9 0.844681 0.603461 0.277017
O O10 0.616094 0.622718 0.586352
O O11 0.758352 0.679980 0.282338
O O12 0.733300 0.957486 0.439955
O O13 0.645905 0.018041 0.323510
O O14 0.500000 0.050415 0.250000
O O15 0.250000 0.750000 0.000000
#
# Coordination Sequence:
#
# PCOD8137542 Si02
#       7
#     8   8   8   8   8   4   8
#     4  11  22  41  70  93 118 167 221 254 319 385
#     4  10  20  36  59  89 124 158 199 253 306 371
#     4  10  23  37  59  89 123 154 202 248 316 363
#     4   9  20  37  57  84 116 159 205 243 298 366
#     4  10  20  37  57  84 115 159 202 242 299 359
#     4  10  22  44  60  88 132 162 202 264 318 378
#     4  11  21  44  64  90 129 170 206 266 324 379
#
# _framework density 19.958269000000001
#
# number of rings (size 3 to 8) (size 9 to 14) (size 15 to 20)
#    0.000    1.846    3.077    1.385    2.154    3.692 
#    2.769    1.538    0.000    0.000    0.000    0.000 
#    0.000    0.000    0.000    0.000    0.000    0.000 
#
# Total GULP energy -322180.348838 kJ/mol
# GULP energy per Si atom -12391.551878 kJ/mol
# Density = 1.991284 g / cm^3
# Si number density = 19.958269 Si / 1000 Ang^3
#
#
#
# Elastic Constant Matrix: (Units=GPa)
#
#
# Indices 1 2 3 4 5 6 
#
# 1 113.8490 30.5588 18.5952 0.0000 5.3391 0.0000
# 2 30.5588 97.6710 25.6523 0.0000 8.1130 0.0000
# 3 18.5952 25.6523 60.4796 0.0000 15.3211 0.0000
# 4 0.0000 0.0000 0.0000 25.7529 0.0000 2.2808
# 5 5.3391 8.1130 15.3211 0.0000 42.1898 0.0000
# 6 0.0000 0.0000 0.0000 2.2808 0.0000 23.0092
#
#
#
# Elastic Compliance Matrix: (Units=1/GPa)
#
#
# Indices 1 2 3 4 5 6 
#
# 1 0.009784 -0.002555 -0.001911 0.000000 -0.000053 0.000000
# 2 -0.002555 0.012198 -0.004269 0.000000 -0.000472 0.000000
# 3 -0.001911 -0.004269 0.020554 0.000000 -0.006402 0.000000
# 4 0.000000 0.000000 0.000000 0.039174 0.000000 -0.003883
# 5 -0.000053 -0.000472 -0.006402 0.000000 0.026125 0.000000
# 6 0.000000 0.000000 0.000000 -0.003883 0.000000 0.043846
#
#
# Mechanical properties :
#
#
# Convention : Reuss Voigt Hill
#
# Bulk Modulus (GPa) = 39.89299 46.84580 43.36939
# Shear Modulus (GPa) = 28.16799 31.33659 29.75229
#
# Velocity S-wave (km/s) = 3.76086 3.96675 3.86518
# Velocity P-wave (km/s) = 6.23621 6.67106 6.45730
#
# Compressibility (1/GPa) = 0.02506706
#
# Stress axis : x y z
#
# Youngs Moduli (GPa) = 102.20820 81.97967 48.65147
#
# Poissons Ratio (x) = 0.20944 0.09298
# Poissons Ratio (y) = 0.26112 0.20768
# Poissons Ratio (z) = 0.19534 0.34995
#
# Static dielectric constant tensor:
#      x y z
#    x 3.947390 0.000000 0.050340 
#    y 0.000000 3.498790 0.000000 
#    z 0.050340 0.000000 3.706090 
# 
# 
# High freq. dielectric constant tensor:
#      x y z
#    x 1.794790 0.000000 0.010040 
#    y 0.000000 1.766250 0.000000 
#    z 0.010040 0.000000 1.769190 
# 
# From -- ./inp_files/44214.got.cif
#   From: 2010.06.25/outbox.cif.g09.slc.cpg/sg15_23_cif.got.tgz:44214.got - 2010.06.28 07:06:18.
