data_PCOD8137554
_publ_section_title
;
Structure prediction by ZEFSAII (Michael W. Deem and Ramdas Pophale) SiO2 
 PCOD8137554
Probable space group: C 2/C
;
_chemical_formula_sum "Si O2"
_cell_formula_units_Z 48
_cell_length_a 9.298297
_cell_length_b 19.813840
_cell_length_c 18.449921
_cell_angle_alpha 90.000000
_cell_angle_beta 48.047774
_cell_angle_gamma 90.000000
_cell_volume 2527.934497
_symmetry_space_group_name_H-M "C 2/C"
_symmetry_group_IT_number 15
_symmetry_cell_setting 'monoclinic'
loop_
_space_group_symop_operation_xyz
x,y,z
-x,y,1/2-z
-x,-y,-z
x,-y,1/2+z
1/2+x,1/2+y,z
1/2-x,1/2+y,1/2-z
1/2-x,1/2-y,-z
1/2+x,1/2-y,1/2+z
loop_
_atom_site_type_symbol
_atom_site_label
_atom_site_fract_x
_atom_site_fract_y
_atom_site_fract_z
Si Si1 0.976771 0.181876 0.938091
Si Si2 0.897390 0.674586 0.520367
Si Si3 0.234732 0.860905 0.230250
Si Si4 0.000000 0.578930 0.750000
Si Si5 0.330029 0.053676 0.052804
Si Si6 0.158762 0.056003 0.952333
Si Si7 0.500000 0.480233 0.250000
O O1 0.758983 0.159624 0.990065
O O2 0.102363 0.190382 0.821718
O O3 0.069811 0.127409 0.959846
O O4 0.979643 0.250641 0.982597
O O5 0.786728 0.668687 0.634529
O O6 0.078017 0.624024 0.451201
O O7 0.433320 0.873600 0.205983
O O8 0.115790 0.931611 0.266035
O O9 0.824774 0.533816 0.839143
O O10 0.151292 0.029934 0.161148
O O11 0.251598 0.062499 0.999107
O O12 0.500000 0.000000 0.000000
O O13 0.000000 0.000000 0.000000
#
# Coordination Sequence:
#
# PCOD8137554 Si02
#       7
#     8   8   8   4   8   8   4
#     4  10  23  39  64  91 121 168 211 254 309 374
#     4  11  21  41  65  89 125 165 212 255 310 371
#     4  11  19  40  64  87 119 166 204 246 312 379
#     4  10  20  36  59  93 114 164 202 244 308 370
#     4  12  22  39  63  94 122 166 209 259 313 368
#     4  11  22  38  62  92 125 158 213 259 305 365
#     4  12  22  38  67  91 122 162 214 254 312 378
#
# _framework density 18.987832000000001
#
# number of rings (size 3 to 8) (size 9 to 14) (size 15 to 20)
#    0.000    1.000    5.000    3.000    0.000    0.667 
#    3.000    0.833    3.667    0.000    0.000    0.000 
#    0.000    0.000    0.000    0.000    0.000    0.000 
#
# Total GULP energy -297536.063416 kJ/mol
# GULP energy per Si atom -12397.335976 kJ/mol
# Density = 1.894462 g / cm^3
# Si number density = 18.987832 Si / 1000 Ang^3
#
#
#
# Elastic Constant Matrix: (Units=GPa)
#
#
# Indices 1 2 3 4 5 6 
#
# 1 139.5285 70.8223 50.8694 0.0000 -1.2118 0.0000
# 2 70.8223 130.0996 83.8321 0.0000 -7.6460 0.0000
# 3 50.8694 83.8321 144.1303 0.0001 -17.6629 -0.0001
# 4 0.0000 0.0000 0.0001 35.0029 0.0000 -1.8461
# 5 -1.2118 -7.6460 -17.6629 0.0000 29.1990 0.0000
# 6 0.0000 0.0000 -0.0001 -1.8461 0.0000 28.0805
#
#
#
# Elastic Compliance Matrix: (Units=1/GPa)
#
#
# Indices 1 2 3 4 5 6 
#
# 1 0.009983 -0.005017 -0.000773 0.000000 -0.001367 0.000000
# 2 -0.005017 0.014854 -0.006932 0.000000 -0.000512 0.000000
# 3 -0.000773 -0.006932 0.011898 0.000000 0.005350 0.000000
# 4 0.000000 0.000000 0.000000 0.028668 0.000000 0.001885
# 5 -0.001367 -0.000512 0.005350 0.000000 0.037294 0.000000
# 6 0.000000 0.000000 0.000000 0.001885 0.000000 0.035736
#
#
# Mechanical properties :
#
#
# Convention : Reuss Voigt Hill
#
# Bulk Modulus (GPa) = 88.55404 91.64512 90.09958
# Shear Modulus (GPa) = 29.82559 32.33878 31.08219
#
# Velocity S-wave (km/s) = 3.96760 4.13138 4.05032
# Velocity P-wave (km/s) = 8.22968 8.43372 8.33233
#
# Compressibility (1/GPa) = 0.01129254
#
# Stress axis : x y z
#
# Youngs Moduli (GPa) = 100.16577 67.32208 84.04448
#
# Poissons Ratio (x) = 0.33775 0.06497
# Poissons Ratio (y) = 0.50252 0.58257
# Poissons Ratio (z) = 0.07743 0.46666
#
# Static dielectric constant tensor:
#      x y z
#    x 0.698320 0.000000 3.733300 
#    y 0.000000 3.360100 0.000000 
#    z 3.733300 0.000000 -1.014950 
# 
# 
# High freq. dielectric constant tensor:
#      x y z
#    x 1.768250 0.000000 -0.006240 
#    y 0.000000 1.711610 0.000000 
#    z -0.006240 0.000000 1.743970 
# 
# From -- ./inp_files/135955.got.cif
#   From: 2010.06.25/outbox.cif.g09.slc.cpg/sg15_68_cif.got.tgz:135955.got - 2010.06.28 07:06:18.
