data_PCOD8137717
_publ_section_title
;
Structure prediction by ZEFSAII (Michael W. Deem and Ramdas Pophale) SiO2 
 PCOD8137717
Probable space group: C 2/C
;
_chemical_formula_sum "Si O2"
_cell_formula_units_Z 44
_cell_length_a 14.678193
_cell_length_b 17.230092
_cell_length_c 16.702936
_cell_angle_alpha 90.000000
_cell_angle_beta 34.896879
_cell_angle_gamma 90.000000
_cell_volume 2416.717373
_symmetry_space_group_name_H-M "C 2/C"
_symmetry_group_IT_number 15
_symmetry_cell_setting 'monoclinic'
loop_
_space_group_symop_operation_xyz
x,y,z
-x,y,1/2-z
-x,-y,-z
x,-y,1/2+z
1/2+x,1/2+y,z
1/2-x,1/2+y,1/2-z
1/2-x,1/2-y,-z
1/2+x,1/2-y,1/2+z
loop_
_atom_site_type_symbol
_atom_site_label
_atom_site_fract_x
_atom_site_fract_y
_atom_site_fract_z
Si Si1 0.000000 0.306487 0.250000
Si Si2 0.784471 0.900375 0.972719
Si Si3 0.626509 0.205007 0.033818
Si Si4 0.732782 0.189107 0.182758
Si Si5 0.111726 0.834449 0.763676
Si Si6 0.826657 0.435762 0.903959
O O1 0.102476 0.253129 0.236577
O O2 0.879698 0.359404 0.386185
O O3 0.810129 0.890976 0.858949
O O4 0.932724 0.862520 0.913225
O O5 0.781388 0.990487 0.998958
O O6 0.446317 0.221574 0.190460
O O7 0.658080 0.113281 0.023951
O O8 0.750000 0.250000 0.000000
O O9 0.655545 0.237614 0.923300
O O10 0.779229 0.161012 0.237180
O O11 0.754884 0.116706 0.106329
O O12 0.000000 0.463616 0.750000
#
# Coordination Sequence:
#
# PCOD8137717 Si02
#       6
#     4   8   8   8   8   8
#     4  10  20  36  62  72 108 156 194 218 286 330
#     4  10  20  38  58  77 113 154 182 227 287 329
#     4   9  19  37  58  83 110 149 185 225 279 332
#     4  10  21  36  60  85 114 141 190 236 272 331
#     4  10  22  36  53  87 112 139 192 240 267 328
#     4   9  18  38  58  80 111 150 186 224 282 338
#
# _framework density 18.206515
#
# number of rings (size 3 to 8) (size 9 to 14) (size 15 to 20)
#    0.000    2.545    0.909    3.818    5.091    0.727 
#   13.091    5.455    0.000    0.000    0.000    0.000 
#    0.000    0.000    0.000    0.000    0.000    0.000 
#
# Total GULP energy -272696.725142 kJ/mol
# GULP energy per Si atom -12395.305688 kJ/mol
# Density = 1.816508 g / cm^3
# Si number density = 18.206515 Si / 1000 Ang^3
#
#
#
# Elastic Constant Matrix: (Units=GPa)
#
#
# Indices 1 2 3 4 5 6 
#
# 1 104.4894 35.1745 33.8421 -0.0010 9.3423 -0.0005
# 2 35.1745 102.3103 51.4490 0.0076 7.2585 0.0001
# 3 33.8421 51.4490 100.5515 0.0117 3.0559 0.0025
# 4 -0.0010 0.0076 0.0117 33.8683 0.0033 3.0980
# 5 9.3423 7.2585 3.0559 0.0033 16.6691 -0.0020
# 6 -0.0005 0.0001 0.0025 3.0980 -0.0020 12.0491
#
#
#
# Elastic Compliance Matrix: (Units=1/GPa)
#
#
# Indices 1 2 3 4 5 6 
#
# 1 0.011643 -0.002359 -0.002558 0.000002 -0.005029 0.000000
# 2 -0.002359 0.013986 -0.006252 -0.000001 -0.003622 0.000001
# 3 -0.002558 -0.006252 0.013957 -0.000003 0.001598 -0.000002
# 4 0.000002 -0.000001 -0.000003 0.030237 -0.000007 -0.007774
# 5 -0.005029 -0.003622 0.001598 -0.000007 0.064094 0.000012
# 6 0.000000 0.000001 -0.000002 -0.007774 0.000012 0.084992
#
#
# Mechanical properties :
#
#
# Convention : Reuss Voigt Hill
#
# Bulk Modulus (GPa) = 57.98548 60.92026 59.45287
# Shear Modulus (GPa) = 20.24305 24.97636 22.60970
#
# Velocity S-wave (km/s) = 3.33807 3.70785 3.52781
# Velocity P-wave (km/s) = 6.83921 7.20168 7.02279
#
# Compressibility (1/GPa) = 0.01724570
#
# Stress axis : x y z
#
# Youngs Moduli (GPa) = 85.88926 71.49812 71.64999
#
# Poissons Ratio (x) = 0.16870 0.18331
# Poissons Ratio (y) = 0.20265 0.44797
# Poissons Ratio (z) = 0.21975 0.44702
#
# Static dielectric constant tensor:
#      x y z
#    x 3.235630 0.000000 0.107290 
#    y 0.000000 3.389150 0.000010 
#    z 0.107290 0.000010 3.623650 
# 
# 
# High freq. dielectric constant tensor:
#      x y z
#    x 1.685300 0.000000 -0.002090 
#    y 0.000000 1.699070 0.000000 
#    z -0.002090 0.000000 1.715620 
# 
# From -- ./inp_files/39242.got.cif
#   From: 2010.06.25/outbox.cif.g09.slc.cpg/sg15_20_cif.got.tgz:39242.got - 2010.06.28 07:06:18.
