data_PCOD8137887
_publ_section_title
;
Structure prediction by ZEFSAII (Michael W. Deem and Ramdas Pophale) SiO2 
 PCOD8137887
Probable space group: C 2/C
;
_chemical_formula_sum "Si O2"
_cell_formula_units_Z 60
_cell_length_a 30.078184
_cell_length_b 19.722196
_cell_length_c 8.804605
_cell_angle_alpha 90.000000
_cell_angle_beta 145.542740
_cell_angle_gamma 90.000000
_cell_volume 2955.105834
_symmetry_space_group_name_H-M "C 2/C"
_symmetry_group_IT_number 15
_symmetry_cell_setting 'monoclinic'
loop_
_space_group_symop_operation_xyz
x,y,z
-x,y,1/2-z
-x,-y,-z
x,-y,1/2+z
1/2+x,1/2+y,z
1/2-x,1/2+y,1/2-z
1/2-x,1/2-y,-z
1/2+x,1/2-y,1/2+z
loop_
_atom_site_type_symbol
_atom_site_label
_atom_site_fract_x
_atom_site_fract_y
_atom_site_fract_z
Si Si1 0.255909 0.844134 0.241395
Si Si2 0.143504 0.208935 0.970717
Si Si3 0.837572 0.231029 0.804229
Si Si4 0.435127 0.032465 0.676937
Si Si5 0.500000 0.749704 0.750000
Si Si6 0.833025 0.533424 0.118481
Si Si7 0.241572 0.393746 0.577312
Si Si8 0.915563 0.331318 0.252024
O O1 0.305192 0.775716 0.344997
O O2 0.175390 0.827414 0.105837
O O3 0.305453 0.893995 0.485839
O O4 0.230780 0.881439 0.017147
O O5 0.194860 0.140663 0.133662
O O6 0.114828 0.209191 0.713405
O O7 0.070551 0.204062 0.881783
O O8 0.750000 0.250000 0.500000
O O9 0.886837 0.288992 0.025643
O O10 0.500000 0.999057 0.750000
O O11 0.353216 0.040083 0.353051
O O12 0.463548 0.105483 0.817808
O O13 0.415038 0.982996 0.760289
O O14 0.472340 0.793595 0.528443
O O15 0.767893 0.473908 0.913716
O O16 0.157726 0.358132 0.358226
#
# Coordination Sequence:
#
# PCOD8137887 Si02
#       8
#     8   8   8   8   4   8   8   8
#     4  11  20  37  62  87 120 157 213 264 309 361
#     4  11  23  39  64  92 123 165 209 267 323 376
#     4  10  20  36  65  89 117 156 213 272 315 355
#     4  11  24  39  55  80 131 173 212 245 310 376
#     4  12  26  38  60  96 134 168 208 256 328 392
#     4  11  24  39  58  88 123 167 216 260 313 376
#     4  11  21  41  60  86 124 167 219 265 310 370
#     4  11  23  39  59  90 125 171 211 260 309 376
#
# _framework density 20.303843000000001
#
# number of rings (size 3 to 8) (size 9 to 14) (size 15 to 20)
#    0.000    1.067    5.333    3.200    5.600    0.000 
#    6.000    0.000    0.000    0.000    0.000    8.400 
#    0.000    0.000    0.000    0.000    0.000    0.000 
#
# Total GULP energy -371910.032104 kJ/mol
# GULP energy per Si atom -12397.001070 kJ/mol
# Density = 2.025763 g / cm^3
# Si number density = 20.303843 Si / 1000 Ang^3
#
#
#
# Elastic Constant Matrix: (Units=GPa)
#
#
# Indices 1 2 3 4 5 6 
#
# 1 104.1969 18.6788 -1.4203 0.0000 -6.4994 0.0000
# 2 18.6788 60.1159 17.8981 0.0000 6.6788 0.0000
# 3 -1.4203 17.8981 67.0881 0.0000 -17.5678 0.0000
# 4 0.0000 0.0000 0.0000 26.9378 0.0000 -4.7925
# 5 -6.4994 6.6788 -17.5678 0.0000 34.9355 0.0000
# 6 0.0000 0.0000 0.0000 -4.7925 0.0000 18.4118
#
#
#
# Elastic Compliance Matrix: (Units=1/GPa)
#
#
# Indices 1 2 3 4 5 6 
#
# 1 0.010701 -0.004532 0.002515 0.000000 0.004122 0.000000
# 2 -0.004532 0.021495 -0.008208 0.000000 -0.009080 0.000000
# 3 0.002515 -0.008208 0.020364 0.000000 0.012277 0.000000
# 4 0.000000 0.000000 0.000000 0.038925 0.000000 0.010132
# 5 0.004122 -0.009080 0.012277 0.000000 0.037301 0.000000
# 6 0.000000 0.000000 0.000000 0.010132 0.000000 0.056950
#
#
# Mechanical properties :
#
#
# Convention : Reuss Voigt Hill
#
# Bulk Modulus (GPa) = 31.14302 33.52379 32.33340
# Shear Modulus (GPa) = 23.05324 29.13997 26.09660
#
# Velocity S-wave (km/s) = 3.37324 3.79251 3.58900
# Velocity P-wave (km/s) = 5.52662 5.97699 5.75621
#
# Compressibility (1/GPa) = 0.03210993
#
# Stress axis : x y z
#
# Youngs Moduli (GPa) = 93.44979 46.52212 49.10678
#
# Poissons Ratio (x) = 0.21082 -0.12349
# Poissons Ratio (y) = 0.42347 0.40308
# Poissons Ratio (z) = -0.23501 0.38186
#
# Static dielectric constant tensor:
#      x y z
#    x 4.119530 0.000000 -0.315100 
#    y 0.000000 3.600410 0.000000 
#    z -0.315100 0.000000 3.536110 
# 
# 
# High freq. dielectric constant tensor:
#      x y z
#    x 1.808160 0.000000 -0.035230 
#    y 0.000000 1.767780 0.000000 
#    z -0.035230 0.000000 1.775590 
# 
# From -- ./inp_files/70778.got.cif
#   From: 2010.06.25/outbox.cif.g09.slc.cpg/sg15_36_cif.got.tgz:70778.got - 2010.06.28 07:06:18.
