data_PCOD8137925
_publ_section_title
;
Structure prediction by ZEFSAII (Michael W. Deem and Ramdas Pophale) SiO2 
 PCOD8137925
Probable space group: C 2/C
;
_chemical_formula_sum "Si O2"
_cell_formula_units_Z 60
_cell_length_a 19.653644
_cell_length_b 10.463278
_cell_length_c 31.447044
_cell_angle_alpha 90.000000
_cell_angle_beta 153.440125
_cell_angle_gamma 90.000000
_cell_volume 2891.526636
_symmetry_space_group_name_H-M "C 2/C"
_symmetry_group_IT_number 15
_symmetry_cell_setting 'monoclinic'
loop_
_space_group_symop_operation_xyz
x,y,z
-x,y,1/2-z
-x,-y,-z
x,-y,1/2+z
1/2+x,1/2+y,z
1/2-x,1/2+y,1/2-z
1/2-x,1/2-y,-z
1/2+x,1/2-y,1/2+z
loop_
_atom_site_type_symbol
_atom_site_label
_atom_site_fract_x
_atom_site_fract_y
_atom_site_fract_z
Si Si1 0.867018 0.859641 0.052848
Si Si2 0.920572 0.923536 0.398015
Si Si3 0.620356 0.336020 0.032141
Si Si4 0.614448 0.013549 0.194800
Si Si5 0.000000 0.341699 0.750000
Si Si6 0.646813 0.962474 0.392910
Si Si7 0.139017 0.215162 0.753422
Si Si8 0.957574 0.577301 0.933956
O O1 0.954038 0.836758 0.056092
O O2 0.996320 0.874208 0.160899
O O3 0.750000 0.750000 0.000000
O O4 0.773978 0.991782 0.997981
O O5 0.859597 0.852851 0.406013
O O6 0.776675 0.942139 0.286140
O O7 0.990448 0.063465 0.446078
O O8 0.781037 0.352837 0.096722
O O9 0.574700 0.193158 0.994877
O O10 0.506546 0.930864 0.166850
O O11 0.636491 0.160519 0.221116
O O12 0.536993 0.012718 0.104826
O O13 0.888383 0.420786 0.657817
O O14 0.882014 0.257377 0.710078
O O15 0.290012 0.134382 0.839662
O O16 0.000000 0.500000 0.000000
#
# Coordination Sequence:
#
# PCOD8137925 Si02
#       8
#     8   8   8   8   4   8   8   8
#     4  11  20  36  61  99 121 165 218 284 333 388
#     4  10  21  37  69  90 129 170 220 280 337 400
#     4  10  22  40  60  98 128 166 223 280 332 402
#     4  11  22  42  64  92 129 179 225 269 335 416
#     4  10  20  36  66  98 124 156 226 290 328 380
#     4  10  22  36  65  93 122 168 225 273 338 398
#     4  11  23  39  62  92 131 168 225 278 331 399
#     4  12  28  40  63  97 140 182 224 276 347 410
#
# _framework density 20.750284000000001
#
# number of rings (size 3 to 8) (size 9 to 14) (size 15 to 20)
#    0.000    1.333    5.333    1.600    5.600    1.600 
#    0.000    0.000    0.000    5.600    0.000    0.000 
#    0.000    0.000    0.000    0.000    0.000    0.000 
#
# Total GULP energy -371774.168833 kJ/mol
# GULP energy per Si atom -12392.472294 kJ/mol
# Density = 2.070306 g / cm^3
# Si number density = 20.750284 Si / 1000 Ang^3
#
#
#
# Elastic Constant Matrix: (Units=GPa)
#
#
# Indices 1 2 3 4 5 6 
#
# 1 132.4706 44.2821 50.4184 -0.0002 -3.8582 0.0000
# 2 44.2821 66.5173 31.5838 -0.0001 -0.1476 0.0000
# 3 50.4184 31.5838 109.9341 0.0002 0.7055 0.0002
# 4 -0.0002 -0.0001 0.0002 24.0287 0.0004 1.4124
# 5 -3.8582 -0.1476 0.7055 0.0004 41.4139 -0.0001
# 6 0.0000 0.0000 0.0002 1.4124 -0.0001 28.0043
#
#
#
# Elastic Compliance Matrix: (Units=1/GPa)
#
#
# Indices 1 2 3 4 5 6 
#
# 1 0.010695 -0.005541 -0.003319 0.000000 0.001033 0.000000
# 2 -0.005541 0.020280 -0.003283 0.000000 -0.000388 0.000000
# 3 -0.003319 -0.003283 0.011565 0.000000 -0.000518 0.000000
# 4 0.000000 0.000000 0.000000 0.041741 0.000000 -0.002105
# 5 0.001033 -0.000388 -0.000518 0.000000 0.024250 0.000000
# 6 0.000000 0.000000 0.000000 -0.002105 0.000000 0.035815
#
#
# Mechanical properties :
#
#
# Convention : Reuss Voigt Hill
#
# Bulk Modulus (GPa) = 54.78403 62.38782 58.58592
# Shear Modulus (GPa) = 28.61764 30.86521 29.74142
#
# Velocity S-wave (km/s) = 3.71771 3.86094 3.79000
# Velocity P-wave (km/s) = 6.69981 7.07157 6.88820
#
# Compressibility (1/GPa) = 0.01825350
#
# Stress axis : x y z
#
# Youngs Moduli (GPa) = 93.50476 49.30862 86.46644
#
# Poissons Ratio (x) = 0.27323 0.28702
# Poissons Ratio (y) = 0.51813 0.28384
# Poissons Ratio (z) = 0.31039 0.16186
#
# Static dielectric constant tensor:
#      x y z
#    x 4.214880 0.000000 -0.134560 
#    y 0.000000 3.480580 0.000000 
#    z -0.134560 0.000000 3.891250 
# 
# 
# High freq. dielectric constant tensor:
#      x y z
#    x 1.824270 0.000000 0.003520 
#    y 0.000000 1.770660 0.000000 
#    z 0.003520 0.000000 1.826210 
# 
# From -- ./inp_files/316090.got.cif
#   From: 2010.06.25/outbox.cif.g09.slc.cpg/sg15_159_cif.got.tgz:316090.got - 2010.06.28 07:06:18.
