data_PCOD8137192
_publ_section_title
;
Structure prediction by ZEFSAII (Michael W. Deem and Ramdas Pophale) SiO2 
 PCOD8137192
Probable space group: C 2/C
;
_chemical_formula_sum "Si O2"
_cell_formula_units_Z 64
_cell_length_a 22.527088
_cell_length_b 8.977964
_cell_length_c 30.332807
_cell_angle_alpha 90.000000
_cell_angle_beta 148.958985
_cell_angle_gamma 90.000000
_cell_volume 3163.383456
_symmetry_space_group_name_H-M "C 2/C"
_symmetry_group_IT_number 15
_symmetry_cell_setting 'monoclinic'
loop_
_space_group_symop_operation_xyz
x,y,z
-x,y,1/2-z
-x,-y,-z
x,-y,1/2+z
1/2+x,1/2+y,z
1/2-x,1/2+y,1/2-z
1/2-x,1/2-y,-z
1/2+x,1/2-y,1/2+z
loop_
_atom_site_type_symbol
_atom_site_label
_atom_site_fract_x
_atom_site_fract_y
_atom_site_fract_z
Si Si1 0.466560 0.194847 0.509040
Si Si2 0.402196 0.709616 0.268729
Si Si3 0.288757 0.429423 0.364204
Si Si4 0.124656 0.011974 0.824215
Si Si5 0.359260 0.886955 0.454653
Si Si6 0.157263 0.123013 0.437491
Si Si7 0.379061 0.410674 0.007542
Si Si8 0.100840 0.926988 0.646022
O O1 0.372500 0.285239 0.420345
O O2 0.577070 0.161980 0.549218
O O3 0.515552 0.291444 0.579785
O O4 0.408636 0.052106 0.495867
O O5 0.342564 0.871033 0.224422
O O6 0.392886 0.634579 0.215599
O O7 0.536924 0.710758 0.366444
O O8 0.339894 0.617800 0.269525
O O9 0.312180 0.532279 0.421304
O O10 0.307043 0.531618 0.332615
O O11 0.173182 0.963505 0.902103
O O12 0.000000 0.094957 0.750000
O O13 0.220333 0.110208 0.859931
O O14 0.374131 0.769660 0.504359
O O15 0.250000 0.250000 0.500000
O O16 0.177338 0.994076 0.486823
O O17 0.516223 0.432897 0.095933
#
# Coordination Sequence:
#
# PCOD8137192 Si02
#       8
#     8   8   8   8   8   8   8   8
#     4  10  20  35  64  89 121 157 199 236 305 381
#     4  10  22  36  59  84 121 158 199 245 308 369
#     4  11  18  39  59  90 120 157 188 247 303 375
#     4  10  22  40  57  81 120 163 195 248 305 355
#     4  11  20  35  63  90 116 156 201 245 308 370
#     4  10  22  40  63  85 108 160 218 261 297 354
#     4  10  20  37  64  88 118 152 205 260 301 352
#     4  10  20  37  58  90 123 158 194 241 304 373
#
# _framework density 20.231501999999999
#
# number of rings (size 3 to 8) (size 9 to 14) (size 15 to 20)
#    0.000    1.750    3.750    1.500    3.500    1.500 
#    0.000    1.250    5.500    0.000    0.000    0.000 
#    0.000    0.000    0.000    0.000    0.000    0.000 
#
# Total GULP energy -396452.798545 kJ/mol
# GULP energy per Si atom -12389.149955 kJ/mol
# Density = 2.018545 g / cm^3
# Si number density = 20.231502 Si / 1000 Ang^3
#
#
#
# Elastic Constant Matrix: (Units=GPa)
#
#
# Indices 1 2 3 4 5 6 
#
# 1 105.3144 29.1460 44.0457 0.0000 -5.7795 0.0000
# 2 29.1460 92.9513 26.6658 0.0001 6.7746 -0.0001
# 3 44.0457 26.6658 61.3611 0.0000 6.4831 0.0000
# 4 0.0000 0.0001 0.0000 20.5055 0.0000 5.5180
# 5 -5.7795 6.7746 6.4831 0.0000 39.0046 0.0000
# 6 0.0000 -0.0001 0.0000 5.5180 0.0000 32.7106
#
#
#
# Elastic Compliance Matrix: (Units=1/GPa)
#
#
# Indices 1 2 3 4 5 6 
#
# 1 0.014422 -0.001974 -0.009930 0.000000 0.004130 0.000000
# 2 -0.001974 0.012623 -0.003874 0.000000 -0.001841 0.000000
# 3 -0.009930 -0.003874 0.025643 0.000000 -0.005061 0.000000
# 4 0.000000 0.000000 0.000000 0.051086 0.000000 -0.008618
# 5 0.004130 -0.001841 -0.005061 0.000000 0.027411 0.000000
# 6 0.000000 0.000000 0.000000 -0.008618 0.000000 0.032025
#
#
# Mechanical properties :
#
#
# Convention : Reuss Voigt Hill
#
# Bulk Modulus (GPa) = 47.32461 51.03800 49.18130
# Shear Modulus (GPa) = 24.77566 29.09543 26.93555
#
# Velocity S-wave (km/s) = 3.50324 3.79638 3.65275
# Velocity P-wave (km/s) = 6.30919 6.67071 6.49247
#
# Compressibility (1/GPa) = 0.02113066
#
# Stress axis : x y z
#
# Youngs Moduli (GPa) = 69.34014 79.22109 38.99649
#
# Poissons Ratio (x) = 0.15640 0.38725
# Poissons Ratio (y) = 0.13690 0.15107
# Poissons Ratio (z) = 0.68858 0.30689
#
# Static dielectric constant tensor:
#      x y z
#    x 3.557990 0.000000 -0.073460 
#    y 0.000000 3.655560 0.000000 
#    z -0.073460 0.000000 3.584870 
# 
# 
# High freq. dielectric constant tensor:
#      x y z
#    x 1.800220 0.000000 -0.001350 
#    y 0.000000 1.773620 0.000000 
#    z -0.001350 0.000000 1.774360 
# 
# From -- ./inp_files/318626.got.cif
#   From: 2010.06.25/outbox.cif.g09.slc.cpg/sg15_160_cif.got.tgz:318626.got - 2010.06.28 07:06:18.
