data_PCOD8137461
_publ_section_title
;
Structure prediction by ZEFSAII (Michael W. Deem and Ramdas Pophale) SiO2 
 PCOD8137461
Probable space group: C 2/C
;
_chemical_formula_sum "Si O2"
_cell_formula_units_Z 60
_cell_length_a 13.813745
_cell_length_b 15.568001
_cell_length_c 24.469670
_cell_angle_alpha 90.000000
_cell_angle_beta 146.852879
_cell_angle_gamma 90.000000
_cell_volume 2877.355622
_symmetry_space_group_name_H-M "C 2/C"
_symmetry_group_IT_number 15
_symmetry_cell_setting 'monoclinic'
loop_
_space_group_symop_operation_xyz
x,y,z
-x,y,1/2-z
-x,-y,-z
x,-y,1/2+z
1/2+x,1/2+y,z
1/2-x,1/2+y,1/2-z
1/2-x,1/2-y,-z
1/2+x,1/2-y,1/2+z
loop_
_atom_site_type_symbol
_atom_site_label
_atom_site_fract_x
_atom_site_fract_y
_atom_site_fract_z
Si Si1 0.165054 0.128272 0.363070
Si Si2 0.531234 0.583507 0.630821
Si Si3 0.173850 0.066998 0.863922
Si Si4 0.057934 0.895664 0.642503
Si Si5 0.116743 0.728978 0.193327
Si Si6 0.619724 0.377408 0.554359
Si Si7 0.521171 0.810067 0.986502
Si Si8 0.500000 0.159143 0.250000
O O1 0.334882 0.186561 0.430750
O O2 0.000000 0.164264 0.250000
O O3 0.114772 0.128889 0.403559
O O4 0.207763 0.031671 0.364286
O O5 0.356761 0.586145 0.586290
O O6 0.629169 0.492644 0.692064
O O7 0.649941 0.668787 0.697397
O O8 0.468856 0.576460 0.538717
O O9 0.000000 0.101395 0.750000
O O10 0.353082 0.114801 0.931687
O O11 0.200024 0.821787 0.719981
O O12 0.004809 0.900432 0.553664
O O13 0.002748 0.688040 0.090299
O O14 0.015224 0.717967 0.202720
O O15 0.623273 0.275487 0.550176
O O16 0.827145 0.402251 0.661743
#
# Coordination Sequence:
#
# PCOD8137461 Si02
#       8
#     8   8   8   8   8   8   8   4
#     4  10  20  39  57  83 119 161 198 247 296 354
#     4  10  21  38  60  89 122 158 197 250 309 353
#     4  10  22  34  58  91 122 150 196 252 316 358
#     4  10  21  39  62  84 120 164 201 247 293 360
#     4  10  21  36  59  89 118 156 196 243 308 354
#     4  10  22  36  60  87 119 162 198 246 297 360
#     4  11  21  36  59  88 120 156 198 247 302 361
#     4  10  20  36  58  90 126 148 200 254 302 362
#
# _framework density 20.85248
#
# number of rings (size 3 to 8) (size 9 to 14) (size 15 to 20)
#    0.000    1.867    1.333    2.400    5.600    2.667 
#    0.000    0.000    0.000   12.800    0.000    0.000 
#    0.000    0.000    0.000    0.000    0.000    0.000 
#
# Total GULP energy -371827.309914 kJ/mol
# GULP energy per Si atom -12394.243664 kJ/mol
# Density = 2.080502 g / cm^3
# Si number density = 20.852480 Si / 1000 Ang^3
#
#
#
# Elastic Constant Matrix: (Units=GPa)
#
#
# Indices 1 2 3 4 5 6 
#
# 1 133.1715 14.1751 42.2525 0.0000 -11.6227 0.0000
# 2 14.1751 60.4534 24.0246 -0.0001 4.0251 0.0000
# 3 42.2525 24.0246 69.9522 -0.0003 6.8748 -0.0001
# 4 0.0000 -0.0001 -0.0003 16.2061 -0.0001 3.6181
# 5 -11.6227 4.0251 6.8748 -0.0001 33.5198 -0.0001
# 6 0.0000 0.0000 -0.0001 3.6181 -0.0001 25.3914
#
#
#
# Elastic Compliance Matrix: (Units=1/GPa)
#
#
# Indices 1 2 3 4 5 6 
#
# 1 0.009993 -0.000089 -0.006478 0.000000 0.004804 0.000000
# 2 -0.000089 0.019188 -0.006437 0.000000 -0.001015 0.000000
# 3 -0.006478 -0.006437 0.020987 0.000000 -0.005777 0.000000
# 4 0.000000 0.000000 0.000000 0.063733 0.000000 -0.009082
# 5 0.004804 -0.001015 -0.005777 0.000000 0.032806 0.000000
# 6 0.000000 0.000000 0.000000 -0.009082 0.000000 0.040677
#
#
# Mechanical properties :
#
#
# Convention : Reuss Voigt Hill
#
# Bulk Modulus (GPa) = 41.38826 47.16461 44.27643
# Shear Modulus (GPa) = 22.57911 27.23179 24.90545
#
# Velocity S-wave (km/s) = 3.29417 3.61768 3.45971
# Velocity P-wave (km/s) = 5.86173 6.33384 6.10235
#
# Compressibility (1/GPa) = 0.02416144
#
# Stress axis : x y z
#
# Youngs Moduli (GPa) = 100.06910 52.11584 47.64959
#
# Poissons Ratio (x) = 0.00463 0.30866
# Poissons Ratio (y) = 0.00888 0.30670
# Poissons Ratio (z) = 0.64822 0.33545
#
# Static dielectric constant tensor:
#      x y z
#    x 4.100740 0.000000 -0.322080 
#    y 0.000000 3.708050 0.000000 
#    z -0.322080 0.000000 3.591410 
# 
# 
# High freq. dielectric constant tensor:
#      x y z
#    x 1.827910 0.000000 -0.020580 
#    y 0.000000 1.808190 0.000000 
#    z -0.020580 0.000000 1.793150 
# 
# From -- ./inp_files/296716.got.cif
#   From: 2010.06.25/outbox.cif.g09.slc.cpg/sg15_149_cif.got.tgz:296716.got - 2010.06.28 07:06:18.
