data_PCOD8137022
_publ_section_title
;
Structure prediction by ZEFSAII (Michael W. Deem and Ramdas Pophale) SiO2 
 PCOD8137022
Probable space group: C 2/C
;
_chemical_formula_sum "Si O2"
_cell_formula_units_Z 64
_cell_length_a 29.847691
_cell_length_b 20.877901
_cell_length_c 14.378300
_cell_angle_alpha 90.000000
_cell_angle_beta 160.491144
_cell_angle_gamma 90.000000
_cell_volume 2992.194955
_symmetry_space_group_name_H-M "C 2/C"
_symmetry_group_IT_number 15
_symmetry_cell_setting 'monoclinic'
loop_
_space_group_symop_operation_xyz
x,y,z
-x,y,1/2-z
-x,-y,-z
x,-y,1/2+z
1/2+x,1/2+y,z
1/2-x,1/2+y,1/2-z
1/2-x,1/2-y,-z
1/2+x,1/2-y,1/2+z
loop_
_atom_site_type_symbol
_atom_site_label
_atom_site_fract_x
_atom_site_fract_y
_atom_site_fract_z
Si Si1 0.498941 0.632233 0.137653
Si Si2 0.271134 0.415462 0.529786
Si Si3 0.227436 0.820964 0.816171
Si Si4 0.537100 0.123312 0.077629
Si Si5 0.866483 0.144381 0.552209
Si Si6 0.310304 0.437962 0.119130
Si Si7 0.992126 0.720094 0.627226
Si Si8 0.011481 0.268077 0.668985
O O1 0.500000 0.615296 0.250000
O O2 0.652861 0.619368 0.407425
O O3 0.452194 0.706201 0.030173
O O4 0.395608 0.590423 0.872770
O O5 0.324796 0.381604 0.727925
O O6 0.330021 0.486455 0.652552
O O7 0.108636 0.411028 0.207405
O O8 0.250741 0.845882 0.754693
O O9 0.129065 0.761695 0.635749
O O10 0.359472 0.792690 0.122347
O O11 0.650803 0.071069 0.320036
O O12 0.549979 0.171521 0.186428
O O13 0.587833 0.164676 0.085831
O O14 0.851615 0.088802 0.598295
O O15 0.000000 0.134664 0.750000
O O16 0.875788 0.212842 0.622784
O O17 0.000000 0.704162 0.750000
O O18 0.000000 0.294384 0.750000
#
# Coordination Sequence:
#
# PCOD8137022 Si02
#       8
#     8   8   8   8   8   8   8   8
#     4  11  25  41  62  91 119 152 197 252 303 346
#     4  11  24  42  60  84 121 165 204 236 285 353
#     4   9  18  36  60  84 114 157 199 239 293 358
#     4  11  23  39  62  89 122 159 193 242 300 352
#     4   9  19  36  61  90 117 153 198 246 299 351
#     4  12  25  40  60  89 122 159 204 244 284 347
#     4  10  20  35  58  89 120 147 190 249 306 355
#     4   9  19  35  59  88 116 149 194 245 302 357
#
# _framework density 21.388981000000001
#
# number of rings (size 3 to 8) (size 9 to 14) (size 15 to 20)
#    0.000    2.000    0.000    5.250    0.000   10.500 
#    0.000    0.625    0.000    4.500    0.000    0.000 
#    0.000    0.000    0.000    0.000    0.000    0.000 
#
# Total GULP energy -396424.268489 kJ/mol
# GULP energy per Si atom -12388.258390 kJ/mol
# Density = 2.134030 g / cm^3
# Si number density = 21.388981 Si / 1000 Ang^3
#
#
#
# Elastic Constant Matrix: (Units=GPa)
#
#
# Indices 1 2 3 4 5 6 
#
# 1 85.7291 27.8183 12.0120 0.0000 -11.2713 0.0000
# 2 27.8183 80.1663 5.9262 0.0000 -5.8882 0.0000
# 3 12.0120 5.9262 62.3846 0.0000 -5.1704 0.0000
# 4 0.0000 0.0000 0.0000 34.1426 0.0000 12.9154
# 5 -11.2713 -5.8882 -5.1704 0.0000 21.6566 0.0000
# 6 0.0000 0.0000 0.0000 12.9154 0.0000 -5.5241
#
#
#
# Elastic Compliance Matrix: (Units=1/GPa)
#
#
# Indices 1 2 3 4 5 6 
#
# 1 0.014077 -0.004330 -0.001826 0.000000 0.005713 0.000000
# 2 -0.004330 0.014115 -0.000383 0.000000 0.001492 0.000000
# 3 -0.001826 -0.000383 0.016660 0.000000 0.002923 0.000000
# 4 0.000000 0.000000 0.000000 0.015543 0.000000 0.036339
# 5 0.005713 0.001492 0.002923 0.000000 0.050252 0.000000
# 6 0.000000 0.000000 0.000000 0.036339 0.000000 -0.096064
#
#
# Mechanical properties :
#
#
# Convention : Reuss Voigt Hill
#
# Bulk Modulus (GPa) = 31.47335 35.53257 33.50296
# Shear Modulus (GPa) = 130.71310 22.22324 76.46817
#
# Velocity S-wave (km/s) = 7.82592 3.22686 5.98572
# Velocity P-wave (km/s) = 9.81869 5.52558 7.96677
#
# Compressibility (1/GPa) = 0.03177291
#
# Stress axis : x y z
#
# Youngs Moduli (GPa) = 71.03954 70.84849 60.02477
#
# Poissons Ratio (x) = 0.30678 0.10958
# Poissons Ratio (y) = 0.30761 0.02301
# Poissons Ratio (z) = 0.12969 0.02716
#
# Static dielectric constant tensor:
#      x y z
#    x 3.966020 0.000000 -0.036640 
#    y 0.000000 3.670000 0.000000 
#    z -0.036640 0.000000 4.047300 
# 
# 
# High freq. dielectric constant tensor:
#      x y z
#    x 1.847710 0.000000 -0.001590 
#    y 0.000000 1.823460 0.000000 
#    z -0.001590 0.000000 1.849950 
# 
# From -- ./inp_files/183171.got.cif
#   From: 2010.06.25/outbox.cif.g09.slc.cpg/sg15_92_cif.got.tgz:183171.got - 2010.06.28 07:06:18.
