data_PCOD8137862
_publ_section_title
;
Structure prediction by ZEFSAII (Michael W. Deem and Ramdas Pophale) SiO2 
 PCOD8137862
Probable space group: C 2/C
;
_chemical_formula_sum "Si O2"
_cell_formula_units_Z 56
_cell_length_a 7.827632
_cell_length_b 26.494606
_cell_length_c 13.959397
_cell_angle_alpha 90.000000
_cell_angle_beta 69.834277
_cell_angle_gamma 90.000000
_cell_volume 2717.572114
_symmetry_space_group_name_H-M "C 2/C"
_symmetry_group_IT_number 15
_symmetry_cell_setting 'monoclinic'
loop_
_space_group_symop_operation_xyz
x,y,z
-x,y,1/2-z
-x,-y,-z
x,-y,1/2+z
1/2+x,1/2+y,z
1/2-x,1/2+y,1/2-z
1/2-x,1/2-y,-z
1/2+x,1/2-y,1/2+z
loop_
_atom_site_type_symbol
_atom_site_label
_atom_site_fract_x
_atom_site_fract_y
_atom_site_fract_z
Si Si1 0.409043 0.826357 0.170344
Si Si2 0.145108 0.563273 0.853290
Si Si3 0.521032 0.772329 0.978234
Si Si4 0.640589 0.563964 0.500318
Si Si5 0.794218 0.226028 0.256924
Si Si6 0.188916 0.179417 0.440586
Si Si7 0.751990 0.469754 0.374163
O O1 0.500000 0.845341 0.250000
O O2 0.316593 0.876581 0.147750
O O3 0.259656 0.782528 0.221365
O O4 0.563505 0.801172 0.070598
O O5 0.251756 0.543988 0.926193
O O6 0.231171 0.537757 0.742887
O O7 0.929236 0.551070 0.896882
O O8 0.672272 0.784816 0.871978
O O9 0.333635 0.798182 0.985223
O O10 0.495192 0.712359 0.003885
O O11 0.670626 0.621060 0.464644
O O12 0.719763 0.529148 0.399747
O O13 0.424089 0.559645 0.553714
O O14 0.748049 0.186211 0.182216
O O15 0.000000 0.220612 0.250000
#
# Coordination Sequence:
#
# PCOD8137862 Si02
#       7
#     8   8   8   8   8   8   8
#     4  10  20  36  64  92 122 166 215 252 315 378
#     4  11  21  43  65  95 123 166 209 265 325 371
#     4  10  21  40  60  91 131 167 203 259 308 384
#     4  11  23  43  66  95 124 169 210 267 321 375
#     4  10  23  38  58  94 132 166 209 258 312 382
#     4  10  22  40  62  91 127 167 211 252 318 382
#     4  10  24  41  65  94 127 156 219 268 312 384
#
# _framework density 20.606628000000001
#
# number of rings (size 3 to 8) (size 9 to 14) (size 15 to 20)
#    0.000    1.714    2.857    1.286    2.000    6.286 
#    5.143    2.857    0.000    0.000    0.000    0.000 
#    0.000    0.000    0.000    0.000    0.000    0.000 
#
# Total GULP energy -347046.319917 kJ/mol
# GULP energy per Si atom -12394.511426 kJ/mol
# Density = 2.055973 g / cm^3
# Si number density = 20.606628 Si / 1000 Ang^3
#
#
#
# Elastic Constant Matrix: (Units=GPa)
#
#
# Indices 1 2 3 4 5 6 
#
# 1 69.1675 33.6191 27.2314 0.0000 -5.8976 0.0000
# 2 33.6191 142.8329 56.4292 0.0000 -0.2899 0.0000
# 3 27.2314 56.4292 139.8226 0.0000 -6.4948 0.0000
# 4 0.0000 0.0000 0.0000 26.1417 0.0000 9.2604
# 5 -5.8976 -0.2899 -6.4948 0.0000 25.8116 0.0000
# 6 0.0000 0.0000 0.0000 9.2604 0.0000 18.8872
#
#
#
# Elastic Compliance Matrix: (Units=1/GPa)
#
#
# Indices 1 2 3 4 5 6 
#
# 1 0.017068 -0.003283 -0.001841 0.000000 0.003400 0.000000
# 2 -0.003283 0.008976 -0.003049 0.000000 -0.001416 0.000000
# 3 -0.001841 -0.003049 0.008823 0.000000 0.001765 0.000000
# 4 0.000000 0.000000 0.000000 0.046293 0.000000 -0.022698
# 5 0.003400 -0.001416 0.001765 0.000000 0.039947 0.000000
# 6 0.000000 0.000000 0.000000 -0.022698 0.000000 0.064075
#
#
# Mechanical properties :
#
#
# Convention : Reuss Voigt Hill
#
# Bulk Modulus (GPa) = 53.99415 65.15359 59.57387
# Shear Modulus (GPa) = 24.07302 29.80433 26.93867
#
# Velocity S-wave (km/s) = 3.42163 3.80721 3.61956
# Velocity P-wave (km/s) = 6.47065 7.14233 6.81477
#
# Compressibility (1/GPa) = 0.01852053
#
# Stress axis : x y z
#
# Youngs Moduli (GPa) = 58.58852 111.41416 113.34149
#
# Poissons Ratio (x) = 0.36578 0.20869
# Poissons Ratio (y) = 0.19235 0.34554
# Poissons Ratio (z) = 0.10788 0.33967
#
# Static dielectric constant tensor:
#      x y z
#    x 3.731490 0.000000 0.186180 
#    y 0.000000 3.700600 0.000000 
#    z 0.186180 0.000000 3.911800 
# 
# 
# High freq. dielectric constant tensor:
#      x y z
#    x 1.800450 0.000000 0.015530 
#    y 0.000000 1.798920 0.000000 
#    z 0.015530 0.000000 1.815290 
# 
# From -- ./inp_files/137695.got.cif
#   From: 2010.06.25/outbox.cif.g09.slc.cpg/sg15_69_cif.got.tgz:137695.got - 2010.06.28 07:06:18.
