data_PCOD8137479
_publ_section_title
;
Structure prediction by ZEFSAII (Michael W. Deem and Ramdas Pophale) SiO2 
 PCOD8137479
Probable space group: C 2/C
;
_chemical_formula_sum "Si O2"
_cell_formula_units_Z 36
_cell_length_a 26.949345
_cell_length_b 5.161922
_cell_length_c 21.273837
_cell_angle_alpha 90.000000
_cell_angle_beta 139.857474
_cell_angle_gamma 90.000000
_cell_volume 1907.907062
_symmetry_space_group_name_H-M "C 2/C"
_symmetry_group_IT_number 15
_symmetry_cell_setting 'monoclinic'
loop_
_space_group_symop_operation_xyz
x,y,z
-x,y,1/2-z
-x,-y,-z
x,-y,1/2+z
1/2+x,1/2+y,z
1/2-x,1/2+y,1/2-z
1/2-x,1/2-y,-z
1/2+x,1/2-y,1/2+z
loop_
_atom_site_type_symbol
_atom_site_label
_atom_site_fract_x
_atom_site_fract_y
_atom_site_fract_z
Si Si1 0.729949 0.261182 0.648931
Si Si2 0.514981 0.268121 0.639148
Si Si3 0.678558 0.261141 0.740370
Si Si4 0.075541 0.751880 0.433007
Si Si5 0.000000 0.007700 0.750000
O O1 0.686885 0.250866 0.673726
O O2 0.775818 0.526318 0.683305
O O3 0.666316 0.237280 0.533093
O O4 0.789824 0.027030 0.700152
O O5 0.588791 0.233951 0.667306
O O6 0.463316 0.511383 0.565043
O O7 0.540499 0.325134 0.736481
O O8 0.463783 0.013035 0.583947
O O9 0.062909 0.809452 0.346101
#
# Coordination Sequence:
#
# PCOD8137479 Si02
#       5
#     8   8   8   8   4
#     4  10  21  37  56  83 116 142 174 224 277 327
#     4  10  20  36  59  79 110 145 184 224 269 316
#     4  10  21  37  56  83 116 142 174 224 277 327
#     4  10  20  36  59  79 110 145 184 224 269 316
#     4   8  22  36  56  80 110 140 188 234 258 308
#
# _framework density 18.868842999999998
#
# number of rings (size 3 to 8) (size 9 to 14) (size 15 to 20)
#    1.333    0.889    0.000    3.333    0.000    1.778 
#    0.000    2.222    0.000    0.000    0.000    0.000 
#    0.000    0.000    0.000    0.000    0.000    0.000 
#
# Total GULP energy -223114.936691 kJ/mol
# GULP energy per Si atom -12395.274261 kJ/mol
# Density = 1.882590 g / cm^3
# Si number density = 18.868843 Si / 1000 Ang^3
#
#
#
# Elastic Constant Matrix: (Units=GPa)
#
#
# Indices 1 2 3 4 5 6 
#
# 1 17.6249 10.1153 -10.5989 0.0029 8.8898 0.0102
# 2 10.1153 117.2166 17.6803 -0.0205 -1.3481 -0.0322
# 3 -10.5989 17.6803 80.2177 -0.0063 -7.8728 -0.0089
# 4 0.0029 -0.0205 -0.0063 27.9595 0.0013 10.5684
# 5 8.8898 -1.3481 -7.8728 0.0013 20.8406 0.0065
# 6 0.0102 -0.0322 -0.0089 10.5684 0.0065 12.9200
#
#
#
# Elastic Compliance Matrix: (Units=1/GPa)
#
#
# Indices 1 2 3 4 5 6 
#
# 1 0.084610 -0.009184 0.009973 0.000019 -0.032918 -0.000082
# 2 -0.009184 0.009822 -0.003044 -0.000005 0.003403 0.000032
# 3 0.009973 -0.003044 0.014558 0.000003 0.001048 -0.000009
# 4 0.000019 -0.000005 0.000003 0.051774 0.000003 -0.042351
# 5 -0.032918 0.003403 0.001048 0.000003 0.062641 0.000001
# 6 -0.000082 0.000032 -0.000009 -0.042351 0.000001 0.112042
#
#
# Mechanical properties :
#
#
# Convention : Reuss Voigt Hill
#
# Bulk Modulus (GPa) = 9.57142 27.71695 18.64419
# Shear Modulus (GPa) = 13.34101 25.53484 19.43793
#
# Velocity S-wave (km/s) = 2.66191 3.68269 3.21309
# Velocity P-wave (km/s) = 3.81199 5.72748 4.86494
#
# Compressibility (1/GPa) = 0.10447766
#
# Stress axis : x y z
#
# Youngs Moduli (GPa) = 11.81899 101.81105 68.69250
#
# Poissons Ratio (x) = 0.93506 -0.68506
# Poissons Ratio (y) = 0.10855 0.20912
# Poissons Ratio (z) = -0.11787 0.30995
#
# Static dielectric constant tensor:
#      x y z
#    x 3.113600 0.000000 -0.032170 
#    y 0.000000 3.667710 0.000000 
#    z -0.032170 0.000000 3.243840 
# 
# 
# High freq. dielectric constant tensor:
#      x y z
#    x 1.701120 0.000000 0.001100 
#    y 0.000000 1.754550 0.000000 
#    z 0.001100 0.000000 1.725000 
# 
# From -- ./inp_files/110222.got.cif
#   From: 2010.06.25/outbox.cif.g09.slc.cpg/sg15_56_cif.got.tgz:110222.got - 2010.06.28 07:06:18.
