data_PCOD8137372
_publ_section_title
;
Structure prediction by ZEFSAII (Michael W. Deem and Ramdas Pophale) SiO2 
 PCOD8137372
Probable space group: C 2/C
;
_chemical_formula_sum "Si O2"
_cell_formula_units_Z 60
_cell_length_a 24.314957
_cell_length_b 7.875687
_cell_length_c 24.063358
_cell_angle_alpha 90.000000
_cell_angle_beta 141.130800
_cell_angle_gamma 90.000000
_cell_volume 2891.763636
_symmetry_space_group_name_H-M "C 2/C"
_symmetry_group_IT_number 15
_symmetry_cell_setting 'monoclinic'
loop_
_space_group_symop_operation_xyz
x,y,z
-x,y,1/2-z
-x,-y,-z
x,-y,1/2+z
1/2+x,1/2+y,z
1/2-x,1/2+y,1/2-z
1/2-x,1/2-y,-z
1/2+x,1/2-y,1/2+z
loop_
_atom_site_type_symbol
_atom_site_label
_atom_site_fract_x
_atom_site_fract_y
_atom_site_fract_z
Si Si1 0.976150 0.021556 0.620271
Si Si2 0.406448 0.854811 0.430829
Si Si3 0.371629 0.066698 0.212847
Si Si4 0.895306 0.741689 0.796862
Si Si5 0.204215 0.676075 0.151888
Si Si6 0.322981 0.459322 0.924331
Si Si7 0.931650 0.712907 0.370278
Si Si8 0.500000 0.731555 0.750000
O O1 0.015822 0.833737 0.651471
O O2 0.874638 0.027934 0.523314
O O3 0.032239 0.100122 0.613419
O O4 0.984919 0.109396 0.686350
O O5 0.408329 0.866934 0.364423
O O6 0.370152 0.668745 0.418634
O O7 0.504666 0.877010 0.533711
O O8 0.344145 0.003917 0.407417
O O9 0.270896 0.123945 0.135778
O O10 0.433385 0.126122 0.311942
O O11 0.415940 0.144248 0.192408
O O12 0.374508 0.865080 0.224332
O O13 0.808423 0.859097 0.736326
O O14 0.167706 0.713946 0.185187
O O15 0.181000 0.847612 0.100432
#
# Coordination Sequence:
#
# PCOD8137372 Si02
#       8
#     8   8   8   8   8   8   8   4
#     4  10  23  41  64  88 118 162 208 264 304 359
#     4  11  22  35  60  94 131 174 190 239 299 377
#     4  10  22  40  62  87 120 159 207 259 303 362
#     4  11  23  35  60  94 127 164 203 248 300 366
#     4  11  22  34  59  91 133 169 191 240 297 375
#     4  10  23  40  61  95 128 157 206 247 304 377
#     4  10  20  36  57  89 127 166 202 230 301 367
#     4  10  24  44  68  82 110 166 208 268 330 352
#
# _framework density 20.748583
#
# number of rings (size 3 to 8) (size 9 to 14) (size 15 to 20)
#    0.000    1.600    1.333    2.800    9.333    3.200 
#    0.000    0.000    0.000    2.400    0.000    0.000 
#    0.000    0.000    0.000    0.000    0.000    0.000 
#
# Total GULP energy -371690.463870 kJ/mol
# GULP energy per Si atom -12389.682129 kJ/mol
# Density = 2.070136 g / cm^3
# Si number density = 20.748583 Si / 1000 Ang^3
#
#
#
# Elastic Constant Matrix: (Units=GPa)
#
#
# Indices 1 2 3 4 5 6 
#
# 1 96.1553 32.9401 37.3003 0.0001 5.2112 -0.0007
# 2 32.9401 83.5794 28.4456 0.0005 -0.5953 -0.0022
# 3 37.3003 28.4456 98.1658 0.0000 10.6040 0.0005
# 4 0.0001 0.0005 0.0000 22.5402 0.0001 5.8350
# 5 5.2112 -0.5953 10.6040 0.0001 24.8225 -0.0003
# 6 -0.0007 -0.0022 0.0005 5.8350 -0.0003 31.6568
#
#
#
# Elastic Compliance Matrix: (Units=1/GPa)
#
#
# Indices 1 2 3 4 5 6 
#
# 1 0.013287 -0.003965 -0.003762 0.000000 -0.001278 0.000000
# 2 -0.003965 0.014558 -0.002977 -0.000001 0.002453 0.000001
# 3 -0.003762 -0.002977 0.013001 0.000000 -0.004836 -0.000001
# 4 0.000000 -0.000001 0.000000 0.046588 -0.000001 -0.008587
# 5 -0.001278 0.002453 -0.004836 -0.000001 0.042679 0.000001
# 6 0.000000 0.000001 -0.000001 -0.008587 0.000001 0.033172
#
#
# Mechanical properties :
#
#
# Convention : Reuss Voigt Hill
#
# Bulk Modulus (GPa) = 51.44442 52.80806 52.12624
# Shear Modulus (GPa) = 26.15457 27.75155 26.95306
#
# Velocity S-wave (km/s) = 3.55427 3.66117 3.60812
# Velocity P-wave (km/s) = 6.45692 6.58627 6.52191
#
# Compressibility (1/GPa) = 0.01943845
#
# Stress axis : x y z
#
# Youngs Moduli (GPa) = 75.26334 68.69022 76.91680
#
# Poissons Ratio (x) = 0.27238 0.28932
# Poissons Ratio (y) = 0.29845 0.22896
# Poissons Ratio (z) = 0.28310 0.20448
#
# Static dielectric constant tensor:
#      x y z
#    x 3.660980 0.000000 0.193640 
#    y 0.000000 3.887910 0.000000 
#    z 0.193640 0.000000 3.838160 
# 
# 
# High freq. dielectric constant tensor:
#      x y z
#    x 1.781970 0.000000 0.018990 
#    y 0.000000 1.827050 0.000000 
#    z 0.018990 0.000000 1.814640 
# 
# From -- ./inp_files/281674.got.cif
#   From: 2010.06.25/outbox.cif.g09.slc.cpg/sg15_141_cif.got.tgz:281674.got - 2010.06.28 07:06:18.
