data_PCOD8137294
_publ_section_title
;
Structure prediction by ZEFSAII (Michael W. Deem and Ramdas Pophale) SiO2 
 PCOD8137294
Probable space group: C 2/C
;
_chemical_formula_sum "Si O2"
_cell_formula_units_Z 52
_cell_length_a 6.350965
_cell_length_b 24.638047
_cell_length_c 19.584331
_cell_angle_alpha 90.000000
_cell_angle_beta 58.511553
_cell_angle_gamma 90.000000
_cell_volume 2613.209191
_symmetry_space_group_name_H-M "C 2/C"
_symmetry_group_IT_number 15
_symmetry_cell_setting 'monoclinic'
loop_
_space_group_symop_operation_xyz
x,y,z
-x,y,1/2-z
-x,-y,-z
x,-y,1/2+z
1/2+x,1/2+y,z
1/2-x,1/2+y,1/2-z
1/2-x,1/2-y,-z
1/2+x,1/2-y,1/2+z
loop_
_atom_site_type_symbol
_atom_site_label
_atom_site_fract_x
_atom_site_fract_y
_atom_site_fract_z
Si Si1 0.457694 0.755193 0.559846
Si Si2 0.500000 0.566571 0.250000
Si Si3 0.385707 0.075005 0.979450
Si Si4 0.843049 0.280264 0.842074
Si Si5 0.629661 0.605312 0.374008
Si Si6 0.998831 0.534740 0.105806
Si Si7 0.557527 0.810632 0.071061
O O1 0.435049 0.776781 0.640120
O O2 0.354481 0.797334 0.521557
O O3 0.293646 0.700489 0.580207
O O4 0.750000 0.750000 0.500000
O O5 0.599604 0.602497 0.296781
O O6 0.718422 0.529870 0.181242
O O7 0.522608 0.064790 0.028366
O O8 0.101512 0.086062 0.042968
O O9 0.510010 0.125862 0.918355
O O10 0.402673 0.025869 0.922897
O O11 0.673304 0.332067 0.886202
O O12 0.676902 0.225791 0.866705
O O13 0.000000 0.290666 0.750000
O O14 0.851694 0.566837 0.361576
#
# Coordination Sequence:
#
# PCOD8137294 Si02
#       7
#     8   4   8   8   8   8   8
#     4   9  18  34  56  80 108 147 189 231 281 343
#     4  10  22  38  58  88 114 152 188 240 300 346
#     4  10  21  37  60  88 111 152 195 243 288 344
#     4  11  23  36  56  86 118 155 190 238 298 348
#     4  11  21  37  61  85 116 148 195 247 292 342
#     4  10  21  38  60  87 117 146 196 241 294 347
#     4  10  20  36  56  82 116 146 191 234 284 349
#
# _framework density 19.898903000000001
#
# number of rings (size 3 to 8) (size 9 to 14) (size 15 to 20)
#    0.000    1.846    0.000    5.538    0.000    5.538 
#    1.385    0.000    3.385    0.000    0.000    0.000 
#    0.000    0.000    0.000    0.000    0.000    0.000 
#
# Total GULP energy -322225.063020 kJ/mol
# GULP energy per Si atom -12393.271655 kJ/mol
# Density = 1.985361 g / cm^3
# Si number density = 19.898903 Si / 1000 Ang^3
#
#
#
# Elastic Constant Matrix: (Units=GPa)
#
#
# Indices 1 2 3 4 5 6 
#
# 1 119.1005 48.9946 32.5031 0.0000 13.7397 0.0000
# 2 48.9946 149.6801 36.2717 0.0000 -4.5637 0.0000
# 3 32.5031 36.2717 62.3484 0.0000 3.3613 0.0000
# 4 0.0000 0.0000 0.0000 24.1176 0.0000 -2.9398
# 5 13.7397 -4.5637 3.3613 0.0000 32.2878 0.0000
# 6 0.0000 0.0000 0.0000 -2.9398 0.0000 26.8983
#
#
#
# Elastic Compliance Matrix: (Units=1/GPa)
#
#
# Indices 1 2 3 4 5 6 
#
# 1 0.011189 -0.002859 -0.003913 0.000000 -0.004758 0.000000
# 2 -0.002859 0.008589 -0.003658 0.000000 0.002812 0.000000
# 3 -0.003913 -0.003658 0.020259 0.000000 -0.000961 0.000000
# 4 0.000000 0.000000 0.000000 0.042023 0.000000 0.004593
# 5 -0.004758 0.002812 -0.000961 0.000000 0.033494 0.000000
# 6 0.000000 0.000000 0.000000 0.004593 0.000000 0.037679
#
#
# Mechanical properties :
#
#
# Convention : Reuss Voigt Hill
#
# Bulk Modulus (GPa) = 52.14720 62.96308 57.55514
# Shear Modulus (GPa) = 27.70305 30.88472 29.29389
#
# Velocity S-wave (km/s) = 3.73525 3.94392 3.84100
# Velocity P-wave (km/s) = 6.69819 7.24220 6.97550
#
# Compressibility (1/GPa) = 0.01917648
#
# Stress axis : x y z
#
# Youngs Moduli (GPa) = 89.37020 116.42866 49.36189
#
# Poissons Ratio (x) = 0.33292 0.19316
# Poissons Ratio (y) = 0.25555 0.18055
# Poissons Ratio (z) = 0.34972 0.42585
#
# Static dielectric constant tensor:
#      x y z
#    x 4.408270 0.000000 0.504980 
#    y 0.000000 3.567740 0.000000 
#    z 0.504980 0.000000 3.722640 
# 
# 
# High freq. dielectric constant tensor:
#      x y z
#    x 1.790880 0.000000 0.003470 
#    y 0.000000 1.761440 0.000000 
#    z 0.003470 0.000000 1.763980 
# 
# From -- ./inp_files/228051.got.cif
#   From: 2010.06.25/outbox.cif.g09.slc.cpg/sg15_115_cif.got.tgz:228051.got - 2010.06.28 07:06:18.
