data_PCOD8137960
_publ_section_title
;
Structure prediction by ZEFSAII (Michael W. Deem and Ramdas Pophale) SiO2 
 PCOD8137960
Probable space group: C 2/C
;
_chemical_formula_sum "Si O2"
_cell_formula_units_Z 56
_cell_length_a 20.857959
_cell_length_b 9.546826
_cell_length_c 19.920447
_cell_angle_alpha 90.000000
_cell_angle_beta 51.001747
_cell_angle_gamma 90.000000
_cell_volume 3082.784831
_symmetry_space_group_name_H-M "C 2/C"
_symmetry_group_IT_number 15
_symmetry_cell_setting 'monoclinic'
loop_
_space_group_symop_operation_xyz
x,y,z
-x,y,1/2-z
-x,-y,-z
x,-y,1/2+z
1/2+x,1/2+y,z
1/2-x,1/2+y,1/2-z
1/2-x,1/2-y,-z
1/2+x,1/2-y,1/2+z
loop_
_atom_site_type_symbol
_atom_site_label
_atom_site_fract_x
_atom_site_fract_y
_atom_site_fract_z
Si Si1 0.977668 0.307574 0.598759
Si Si2 0.427005 0.983113 0.248338
Si Si3 0.559504 0.416667 0.274346
Si Si4 0.859190 0.695153 0.591680
Si Si5 0.196001 0.695983 0.172331
Si Si6 0.187160 0.391564 0.830124
Si Si7 0.363437 0.301510 0.732145
O O1 0.060640 0.336369 0.504082
O O2 0.963819 0.434130 0.660216
O O3 0.983728 0.159801 0.633599
O O4 0.899756 0.310477 0.597579
O O5 0.500000 0.948843 0.250000
O O6 0.387309 0.838840 0.253525
O O7 0.356767 0.078233 0.333337
O O8 0.500000 0.406178 0.250000
O O9 0.646098 0.340987 0.202622
O O10 0.577527 0.576651 0.279742
O O11 0.790334 0.771053 0.588793
O O12 0.819093 0.553693 0.646443
O O13 0.880194 0.792650 0.641327
O O14 0.202256 0.625921 0.241391
O O15 0.266964 0.326894 0.814354
#
# Coordination Sequence:
#
# PCOD8137960 Si02
#       7
#     8   8   8   8   8   8   8
#     4  10  21  34  58  80 108 142 174 229 270 309
#     4  10  20  37  56  79 105 147 189 211 250 329
#     4  10  20  37  53  76 108 144 181 217 257 320
#     4  11  19  34  57  85 109 132 178 228 280 311
#     4   9  18  33  56  77 101 141 182 217 255 320
#     4   9  18  32  54  79 108 135 175 220 269 320
#     4  11  20  33  58  82 105 140 178 221 275 312
#
# _framework density 18.165393999999999
#
# number of rings (size 3 to 8) (size 9 to 14) (size 15 to 20)
#    0.000    2.286    4.286    2.571    0.000    0.571 
#    0.000    2.857    0.000    0.857    0.000    0.000 
#    0.000    0.000    0.000    0.000    0.000    0.000 
#
# Total GULP energy -346883.074921 kJ/mol
# GULP energy per Si atom -12388.681247 kJ/mol
# Density = 1.812405 g / cm^3
# Si number density = 18.165394 Si / 1000 Ang^3
#
#
#
# Elastic Constant Matrix: (Units=GPa)
#
#
# Indices 1 2 3 4 5 6 
#
# 1 110.4850 36.8430 40.9934 0.0000 -21.7934 0.0001
# 2 36.8430 104.8334 33.8041 -0.0001 -9.4017 0.0001
# 3 40.9934 33.8041 61.6187 0.0000 -24.6203 0.0000
# 4 0.0000 -0.0001 0.0000 10.3837 0.0000 -3.5034
# 5 -21.7934 -9.4017 -24.6203 0.0000 20.9709 0.0000
# 6 0.0001 0.0001 0.0000 -3.5034 0.0000 28.5014
#
#
#
# Elastic Compliance Matrix: (Units=1/GPa)
#
#
# Indices 1 2 3 4 5 6 
#
# 1 0.012915 -0.002491 -0.004349 0.000000 0.007199 0.000000
# 2 -0.002491 0.012276 -0.007370 0.000000 -0.005738 0.000000
# 3 -0.004349 -0.007370 0.037745 0.000000 0.036490 0.000000
# 4 0.000000 0.000000 0.000000 0.100472 0.000000 0.012350
# 5 0.007199 -0.005738 0.036490 0.000000 0.095434 0.000000
# 6 0.000000 0.000000 0.000000 0.012350 0.000000 0.036604
#
#
# Mechanical properties :
#
#
# Convention : Reuss Voigt Hill
#
# Bulk Modulus (GPa) = 28.97189 55.57980 42.27584
# Shear Modulus (GPa) = 14.90877 22.99098 18.94987
#
# Velocity S-wave (km/s) = 2.86794 3.56145 3.23334
# Velocity P-wave (km/s) = 5.19137 6.89745 6.10431
#
# Compressibility (1/GPa) = 0.03451622
#
# Stress axis : x y z
#
# Youngs Moduli (GPa) = 77.42692 81.45732 26.49325
#
# Poissons Ratio (x) = 0.20291 0.11523
# Poissons Ratio (y) = 0.19287 0.19526
# Poissons Ratio (z) = 0.33676 0.60036
#
# Static dielectric constant tensor:
#      x y z
#    x 3.867730 0.000000 -0.444420 
#    y 0.000000 3.413640 0.000000 
#    z -0.444420 0.000000 3.081660 
# 
# 
# High freq. dielectric constant tensor:
#      x y z
#    x 1.717240 0.000000 -0.032450 
#    y 0.000000 1.710760 0.000000 
#    z -0.032450 0.000000 1.657880 
# 
# From -- ./inp_files/279344.got.cif
#   From: 2010.06.25/outbox.cif.g09.slc.cpg/sg15_140_cif.got.tgz:279344.got - 2010.06.28 07:06:18.
