data_PCOD8137515
_publ_section_title
;
Structure prediction by ZEFSAII (Michael W. Deem and Ramdas Pophale) SiO2 
 PCOD8137515
Probable space group: C 2/C
;
_chemical_formula_sum "Si O2"
_cell_formula_units_Z 56
_cell_length_a 11.908743
_cell_length_b 16.071643
_cell_length_c 16.030110
_cell_angle_alpha 90.000000
_cell_angle_beta 65.293688
_cell_angle_gamma 90.000000
_cell_volume 2787.208990
_symmetry_space_group_name_H-M "C 2/C"
_symmetry_group_IT_number 15
_symmetry_cell_setting 'monoclinic'
loop_
_space_group_symop_operation_xyz
x,y,z
-x,y,1/2-z
-x,-y,-z
x,-y,1/2+z
1/2+x,1/2+y,z
1/2-x,1/2+y,1/2-z
1/2-x,1/2-y,-z
1/2+x,1/2-y,1/2+z
loop_
_atom_site_type_symbol
_atom_site_label
_atom_site_fract_x
_atom_site_fract_y
_atom_site_fract_z
Si Si1 0.319810 0.561352 0.518987
Si Si2 0.137839 0.919697 0.675561
Si Si3 0.015375 0.826122 0.425477
Si Si4 0.752508 0.765966 0.793675
Si Si5 0.189255 0.085623 0.589260
Si Si6 0.415403 0.853359 0.347979
Si Si7 0.383748 0.208063 0.591698
O O1 0.351480 0.611523 0.423862
O O2 0.418285 0.591321 0.557433
O O3 0.318631 0.462546 0.498464
O O4 0.182607 0.579204 0.593061
O O5 0.232410 0.865745 0.702315
O O6 0.000000 0.905684 0.750000
O O7 0.177101 0.017557 0.668087
O O8 0.929963 0.854057 0.374352
O O9 0.924972 0.783081 0.520065
O O10 0.114160 0.760684 0.359478
O O11 0.849589 0.727586 0.829351
O O12 0.783843 0.739199 0.690144
O O13 0.316679 0.135844 0.558968
O O14 0.500000 0.894896 0.250000
O O15 0.494087 0.828157 0.403859
#
# Coordination Sequence:
#
# PCOD8137515 Si02
#       7
#     8   8   8   8   8   8   8
#     4   9  20  36  60  85 117 150 198 240 290 334
#     4  10  20  36  59  86 117 144 193 246 285 332
#     4  11  21  39  62  83 119 158 195 237 282 351
#     4  10  21  37  62  91 104 151 208 238 284 341
#     4  10  25  37  57  89 125 152 190 233 306 343
#     4   9  18  36  59  84 113 149 199 246 283 337
#     4  11  22  37  61  83 122 155 191 238 289 352
#
# _framework density 20.091784000000001
#
# number of rings (size 3 to 8) (size 9 to 14) (size 15 to 20)
#    0.857    1.143    0.000    4.714    2.000    2.857 
#    0.000    0.000    0.000    0.000    0.000    0.000 
#    0.000    0.000    0.000    0.000    0.000    0.000 
#
# Total GULP energy -347064.723927 kJ/mol
# GULP energy per Si atom -12395.168712 kJ/mol
# Density = 2.004605 g / cm^3
# Si number density = 20.091784 Si / 1000 Ang^3
#
#
#
# Elastic Constant Matrix: (Units=GPa)
#
#
# Indices 1 2 3 4 5 6 
#
# 1 111.4177 67.0823 35.3638 0.0000 -10.6101 0.0000
# 2 67.0823 95.8486 28.6652 0.0000 -0.7015 0.0000
# 3 35.3638 28.6652 81.5727 0.0000 -21.2393 0.0000
# 4 0.0000 0.0000 0.0000 12.9127 0.0000 -1.2946
# 5 -10.6101 -0.7015 -21.2393 0.0000 24.1947 0.0000
# 6 0.0000 0.0000 0.0000 -1.2946 0.0000 28.7043
#
#
#
# Elastic Compliance Matrix: (Units=1/GPa)
#
#
# Indices 1 2 3 4 5 6 
#
# 1 0.016817 -0.011134 -0.001999 0.000000 0.005297 0.000000
# 2 -0.011134 0.019372 -0.004026 0.000000 -0.007855 0.000000
# 3 -0.001999 -0.004026 0.018513 0.000000 0.015259 0.000000
# 4 0.000000 0.000000 0.000000 0.077795 0.000000 0.003509
# 5 0.005297 -0.007855 0.015259 0.000000 0.056821 0.000000
# 6 0.000000 0.000000 0.000000 0.003509 0.000000 0.034996
#
#
# Mechanical properties :
#
#
# Convention : Reuss Voigt Hill
#
# Bulk Modulus (GPa) = 49.05472 61.22908 55.14190
# Shear Modulus (GPa) = 18.83754 23.67751 21.25752
#
# Velocity S-wave (km/s) = 3.06531 3.43661 3.25625
# Velocity P-wave (km/s) = 6.08247 6.80352 6.45307
#
# Compressibility (1/GPa) = 0.02038540
#
# Stress axis : x y z
#
# Youngs Moduli (GPa) = 59.46199 51.62153 54.01512
#
# Poissons Ratio (x) = 0.57473 0.10798
# Poissons Ratio (y) = 0.66202 0.21746
# Poissons Ratio (z) = 0.11887 0.20782
#
# Static dielectric constant tensor:
#      x y z
#    x 3.562730 0.000000 -0.057520 
#    y 0.000000 3.477870 0.000000 
#    z -0.057520 0.000000 3.604960 
# 
# 
# High freq. dielectric constant tensor:
#      x y z
#    x 1.779520 0.000000 -0.012750 
#    y 0.000000 1.769450 0.000000 
#    z -0.012750 0.000000 1.779330 
# 
# From -- ./inp_files/145536.got.cif
#   From: 2010.06.25/outbox.cif.g09.slc.cpg/sg15_73_cif.got.tgz:145536.got - 2010.06.28 07:06:18.
