data_PCOD8137778
_publ_section_title
;
Structure prediction by ZEFSAII (Michael W. Deem and Ramdas Pophale) SiO2 
 PCOD8137778
Probable space group: C 2/C
;
_chemical_formula_sum "Si O2"
_cell_formula_units_Z 56
_cell_length_a 20.647373
_cell_length_b 10.729152
_cell_length_c 12.361769
_cell_angle_alpha 90.000000
_cell_angle_beta 77.698639
_cell_angle_gamma 90.000000
_cell_volume 2675.613619
_symmetry_space_group_name_H-M "C 2/C"
_symmetry_group_IT_number 15
_symmetry_cell_setting 'monoclinic'
loop_
_space_group_symop_operation_xyz
x,y,z
-x,y,1/2-z
-x,-y,-z
x,-y,1/2+z
1/2+x,1/2+y,z
1/2-x,1/2+y,1/2-z
1/2-x,1/2-y,-z
1/2+x,1/2-y,1/2+z
loop_
_atom_site_type_symbol
_atom_site_label
_atom_site_fract_x
_atom_site_fract_y
_atom_site_fract_z
Si Si1 0.842621 0.219629 0.861181
Si Si2 0.464444 0.109568 0.371303
Si Si3 0.322674 0.930358 0.203087
Si Si4 0.319178 0.527239 0.281935
Si Si5 0.705084 0.314761 0.894313
Si Si6 0.180477 0.269246 0.081987
Si Si7 0.086249 0.600083 0.460070
O O1 0.910662 0.285918 0.863225
O O2 0.784409 0.308199 0.831341
O O3 0.861571 0.099528 0.781694
O O4 0.804829 0.158785 0.976887
O O5 0.500000 0.064089 0.250000
O O6 0.519504 0.162843 0.436027
O O7 0.428754 0.992774 0.436758
O O8 0.334450 0.809600 0.124192
O O9 0.318531 0.884111 0.330405
O O10 0.257628 0.993876 0.177544
O O11 0.381098 0.028788 0.155530
O O12 0.329004 0.570748 0.155188
O O13 0.340375 0.639759 0.353782
O O14 0.250000 0.250000 0.000000
O O15 0.130807 0.294505 0.999860
#
# Coordination Sequence:
#
# PCOD8137778 Si02
#       7
#     8   8   8   8   8   8   8
#     4  10  21  40  63  87 127 163 208 254 321 379
#     4  11  25  42  66  89 123 174 219 262 309 381
#     4  10  20  36  62  92 132 161 203 259 324 372
#     4  10  22  36  61  97 123 163 196 261 323 380
#     4   9  20  36  62  92 122 161 201 260 319 379
#     4  11  23  37  63 101 131 160 211 267 320 376
#     4  11  23  42  64  93 127 169 215 267 314 376
#
# _framework density 20.929777999999999
#
# number of rings (size 3 to 8) (size 9 to 14) (size 15 to 20)
#    0.000    1.714    2.857    0.857    6.000    1.143 
#    0.000    0.714    0.000    0.000    0.000    0.000 
#    0.000    0.000    0.000    0.000    0.000    0.000 
#
# Total GULP energy -346974.601387 kJ/mol
# GULP energy per Si atom -12391.950050 kJ/mol
# Density = 2.088214 g / cm^3
# Si number density = 20.929778 Si / 1000 Ang^3
#
#
#
# Elastic Constant Matrix: (Units=GPa)
#
#
# Indices 1 2 3 4 5 6 
#
# 1 97.3881 45.8780 16.0601 0.0000 17.4595 0.0000
# 2 45.8780 81.3200 29.9105 0.0000 17.1734 0.0000
# 3 16.0601 29.9105 85.2068 0.0000 0.7923 0.0000
# 4 0.0000 0.0000 0.0000 31.9911 0.0000 14.8244
# 5 17.4595 17.1734 0.7923 0.0000 34.7224 0.0000
# 6 0.0000 0.0000 0.0000 14.8244 0.0000 33.6270
#
#
#
# Elastic Compliance Matrix: (Units=1/GPa)
#
#
# Indices 1 2 3 4 5 6 
#
# 1 0.014376 -0.007307 -0.000111 0.000000 -0.003612 0.000000
# 2 -0.007307 0.019689 -0.005479 0.000000 -0.005939 0.000000
# 3 -0.000111 -0.005479 0.013658 0.000000 0.002454 0.000000
# 4 0.000000 0.000000 0.000000 0.039284 0.000000 -0.017318
# 5 -0.003612 -0.005939 0.002454 0.000000 0.033498 0.000000
# 6 0.000000 0.000000 0.000000 -0.017318 0.000000 0.037373
#
#
# Mechanical properties :
#
#
# Convention : Reuss Voigt Hill
#
# Bulk Modulus (GPa) = 45.60238 49.73466 47.66852
# Shear Modulus (GPa) = 26.18071 31.53920 28.85996
#
# Velocity S-wave (km/s) = 3.54062 3.88610 3.71738
# Velocity P-wave (km/s) = 6.20888 6.62947 6.42262
#
# Compressibility (1/GPa) = 0.02192868
#
# Stress axis : x y z
#
# Youngs Moduli (GPa) = 69.55892 50.79036 73.21934
#
# Poissons Ratio (x) = 0.37112 0.00814
# Poissons Ratio (y) = 0.50826 0.40117
# Poissons Ratio (z) = 0.00773 0.27828
#
# Static dielectric constant tensor:
#      x y z
#    x 3.694030 0.000000 0.167790 
#    y 0.000000 3.885380 0.000000 
#    z 0.167790 0.000000 3.983660 
# 
# 
# High freq. dielectric constant tensor:
#      x y z
#    x 1.796440 0.000000 0.018070 
#    y 0.000000 1.809300 0.000000 
#    z 0.018070 0.000000 1.834280 
# 
# From -- ./inp_files/111054.got.cif
#   From: 2010.06.25/outbox.cif.g09.slc.cpg/sg15_56_cif.got.tgz:111054.got - 2010.06.28 07:06:18.
