data_PCOD8137498
_publ_section_title
;
Structure prediction by ZEFSAII (Michael W. Deem and Ramdas Pophale) SiO2 
 PCOD8137498
Probable space group: C 2/C
;
_chemical_formula_sum "Si O2"
_cell_formula_units_Z 56
_cell_length_a 27.732167
_cell_length_b 18.780101
_cell_length_c 8.831591
_cell_angle_alpha 90.000000
_cell_angle_beta 141.773664
_cell_angle_gamma 90.000000
_cell_volume 2846.096437
_symmetry_space_group_name_H-M "C 2/C"
_symmetry_group_IT_number 15
_symmetry_cell_setting 'monoclinic'
loop_
_space_group_symop_operation_xyz
x,y,z
-x,y,1/2-z
-x,-y,-z
x,-y,1/2+z
1/2+x,1/2+y,z
1/2-x,1/2+y,1/2-z
1/2-x,1/2-y,-z
1/2+x,1/2-y,1/2+z
loop_
_atom_site_type_symbol
_atom_site_label
_atom_site_fract_x
_atom_site_fract_y
_atom_site_fract_z
Si Si1 0.067623 0.316076 0.296821
Si Si2 0.873758 0.951285 0.778070
Si Si3 0.717836 0.897606 0.764474
Si Si4 0.707406 0.984669 0.447918
Si Si5 0.958403 0.438348 0.492510
Si Si6 0.470824 0.658594 0.345474
Si Si7 0.890657 0.904309 0.153122
O O1 0.152499 0.337613 0.574518
O O2 0.070238 0.235358 0.245659
O O3 0.000000 0.326679 0.250000
O O4 0.042683 0.364609 0.097367
O O5 0.780321 0.944500 0.550755
O O6 0.904706 0.897227 0.728512
O O7 0.898706 0.030681 0.791540
O O8 0.908598 0.933073 0.029013
O O9 0.706015 0.966298 0.623267
O O10 0.712418 0.930333 0.921652
O O11 0.805054 0.867048 0.952654
O O12 0.628694 0.958582 0.176643
O O13 0.000000 0.423602 0.750000
O O14 0.000000 0.500000 0.500000
O O15 0.500000 0.641476 0.250000
O O16 0.544739 0.654064 0.641927
#
# Coordination Sequence:
#
# PCOD8137498 Si02
#       7
#     8   8   8   8   8   8   8
#     4  10  22  39  55  77 112 153 191 232 282 335
#     4  10  20  36  59  85 112 142 181 235 286 336
#     4   9  18  35  57  83 111 140 180 233 281 329
#     4   9  18  32  54  84 110 138 180 227 280 330
#     4  11  20  33  56  84 112 148 190 234 280 331
#     4  11  23  39  55  78 114 153 188 229 282 342
#     4  10  20  36  61  87 110 142 185 230 281 337
#
# _framework density 19.676072000000001
#
# number of rings (size 3 to 8) (size 9 to 14) (size 15 to 20)
#    0.000    2.000    0.000    4.714    0.000    2.286 
#    0.000   10.714    0.000    0.000    0.000    0.000 
#    0.000    0.000    0.000    0.000    0.000    0.000 
#
# Total GULP energy -347066.346865 kJ/mol
# GULP energy per Si atom -12395.226674 kJ/mol
# Density = 1.963129 g / cm^3
# Si number density = 19.676072 Si / 1000 Ang^3
#
#
#
# Elastic Constant Matrix: (Units=GPa)
#
#
# Indices 1 2 3 4 5 6 
#
# 1 69.7909 47.6280 32.4728 0.0000 8.5365 0.0000
# 2 47.6280 96.7526 45.2686 0.0000 14.2122 0.0000
# 3 32.4728 45.2686 113.2395 0.0000 18.6461 0.0000
# 4 0.0000 0.0000 0.0000 32.7078 0.0000 3.1925
# 5 8.5365 14.2122 18.6461 0.0000 32.1673 0.0000
# 6 0.0000 0.0000 0.0000 3.1925 0.0000 26.3329
#
#
#
# Elastic Compliance Matrix: (Units=1/GPa)
#
#
# Indices 1 2 3 4 5 6 
#
# 1 0.022116 -0.009728 -0.002426 0.000000 -0.000165 0.000000
# 2 -0.009728 0.017251 -0.003623 0.000000 -0.002941 0.000000
# 3 -0.002426 -0.003623 0.011724 0.000000 -0.004552 0.000000
# 4 0.000000 0.000000 0.000000 0.030940 0.000000 -0.003751
# 5 -0.000165 -0.002941 -0.004552 0.000000 0.035069 0.000000
# 6 0.000000 0.000000 0.000000 -0.003751 0.000000 0.038430
#
#
# Mechanical properties :
#
#
# Convention : Reuss Voigt Hill
#
# Bulk Modulus (GPa) = 51.18072 58.94685 55.06378
# Shear Modulus (GPa) = 25.82702 28.53585 27.18144
#
# Velocity S-wave (km/s) = 3.62693 3.81239 3.72081
# Velocity P-wave (km/s) = 6.60360 7.02871 6.81947
#
# Compressibility (1/GPa) = 0.01953861
#
# Stress axis : x y z
#
# Youngs Moduli (GPa) = 45.21605 57.96740 85.29341
#
# Poissons Ratio (x) = 0.56388 0.20694
# Poissons Ratio (y) = 0.43984 0.30898
# Poissons Ratio (z) = 0.10970 0.20999
#
# Static dielectric constant tensor:
#      x y z
#    x 4.018870 0.000000 0.085000 
#    y 0.000000 3.497300 0.000000 
#    z 0.085000 0.000000 3.786600 
# 
# 
# High freq. dielectric constant tensor:
#      x y z
#    x 1.782110 0.000000 0.009390 
#    y 0.000000 1.731230 0.000000 
#    z 0.009390 0.000000 1.779870 
# 
# From -- ./inp_files/67201.got.cif
#   From: 2010.06.25/outbox.cif.g09.slc.cpg/sg15_34_cif.got.tgz:67201.got - 2010.06.28 07:06:18.
