data_PCOD8137321
_publ_section_title
;
Structure prediction by ZEFSAII (Michael W. Deem and Ramdas Pophale) SiO2 
 PCOD8137321
Probable space group: C 2/C
;
_chemical_formula_sum "Si O2"
_cell_formula_units_Z 28
_cell_length_a 12.831937
_cell_length_b 22.300949
_cell_length_c 5.046977
_cell_angle_alpha 90.000000
_cell_angle_beta 114.937612
_cell_angle_gamma 90.000000
_cell_volume 1309.612466
_symmetry_space_group_name_H-M "C 2/C"
_symmetry_group_IT_number 15
_symmetry_cell_setting 'monoclinic'
loop_
_space_group_symop_operation_xyz
x,y,z
-x,y,1/2-z
-x,-y,-z
x,-y,1/2+z
1/2+x,1/2+y,z
1/2-x,1/2+y,1/2-z
1/2-x,1/2-y,-z
1/2+x,1/2-y,1/2+z
loop_
_atom_site_type_symbol
_atom_site_label
_atom_site_fract_x
_atom_site_fract_y
_atom_site_fract_z
Si Si1 0.358942 0.218587 0.491909
Si Si2 0.567759 0.656380 0.563313
Si Si3 0.000000 0.457889 0.750000
Si Si4 0.828235 0.356283 0.440845
O O1 0.250000 0.250000 0.500000
O O2 0.444172 0.271344 0.490838
O O3 0.403847 0.174253 0.779922
O O4 0.319768 0.184892 0.188074
O O5 0.500000 0.636862 0.750000
O O6 0.698431 0.632160 0.703423
O O7 0.500000 0.624632 0.250000
O O8 0.000000 0.500000 0.500000
O O9 0.886905 0.417278 0.598595
#
# Coordination Sequence:
#
# PCOD8137321 Si02
#       4
#     8   8   4   8
#     4  10  20  36  56  92 131 169 197 229 303 394
#     4  11  21  34  59  95 133 162 193 237 310 401
#     4  12  28  48  68  86 112 168 234 282 306 340
#     4  11  23  41  61  87 124 166 211 260 310 355
#
# _framework density 21.380371
#
# number of rings (size 3 to 8) (size 9 to 14) (size 15 to 20)
#    0.000    1.143    0.000   10.286    6.000    0.000 
#    0.000    0.000    0.000    5.143    0.000    0.000 
#    0.000    0.000    0.000    0.000    0.000    0.000 
#
# Total GULP energy -173518.543301 kJ/mol
# GULP energy per Si atom -12394.181664 kJ/mol
# Density = 2.133171 g / cm^3
# Si number density = 21.380371 Si / 1000 Ang^3
#
#
#
# Elastic Constant Matrix: (Units=GPa)
#
#
# Indices 1 2 3 4 5 6 
#
# 1 90.5192 37.0760 65.8123 0.0000 -3.4145 0.0000
# 2 37.0760 85.4446 53.3868 0.0000 9.2875 0.0000
# 3 65.8123 53.3868 194.3898 0.0000 -1.3764 0.0000
# 4 0.0000 0.0000 0.0000 46.1591 0.0000 0.1559
# 5 -3.4145 9.2875 -1.3764 0.0000 53.8275 0.0000
# 6 0.0000 0.0000 0.0000 0.1559 0.0000 17.2491
#
#
#
# Elastic Compliance Matrix: (Units=1/GPa)
#
#
# Indices 1 2 3 4 5 6 
#
# 1 0.015987 -0.004522 -0.004159 0.000000 0.001688 0.000000
# 2 -0.004522 0.015762 -0.002820 0.000000 -0.003079 0.000000
# 3 -0.004159 -0.002820 0.007330 0.000000 0.000410 0.000000
# 4 0.000000 0.000000 0.000000 0.021665 0.000000 -0.000196
# 5 0.001688 -0.003079 0.000410 0.000000 0.019227 0.000000
# 6 0.000000 0.000000 0.000000 -0.000196 0.000000 0.057976
#
#
# Mechanical properties :
#
#
# Convention : Reuss Voigt Hill
#
# Bulk Modulus (GPa) = 62.19797 75.87821 69.03809
# Shear Modulus (GPa) = 30.06512 37.71902 33.89207
#
# Velocity S-wave (km/s) = 3.75400 4.20478 3.98577
# Velocity P-wave (km/s) = 6.92419 7.69027 7.31726
#
# Compressibility (1/GPa) = 0.01607770
#
# Stress axis : x y z
#
# Youngs Moduli (GPa) = 62.55165 63.44321 136.43467
#
# Poissons Ratio (x) = 0.28690 0.56737
# Poissons Ratio (y) = 0.28287 0.38470
# Poissons Ratio (z) = 0.26013 0.17889
#
# Static dielectric constant tensor:
#      x y z
#    x 4.148430 0.000000 -0.376240 
#    y 0.000000 3.501530 0.000000 
#    z -0.376240 0.000000 4.685400 
# 
# 
# High freq. dielectric constant tensor:
#      x y z
#    x 1.851250 0.000000 -0.005630 
#    y 0.000000 1.780850 0.000000 
#    z -0.005630 0.000000 1.879090 
# 
# From -- ./inp_files/6593.got.cif
#   From: 2010.06.25/outbox.cif.g09.slc.cpg/sg15_4_cif.got.tgz:6593.got - 2010.06.28 07:06:18.
