data_PCOD8137861
_publ_section_title
;
Structure prediction by ZEFSAII (Michael W. Deem and Ramdas Pophale) SiO2 
 PCOD8137861
Probable space group: C 2/C
;
_chemical_formula_sum "Si O2"
_cell_formula_units_Z 56
_cell_length_a 15.927229
_cell_length_b 17.591769
_cell_length_c 20.248976
_cell_angle_alpha 90.000000
_cell_angle_beta 152.340191
_cell_angle_gamma 90.000000
_cell_volume 2633.767620
_symmetry_space_group_name_H-M "C 2/C"
_symmetry_group_IT_number 15
_symmetry_cell_setting 'monoclinic'
loop_
_space_group_symop_operation_xyz
x,y,z
-x,y,1/2-z
-x,-y,-z
x,-y,1/2+z
1/2+x,1/2+y,z
1/2-x,1/2+y,1/2-z
1/2-x,1/2-y,-z
1/2+x,1/2-y,1/2+z
loop_
_atom_site_type_symbol
_atom_site_label
_atom_site_fract_x
_atom_site_fract_y
_atom_site_fract_z
Si Si1 0.812626 0.139653 0.371588
Si Si2 0.467663 0.534129 0.381248
Si Si3 0.511753 0.771330 0.076371
Si Si4 0.196321 0.553771 0.411661
Si Si5 0.467470 0.927120 0.569154
Si Si6 0.336328 0.076361 0.834069
Si Si7 0.615651 0.330992 0.765147
O O1 0.953669 0.075529 0.442797
O O2 0.894352 0.223446 0.417827
O O3 0.769572 0.124496 0.418572
O O4 0.630461 0.129785 0.201088
O O5 0.676410 0.519789 0.509100
O O6 0.369348 0.452055 0.313238
O O7 0.368723 0.584920 0.255865
O O8 0.635730 0.843560 0.183268
O O9 0.502003 0.719818 0.134626
O O10 0.313622 0.798078 0.916559
O O11 0.186689 0.577440 0.481568
O O12 0.000000 0.527609 0.250000
O O13 0.384221 0.901513 0.442587
O O14 0.534990 0.013949 0.609926
O O15 0.500000 0.335887 0.750000
#
# Coordination Sequence:
#
# PCOD8137861 Si02
#       7
#     8   8   8   8   8   8   8
#     4   9  20  40  60  88 126 166 205 248 313 385
#     4  10  22  38  65  90 123 161 211 265 304 375
#     4  11  23  42  66  89 130 176 203 257 319 385
#     4  10  21  38  64  91 124 157 210 264 315 364
#     4   9  19  39  62  91 117 161 207 266 307 363
#     4  10  20  36  64  91 120 162 215 249 319 371
#     4  11  25  43  62  93 131 166 213 261 316 377
#
# _framework density 21.262315999999998
#
# number of rings (size 3 to 8) (size 9 to 14) (size 15 to 20)
#    0.000    2.000    0.000    4.286    6.000    0.000 
#    5.143    0.714    6.286    0.000    0.000    0.000 
#    0.000    0.000    0.000    0.000    0.000    0.000 
#
# Total GULP energy -347173.356297 kJ/mol
# GULP energy per Si atom -12399.048439 kJ/mol
# Density = 2.121392 g / cm^3
# Si number density = 21.262316 Si / 1000 Ang^3
#
#
#
# Elastic Constant Matrix: (Units=GPa)
#
#
# Indices 1 2 3 4 5 6 
#
# 1 135.1718 14.1469 24.0751 0.0116 11.1021 -0.0003
# 2 14.1469 75.1693 27.1539 0.0470 15.5143 0.0037
# 3 24.0751 27.1539 78.5586 0.0072 17.2529 0.0072
# 4 0.0116 0.0470 0.0072 24.3988 0.0070 0.2223
# 5 11.1021 15.5143 17.2529 0.0070 33.7360 0.0048
# 6 -0.0003 0.0037 0.0072 0.2223 0.0048 19.9307
#
#
#
# Elastic Compliance Matrix: (Units=1/GPa)
#
#
# Indices 1 2 3 4 5 6 
#
# 1 0.007911 -0.000501 -0.001949 -0.000002 -0.001376 0.000001
# 2 -0.000501 0.015971 -0.004270 -0.000028 -0.004996 0.000000
# 3 -0.001949 -0.004270 0.016031 0.000006 -0.005593 -0.000004
# 4 -0.000002 -0.000028 0.000006 0.040990 0.000002 -0.000457
# 5 -0.001376 -0.004996 -0.005593 0.000002 0.035253 -0.000006
# 6 0.000001 0.000000 -0.000004 -0.000457 -0.000006 0.050179
#
#
# Mechanical properties :
#
#
# Convention : Reuss Voigt Hill
#
# Bulk Modulus (GPa) = 37.77307 46.62794 42.20050
# Shear Modulus (GPa) = 26.51144 30.51468 28.51306
#
# Velocity S-wave (km/s) = 3.53494 3.79245 3.66596
# Velocity P-wave (km/s) = 5.87068 6.41517 6.14895
#
# Compressibility (1/GPa) = 0.02647389
#
# Stress axis : x y z
#
# Youngs Moduli (GPa) = 126.41339 62.61302 62.37962
#
# Poissons Ratio (x) = 0.03135 0.12157
# Poissons Ratio (y) = 0.06329 0.26634
# Poissons Ratio (z) = 0.24637 0.26734
#
# Static dielectric constant tensor:
#      x y z
#    x 4.151560 0.000000 0.041420 
#    y 0.000000 3.732330 -0.000030 
#    z 0.041420 -0.000030 3.730470 
# 
# 
# High freq. dielectric constant tensor:
#      x y z
#    x 1.841610 0.000000 0.000970 
#    y 0.000000 1.816590 -0.000010 
#    z 0.000970 -0.000010 1.830360 
# 
# From -- ./inp_files/245160.got.cif
#   From: 2010.06.25/outbox.cif.g09.slc.cpg/sg15_123_cif.got.tgz:245160.got - 2010.06.28 07:06:18.
