data_PCOD8137737
_publ_section_title
;
Structure prediction by ZEFSAII (Michael W. Deem and Ramdas Pophale) SiO2 
 PCOD8137737
Probable space group: C 2/C
;
_chemical_formula_sum "Si O2"
_cell_formula_units_Z 56
_cell_length_a 21.550940
_cell_length_b 15.654485
_cell_length_c 19.030600
_cell_angle_alpha 90.000000
_cell_angle_beta 152.356395
_cell_angle_gamma 90.000000
_cell_volume 2978.843646
_symmetry_space_group_name_H-M "C 2/C"
_symmetry_group_IT_number 15
_symmetry_cell_setting 'monoclinic'
loop_
_space_group_symop_operation_xyz
x,y,z
-x,y,1/2-z
-x,-y,-z
x,-y,1/2+z
1/2+x,1/2+y,z
1/2-x,1/2+y,1/2-z
1/2-x,1/2-y,-z
1/2+x,1/2-y,1/2+z
loop_
_atom_site_type_symbol
_atom_site_label
_atom_site_fract_x
_atom_site_fract_y
_atom_site_fract_z
Si Si1 0.850992 0.637590 0.609906
Si Si2 0.961719 0.997594 0.322756
Si Si3 0.044189 0.178733 0.110517
Si Si4 0.215002 0.975496 0.489237
Si Si5 0.250512 0.709407 0.424497
Si Si6 0.980155 0.190140 0.887008
Si Si7 0.785780 0.749548 0.421123
O O1 0.843611 0.535816 0.609694
O O2 0.773483 0.671133 0.463675
O O3 0.782959 0.669375 0.612567
O O4 0.000000 0.670822 0.750000
O O5 0.937565 0.078653 0.350025
O O6 0.849374 0.972877 0.152693
O O7 0.961653 0.911473 0.367436
O O8 0.103663 0.015400 0.428809
O O9 0.191206 0.221308 0.262063
O O10 0.995685 0.203948 0.984876
O O11 0.936893 0.226190 0.052775
O O12 0.273818 0.889995 0.582906
O O13 0.250000 0.750000 0.500000
O O14 0.141497 0.752842 0.264651
O O15 0.393230 0.721060 0.530888
#
# Coordination Sequence:
#
# PCOD8137737 Si02
#       7
#     8   8   8   8   8   8   8
#     4  11  21  35  56  89 118 156 207 238 300 349
#     4  10  20  37  62  90 114 160 201 254 297 355
#     4  12  22  40  60  87 131 163 196 242 310 377
#     4  10  20  36  62  87 119 150 207 253 299 345
#     4  11  22  42  65  90 116 153 211 264 298 347
#     4  11  24  40  63  92 120 161 202 248 314 369
#     4  11  23  35  59  88 120 162 199 248 288 364
#
# _framework density 18.799240999999999
#
# number of rings (size 3 to 8) (size 9 to 14) (size 15 to 20)
#    0.000    1.143    5.714    1.714    0.000    1.143 
#    0.000    0.000    0.000    0.857    0.000    0.000 
#    0.000    0.000    0.000    0.000    0.000    0.000 
#
# Total GULP energy -346905.209092 kJ/mol
# GULP energy per Si atom -12389.471753 kJ/mol
# Density = 1.875645 g / cm^3
# Si number density = 18.799241 Si / 1000 Ang^3
#
#
#
# Elastic Constant Matrix: (Units=GPa)
#
#
# Indices 1 2 3 4 5 6 
#
# 1 57.2622 30.6405 13.5875 -0.0003 -7.7884 0.0000
# 2 30.6405 90.5394 49.0166 -0.0007 4.2892 0.0002
# 3 13.5875 49.0166 94.0568 -0.0006 -10.2204 0.0000
# 4 -0.0003 -0.0007 -0.0006 28.1928 -0.0003 5.6707
# 5 -7.7884 4.2892 -10.2204 -0.0003 35.9978 -0.0001
# 6 0.0000 0.0002 0.0000 5.6707 -0.0001 21.1272
#
#
#
# Elastic Compliance Matrix: (Units=1/GPa)
#
#
# Indices 1 2 3 4 5 6 
#
# 1 0.022784 -0.009245 0.002252 0.000000 0.006670 0.000000
# 2 -0.009245 0.019792 -0.009753 0.000000 -0.007128 0.000000
# 3 0.002252 -0.009753 0.016064 0.000000 0.006210 0.000000
# 4 0.000000 0.000000 0.000000 0.037494 0.000000 -0.010064
# 5 0.006670 -0.007128 0.006210 0.000000 0.031835 0.000000
# 6 0.000000 0.000000 0.000000 -0.010064 0.000000 0.050034
#
#
# Mechanical properties :
#
#
# Convention : Reuss Voigt Hill
#
# Bulk Modulus (GPa) = 39.76844 47.59418 43.68131
# Shear Modulus (GPa) = 22.73988 26.97113 24.85551
#
# Velocity S-wave (km/s) = 3.48173 3.79184 3.64009
# Velocity P-wave (km/s) = 6.11256 6.67404 6.39946
#
# Compressibility (1/GPa) = 0.02514557
#
# Stress axis : x y z
#
# Youngs Moduli (GPa) = 43.89107 50.52652 62.25069
#
# Poissons Ratio (x) = 0.46714 -0.14017
# Poissons Ratio (y) = 0.40579 0.60713
# Poissons Ratio (z) = -0.09883 0.49279
#
# Static dielectric constant tensor:
#      x y z
#    x 3.395050 0.000000 0.128900 
#    y 0.000000 3.771100 -0.000010 
#    z 0.128900 -0.000010 3.799380 
# 
# 
# High freq. dielectric constant tensor:
#      x y z
#    x 1.726150 0.000000 -0.001500 
#    y 0.000000 1.735450 0.000000 
#    z -0.001500 0.000000 1.730370 
# 
# From -- ./inp_files/215694.got.cif
#   From: 2010.06.25/outbox.cif.g09.slc.cpg/sg15_108_cif.got.tgz:215694.got - 2010.06.28 07:06:18.
