data_PCOD8137859
_publ_section_title
;
Structure prediction by ZEFSAII (Michael W. Deem and Ramdas Pophale) SiO2 
 PCOD8137859
Probable space group: C 2/C
;
_chemical_formula_sum "Si O2"
_cell_formula_units_Z 48
_cell_length_a 13.231925
_cell_length_b 13.279964
_cell_length_c 21.789367
_cell_angle_alpha 90.000000
_cell_angle_beta 39.366883
_cell_angle_gamma 90.000000
_cell_volume 2428.556092
_symmetry_space_group_name_H-M "C 2/C"
_symmetry_group_IT_number 15
_symmetry_cell_setting 'monoclinic'
loop_
_space_group_symop_operation_xyz
x,y,z
-x,y,1/2-z
-x,-y,-z
x,-y,1/2+z
1/2+x,1/2+y,z
1/2-x,1/2+y,1/2-z
1/2-x,1/2-y,-z
1/2+x,1/2-y,1/2+z
loop_
_atom_site_type_symbol
_atom_site_label
_atom_site_fract_x
_atom_site_fract_y
_atom_site_fract_z
Si Si1 0.359746 0.685907 0.658869
Si Si2 0.014046 0.026461 0.673047
Si Si3 0.706445 0.630332 0.285668
Si Si4 0.919124 0.786736 0.992440
Si Si5 0.303318 0.911732 0.489322
Si Si6 0.081286 0.458205 0.275989
O O1 0.475414 0.622645 0.648958
O O2 0.337626 0.800143 0.691450
O O3 0.436380 0.686387 0.555594
O O4 0.182744 0.641043 0.742115
O O5 0.000000 0.060070 0.750000
O O6 0.194941 0.992536 0.575357
O O7 0.895324 0.932913 0.716272
O O8 0.591974 0.697400 0.381659
O O9 0.804007 0.554285 0.282783
O O10 0.791483 0.861746 0.022455
O O11 0.861535 0.672273 0.010355
O O12 0.453683 0.970677 0.390546
O O13 0.000000 0.440822 0.250000
#
# Coordination Sequence:
#
# PCOD8137859 Si02
#       6
#     8   8   8   8   8   8
#     4  11  22  40  60  89 122 159 197 248 301 351
#     4  10  23  40  62  85 121 159 203 248 295 350
#     4  10  23  39  59  90 121 159 194 247 301 350
#     4  10  20  36  64  90 120 152 202 248 295 353
#     4  10  20  37  62  94 115 156 200 248 296 348
#     4  11  22  37  62  90 124 154 199 244 297 357
#
# _framework density 19.764831999999998
#
# number of rings (size 3 to 8) (size 9 to 14) (size 15 to 20)
#    0.000    1.667    3.333    1.000    2.333    3.333 
#    3.000    3.333    0.000    0.000    0.000    0.000 
#    0.000    0.000    0.000    0.000    0.000    0.000 
#
# Total GULP energy -297700.977314 kJ/mol
# GULP energy per Si atom -12404.207388 kJ/mol
# Density = 1.971985 g / cm^3
# Si number density = 19.764832 Si / 1000 Ang^3
#
#
#
# Elastic Constant Matrix: (Units=GPa)
#
#
# Indices 1 2 3 4 5 6 
#
# 1 85.3098 30.8757 46.9578 0.0000 19.6450 0.0000
# 2 30.8757 68.4333 18.2689 0.0000 5.9103 0.0000
# 3 46.9578 18.2689 93.6670 -0.0001 14.1960 0.0000
# 4 0.0000 0.0000 -0.0001 25.7474 0.0000 -6.0097
# 5 19.6450 5.9103 14.1960 0.0000 37.0046 0.0000
# 6 0.0000 0.0000 0.0000 -6.0097 0.0000 10.0338
#
#
#
# Elastic Compliance Matrix: (Units=1/GPa)
#
#
# Indices 1 2 3 4 5 6 
#
# 1 0.019723 -0.006287 -0.007673 0.000000 -0.006523 0.000000
# 2 -0.006287 0.017487 -0.000363 0.000000 0.000684 0.000000
# 3 -0.007673 -0.000363 0.014829 0.000000 -0.001558 0.000000
# 4 0.000000 0.000000 0.000000 0.045151 0.000000 0.027043
# 5 -0.006523 0.000684 -0.001558 0.000000 0.030975 0.000000
# 6 0.000000 0.000000 0.000000 0.027043 0.000000 0.115860
#
#
# Mechanical properties :
#
#
# Convention : Reuss Voigt Hill
#
# Bulk Modulus (GPa) = 42.74428 48.84613 45.79520
# Shear Modulus (GPa) = 17.82737 24.64436 21.23587
#
# Velocity S-wave (km/s) = 3.00655 3.53495 3.28140
# Velocity P-wave (km/s) = 5.80739 6.43649 6.13002
#
# Compressibility (1/GPa) = 0.02339495
#
# Stress axis : x y z
#
# Youngs Moduli (GPa) = 50.70271 57.18533 67.43318
#
# Poissons Ratio (x) = 0.35952 0.51740
# Poissons Ratio (y) = 0.31876 0.02445
# Poissons Ratio (z) = 0.38903 0.02073
#
# Static dielectric constant tensor:
#      x y z
#    x 3.445800 0.000000 -0.112000 
#    y 0.000000 3.452270 0.000000 
#    z -0.112000 0.000000 3.608290 
# 
# 
# High freq. dielectric constant tensor:
#      x y z
#    x 1.758650 0.000000 0.000130 
#    y 0.000000 1.763470 0.000000 
#    z 0.000130 0.000000 1.777460 
# 
# From -- ./inp_files/96522.got.cif
#   From: 2010.06.25/outbox.cif.g09.slc.cpg/sg15_49_cif.got.tgz:96522.got - 2010.06.28 07:06:18.
