data_PCOD8137074
_publ_section_title
;
Structure prediction by ZEFSAII (Michael W. Deem and Ramdas Pophale) SiO2 
 PCOD8137074
Probable space group: C 2/C
;
_chemical_formula_sum "Si O2"
_cell_formula_units_Z 64
_cell_length_a 13.918321
_cell_length_b 18.932861
_cell_length_c 13.523326
_cell_angle_alpha 90.000000
_cell_angle_beta 122.985264
_cell_angle_gamma 90.000000
_cell_volume 2989.169423
_symmetry_space_group_name_H-M "C 2/C"
_symmetry_group_IT_number 15
_symmetry_cell_setting 'monoclinic'
loop_
_space_group_symop_operation_xyz
x,y,z
-x,y,1/2-z
-x,-y,-z
x,-y,1/2+z
1/2+x,1/2+y,z
1/2-x,1/2+y,1/2-z
1/2-x,1/2-y,-z
1/2+x,1/2-y,1/2+z
loop_
_atom_site_type_symbol
_atom_site_label
_atom_site_fract_x
_atom_site_fract_y
_atom_site_fract_z
Si Si1 0.778163 0.111332 0.993122
Si Si2 0.914684 0.398940 0.785031
Si Si3 0.026514 0.223194 0.378591
Si Si4 0.668853 0.619777 0.168278
Si Si5 0.861393 0.441838 0.256816
Si Si6 0.938349 0.625668 0.516613
Si Si7 0.907569 0.032271 0.558235
Si Si8 0.650742 0.521794 0.755577
O O1 0.684254 0.112274 0.852096
O O2 0.854231 0.181301 0.043722
O O3 0.695969 0.105323 0.043500
O O4 0.864224 0.047512 0.021169
O O5 0.799390 0.351398 0.731690
O O6 0.876546 0.477528 0.728320
O O7 0.975341 0.397001 0.926479
O O8 0.000000 0.367174 0.750000
O O9 0.041190 0.291954 0.453343
O O10 0.000000 0.241172 0.250000
O O11 0.918202 0.182625 0.362810
O O12 0.660591 0.563854 0.255024
O O13 0.648221 0.583553 0.051051
O O14 0.766213 0.439590 0.288949
O O15 0.984075 0.417994 0.363963
O O16 0.874606 0.052813 0.651192
O O17 0.044845 0.037969 0.621793
#
# Coordination Sequence:
#
# PCOD8137074 Si02
#       8
#     8   8   8   8   8   8   8   8
#     4  12  21  39  68  99 135 165 216 280 338 400
#     4  11  24  43  66  92 128 174 225 284 337 392
#     4  12  25  44  68  98 139 179 221 271 331 413
#     4  11  22  40  65  97 129 172 217 273 339 396
#     4  11  23  39  66  98 134 166 223 277 347 395
#     4  12  27  42  64  96 134 183 227 265 337 403
#     4  11  20  35  64  96 132 159 218 272 342 384
#     4  10  20  35  59  98 126 169 203 273 337 396
#
# _framework density 21.410629
#
# number of rings (size 3 to 8) (size 9 to 14) (size 15 to 20)
#    0.000    0.750    3.750    6.750    1.750    1.000 
#    0.000    0.625    5.500    0.000    0.000    0.000 
#    0.000    0.000    0.000    0.000    0.000    0.000 
#
# Total GULP energy -396721.075714 kJ/mol
# GULP energy per Si atom -12397.533616 kJ/mol
# Density = 2.136190 g / cm^3
# Si number density = 21.410629 Si / 1000 Ang^3
#
#
#
# Elastic Constant Matrix: (Units=GPa)
#
#
# Indices 1 2 3 4 5 6 
#
# 1 126.5037 17.7189 18.5635 0.0000 11.9029 0.0000
# 2 17.7189 48.7585 20.8294 0.0000 -0.6783 0.0000
# 3 18.5635 20.8294 93.0143 0.0000 1.1672 0.0000
# 4 0.0000 0.0000 0.0000 19.3737 0.0000 4.2171
# 5 11.9029 -0.6783 1.1672 0.0000 37.6513 0.0000
# 6 0.0000 0.0000 0.0000 4.2171 0.0000 17.3571
#
#
#
# Elastic Compliance Matrix: (Units=1/GPa)
#
#
# Indices 1 2 3 4 5 6 
#
# 1 0.008709 -0.002738 -0.001090 0.000000 -0.002769 0.000000
# 2 -0.002738 0.023551 -0.004746 0.000000 0.001437 0.000000
# 3 -0.001090 -0.004746 0.012033 0.000000 -0.000114 0.000000
# 4 0.000000 0.000000 0.000000 0.054498 0.000000 -0.013241
# 5 -0.002769 0.001437 -0.000114 0.000000 0.027464 0.000000
# 6 0.000000 0.000000 0.000000 -0.013241 0.000000 0.060830
#
#
# Mechanical properties :
#
#
# Convention : Reuss Voigt Hill
#
# Bulk Modulus (GPa) = 36.83796 42.50001 39.66898
# Shear Modulus (GPa) = 23.44315 28.95407 26.19861
#
# Velocity S-wave (km/s) = 3.31256 3.68138 3.50183
# Velocity P-wave (km/s) = 5.64567 6.16143 5.90918
#
# Compressibility (1/GPa) = 0.02714591
#
# Stress axis : x y z
#
# Youngs Moduli (GPa) = 114.82576 42.46027 83.10604
#
# Poissons Ratio (x) = 0.11624 0.09061
# Poissons Ratio (y) = 0.31434 0.39440
# Poissons Ratio (z) = 0.12519 0.20151
#
# Static dielectric constant tensor:
#      x y z
#    x 4.207670 0.000000 0.133030 
#    y 0.000000 3.439990 0.000000 
#    z 0.133030 0.000000 4.137870 
# 
# 
# High freq. dielectric constant tensor:
#      x y z
#    x 1.860620 0.000000 0.010400 
#    y 0.000000 1.788200 0.000000 
#    z 0.010400 0.000000 1.863240 
# 
# From -- ./inp_files/155520.got.cif
#   From: 2010.06.25/outbox.cif.g09.slc.cpg/sg15_78_cif.got.tgz:155520.got - 2010.06.28 07:06:18.
