data_PCOD8137625
_publ_section_title
;
Structure prediction by ZEFSAII (Michael W. Deem and Ramdas Pophale) SiO2 
 PCOD8137625
Probable space group: C 2/C
;
_chemical_formula_sum "Si O2"
_cell_formula_units_Z 40
_cell_length_a 13.356436
_cell_length_b 21.266320
_cell_length_c 9.624048
_cell_angle_alpha 90.000000
_cell_angle_beta 130.969692
_cell_angle_gamma 90.000000
_cell_volume 2064.049795
_symmetry_space_group_name_H-M "C 2/C"
_symmetry_group_IT_number 15
_symmetry_cell_setting 'monoclinic'
loop_
_space_group_symop_operation_xyz
x,y,z
-x,y,1/2-z
-x,-y,-z
x,-y,1/2+z
1/2+x,1/2+y,z
1/2-x,1/2+y,1/2-z
1/2-x,1/2-y,-z
1/2+x,1/2-y,1/2+z
loop_
_atom_site_type_symbol
_atom_site_label
_atom_site_fract_x
_atom_site_fract_y
_atom_site_fract_z
Si Si1 0.293502 0.796355 0.419344
Si Si2 0.502104 0.408324 0.597088
Si Si3 0.851089 0.563148 0.066232
Si Si4 0.011990 0.795140 0.097799
Si Si5 0.712614 0.503197 0.694175
O O1 0.250000 0.750000 0.500000
O O2 0.317204 0.864809 0.503565
O O3 0.169056 0.792760 0.198601
O O4 0.431809 0.768680 0.482458
O O5 0.500000 0.380942 0.750000
O O6 0.552199 0.353039 0.542343
O O7 0.605887 0.465059 0.686584
O O8 0.643908 0.432880 0.077918
O O9 0.760489 0.538378 0.108874
O O10 0.000000 0.554994 0.250000
O O11 0.829940 0.522482 0.906767
O O12 0.000000 0.809954 0.250000
#
# Coordination Sequence:
#
# PCOD8137625 Si02
#       5
#     8   8   8   8   8
#     4  10  20  36  60  91 115 156 207 253 298 351
#     4  11  22  38  62  89 125 158 204 260 302 363
#     4  12  23  40  62  90 130 161 202 254 307 374
#     4  10  20  37  63  88 119 158 210 257 301 357
#     4  11  23  38  60  93 122 163 202 249 314 360
#
# _framework density 19.379377999999999
#
# number of rings (size 3 to 8) (size 9 to 14) (size 15 to 20)
#    0.000    1.200    4.000    4.800    0.000    0.000 
#    0.000    1.000    0.000    0.000    0.000    0.000 
#    0.000    0.000    0.000    0.000    0.000    0.000 
#
# Total GULP energy -247915.564788 kJ/mol
# GULP energy per Si atom -12395.778239 kJ/mol
# Density = 1.933527 g / cm^3
# Si number density = 19.379378 Si / 1000 Ang^3
#
#
#
# Elastic Constant Matrix: (Units=GPa)
#
#
# Indices 1 2 3 4 5 6 
#
# 1 71.5757 40.8777 44.6712 0.0000 8.2366 0.0000
# 2 40.8777 125.0430 54.9372 0.0000 1.7651 0.0000
# 3 44.6712 54.9372 121.3225 0.0000 16.9624 0.0000
# 4 0.0000 0.0000 0.0000 21.9496 0.0000 3.6094
# 5 8.2366 1.7651 16.9624 0.0000 35.2154 0.0000
# 6 0.0000 0.0000 0.0000 3.6094 0.0000 33.6568
#
#
#
# Elastic Compliance Matrix: (Units=1/GPa)
#
#
# Indices 1 2 3 4 5 6 
#
# 1 0.019781 -0.004193 -0.005111 0.000000 -0.001954 0.000000
# 2 -0.004193 0.010980 -0.003740 0.000000 0.002232 0.000000
# 3 -0.005111 -0.003740 0.012464 0.000000 -0.004621 0.000000
# 4 0.000000 0.000000 0.000000 0.046377 0.000000 -0.004974
# 5 -0.001954 0.002232 -0.004621 0.000000 0.030968 0.000000
# 6 0.000000 0.000000 0.000000 -0.004974 0.000000 0.030245
#
#
# Mechanical properties :
#
#
# Convention : Reuss Voigt Hill
#
# Bulk Modulus (GPa) = 58.35792 66.54593 62.45193
# Shear Modulus (GPa) = 27.37999 29.99470 28.68735
#
# Velocity S-wave (km/s) = 3.76286 3.93843 3.85164
# Velocity P-wave (km/s) = 7.00411 7.42258 7.21638
#
# Compressibility (1/GPa) = 0.01713563
#
# Stress axis : x y z
#
# Youngs Moduli (GPa) = 50.55339 91.07724 80.23110
#
# Poissons Ratio (x) = 0.38192 0.41009
# Poissons Ratio (y) = 0.21199 0.30005
# Poissons Ratio (z) = 0.25840 0.34061
#
# Static dielectric constant tensor:
#      x y z
#    x 3.900700 0.000000 0.720920 
#    y 0.000000 3.612990 0.000000 
#    z 0.720920 0.000000 4.034540 
# 
# 
# High freq. dielectric constant tensor:
#      x y z
#    x 1.733000 0.000000 0.023220 
#    y 0.000000 1.757690 0.000000 
#    z 0.023220 0.000000 1.758420 
# 
# From -- ./inp_files/41054.got.cif
#   From: 2010.06.25/outbox.cif.g09.slc.cpg/sg15_21_cif.got.tgz:41054.got - 2010.06.28 07:06:18.
