data_PCOD8137458
_publ_section_title
;
Structure prediction by ZEFSAII (Michael W. Deem and Ramdas Pophale) SiO2 
 PCOD8137458
Probable space group: C 2/C
;
_chemical_formula_sum "Si O2"
_cell_formula_units_Z 36
_cell_length_a 16.115087
_cell_length_b 18.472676
_cell_length_c 7.975146
_cell_angle_alpha 90.000000
_cell_angle_beta 61.471345
_cell_angle_gamma 90.000000
_cell_volume 2085.842989
_symmetry_space_group_name_H-M "C 2/C"
_symmetry_group_IT_number 15
_symmetry_cell_setting 'monoclinic'
loop_
_space_group_symop_operation_xyz
x,y,z
-x,y,1/2-z
-x,-y,-z
x,-y,1/2+z
1/2+x,1/2+y,z
1/2-x,1/2+y,1/2-z
1/2-x,1/2-y,-z
1/2+x,1/2-y,1/2+z
loop_
_atom_site_type_symbol
_atom_site_label
_atom_site_fract_x
_atom_site_fract_y
_atom_site_fract_z
Si Si1 0.502266 0.835770 0.562121
Si Si2 0.671334 0.079371 0.765324
Si Si3 0.835487 0.423982 0.596531
Si Si4 0.797345 0.827876 0.947559
Si Si5 0.500000 0.729301 0.250000
O O1 0.500000 0.799461 0.750000
O O2 0.600148 0.879112 0.455693
O O3 0.416010 0.892489 0.638722
O O4 0.492456 0.776890 0.425170
O O5 0.766584 0.127507 0.645198
O O6 0.620422 0.069500 0.633428
O O7 0.700694 0.001877 0.808894
O O8 0.744089 0.370399 0.675814
O O9 0.909652 0.822565 0.826186
O O10 0.750000 0.750000 0.000000
#
# Coordination Sequence:
#
# PCOD8137458 Si02
#       5
#     8   8   8   8   4
#     4  12  21  33  63  95 127 155 197 256 309 368
#     4  10  20  36  58  90 124 159 196 246 309 355
#     4  10  20  36  58  90 124 159 196 246 309 355
#     4  10  20  38  68  80 127 172 189 256 306 364
#     4  12  20  46  58  94 122 164 208 244 312 358
#
# _framework density 17.259208999999998
#
# number of rings (size 3 to 8) (size 9 to 14) (size 15 to 20)
#    1.333    0.000    6.667    2.000    0.000    0.000 
#    0.000    7.778    0.000    0.000    0.000    0.000 
#    0.000    0.000    0.000    0.000    0.000    0.000 
#
# Total GULP energy -223036.862341 kJ/mol
# GULP energy per Si atom -12390.936797 kJ/mol
# Density = 1.721993 g / cm^3
# Si number density = 17.259209 Si / 1000 Ang^3
#
#
#
# Elastic Constant Matrix: (Units=GPa)
#
#
# Indices 1 2 3 4 5 6 
#
# 1 56.4846 26.2107 48.9333 0.0000 -22.4443 0.0000
# 2 26.2107 91.7656 42.8649 0.0000 -16.3879 0.0000
# 3 48.9333 42.8649 97.1288 0.0000 4.3821 0.0000
# 4 0.0000 0.0000 0.0000 35.3390 0.0000 5.5969
# 5 -22.4443 -16.3879 4.3821 0.0000 42.1948 0.0000
# 6 0.0000 0.0000 0.0000 5.5969 0.0000 21.6070
#
#
#
# Elastic Compliance Matrix: (Units=1/GPa)
#
#
# Indices 1 2 3 4 5 6 
#
# 1 0.059593 0.005641 -0.034202 0.000000 0.037442 0.000000
# 2 0.005641 0.015953 -0.010346 0.000000 0.010271 0.000000
# 3 -0.034202 -0.010346 0.033250 0.000000 -0.025664 0.000000
# 4 0.000000 0.000000 0.000000 0.029508 0.000000 -0.007643
# 5 0.037442 0.010271 -0.025664 0.000000 0.050270 0.000000
# 6 0.000000 0.000000 0.000000 -0.007643 0.000000 0.048261
#
#
# Mechanical properties :
#
#
# Convention : Reuss Voigt Hill
#
# Bulk Modulus (GPa) = 32.27512 53.48853 42.88182
# Shear Modulus (GPa) = 15.38571 28.31951 21.85261
#
# Velocity S-wave (km/s) = 2.98895 4.05512 3.56215
# Velocity P-wave (km/s) = 5.53648 7.27900 6.46670
#
# Compressibility (1/GPa) = 0.03098362
#
# Stress axis : x y z
#
# Youngs Moduli (GPa) = 16.78036 62.68427 30.07498
#
# Poissons Ratio (x) = -0.35362 1.02862
# Poissons Ratio (y) = -0.09466 0.31115
# Poissons Ratio (z) = 0.57392 0.64852
#
# Static dielectric constant tensor:
#      x y z
#    x 3.101070 0.000000 -0.019980 
#    y 0.000000 3.165710 0.000000 
#    z -0.019980 0.000000 3.164900 
# 
# 
# High freq. dielectric constant tensor:
#      x y z
#    x 1.647370 0.000000 0.003050 
#    y 0.000000 1.662240 0.000000 
#    z 0.003050 0.000000 1.656720 
# 
# From -- ./inp_files/54845.got.cif
#   From: 2010.06.25/outbox.cif.g09.slc.cpg/sg15_28_cif.got.tgz:54845.got - 2010.06.28 07:06:18.
