data_PCOD8137617
_publ_section_title
;
Structure prediction by ZEFSAII (Michael W. Deem and Ramdas Pophale) SiO2 
 PCOD8137617
Probable space group: C 2/C
;
_chemical_formula_sum "Si O2"
_cell_formula_units_Z 40
_cell_length_a 11.992288
_cell_length_b 24.209520
_cell_length_c 14.203648
_cell_angle_alpha 90.000000
_cell_angle_beta 147.598181
_cell_angle_gamma 90.000000
_cell_volume 2209.704918
_symmetry_space_group_name_H-M "C 2/C"
_symmetry_group_IT_number 15
_symmetry_cell_setting 'monoclinic'
loop_
_space_group_symop_operation_xyz
x,y,z
-x,y,1/2-z
-x,-y,-z
x,-y,1/2+z
1/2+x,1/2+y,z
1/2-x,1/2+y,1/2-z
1/2-x,1/2-y,-z
1/2+x,1/2-y,1/2+z
loop_
_atom_site_type_symbol
_atom_site_label
_atom_site_fract_x
_atom_site_fract_y
_atom_site_fract_z
Si Si1 0.019028 0.876504 0.054902
Si Si2 0.205489 0.186161 0.955490
Si Si3 0.590775 0.123495 0.554901
Si Si4 0.631471 0.526794 0.750000
Si Si5 0.631558 0.400061 0.749999
O O1 0.247009 0.852904 0.250001
O O2 0.004212 0.940905 0.077036
O O3 0.830591 0.841920 0.968540
O O4 0.993425 0.871603 0.924576
O O5 0.000000 0.173964 0.750000
O O6 0.250000 0.250000 0.000000
O O7 0.393511 0.158080 0.031460
O O8 0.649860 0.059095 0.577036
O O9 0.355727 0.128397 0.424575
O O10 0.500000 0.530967 0.750000
O O11 0.669422 0.463712 0.749999
O O12 0.500000 0.391376 0.750000
#
# Coordination Sequence:
#
# PCOD8137617 Si02
#       5
#     8   8   8   8   8
#     4   9  19  36  52  78 112 136 178 235 275 316
#     4  10  20  36  60  90 108 134 176 241 300 324
#     4   9  19  36  52  78 112 136 178 235 275 316
#     4   9  16  36  52  74 114 141 184 224 276 321
#     4  11  22  31  53  79 107 157 187 209 251 342
#
# _framework density 18.101963999999999
#
# number of rings (size 3 to 8) (size 9 to 14) (size 15 to 20)
#    1.200    1.200    2.000    1.200    2.800    0.800 
#    0.000    0.000    4.400    1.200    0.000    0.000 
#    0.000    0.000    0.000    0.000    0.000    0.000 
#
# Total GULP energy -247790.061397 kJ/mol
# GULP energy per Si atom -12389.503070 kJ/mol
# Density = 1.806076 g / cm^3
# Si number density = 18.101964 Si / 1000 Ang^3
#
#
#
# Elastic Constant Matrix: (Units=GPa)
#
#
# Indices 1 2 3 4 5 6 
#
# 1 129.1811 50.6624 62.4310 0.0000 -0.1906 -0.0001
# 2 50.6624 75.7118 20.9763 0.0001 1.9534 0.0001
# 3 62.4310 20.9763 88.6942 0.0002 2.8546 0.0002
# 4 0.0000 0.0001 0.0002 21.9817 0.0001 -0.2834
# 5 -0.1906 1.9534 2.8546 0.0001 34.6217 0.0000
# 6 -0.0001 0.0001 0.0002 -0.2834 0.0000 17.6746
#
#
#
# Elastic Compliance Matrix: (Units=1/GPa)
#
#
# Indices 1 2 3 4 5 6 
#
# 1 0.014973 -0.007619 -0.008777 0.000000 0.001236 0.000000
# 2 -0.007619 0.018021 0.001138 0.000000 -0.001153 0.000000
# 3 -0.008777 0.001138 0.017233 0.000000 -0.001533 0.000000
# 4 0.000000 0.000000 0.000000 0.045502 0.000000 0.000730
# 5 0.001236 -0.001153 -0.001533 0.000000 0.029082 0.000000
# 6 0.000000 0.000000 0.000000 0.000730 0.000000 0.056590
#
#
# Mechanical properties :
#
#
# Convention : Reuss Voigt Hill
#
# Bulk Modulus (GPa) = 50.73446 62.41408 56.57427
# Shear Modulus (GPa) = 22.88472 25.49009 24.18740
#
# Velocity S-wave (km/s) = 3.55943 3.75659 3.65934
# Velocity P-wave (km/s) = 6.70676 7.30548 7.01251
#
# Compressibility (1/GPa) = 0.01971047
#
# Stress axis : x y z
#
# Youngs Moduli (GPa) = 66.78785 55.49164 58.02848
#
# Poissons Ratio (x) = 0.42280 0.50932
# Poissons Ratio (y) = 0.50887 -0.06605
# Poissons Ratio (z) = 0.58620 -0.06316
#
# Static dielectric constant tensor:
#      x y z
#    x 3.147870 0.000000 -0.003270 
#    y 0.000000 2.862590 0.000000 
#    z -0.003270 0.000000 3.197480 
# 
# 
# High freq. dielectric constant tensor:
#      x y z
#    x 1.690640 0.000000 0.000120 
#    y 0.000000 1.678310 0.000000 
#    z 0.000120 0.000000 1.688790 
# 
# From -- ./inp_files/148184.got.cif
#   From: 2010.06.25/outbox.cif.g09.slc.cpg/sg15_75_cif.got.tgz:148184.got - 2010.06.28 07:06:18.
