data_PCOD8137683
_publ_section_title
;
Structure prediction by ZEFSAII (Michael W. Deem and Ramdas Pophale) SiO2 
 PCOD8137683
Probable space group: C 2/C
;
_chemical_formula_sum "Si O2"
_cell_formula_units_Z 48
_cell_length_a 11.680853
_cell_length_b 21.097089
_cell_length_c 26.834660
_cell_angle_alpha 90.000000
_cell_angle_beta 159.228273
_cell_angle_gamma 90.000000
_cell_volume 2345.242710
_symmetry_space_group_name_H-M "C 2/C"
_symmetry_group_IT_number 15
_symmetry_cell_setting 'monoclinic'
loop_
_space_group_symop_operation_xyz
x,y,z
-x,y,1/2-z
-x,-y,-z
x,-y,1/2+z
1/2+x,1/2+y,z
1/2-x,1/2+y,1/2-z
1/2-x,1/2-y,-z
1/2+x,1/2-y,1/2+z
loop_
_atom_site_type_symbol
_atom_site_label
_atom_site_fract_x
_atom_site_fract_y
_atom_site_fract_z
Si Si1 0.104414 0.845796 0.960601
Si Si2 0.813621 0.935578 0.914254
Si Si3 0.862157 0.710504 0.883786
Si Si4 0.952639 0.048053 0.136934
Si Si5 0.878754 0.438353 0.555864
Si Si6 0.842679 0.363813 0.912223
O O1 0.476094 0.828662 0.096649
O O2 0.949757 0.889004 0.854520
O O3 0.078426 0.886156 0.000774
O O4 0.882971 0.783871 0.877535
O O5 0.500000 0.942878 0.750000
O O6 0.720156 0.910613 0.930932
O O7 0.000000 0.000000 0.000000
O O8 0.500000 0.689407 0.750000
O O9 0.058419 0.696255 0.014267
O O10 0.674639 0.070607 0.062225
O O11 0.270291 0.027844 0.296871
O O12 0.859932 0.992032 0.061888
O O13 0.897392 0.378983 0.525252
O O14 0.500000 0.345157 0.750000
#
# Coordination Sequence:
#
# PCOD8137683 Si02
#       6
#     8   8   8   8   8   8
#     4  10  21  40  64  89 120 162 206 244 310 364
#     4  12  22  39  61  90 125 164 201 247 310 375
#     4  10  22  41  68  88 115 163 217 254 291 364
#     4  10  20  36  61  89 125 160 199 245 302 373
#     4  11  20  35  59  91 121 162 194 246 306 364
#     4   9  21  39  60  88 127 162 200 251 309 359
#
# _framework density 20.466964999999998
#
# number of rings (size 3 to 8) (size 9 to 14) (size 15 to 20)
#    0.000    1.667    3.333    1.000    0.000    2.667 
#    3.000    2.500    0.000    0.000    0.000    0.000 
#    0.000    0.000    0.000    0.000    0.000    0.000 
#
# Total GULP energy -297363.296801 kJ/mol
# GULP energy per Si atom -12390.137367 kJ/mol
# Density = 2.042038 g / cm^3
# Si number density = 20.466965 Si / 1000 Ang^3
#
#
#
# Elastic Constant Matrix: (Units=GPa)
#
#
# Indices 1 2 3 4 5 6 
#
# 1 159.3424 42.8740 32.1720 -0.0331 8.2478 -0.0056
# 2 42.8740 85.9981 33.6145 -0.0250 2.2283 -0.0101
# 3 32.1720 33.6145 75.2516 -0.0547 4.6263 0.0844
# 4 -0.0331 -0.0250 -0.0547 16.4409 0.0180 -1.8083
# 5 8.2478 2.2283 4.6263 0.0180 36.0385 -0.0388
# 6 -0.0056 -0.0101 0.0844 -1.8083 -0.0388 39.8814
#
#
#
# Elastic Compliance Matrix: (Units=1/GPa)
#
#
# Indices 1 2 3 4 5 6 
#
# 1 0.007515 -0.003015 -0.001786 0.000006 -0.001304 0.000003
# 2 -0.003015 0.015297 -0.005573 0.000000 0.000460 0.000016
# 3 -0.001786 -0.005573 0.016627 0.000041 -0.001381 -0.000036
# 4 0.000006 0.000000 0.000041 0.061129 -0.000034 0.002772
# 5 -0.001304 0.000460 -0.001381 -0.000034 0.028196 0.000029
# 6 0.000003 0.000016 -0.000036 0.002772 0.000029 0.025200
#
#
# Mechanical properties :
#
#
# Convention : Reuss Voigt Hill
#
# Bulk Modulus (GPa) = 53.49813 59.76814 56.63313
# Shear Modulus (GPa) = 27.63324 32.60092 30.11708
#
# Velocity S-wave (km/s) = 3.67841 3.99539 3.84017
# Velocity P-wave (km/s) = 6.65105 7.10984 6.88427
#
# Compressibility (1/GPa) = 0.01869224
#
# Stress axis : x y z
#
# Youngs Moduli (GPa) = 133.06584 65.37033 60.14447
#
# Poissons Ratio (x) = 0.19707 0.10742
# Poissons Ratio (y) = 0.40115 0.33517
# Poissons Ratio (z) = 0.23766 0.36429
#
# Static dielectric constant tensor:
#      x y z
#    x 4.411220 0.000020 0.050900 
#    y 0.000020 3.505900 -0.000150 
#    z 0.050900 -0.000150 3.476410 
# 
# 
# High freq. dielectric constant tensor:
#      x y z
#    x 1.831370 0.000000 0.005540 
#    y 0.000000 1.775080 -0.000020 
#    z 0.005540 -0.000020 1.775130 
# 
# From -- ./inp_files/169664.got.cif
#   From: 2010.06.25/outbox.cif.g09.slc.cpg/sg15_85_cif.got.tgz:169664.got - 2010.06.28 07:06:18.
