data_PCOD8137791
_publ_section_title
;
Structure prediction by ZEFSAII (Michael W. Deem and Ramdas Pophale) SiO2 
 PCOD8137791
Probable space group: C 2/C
;
_chemical_formula_sum "Si O2"
_cell_formula_units_Z 44
_cell_length_a 11.416472
_cell_length_b 19.346186
_cell_length_c 14.299229
_cell_angle_alpha 90.000000
_cell_angle_beta 140.732866
_cell_angle_gamma 90.000000
_cell_volume 1998.942478
_symmetry_space_group_name_H-M "C 2/C"
_symmetry_group_IT_number 15
_symmetry_cell_setting 'monoclinic'
loop_
_space_group_symop_operation_xyz
x,y,z
-x,y,1/2-z
-x,-y,-z
x,-y,1/2+z
1/2+x,1/2+y,z
1/2-x,1/2+y,1/2-z
1/2-x,1/2-y,-z
1/2+x,1/2-y,1/2+z
loop_
_atom_site_type_symbol
_atom_site_label
_atom_site_fract_x
_atom_site_fract_y
_atom_site_fract_z
Si Si1 0.000000 0.205297 0.250000
Si Si2 0.087693 0.986677 0.705231
Si Si3 0.847947 0.691865 0.797766
Si Si4 0.034691 0.892060 0.030438
Si Si5 0.824158 0.691920 0.207476
Si Si6 0.346839 0.122748 0.414265
O O1 0.982304 0.252328 0.331593
O O2 0.823120 0.155509 0.132484
O O3 0.293654 0.956036 0.852896
O O4 0.000000 0.005019 0.750000
O O5 0.973196 0.928200 0.576205
O O6 0.093904 0.055447 0.648443
O O7 0.695984 0.665336 0.629184
O O8 0.750861 0.729756 0.826272
O O9 0.969384 0.626843 0.908771
O O10 0.837103 0.857731 0.933050
O O11 0.890277 0.666806 0.349267
O O12 0.000000 0.691087 0.250000
#
# Coordination Sequence:
#
# PCOD8137791 Si02
#       6
#     4   8   8   8   8   8
#     4  10  20  36  62  96 134 160 202 266 328 382
#     4  10  22  43  67  84 129 178 212 267 317 376
#     4  11  23  36  64 101 128 160 211 267 326 386
#     4  10  24  43  62  96 127 167 224 263 320 387
#     4  10  22  41  62  90 131 170 210 264 325 385
#     4  10  21  37  63  92 125 170 212 259 322 378
#
# _framework density 22.011638999999999
#
# number of rings (size 3 to 8) (size 9 to 14) (size 15 to 20)
#    0.000    1.818    0.909    2.727    2.545    5.818 
#    0.000    3.636    2.000    0.000    0.000    0.000 
#    0.000    0.000    0.000    0.000    0.000    0.000 
#
# Total GULP energy -272736.300672 kJ/mol
# GULP energy per Si atom -12397.104576 kJ/mol
# Density = 2.196154 g / cm^3
# Si number density = 22.011639 Si / 1000 Ang^3
#
#
#
# Elastic Constant Matrix: (Units=GPa)
#
#
# Indices 1 2 3 4 5 6 
#
# 1 124.3074 15.9873 35.1300 -0.0001 2.9728 0.0000
# 2 15.9873 64.3437 23.1718 0.0000 1.5728 0.0000
# 3 35.1300 23.1718 104.4000 -0.0001 11.6820 0.0000
# 4 -0.0001 0.0000 -0.0001 39.4480 -0.0001 -5.0559
# 5 2.9728 1.5728 11.6820 -0.0001 25.1948 0.0000
# 6 0.0000 0.0000 0.0000 -5.0559 0.0000 12.7434
#
#
#
# Elastic Compliance Matrix: (Units=1/GPa)
#
#
# Indices 1 2 3 4 5 6 
#
# 1 0.008983 -0.001237 -0.002782 0.000000 0.000307 0.000000
# 2 -0.001237 0.017075 -0.003449 0.000000 0.000680 0.000000
# 3 -0.002782 -0.003449 0.011834 0.000000 -0.004943 0.000000
# 4 0.000000 0.000000 0.000000 0.026708 0.000000 0.010596
# 5 0.000307 0.000680 -0.004943 0.000000 0.041904 0.000000
# 6 0.000000 0.000000 0.000000 0.010596 0.000000 0.082676
#
#
# Mechanical properties :
#
#
# Convention : Reuss Voigt Hill
#
# Bulk Modulus (GPa) = 43.56836 49.06992 46.31914
# Shear Modulus (GPa) = 23.61074 30.06137 26.83606
#
# Velocity S-wave (km/s) = 3.27868 3.69955 3.49546
# Velocity P-wave (km/s) = 5.84545 6.37103 6.11389
#
# Compressibility (1/GPa) = 0.02295244
#
# Stress axis : x y z
#
# Youngs Moduli (GPa) = 111.32536 58.56654 84.50565
#
# Poissons Ratio (x) = 0.07247 0.23513
# Poissons Ratio (y) = 0.13775 0.29149
# Poissons Ratio (z) = 0.30975 0.20202
#
# Static dielectric constant tensor:
#      x y z
#    x 3.810490 0.000000 -0.007330 
#    y 0.000000 4.015110 0.000000 
#    z -0.007330 0.000000 3.920010 
# 
# 
# High freq. dielectric constant tensor:
#      x y z
#    x 1.850790 0.000000 -0.004840 
#    y 0.000000 1.862540 0.000000 
#    z -0.004840 0.000000 1.869090 
# 
# From -- ./inp_files/147286.got.cif
#   From: 2010.06.25/outbox.cif.g09.slc.cpg/sg15_74_cif.got.tgz:147286.got - 2010.06.28 07:06:18.
