data_PCOD8137262
_publ_section_title
;
Structure prediction by ZEFSAII (Michael W. Deem and Ramdas Pophale) SiO2 
 PCOD8137262
Probable space group: C 2/C
;
_chemical_formula_sum "Si O2"
_cell_formula_units_Z 40
_cell_length_a 13.391009
_cell_length_b 13.535954
_cell_length_c 17.920737
_cell_angle_alpha 90.000000
_cell_angle_beta 37.687701
_cell_angle_gamma 90.000000
_cell_volume 1985.880255
_symmetry_space_group_name_H-M "C 2/C"
_symmetry_group_IT_number 15
_symmetry_cell_setting 'monoclinic'
loop_
_space_group_symop_operation_xyz
x,y,z
-x,y,1/2-z
-x,-y,-z
x,-y,1/2+z
1/2+x,1/2+y,z
1/2-x,1/2+y,1/2-z
1/2-x,1/2-y,-z
1/2+x,1/2-y,1/2+z
loop_
_atom_site_type_symbol
_atom_site_label
_atom_site_fract_x
_atom_site_fract_y
_atom_site_fract_z
Si Si1 0.807719 0.515649 0.609782
Si Si2 0.662342 0.609240 0.838847
Si Si3 0.802380 0.081573 0.096583
Si Si4 0.341537 0.146959 0.457082
Si Si5 0.794755 0.327087 0.698477
O O1 0.740591 0.588196 0.712700
O O2 0.751877 0.566766 0.565121
O O3 0.738423 0.404858 0.667501
O O4 0.000000 0.500000 0.500000
O O5 0.723267 0.531825 0.864409
O O6 0.728598 0.718018 0.821190
O O7 0.466055 0.601819 0.952015
O O8 0.651700 0.101449 0.129969
O O9 0.809791 0.152834 0.164605
O O10 0.250000 0.250000 0.500000
O O11 0.518451 0.162258 0.386448
#
# Coordination Sequence:
#
# PCOD8137262 Si02
#       5
#     8   8   8   8   8
#     4   9  21  35  53  83 112 141 181 226 274 330
#     4  10  20  36  55  78 112 147 180 224 275 332
#     4  10  21  34  53  85 109 141 187 228 270 324
#     4  11  19  34  57  87 111 140 184 234 270 315
#     4  10  20  36  56  80 112 149 180 224 277 327
#
# _framework density 20.142202000000001
#
# number of rings (size 3 to 8) (size 9 to 14) (size 15 to 20)
#    0.000    2.000    2.000    1.800    2.800    0.800 
#    0.000    1.000    0.000    0.000   31.200    0.000 
#    0.000    0.000    0.000    0.000    0.000    0.000 
#
# Total GULP energy -247772.342940 kJ/mol
# GULP energy per Si atom -12388.617147 kJ/mol
# Density = 2.009636 g / cm^3
# Si number density = 20.142202 Si / 1000 Ang^3
#
#
#
# Elastic Constant Matrix: (Units=GPa)
#
#
# Indices 1 2 3 4 5 6 
#
# 1 53.6068 44.1241 14.0875 -0.0003 15.2050 0.0002
# 2 44.1241 184.0315 36.6107 -0.0002 23.8889 0.0001
# 3 14.0875 36.6107 106.5870 -0.0005 11.7791 0.0004
# 4 -0.0003 -0.0002 -0.0005 25.3533 0.0005 2.7285
# 5 15.2050 23.8889 11.7791 0.0005 23.8052 -0.0003
# 6 0.0002 0.0001 0.0004 2.7285 -0.0003 30.7406
#
#
#
# Elastic Compliance Matrix: (Units=1/GPa)
#
#
# Indices 1 2 3 4 5 6 
#
# 1 0.025877 -0.004580 -0.000559 0.000001 -0.011656 0.000000
# 2 -0.004580 0.007306 -0.001499 0.000000 -0.003664 0.000000
# 3 -0.000559 -0.001499 0.010330 0.000000 -0.003250 0.000000
# 4 0.000001 0.000000 0.000000 0.039823 -0.000001 -0.003535
# 5 -0.011656 -0.003664 -0.003250 -0.000001 0.054738 0.000001
# 6 0.000000 0.000000 0.000000 -0.003535 0.000001 0.032844
#
#
# Mechanical properties :
#
#
# Convention : Reuss Voigt Hill
#
# Bulk Modulus (GPa) = 33.07241 59.31887 46.19564
# Shear Modulus (GPa) = 25.73693 32.60667 29.17180
#
# Velocity S-wave (km/s) = 3.57846 4.02783 3.80977
# Velocity P-wave (km/s) = 5.79042 7.15158 6.50669
#
# Compressibility (1/GPa) = 0.03023668
#
# Stress axis : x y z
#
# Youngs Moduli (GPa) = 38.64396 136.87534 96.80569
#
# Poissons Ratio (x) = 0.62692 0.05410
# Poissons Ratio (y) = 0.17700 0.14513
# Poissons Ratio (z) = 0.02160 0.20519
#
# Static dielectric constant tensor:
#      x y z
#    x 3.498050 0.000010 0.231950 
#    y 0.000010 5.146820 0.000010 
#    z 0.231950 0.000010 3.996360 
# 
# 
# High freq. dielectric constant tensor:
#      x y z
#    x 1.737130 0.000000 0.011250 
#    y 0.000000 1.801770 0.000000 
#    z 0.011250 0.000000 1.803680 
# 
# From -- ./inp_files/85640.got.cif
#   From: 2010.06.25/outbox.cif.g09.slc.cpg/sg15_43_cif.got.tgz:85640.got - 2010.06.28 07:06:18.
