data_PCOD8137181
_publ_section_title
;
Structure prediction by ZEFSAII (Michael W. Deem and Ramdas Pophale) SiO2 
 PCOD8137181
Probable space group: C 2/C
;
_chemical_formula_sum "Si O2"
_cell_formula_units_Z 56
_cell_length_a 21.795209
_cell_length_b 14.182371
_cell_length_c 14.846961
_cell_angle_alpha 90.000000
_cell_angle_beta 141.254915
_cell_angle_gamma 90.000000
_cell_volume 2872.250163
_symmetry_space_group_name_H-M "C 2/C"
_symmetry_group_IT_number 15
_symmetry_cell_setting 'monoclinic'
loop_
_space_group_symop_operation_xyz
x,y,z
-x,y,1/2-z
-x,-y,-z
x,-y,1/2+z
1/2+x,1/2+y,z
1/2-x,1/2+y,1/2-z
1/2-x,1/2-y,-z
1/2+x,1/2-y,1/2+z
loop_
_atom_site_type_symbol
_atom_site_label
_atom_site_fract_x
_atom_site_fract_y
_atom_site_fract_z
Si Si1 0.634684 0.617762 0.164503
Si Si2 0.075775 0.821028 0.138638
Si Si3 0.263325 0.190448 0.744927
Si Si4 0.743947 0.503732 0.135433
Si Si5 0.680190 0.481465 0.362139
Si Si6 0.422453 0.878572 0.778885
Si Si7 0.630509 0.100286 0.476367
O O1 0.699495 0.711451 0.253885
O O2 0.680476 0.545521 0.144262
O O3 0.627481 0.569323 0.254392
O O4 0.523640 0.633404 0.009247
O O5 0.148715 0.807079 0.138047
O O6 0.124987 0.884488 0.273258
O O7 0.049045 0.718863 0.143600
O O8 0.277464 0.103581 0.692350
O O9 0.327777 0.178549 0.908619
O O10 0.843922 0.563185 0.245529
O O11 0.681763 0.508204 0.971836
O O12 0.790763 0.483563 0.446353
O O13 0.380208 0.850766 0.633017
O O14 0.524400 0.938300 0.888181
#
# Coordination Sequence:
#
# PCOD8137181 Si02
#       7
#     8   8   8   8   8   8   8
#     4  12  23  42  62  88 124 160 194 251 296 352
#     4  11  22  37  62  94 119 154 197 248 304 355
#     4  11  23  40  59  88 121 159 200 240 301 358
#     4  11  24  40  63  89 118 166 199 243 302 348
#     4  10  24  40  61  89 126 156 200 248 290 365
#     4  10  20  35  63  92 119 149 199 253 306 345
#     4   9  19  37  58  91 121 145 194 256 295 350
#
# _framework density 19.49691
#
# number of rings (size 3 to 8) (size 9 to 14) (size 15 to 20)
#    0.000    1.429    5.714    0.429    2.000    3.429 
#    2.571    0.000    0.000    0.000    0.000    0.000 
#    0.000    0.000    0.000    0.000    0.000    0.000 
#
# Total GULP energy -347113.112467 kJ/mol
# GULP energy per Si atom -12396.896874 kJ/mol
# Density = 1.945253 g / cm^3
# Si number density = 19.496910 Si / 1000 Ang^3
#
#
#
# Elastic Constant Matrix: (Units=GPa)
#
#
# Indices 1 2 3 4 5 6 
#
# 1 56.8805 17.3621 37.6703 0.0000 10.4521 0.0000
# 2 17.3621 88.3423 40.4030 0.0000 -10.0342 0.0000
# 3 37.6703 40.4030 96.5382 0.0000 9.7227 0.0000
# 4 0.0000 0.0000 0.0000 27.6419 0.0000 0.8534
# 5 10.4521 -10.0342 9.7227 0.0000 29.6179 0.0000
# 6 0.0000 0.0000 0.0000 0.8534 0.0000 18.6911
#
#
#
# Elastic Compliance Matrix: (Units=1/GPa)
#
#
# Indices 1 2 3 4 5 6 
#
# 1 0.024836 -0.001878 -0.008231 0.000000 -0.006699 0.000000
# 2 -0.001878 0.015649 -0.006637 0.000000 0.008143 0.000000
# 3 -0.008231 -0.006637 0.016839 0.000000 -0.004871 0.000000
# 4 0.000000 0.000000 0.000000 0.036228 0.000000 -0.001654
# 5 -0.006699 0.008143 -0.004871 0.000000 0.040485 0.000000
# 6 0.000000 0.000000 0.000000 -0.001654 0.000000 0.053577
#
#
# Mechanical properties :
#
#
# Convention : Reuss Voigt Hill
#
# Bulk Modulus (GPa) = 41.95872 48.07018 45.01445
# Shear Modulus (GPa) = 21.82950 24.94521 23.38735
#
# Velocity S-wave (km/s) = 3.34973 3.58081 3.46720
# Velocity P-wave (km/s) = 6.04387 6.46569 6.25833
#
# Compressibility (1/GPa) = 0.02383295
#
# Stress axis : x y z
#
# Youngs Moduli (GPa) = 40.26452 63.90265 59.38755
#
# Poissons Ratio (x) = 0.11998 0.48880
# Poissons Ratio (y) = 0.07560 0.39414
# Poissons Ratio (z) = 0.33141 0.42411
#
# Static dielectric constant tensor:
#      x y z
#    x 3.580290 0.000000 0.141480 
#    y 0.000000 3.419790 0.000000 
#    z 0.141480 0.000000 3.773780 
# 
# 
# High freq. dielectric constant tensor:
#      x y z
#    x 1.755870 0.000000 0.013200 
#    y 0.000000 1.743380 0.000000 
#    z 0.013200 0.000000 1.769870 
# 
# From -- ./inp_files/168501.got.cif
#   From: 2010.06.25/outbox.cif.g09.slc.cpg/sg15_85_cif.got.tgz:168501.got - 2010.06.28 07:06:18.
