data_PCOD8137591
_publ_section_title
;
Structure prediction by ZEFSAII (Michael W. Deem and Ramdas Pophale) SiO2 
 PCOD8137591
Probable space group: C 2/C
;
_chemical_formula_sum "Si O2"
_cell_formula_units_Z 56
_cell_length_a 20.193731
_cell_length_b 6.348846
_cell_length_c 21.224282
_cell_angle_alpha 90.000000
_cell_angle_beta 79.971671
_cell_angle_gamma 90.000000
_cell_volume 2679.525586
_symmetry_space_group_name_H-M "C 2/C"
_symmetry_group_IT_number 15
_symmetry_cell_setting 'monoclinic'
loop_
_space_group_symop_operation_xyz
x,y,z
-x,y,1/2-z
-x,-y,-z
x,-y,1/2+z
1/2+x,1/2+y,z
1/2-x,1/2+y,1/2-z
1/2-x,1/2-y,-z
1/2+x,1/2-y,1/2+z
loop_
_atom_site_type_symbol
_atom_site_label
_atom_site_fract_x
_atom_site_fract_y
_atom_site_fract_z
Si Si1 0.063086 0.512191 0.946013
Si Si2 0.264732 0.557520 0.541797
Si Si3 0.855216 0.272979 0.964897
Si Si4 0.142149 0.175440 0.866878
Si Si5 0.958497 0.188250 0.839250
Si Si6 0.912264 0.593987 0.226103
Si Si7 0.946866 0.813056 0.667988
O O1 0.087266 0.277723 0.923242
O O2 0.040721 0.661471 0.892796
O O3 0.124523 0.609313 0.974901
O O4 0.000000 0.500000 0.000000
O O5 0.250000 0.750000 0.500000
O O6 0.199164 0.413091 0.563939
O O7 0.323112 0.442236 0.493705
O O8 0.288853 0.630025 0.607464
O O9 0.918940 0.217892 0.910676
O O10 0.152433 0.343759 0.806897
O O11 0.114653 0.963550 0.839803
O O12 0.910422 0.269764 0.790366
O O13 0.023713 0.334712 0.827301
O O14 0.985063 0.945846 0.826339
O O15 0.922312 0.339881 0.230706
#
# Coordination Sequence:
#
# PCOD8137591 Si02
#       7
#     8   8   8   8   8   8   8
#     4  11  21  33  57  96 124 152 201 249 310 375
#     4  11  23  40  61  85 125 170 205 252 302 358
#     4  11  23  37  61  92 123 162 208 251 302 365
#     4  10  20  37  59  83 118 165 205 244 305 361
#     4  10  22  39  59  94 126 156 205 246 314 370
#     4   9  21  38  61  89 124 157 202 249 307 377
#     4  10  20  36  60  86 125 161 184 255 306 358
#
# _framework density 20.899221000000001
#
# number of rings (size 3 to 8) (size 9 to 14) (size 15 to 20)
#    0.000    1.714    2.857    2.571    2.000    6.857 
#    0.000    0.000    6.286    0.000    0.000    0.000 
#    0.000    0.000    0.000    0.000    0.000    0.000 
#
# Total GULP energy -346887.565864 kJ/mol
# GULP energy per Si atom -12388.841638 kJ/mol
# Density = 2.085165 g / cm^3
# Si number density = 20.899221 Si / 1000 Ang^3
#
#
#
# Elastic Constant Matrix: (Units=GPa)
#
#
# Indices 1 2 3 4 5 6 
#
# 1 53.9265 23.7817 19.5614 0.0000 23.9333 0.0000
# 2 23.7817 128.1832 28.7944 0.0000 19.6047 0.0000
# 3 19.5614 28.7944 67.2790 0.0000 25.5844 0.0000
# 4 0.0000 0.0000 0.0000 32.0115 0.0000 12.5772
# 5 23.9333 19.6047 25.5844 0.0000 40.2993 0.0000
# 6 0.0000 0.0000 0.0000 12.5772 0.0000 34.8913
#
#
#
# Elastic Compliance Matrix: (Units=1/GPa)
#
#
# Indices 1 2 3 4 5 6 
#
# 1 0.026095 -0.002471 -0.001441 0.000000 -0.013380 0.000000
# 2 -0.002471 0.009052 -0.002688 0.000000 -0.001229 0.000000
# 3 -0.001441 -0.002688 0.020578 0.000000 -0.010901 0.000000
# 4 0.000000 0.000000 0.000000 0.036393 0.000000 -0.013118
# 5 -0.013380 -0.001229 -0.010901 0.000000 0.040279 0.000000
# 6 0.000000 0.000000 0.000000 -0.013118 0.000000 0.033389
#
#
# Mechanical properties :
#
#
# Convention : Reuss Voigt Hill
#
# Bulk Modulus (GPa) = 23.51636 43.74041 33.62838
# Shear Modulus (GPa) = 25.88513 33.25716 29.57115
#
# Velocity S-wave (km/s) = 3.52315 3.99345 3.76565
# Velocity P-wave (km/s) = 5.27511 6.49909 5.91883
#
# Compressibility (1/GPa) = 0.04252358
#
# Stress axis : x y z
#
# Youngs Moduli (GPa) = 38.32207 110.47722 48.59515
#
# Poissons Ratio (x) = 0.27300 0.07004
# Poissons Ratio (y) = 0.09470 0.13062
# Poissons Ratio (z) = 0.05523 0.29696
#
# Static dielectric constant tensor:
#      x y z
#    x 3.465710 0.000000 0.316370 
#    y 0.000000 4.210330 0.000000 
#    z 0.316370 0.000000 3.617850 
# 
# 
# High freq. dielectric constant tensor:
#      x y z
#    x 1.793770 0.000000 0.042760 
#    y 0.000000 1.837170 0.000000 
#    z 0.042760 0.000000 1.806230 
# 
# From -- ./inp_files/278637.got.cif
#   From: 2010.06.25/outbox.cif.g09.slc.cpg/sg15_140_cif.got.tgz:278637.got - 2010.06.28 07:06:18.
