data_PCOD8137006
_publ_section_title
;
Structure prediction by ZEFSAII (Michael W. Deem and Ramdas Pophale) SiO2 
 PCOD8137006
Probable space group: C 2/C
;
_chemical_formula_sum "Si O2"
_cell_formula_units_Z 64
_cell_length_a 22.484996
_cell_length_b 20.038020
_cell_length_c 11.542173
_cell_angle_alpha 90.000000
_cell_angle_beta 138.822475
_cell_angle_gamma 90.000000
_cell_volume 3423.901318
_symmetry_space_group_name_H-M "C 2/C"
_symmetry_group_IT_number 15
_symmetry_cell_setting 'monoclinic'
loop_
_space_group_symop_operation_xyz
x,y,z
-x,y,1/2-z
-x,-y,-z
x,-y,1/2+z
1/2+x,1/2+y,z
1/2-x,1/2+y,1/2-z
1/2-x,1/2-y,-z
1/2+x,1/2-y,1/2+z
loop_
_atom_site_type_symbol
_atom_site_label
_atom_site_fract_x
_atom_site_fract_y
_atom_site_fract_z
Si Si1 0.407425 0.459696 0.275442
Si Si2 0.153375 0.304313 0.761329
Si Si3 0.727704 0.423863 0.619010
Si Si4 0.585240 0.393728 0.804778
Si Si5 0.971165 0.724250 0.083539
Si Si6 0.714013 0.805967 0.111234
Si Si7 0.794373 0.064803 0.823423
Si Si8 0.426854 0.365869 0.961968
O O1 0.430275 0.531943 0.262763
O O2 0.376129 0.461572 0.363369
O O3 0.502978 0.424274 0.410790
O O4 0.329466 0.426047 0.083491
O O5 0.183348 0.378715 0.768040
O O6 0.201016 0.245949 0.752168
O O7 0.043097 0.301102 0.591023
O O8 0.176159 0.291340 0.928565
O O9 0.757441 0.497928 0.707500
O O10 0.669147 0.384816 0.626830
O O11 0.500000 0.366770 0.750000
O O12 0.594576 0.348414 0.704312
O O13 0.671756 0.392736 0.015965
O O14 0.000000 0.694579 0.250000
O O15 0.865153 0.705962 0.908614
O O16 0.975016 0.803864 0.092428
O O17 0.737547 0.883889 0.162502
#
# Coordination Sequence:
#
# PCOD8137006 Si02
#       8
#     8   8   8   8   8   8   8   8
#     4  11  19  32  51  78 115 146 178 226 275 329
#     4  10  20  35  58  86 112 141 183 235 283 325
#     4  11  21  33  55  83 112 143 186 227 281 330
#     4  11  22  32  46  79 115 153 183 210 273 343
#     4  10  21  35  58  84 108 140 185 233 284 326
#     4  10  20  37  57  84 114 144 183 235 280 323
#     4  11  21  35  54  79 113 152 185 227 273 330
#     4  12  20  33  51  81 116 148 177 225 277 339
#
# _framework density 18.692126999999999
#
# number of rings (size 3 to 8) (size 9 to 14) (size 15 to 20)
#    0.000    1.250    5.000    3.750    1.750    0.000 
#    0.000    1.250    0.000    0.000    0.000    0.000 
#    0.000    0.000    0.000    0.000    0.000    0.000 
#
# Total GULP energy -396518.270643 kJ/mol
# GULP energy per Si atom -12391.195958 kJ/mol
# Density = 1.864958 g / cm^3
# Si number density = 18.692127 Si / 1000 Ang^3
#
#
#
# Elastic Constant Matrix: (Units=GPa)
#
#
# Indices 1 2 3 4 5 6 
#
# 1 107.0384 42.2856 31.3425 0.0000 25.5105 0.0000
# 2 42.2856 54.1902 18.1111 0.0000 7.5399 0.0000
# 3 31.3425 18.1111 36.8332 0.0000 2.1193 0.0000
# 4 0.0000 0.0000 0.0000 22.0478 0.0000 -4.3202
# 5 25.5105 7.5399 2.1193 0.0000 31.0003 0.0000
# 6 0.0000 0.0000 0.0000 -4.3202 0.0000 18.6352
#
#
#
# Elastic Compliance Matrix: (Units=1/GPa)
#
#
# Indices 1 2 3 4 5 6 
#
# 1 0.019508 -0.009722 -0.011076 0.000000 -0.012932 0.000000
# 2 -0.009722 0.027615 -0.005401 0.000000 0.001653 0.000000
# 3 -0.011076 -0.005401 0.038783 0.000000 0.007777 0.000000
# 4 0.000000 0.000000 0.000000 0.047514 0.000000 0.011015
# 5 -0.012932 0.001653 0.007777 0.000000 0.041966 0.000000
# 6 0.000000 0.000000 0.000000 0.011015 0.000000 0.056215
#
#
# Mechanical properties :
#
#
# Convention : Reuss Voigt Hill
#
# Bulk Modulus (GPa) = 29.84330 42.39337 36.11834
# Shear Modulus (GPa) = 16.93955 21.42485 19.18220
#
# Velocity S-wave (km/s) = 3.01365 3.38923 3.20694
# Velocity P-wave (km/s) = 5.30187 6.16805 5.75129
#
# Compressibility (1/GPa) = 0.03350835
#
# Stress axis : x y z
#
# Youngs Moduli (GPa) = 51.26048 36.21272 25.78482
#
# Poissons Ratio (x) = 0.35205 0.28559
# Poissons Ratio (y) = 0.49833 0.13926
# Poissons Ratio (z) = 0.56776 0.19558
#
# Static dielectric constant tensor:
#      x y z
#    x 3.834400 0.000000 -0.260560 
#    y 0.000000 3.284760 0.000000 
#    z -0.260560 0.000000 3.483420 
# 
# 
# High freq. dielectric constant tensor:
#      x y z
#    x 1.730560 0.000000 -0.005470 
#    y 0.000000 1.711380 0.000000 
#    z -0.005470 0.000000 1.686120 
# 
# From -- ./inp_files/107304.got.cif
#   From: 2010.06.25/outbox.cif.g09.slc.cpg/sg15_54_cif.got.tgz:107304.got - 2010.06.28 07:06:18.
