data_PCOD8137408
_publ_section_title
;
Structure prediction by ZEFSAII (Michael W. Deem and Ramdas Pophale) SiO2 
 PCOD8137408
Probable space group: C 2/C
;
_chemical_formula_sum "Si O2"
_cell_formula_units_Z 32
_cell_length_a 20.142759
_cell_length_b 7.883952
_cell_length_c 13.140804
_cell_angle_alpha 90.000000
_cell_angle_beta 130.462762
_cell_angle_gamma 90.000000
_cell_volume 1587.710419
_symmetry_space_group_name_H-M "C 2/C"
_symmetry_group_IT_number 15
_symmetry_cell_setting 'monoclinic'
loop_
_space_group_symop_operation_xyz
x,y,z
-x,y,1/2-z
-x,-y,-z
x,-y,1/2+z
1/2+x,1/2+y,z
1/2-x,1/2+y,1/2-z
1/2-x,1/2-y,-z
1/2+x,1/2-y,1/2+z
loop_
_atom_site_type_symbol
_atom_site_label
_atom_site_fract_x
_atom_site_fract_y
_atom_site_fract_z
Si Si1 0.775092 0.289652 0.409945
Si Si2 0.006492 0.233776 0.452239
Si Si3 0.351631 0.487405 0.848634
Si Si4 0.965454 0.579413 0.109305
O O1 0.750000 0.250000 0.500000
O O2 0.701121 0.402132 0.284200
O O3 0.786709 0.114888 0.358573
O O4 0.862615 0.399065 0.495447
O O5 0.012085 0.380064 0.373799
O O6 0.913501 0.140615 0.346516
O O7 0.016254 0.315828 0.573947
O O8 0.086460 0.103259 0.518238
O O9 0.000000 0.652329 0.250000
#
# Coordination Sequence:
#
# PCOD8137408 Si02
#       4
#     8   8   8   8
#     4  11  23  37  59  86 116 150 185 233 285 335
#     4   9  20  38  59  80 109 149 187 230 278 329
#     4  10  21  39  58  81 114 148 189 235 280 331
#     4  10  20  36  58  83 111 145 186 229 278 336
#
# _framework density 20.154807999999999
#
# number of rings (size 3 to 8) (size 9 to 14) (size 15 to 20)
#    0.000    2.000    0.000    3.000    0.000    6.000 
#    0.000    6.250    0.000    0.000    0.000    0.000 
#    0.000    0.000    0.000    0.000    0.000    0.000 
#
# Total GULP energy -198446.958878 kJ/mol
# GULP energy per Si atom -12402.934930 kJ/mol
# Density = 2.010893 g / cm^3
# Si number density = 20.154808 Si / 1000 Ang^3
#
#
#
# Elastic Constant Matrix: (Units=GPa)
#
#
# Indices 1 2 3 4 5 6 
#
# 1 88.0143 52.1400 46.3567 0.0000 -4.0451 0.0000
# 2 52.1400 120.6205 38.4829 0.0000 1.7386 0.0000
# 3 46.3567 38.4829 100.0395 0.0000 -3.1049 0.0000
# 4 0.0000 0.0000 0.0000 36.5975 0.0000 11.2924
# 5 -4.0451 1.7386 -3.1049 0.0000 31.0354 0.0000
# 6 0.0000 0.0000 0.0000 11.2924 0.0000 35.0105
#
#
#
# Elastic Compliance Matrix: (Units=1/GPa)
#
#
# Indices 1 2 3 4 5 6 
#
# 1 0.018182 -0.005953 -0.006070 0.000000 0.002096 0.000000
# 2 -0.005953 0.011424 -0.001685 0.000000 -0.001584 0.000000
# 3 -0.006070 -0.001685 0.013477 0.000000 0.000652 0.000000
# 4 0.000000 0.000000 0.000000 0.030344 0.000000 -0.009787
# 5 0.002096 -0.001584 0.000652 0.000000 0.032648 0.000000
# 6 0.000000 0.000000 0.000000 -0.009787 0.000000 0.031720
#
#
# Mechanical properties :
#
#
# Convention : Reuss Voigt Hill
#
# Bulk Modulus (GPa) = 63.83000 64.73704 64.28352
# Shear Modulus (GPa) = 29.33675 31.97499 30.65587
#
# Velocity S-wave (km/s) = 3.81933 3.98737 3.90426
# Velocity P-wave (km/s) = 7.15460 7.30674 7.23107
#
# Compressibility (1/GPa) = 0.01566662
#
# Stress axis : x y z
#
# Youngs Moduli (GPa) = 55.00010 87.53321 74.19838
#
# Poissons Ratio (x) = 0.52108 0.45039
# Poissons Ratio (y) = 0.32741 0.12505
# Poissons Ratio (z) = 0.33386 0.14752
#
# Static dielectric constant tensor:
#      x y z
#    x 3.732250 0.000000 0.100600 
#    y 0.000000 3.878460 0.000000 
#    z 0.100600 0.000000 3.407520 
# 
# 
# High freq. dielectric constant tensor:
#      x y z
#    x 1.787610 0.000000 0.012600 
#    y 0.000000 1.800030 0.000000 
#    z 0.012600 0.000000 1.776920 
# 
# From -- ./inp_files/102370.got.cif
#   From: 2010.06.25/outbox.cif.g09.slc.cpg/sg15_52_cif.got.tgz:102370.got - 2010.06.28 07:06:18.
