data_PCOD8137607
_publ_section_title
;
Structure prediction by ZEFSAII (Michael W. Deem and Ramdas Pophale) SiO2 
 PCOD8137607
Probable space group: C 2/C
;
_chemical_formula_sum "Si O2"
_cell_formula_units_Z 56
_cell_length_a 18.382090
_cell_length_b 24.545377
_cell_length_c 9.198568
_cell_angle_alpha 90.000000
_cell_angle_beta 41.807390
_cell_angle_gamma 90.000000
_cell_volume 2766.742687
_symmetry_space_group_name_H-M "C 2/C"
_symmetry_group_IT_number 15
_symmetry_cell_setting 'monoclinic'
loop_
_space_group_symop_operation_xyz
x,y,z
-x,y,1/2-z
-x,-y,-z
x,-y,1/2+z
1/2+x,1/2+y,z
1/2-x,1/2+y,1/2-z
1/2-x,1/2-y,-z
1/2+x,1/2-y,1/2+z
loop_
_atom_site_type_symbol
_atom_site_label
_atom_site_fract_x
_atom_site_fract_y
_atom_site_fract_z
Si Si1 0.414789 0.072165 0.127268
Si Si2 0.212000 0.377460 0.439177
Si Si3 0.194289 0.737098 0.820023
Si Si4 0.667752 0.954090 0.251748
Si Si5 0.118798 0.720494 0.631471
Si Si6 0.278576 0.112806 0.088331
Si Si7 0.628665 0.652823 0.549777
O O1 0.390352 0.103484 0.312219
O O2 0.383405 0.108567 0.037055
O O3 0.335816 0.019076 0.230320
O O4 0.542322 0.063471 0.930168
O O5 0.176426 0.320871 0.420663
O O6 0.230555 0.424694 0.290911
O O7 0.319583 0.370890 0.378653
O O8 0.113515 0.745733 0.801458
O O9 0.319720 0.740915 0.576874
O O10 0.165991 0.784283 0.978128
O O11 0.730439 0.937595 0.009864
O O12 0.195211 0.667283 0.540704
O O13 0.000000 0.707986 0.750000
O O14 0.169675 0.118329 0.348369
O O15 0.500000 0.646657 0.750000
#
# Coordination Sequence:
#
# PCOD8137607 Si02
#       7
#     8   8   8   8   8   8   8
#     4  10  22  35  59  92 126 153 187 238 302 359
#     4  11  22  38  59  90 121 155 201 244 296 356
#     4  10  22  38  57  89 121 159 205 240 293 358
#     4  11  20  37  60  91 122 157 191 235 300 368
#     4  10  20  36  60  88 121 158 197 244 294 355
#     4  10  20  38  59  82 120 158 197 240 294 359
#     4  10  24  42  59  83 120 160 202 255 296 342
#
# _framework density 20.240407000000001
#
# number of rings (size 3 to 8) (size 9 to 14) (size 15 to 20)
#    0.000    1.714    1.429    3.000    2.000    3.429 
#    2.571    0.714    0.000   13.714    0.000    1.000 
#    0.000    0.000    0.000    0.000    0.000    0.000 
#
# Total GULP energy -347136.920908 kJ/mol
# GULP energy per Si atom -12397.747175 kJ/mol
# Density = 2.019434 g / cm^3
# Si number density = 20.240407 Si / 1000 Ang^3
#
#
#
# Elastic Constant Matrix: (Units=GPa)
#
#
# Indices 1 2 3 4 5 6 
#
# 1 87.2081 22.9177 55.3653 0.0000 1.4977 0.0000
# 2 22.9177 95.1875 44.4554 0.0000 5.1143 0.0000
# 3 55.3653 44.4554 98.1415 0.0000 6.3295 0.0000
# 4 0.0000 0.0000 0.0000 27.9370 0.0000 2.0896
# 5 1.4977 5.1143 6.3295 0.0000 32.6810 0.0000
# 6 0.0000 0.0000 0.0000 2.0896 0.0000 17.0886
#
#
#
# Elastic Compliance Matrix: (Units=1/GPa)
#
#
# Indices 1 2 3 4 5 6 
#
# 1 0.017925 0.000483 -0.010403 0.000000 0.001118 0.000000
# 2 0.000483 0.013365 -0.006268 0.000000 -0.000900 0.000000
# 3 -0.010403 -0.006268 0.019041 0.000000 -0.002230 0.000000
# 4 0.000000 0.000000 0.000000 0.036125 0.000000 -0.004417
# 5 0.001118 -0.000900 -0.002230 0.000000 0.031120 0.000000
# 6 0.000000 0.000000 0.000000 -0.004417 0.000000 0.059059
#
#
# Mechanical properties :
#
#
# Convention : Reuss Voigt Hill
#
# Bulk Modulus (GPa) = 55.69659 58.44598 57.07129
# Shear Modulus (GPa) = 23.25598 26.06124 24.65861
#
# Velocity S-wave (km/s) = 3.39335 3.59219 3.49418
# Velocity P-wave (km/s) = 6.55213 6.79291 6.67360
#
# Compressibility (1/GPa) = 0.01795442
#
# Stress axis : x y z
#
# Youngs Moduli (GPa) = 55.78701 74.82111 52.51714
#
# Poissons Ratio (x) = -0.03612 0.54634
# Poissons Ratio (y) = -0.02693 0.32920
# Poissons Ratio (z) = 0.58036 0.46901
#
# Static dielectric constant tensor:
#      x y z
#    x 3.558220 0.000000 0.282530 
#    y 0.000000 3.829020 0.000000 
#    z 0.282530 0.000000 3.612720 
# 
# 
# High freq. dielectric constant tensor:
#      x y z
#    x 1.782010 0.000000 0.028320 
#    y 0.000000 1.792330 0.000000 
#    z 0.028320 0.000000 1.780050 
# 
# From -- ./inp_files/52302.got.cif
#   From: 2010.06.25/outbox.cif.g09.slc.cpg/sg15_27_cif.got.tgz:52302.got - 2010.06.28 07:06:18.
