data_PCOD8137668
_publ_section_title
;
Structure prediction by ZEFSAII (Michael W. Deem and Ramdas Pophale) SiO2 
 PCOD8137668
Probable space group: C 2/C
;
_chemical_formula_sum "Si O2"
_cell_formula_units_Z 60
_cell_length_a 13.662095
_cell_length_b 23.297349
_cell_length_c 8.661871
_cell_angle_alpha 90.000000
_cell_angle_beta 75.615033
_cell_angle_gamma 90.000000
_cell_volume 2670.555903
_symmetry_space_group_name_H-M "C 2/C"
_symmetry_group_IT_number 15
_symmetry_cell_setting 'monoclinic'
loop_
_space_group_symop_operation_xyz
x,y,z
-x,y,1/2-z
-x,-y,-z
x,-y,1/2+z
1/2+x,1/2+y,z
1/2-x,1/2+y,1/2-z
1/2-x,1/2-y,-z
1/2+x,1/2-y,1/2+z
loop_
_atom_site_type_symbol
_atom_site_label
_atom_site_fract_x
_atom_site_fract_y
_atom_site_fract_z
Si Si1 0.500000 0.494220 0.250000
Si Si2 0.451011 0.856356 0.504394
Si Si3 0.385983 0.432323 0.022947
Si Si4 0.656409 0.944985 0.175292
Si Si5 0.322209 0.774466 0.749770
Si Si6 0.026452 0.824281 0.401949
Si Si7 0.076729 0.453983 0.530165
Si Si8 0.617927 0.235017 0.934252
O O1 0.439503 0.457460 0.151622
O O2 0.415119 0.533786 0.359333
O O3 0.416612 0.898325 0.378377
O O4 0.352623 0.829216 0.630193
O O5 0.514460 0.896455 0.600892
O O6 0.530080 0.808054 0.407301
O O7 0.267211 0.431566 0.076747
O O8 0.423504 0.366922 0.995309
O O9 0.652458 0.936727 0.361031
O O10 0.632376 0.012766 0.148567
O O11 0.399218 0.726576 0.669165
O O12 0.208295 0.748055 0.774965
O O13 0.337324 0.791350 0.923641
O O14 0.000000 0.855959 0.250000
O O15 0.927031 0.798198 0.519190
O O16 0.000000 0.500000 0.500000
#
# Coordination Sequence:
#
# PCOD8137668 Si02
#       8
#     4   8   8   8   8   8   8   8
#     4  10  24  42  64  90 124 162 208 266 328 362
#     4  10  20  36  61  87 127 165 205 268 316 368
#     4  11  22  42  64  91 125 164 211 267 312 389
#     4  11  24  40  65  93 128 168 219 256 325 393
#     4   9  19  36  59  94 122 165 216 259 311 388
#     4   9  18  36  63  86 122 162 205 259 312 366
#     4  10  22  41  62  89 128 168 207 263 318 383
#     4   9  19  36  59  93 126 163 218 259 310 381
#
# _framework density 22.467231999999999
#
# number of rings (size 3 to 8) (size 9 to 14) (size 15 to 20)
#    0.000    2.133    0.667    3.600    1.867    5.333 
#    0.000    4.000   11.733    0.000    0.000    0.000 
#    0.000    0.000    0.000    0.000    0.000    0.000 
#
# Total GULP energy -371694.497277 kJ/mol
# GULP energy per Si atom -12389.816576 kJ/mol
# Density = 2.241610 g / cm^3
# Si number density = 22.467232 Si / 1000 Ang^3
#
#
#
# Elastic Constant Matrix: (Units=GPa)
#
#
# Indices 1 2 3 4 5 6 
#
# 1 83.5013 11.0102 13.8025 0.0000 -32.3943 0.0000
# 2 11.0102 71.4091 14.8258 0.0000 -13.0290 0.0000
# 3 13.8025 14.8258 79.4208 0.0000 -22.3405 0.0000
# 4 0.0000 0.0000 0.0000 26.4576 0.0000 10.2090
# 5 -32.3943 -13.0290 -22.3405 0.0000 26.4531 0.0000
# 6 0.0000 0.0000 0.0000 10.2090 0.0000 55.8519
#
#
#
# Elastic Compliance Matrix: (Units=1/GPa)
#
#
# Indices 1 2 3 4 5 6 
#
# 1 0.024668 0.001558 0.005424 0.000000 0.035556 0.000000
# 2 0.001558 0.015542 -0.000632 0.000000 0.009029 0.000000
# 3 0.005424 -0.000632 0.017768 0.000000 0.021336 0.000000
# 4 0.000000 0.000000 0.000000 0.040664 0.000000 -0.007433
# 5 0.035556 0.009029 0.021336 0.000000 0.103810 0.000000
# 6 0.000000 0.000000 0.000000 -0.007433 0.000000 0.019263
#
#
# Mechanical properties :
#
#
# Convention : Reuss Voigt Hill
#
# Bulk Modulus (GPa) = 14.14886 34.84535 24.49710
# Shear Modulus (GPa) = 21.49828 34.73203 28.11516
#
# Velocity S-wave (km/s) = 3.09669 3.93606 3.54133
# Velocity P-wave (km/s) = 4.37004 6.01663 5.25818
#
# Compressibility (1/GPa) = 0.07067708
#
# Stress axis : x y z
#
# Youngs Moduli (GPa) = 40.53877 64.34070 56.27981
#
# Poissons Ratio (x) = -0.10024 -0.30525
# Poissons Ratio (y) = -0.06316 0.03559
# Poissons Ratio (z) = -0.21987 0.04068
#
# Static dielectric constant tensor:
#      x y z
#    x 2.653040 0.000000 -2.465950 
#    y 0.000000 4.110920 0.000000 
#    z -2.465950 0.000000 0.262060 
# 
# 
# High freq. dielectric constant tensor:
#      x y z
#    x 1.873460 0.000000 -0.018910 
#    y 0.000000 1.891520 0.000000 
#    z -0.018910 0.000000 1.874170 
# 
# From -- ./inp_files/42599.got.cif
#   From: 2010.06.25/outbox.cif.g09.slc.cpg/sg15_22_cif.got.tgz:42599.got - 2010.06.28 07:06:18.
