data_PCOD8137535
_publ_section_title
;
Structure prediction by ZEFSAII (Michael W. Deem and Ramdas Pophale) SiO2 
 PCOD8137535
Probable space group: C 2/C
;
_chemical_formula_sum "Si O2"
_cell_formula_units_Z 36
_cell_length_a 9.682599
_cell_length_b 11.565786
_cell_length_c 23.925908
_cell_angle_alpha 90.000000
_cell_angle_beta 38.491533
_cell_angle_gamma 90.000000
_cell_volume 1667.648043
_symmetry_space_group_name_H-M "C 2/C"
_symmetry_group_IT_number 15
_symmetry_cell_setting 'monoclinic'
loop_
_space_group_symop_operation_xyz
x,y,z
-x,y,1/2-z
-x,-y,-z
x,-y,1/2+z
1/2+x,1/2+y,z
1/2-x,1/2+y,1/2-z
1/2-x,1/2-y,-z
1/2+x,1/2-y,1/2+z
loop_
_atom_site_type_symbol
_atom_site_label
_atom_site_fract_x
_atom_site_fract_y
_atom_site_fract_z
Si Si1 0.401349 0.117169 0.098619
Si Si2 0.121249 0.796574 0.876378
Si Si3 0.500000 0.537490 0.750000
Si Si4 0.180918 0.596984 0.498674
Si Si5 0.987149 0.751225 0.176106
O O1 0.320792 0.154244 0.062968
O O2 0.457235 0.229819 0.119089
O O3 0.214290 0.041602 0.187867
O O4 0.620222 0.037878 0.020626
O O5 0.278533 0.807472 0.880998
O O6 0.278112 0.809598 0.772545
O O7 0.934073 0.895254 0.939962
O O8 0.995190 0.672688 0.910479
O O9 0.493872 0.615860 0.808553
#
# Coordination Sequence:
#
# PCOD8137535 Si02
#       5
#     8   8   4   8   8
#     4  11  21  35  64  86 113 156 201 227 302 345
#     4   9  19  39  58  78 127 148 185 248 294 326
#     4  10  20  42  58  86 126 156 188 258 278 350
#     4  10  20  36  59  89 114 151 189 251 288 341
#     4  10  20  37  62  82 112 162 190 232 288 363
#
# _framework density 21.587288000000001
#
# number of rings (size 3 to 8) (size 9 to 14) (size 15 to 20)
#    0.000    2.222    4.444    1.333    0.000    1.778 
#    0.000    0.000   29.333    0.000    0.000    0.000 
#    0.000    0.000    0.000    0.000    0.000    0.000 
#
# Total GULP energy -223035.313977 kJ/mol
# GULP energy per Si atom -12390.850777 kJ/mol
# Density = 2.153815 g / cm^3
# Si number density = 21.587288 Si / 1000 Ang^3
#
#
#
# Elastic Constant Matrix: (Units=GPa)
#
#
# Indices 1 2 3 4 5 6 
#
# 1 88.5547 15.5933 43.1131 -0.0002 -12.2741 0.0000
# 2 15.5933 40.0192 5.2051 0.0001 -1.9876 0.0000
# 3 43.1131 5.2051 73.0177 0.0008 -23.2326 0.0003
# 4 -0.0002 0.0001 0.0008 25.8473 -0.0002 6.0485
# 5 -12.2741 -1.9876 -23.2326 -0.0002 46.2332 0.0002
# 6 0.0000 0.0000 0.0003 6.0485 0.0002 26.5966
#
#
#
# Elastic Compliance Matrix: (Units=1/GPa)
#
#
# Indices 1 2 3 4 5 6 
#
# 1 0.016925 -0.005350 -0.009827 0.000000 -0.000675 0.000000
# 2 -0.005350 0.026915 0.001377 0.000000 0.000429 0.000000
# 3 -0.009827 0.001377 0.022126 -0.000001 0.008569 0.000000
# 4 0.000000 0.000000 -0.000001 0.040863 0.000000 -0.009293
# 5 -0.000675 0.000429 0.008569 0.000000 0.025775 0.000000
# 6 0.000000 0.000000 0.000000 -0.009293 0.000000 0.039712
#
#
# Mechanical properties :
#
#
# Convention : Reuss Voigt Hill
#
# Bulk Modulus (GPa) = 26.06517 36.60163 31.33340
# Shear Modulus (GPa) = 23.50674 28.91409 26.21042
#
# Velocity S-wave (km/s) = 3.30345 3.66376 3.48826
# Velocity P-wave (km/s) = 5.16245 5.90673 5.54709
#
# Compressibility (1/GPa) = 0.03836538
#
# Stress axis : x y z
#
# Youngs Moduli (GPa) = 59.08350 37.15413 45.19634
#
# Poissons Ratio (x) = 0.19878 0.44413
# Poissons Ratio (y) = 0.31611 -0.06222
# Poissons Ratio (z) = 0.58060 -0.05115
#
# Static dielectric constant tensor:
#      x y z
#    x 3.807380 0.000000 -0.245740 
#    y 0.000000 3.454330 0.000000 
#    z -0.245740 0.000000 4.067590 
# 
# 
# High freq. dielectric constant tensor:
#      x y z
#    x 1.836460 0.000000 -0.023420 
#    y 0.000000 1.807030 0.000000 
#    z -0.023420 0.000000 1.863540 
# 
# From -- ./inp_files/141402.got.cif
#   From: 2010.06.25/outbox.cif.g09.slc.cpg/sg15_71_cif.got.tgz:141402.got - 2010.06.28 07:06:18.
