data_PCOD8137412
_publ_section_title
;
Structure prediction by ZEFSAII (Michael W. Deem and Ramdas Pophale) SiO2 
 PCOD8137412
Probable space group: C 2/C
;
_chemical_formula_sum "Si O2"
_cell_formula_units_Z 64
_cell_length_a 21.064459
_cell_length_b 16.262762
_cell_length_c 12.510669
_cell_angle_alpha 90.000000
_cell_angle_beta 53.564073
_cell_angle_gamma 90.000000
_cell_volume 3447.964817
_symmetry_space_group_name_H-M "C 2/C"
_symmetry_group_IT_number 15
_symmetry_cell_setting 'monoclinic'
loop_
_space_group_symop_operation_xyz
x,y,z
-x,y,1/2-z
-x,-y,-z
x,-y,1/2+z
1/2+x,1/2+y,z
1/2-x,1/2+y,1/2-z
1/2-x,1/2-y,-z
1/2+x,1/2-y,1/2+z
loop_
_atom_site_type_symbol
_atom_site_label
_atom_site_fract_x
_atom_site_fract_y
_atom_site_fract_z
Si Si1 0.169421 0.879767 0.705115
Si Si2 0.144131 0.361790 0.730635
Si Si3 0.169420 0.120233 0.956045
Si Si4 0.644131 0.861790 0.481102
Si Si5 0.213642 0.500000 0.786358
Si Si6 0.500000 0.745844 0.876562
Si Si7 0.500000 0.406940 0.963042
Si Si8 0.750001 0.750000 0.252521
O O1 0.188304 0.877042 0.561697
O O2 0.228735 0.946544 0.696414
O O3 0.077545 0.898305 0.813595
O O4 0.184046 0.790132 0.742192
O O5 0.143479 0.376511 0.606520
O O6 0.149098 0.450229 0.781239
O O7 0.073211 0.302590 0.837239
O O8 0.222928 0.319243 0.692611
O O9 0.184045 0.209868 0.889716
O O10 0.228735 0.053456 0.846116
O O11 0.077545 0.101695 0.031316
O O12 0.573212 0.802588 0.516337
O O13 0.722929 0.819244 0.361531
O O14 0.649097 0.950228 0.420565
O O15 0.500000 0.725104 0.750000
O O16 0.500001 0.659000 0.939128
O O17 0.500000 0.500000 0.000000
#
# Coordination Sequence:
#
# PCOD8137412 Si02
#       8
#     8   8   8   8   8   8   8   8
#     4  11  22  38  58  82 116 154 190 237 292 342
#     4  10  20  37  61  86 117 155 195 240 289 338
#     4  11  22  38  58  82 116 154 190 237 292 342
#     4  10  20  37  61  86 117 155 195 240 289 338
#     4  10  22  38  58  90 118 148 196 244 286 348
#     4  10  22  40  63  87 114 152 196 243 290 341
#     4  12  23  41  55  88 120 153 194 234 292 350
#     4  10  20  36  58  84 114 148 198 242 278 344
#
# _framework density 18.561674
#
# number of rings (size 3 to 8) (size 9 to 14) (size 15 to 20)
#    0.000    1.500    3.750    1.875    0.000    1.500 
#    0.000    0.000    0.000    0.000    0.000    0.000 
#    0.000    0.000    0.000    0.000    0.000    0.000 
#
# Total GULP energy -396525.789055 kJ/mol
# GULP energy per Si atom -12391.430908 kJ/mol
# Density = 1.851943 g / cm^3
# Si number density = 18.561674 Si / 1000 Ang^3
#
#
#
# Elastic Constant Matrix: (Units=GPa)
#
#
# Indices 1 2 3 4 5 6 
#
# 1 80.3054 42.1883 21.7744 0.0000 0.4575 0.0000
# 2 42.1883 119.2549 44.7545 0.0000 4.6877 0.0000
# 3 21.7744 44.7545 78.9233 0.0000 -2.9851 0.0000
# 4 0.0000 0.0000 0.0000 31.0621 0.0000 -6.7250
# 5 0.4575 4.6877 -2.9851 0.0000 23.1007 0.0000
# 6 0.0000 0.0000 0.0000 -6.7250 0.0000 34.7432
#
#
#
# Elastic Compliance Matrix: (Units=1/GPa)
#
#
# Indices 1 2 3 4 5 6 
#
# 1 0.015435 -0.004941 -0.001437 0.000000 0.000511 0.000000
# 2 -0.004941 0.012439 -0.005811 0.000000 -0.003177 0.000000
# 3 -0.001437 -0.005811 0.016488 0.000000 0.003338 0.000000
# 4 0.000000 0.000000 0.000000 0.033602 0.000000 0.006504
# 5 0.000511 -0.003177 0.003338 0.000000 0.044355 0.000000
# 6 0.000000 0.000000 0.000000 0.006504 0.000000 0.030042
#
#
# Mechanical properties :
#
#
# Convention : Reuss Voigt Hill
#
# Bulk Modulus (GPa) = 50.03889 55.10201 52.57045
# Shear Modulus (GPa) = 27.26289 29.09896 28.18092
#
# Velocity S-wave (km/s) = 3.83662 3.96370 3.90068
# Velocity P-wave (km/s) = 6.82956 7.12027 6.97643
#
# Compressibility (1/GPa) = 0.01998446
#
# Stress axis : x y z
#
# Youngs Moduli (GPa) = 64.78760 80.39276 60.64920
#
# Poissons Ratio (x) = 0.39723 0.08716
# Poissons Ratio (y) = 0.32013 0.35241
# Poissons Ratio (z) = 0.09311 0.46713
#
# Static dielectric constant tensor:
#      x y z
#    x 3.377260 0.000000 -0.016990 
#    y 0.000000 3.787550 0.000000 
#    z -0.016990 0.000000 3.367960 
# 
# 
# High freq. dielectric constant tensor:
#      x y z
#    x 1.721800 0.000000 0.001400 
#    y 0.000000 1.733120 0.000000 
#    z 0.001400 0.000000 1.722560 
# 
# From -- ./inp_files/113662.got.cif
#   From: 2010.06.25/outbox.cif.g09.slc.cpg/sg15_57_cif.got.tgz:113662.got - 2010.06.28 07:06:18.
