data_PCOD8137821
_publ_section_title
;
Structure prediction by ZEFSAII (Michael W. Deem and Ramdas Pophale) SiO2 
 PCOD8137821
Probable space group: C 2/C
;
_chemical_formula_sum "Si O2"
_cell_formula_units_Z 48
_cell_length_a 13.990420
_cell_length_b 9.202676
_cell_length_c 17.804377
_cell_angle_alpha 90.000000
_cell_angle_beta 86.321653
_cell_angle_gamma 90.000000
_cell_volume 2287.578828
_symmetry_space_group_name_H-M "C 2/C"
_symmetry_group_IT_number 15
_symmetry_cell_setting 'monoclinic'
loop_
_space_group_symop_operation_xyz
x,y,z
-x,y,1/2-z
-x,-y,-z
x,-y,1/2+z
1/2+x,1/2+y,z
1/2-x,1/2+y,1/2-z
1/2-x,1/2-y,-z
1/2+x,1/2-y,1/2+z
loop_
_atom_site_type_symbol
_atom_site_label
_atom_site_fract_x
_atom_site_fract_y
_atom_site_fract_z
Si Si1 0.411132 0.652964 0.572425
Si Si2 0.103039 0.698106 0.715470
Si Si3 0.895891 0.468099 0.537898
Si Si4 0.218947 0.507760 0.603864
Si Si5 0.661279 0.246646 0.873435
Si Si6 0.465496 0.596299 0.405307
O O1 0.316655 0.592049 0.616532
O O2 0.404706 0.620784 0.483481
O O3 0.505885 0.575179 0.603943
O O4 0.411005 0.824497 0.587307
O O5 0.144939 0.557171 0.671763
O O6 0.167394 0.744303 0.782783
O O7 0.093960 0.840545 0.662018
O O8 0.000000 0.647536 0.750000
O O9 0.823734 0.443783 0.473154
O O10 0.844253 0.585033 0.593500
O O11 0.000000 0.500000 0.500000
O O12 0.243484 0.334580 0.604604
O O13 0.566144 0.321679 0.910011
#
# Coordination Sequence:
#
# PCOD8137821 Si02
#       6
#     8   8   8   8   8   8
#     4  10  20  36  63  93 117 154 210 257 309 365
#     4  10  20  40  61  82 120 174 207 257 321 370
#     4  12  21  38  60  93 122 160 201 260 309 368
#     4  11  23  39  60  91 124 163 213 258 304 372
#     4  10  22  38  61  90 126 164 205 253 314 371
#     4   9  18  38  63  88 118 160 204 253 309 373
#
# _framework density 20.982883999999999
#
# number of rings (size 3 to 8) (size 9 to 14) (size 15 to 20)
#    0.000    1.667    3.333    2.000    0.000    1.333 
#    0.000    0.000    0.000   21.000    0.000    0.000 
#    0.000    0.000    0.000    0.000    0.000    0.000 
#
# Total GULP energy -297503.611820 kJ/mol
# GULP energy per Si atom -12395.983826 kJ/mol
# Density = 2.093513 g / cm^3
# Si number density = 20.982884 Si / 1000 Ang^3
#
#
#
# Elastic Constant Matrix: (Units=GPa)
#
#
# Indices 1 2 3 4 5 6 
#
# 1 55.8194 38.8252 24.3292 0.0000 -6.1097 0.0000
# 2 38.8252 165.5295 36.8059 0.0000 -9.5641 0.0000
# 3 24.3292 36.8059 87.0952 0.0000 -12.9797 0.0000
# 4 0.0000 0.0000 0.0000 30.9198 0.0000 -3.4626
# 5 -6.1097 -9.5641 -12.9797 0.0000 24.9327 0.0000
# 6 0.0000 0.0000 0.0000 -3.4626 0.0000 35.2803
#
#
#
# Elastic Compliance Matrix: (Units=1/GPa)
#
#
# Indices 1 2 3 4 5 6 
#
# 1 0.023008 -0.004332 -0.004340 0.000000 0.001717 0.000000
# 2 -0.004332 0.007516 -0.001837 0.000000 0.000865 0.000000
# 3 -0.004340 -0.001837 0.014318 0.000000 0.005685 0.000000
# 4 0.000000 0.000000 0.000000 0.032701 0.000000 0.003209
# 5 0.001717 0.000865 0.005685 0.000000 0.043820 0.000000
# 6 0.000000 0.000000 0.000000 0.003209 0.000000 0.028659
#
#
# Mechanical properties :
#
#
# Convention : Reuss Voigt Hill
#
# Bulk Modulus (GPa) = 41.97797 56.48497 49.23147
# Shear Modulus (GPa) = 27.93573 32.12548 30.03060
#
# Velocity S-wave (km/s) = 3.65274 3.91709 3.78722
# Velocity P-wave (km/s) = 6.15136 6.88738 6.52975
#
# Compressibility (1/GPa) = 0.02382202
#
# Stress axis : x y z
#
# Youngs Moduli (GPa) = 43.46337 133.05282 69.84336
#
# Poissons Ratio (x) = 0.57642 0.30315
# Poissons Ratio (y) = 0.18829 0.12831
# Poissons Ratio (z) = 0.18865 0.24442
#
# Static dielectric constant tensor:
#      x y z
#    x 3.784870 0.000000 -0.030730 
#    y 0.000000 4.154260 0.000000 
#    z -0.030730 0.000000 3.722090 
# 
# 
# High freq. dielectric constant tensor:
#      x y z
#    x 1.813450 0.000000 -0.011870 
#    y 0.000000 1.821400 0.000000 
#    z -0.011870 0.000000 1.807360 
# 
# From -- ./inp_files/203013.got.cif
#   From: 2010.06.25/outbox.cif.g09.slc.cpg/sg15_102_cif.got.tgz:203013.got - 2010.06.28 07:06:18.
