data_PCOD8137722
_publ_section_title
;
Structure prediction by ZEFSAII (Michael W. Deem and Ramdas Pophale) SiO2 
 PCOD8137722
Probable space group: C 2/C
;
_chemical_formula_sum "Si O2"
_cell_formula_units_Z 60
_cell_length_a 11.068481
_cell_length_b 23.124000
_cell_length_c 17.957758
_cell_angle_alpha 90.000000
_cell_angle_beta 41.634210
_cell_angle_gamma 90.000000
_cell_volume 3053.618683
_symmetry_space_group_name_H-M "C 2/C"
_symmetry_group_IT_number 15
_symmetry_cell_setting 'monoclinic'
loop_
_space_group_symop_operation_xyz
x,y,z
-x,y,1/2-z
-x,-y,-z
x,-y,1/2+z
1/2+x,1/2+y,z
1/2-x,1/2+y,1/2-z
1/2-x,1/2-y,-z
1/2+x,1/2-y,1/2+z
loop_
_atom_site_type_symbol
_atom_site_label
_atom_site_fract_x
_atom_site_fract_y
_atom_site_fract_z
Si Si1 0.091052 0.589238 0.951666
Si Si2 0.101434 0.818029 0.023816
Si Si3 0.479057 0.808098 0.925368
Si Si4 0.834909 0.489829 0.473419
Si Si5 0.500000 0.946825 0.250000
Si Si6 0.316567 0.129176 0.295332
Si Si7 0.801469 0.093049 0.712673
Si Si8 0.448712 0.476350 0.605210
O O1 0.246114 0.609393 0.822285
O O2 0.947523 0.550176 0.975664
O O3 0.988048 0.647938 0.021960
O O4 0.165310 0.555151 0.991677
O O5 0.264281 0.813736 0.007391
O O6 0.188192 0.831485 0.904731
O O7 0.984735 0.758818 0.071524
O O8 0.969321 0.868908 0.109601
O O9 0.620730 0.826925 0.797297
O O10 0.634375 0.461879 0.562867
O O11 0.913094 0.489380 0.352800
O O12 0.357252 0.903136 0.276649
O O13 0.500000 0.105305 0.250000
O O14 0.193153 0.076034 0.325549
O O15 0.851994 0.026091 0.696052
O O16 0.500000 0.500000 0.500000
#
# Coordination Sequence:
#
# PCOD8137722 Si02
#       8
#     8   8   8   8   4   8   8   8
#     4  10  24  39  58  89 127 158 191 249 314 358
#     4  10  21  41  61  88 114 155 213 244 299 358
#     4  10  23  38  62  85 119 159 194 259 303 351
#     4  10  22  38  58  89 124 159 198 240 303 367
#     4  10  20  36  62  82 116 162 198 242 292 356
#     4  10  23  37  60  89 118 154 204 254 298 354
#     4  11  23  38  61  89 120 159 194 250 298 368
#     4  12  22  35  61  92 119 159 202 250 290 363
#
# _framework density 19.648819
#
# number of rings (size 3 to 8) (size 9 to 14) (size 15 to 20)
#    0.000    1.600    2.667    0.800   10.267    2.133 
#    0.000    0.000    2.933    2.400    0.000    0.000 
#    0.000    0.000    0.000    0.000    0.000    0.000 
#
# Total GULP energy -371854.564707 kJ/mol
# GULP energy per Si atom -12395.152157 kJ/mol
# Density = 1.960410 g / cm^3
# Si number density = 19.648819 Si / 1000 Ang^3
#
#
#
# Elastic Constant Matrix: (Units=GPa)
#
#
# Indices 1 2 3 4 5 6 
#
# 1 62.0264 28.9271 42.7088 0.0002 -4.9543 0.0000
# 2 28.9271 115.1950 50.9246 0.0000 -1.6399 -0.0001
# 3 42.7088 50.9246 119.7056 0.0013 4.6080 -0.0009
# 4 0.0002 0.0000 0.0013 29.3888 -0.0003 -3.6452
# 5 -4.9543 -1.6399 4.6080 -0.0003 36.6295 0.0002
# 6 0.0000 -0.0001 -0.0009 -3.6452 0.0002 20.3313
#
#
#
# Elastic Compliance Matrix: (Units=1/GPa)
#
#
# Indices 1 2 3 4 5 6 
#
# 1 0.022473 -0.002438 -0.007128 0.000000 0.003827 0.000000
# 2 -0.002438 0.010997 -0.003833 0.000000 0.000645 0.000000
# 3 -0.007128 -0.003833 0.012633 0.000000 -0.002725 0.000000
# 4 0.000000 0.000000 0.000000 0.034800 0.000000 0.006239
# 5 0.003827 0.000645 -0.002725 0.000000 0.028190 0.000000
# 6 0.000000 0.000000 0.000000 0.006239 0.000000 0.050304
#
#
# Mechanical properties :
#
#
# Convention : Reuss Voigt Hill
#
# Bulk Modulus (GPa) = 51.80257 60.22758 56.01508
# Shear Modulus (GPa) = 25.95653 28.89434 27.42543
#
# Velocity S-wave (km/s) = 3.63853 3.83892 3.74007
# Velocity P-wave (km/s) = 6.63877 7.09706 6.87174
#
# Compressibility (1/GPa) = 0.01930406
#
# Stress axis : x y z
#
# Youngs Moduli (GPa) = 44.49804 90.93511 79.15936
#
# Poissons Ratio (x) = 0.22166 0.56427
# Poissons Ratio (y) = 0.10847 0.30345
# Poissons Ratio (z) = 0.31719 0.34859
#
# Static dielectric constant tensor:
#      x y z
#    x 3.717460 0.000000 0.038230 
#    y 0.000000 3.628550 0.000000 
#    z 0.038230 0.000000 4.013550 
# 
# 
# High freq. dielectric constant tensor:
#      x y z
#    x 1.749560 0.000000 -0.001720 
#    y 0.000000 1.754100 0.000000 
#    z -0.001720 0.000000 1.784670 
# 
# From -- ./inp_files/200493.got.cif
#   From: 2010.06.25/outbox.cif.g09.slc.cpg/sg15_101_cif.got.tgz:200493.got - 2010.06.28 07:06:18.
