data_PCOD8137777
_publ_section_title
;
Structure prediction by ZEFSAII (Michael W. Deem and Ramdas Pophale) SiO2 
 PCOD8137777
Probable space group: C 2/C
;
_chemical_formula_sum "Si O2"
_cell_formula_units_Z 60
_cell_length_a 8.332770
_cell_length_b 13.815923
_cell_length_c 24.684238
_cell_angle_alpha 90.000000
_cell_angle_beta 104.248737
_cell_angle_gamma 90.000000
_cell_volume 2754.347367
_symmetry_space_group_name_H-M "C 2/C"
_symmetry_group_IT_number 15
_symmetry_cell_setting 'monoclinic'
loop_
_space_group_symop_operation_xyz
x,y,z
-x,y,1/2-z
-x,-y,-z
x,-y,1/2+z
1/2+x,1/2+y,z
1/2-x,1/2+y,1/2-z
1/2-x,1/2-y,-z
1/2+x,1/2-y,1/2+z
loop_
_atom_site_type_symbol
_atom_site_label
_atom_site_fract_x
_atom_site_fract_y
_atom_site_fract_z
Si Si1 0.500000 0.651912 0.750000
Si Si2 0.032801 0.356275 0.148402
Si Si3 0.300585 0.856372 0.844740
Si Si4 0.718471 0.703486 0.222052
Si Si5 0.164444 0.227658 0.436871
Si Si6 0.629580 0.549827 0.853586
Si Si7 0.465016 0.535039 0.437192
Si Si8 0.358640 0.049320 0.153642
O O1 0.649594 0.716061 0.782134
O O2 0.478837 0.584757 0.801647
O O3 0.050872 0.256873 0.186357
O O4 0.205155 0.387133 0.135808
O O5 0.924405 0.326938 0.087620
O O6 0.941427 0.443836 0.174054
O O7 0.223942 0.800943 0.787070
O O8 0.296297 0.795976 0.900154
O O9 0.493017 0.880689 0.851951
O O10 0.175371 0.944209 0.837432
O O11 0.763857 0.599922 0.197143
O O12 0.250000 0.250000 0.500000
O O13 0.033679 0.141967 0.433628
O O14 0.557284 0.545010 0.907886
O O15 0.500000 0.500000 0.500000
O O16 0.269916 0.537482 0.406494
#
# Coordination Sequence:
#
# PCOD8137777 Si02
#       8
#     4   8   8   8   8   8   8   8
#     4  10  20  36  62  92 128 164 216 274 328 420
#     4  10  23  44  65 101 130 177 223 282 338 422
#     4  10  23  42  65  94 135 181 213 286 354 403
#     4  11  21  42  65  98 140 167 228 276 347 424
#     4  11  24  45  65  97 135 173 235 289 339 418
#     4   9  23  41  64  91 131 171 220 273 344 399
#     4  11  24  44  68  96 133 182 231 289 346 413
#     4  11  22  44  67  97 138 178 227 273 355 420
#
# _framework density 21.783743999999999
#
# number of rings (size 3 to 8) (size 9 to 14) (size 15 to 20)
#    0.000    1.600    2.667    0.800    1.867    3.733 
#   12.000    5.333    0.000    0.000    0.000    0.000 
#    0.000    0.000    0.000    0.000    0.000    0.000 
#
# Total GULP energy -371692.403737 kJ/mol
# GULP energy per Si atom -12389.746791 kJ/mol
# Density = 2.173416 g / cm^3
# Si number density = 21.783744 Si / 1000 Ang^3
#
#
#
# Elastic Constant Matrix: (Units=GPa)
#
#
# Indices 1 2 3 4 5 6 
#
# 1 63.5130 45.1271 59.5192 0.0000 -0.5784 0.0000
# 2 45.1271 112.4618 62.5453 0.0000 -3.5671 0.0000
# 3 59.5192 62.5453 167.4584 0.0000 0.8353 0.0000
# 4 0.0000 0.0000 0.0000 41.2196 0.0000 5.5619
# 5 -0.5784 -3.5671 0.8353 0.0000 33.3004 0.0000
# 6 0.0000 0.0000 0.0000 5.5619 0.0000 11.5688
#
#
#
# Elastic Compliance Matrix: (Units=1/GPa)
#
#
# Indices 1 2 3 4 5 6 
#
# 1 0.027417 -0.007050 -0.007111 0.000000 -0.000101 0.000000
# 2 -0.007050 0.013093 -0.002391 0.000000 0.001340 0.000000
# 3 -0.007111 -0.002391 0.009395 0.000000 -0.000615 0.000000
# 4 0.000000 0.000000 0.000000 0.025943 0.000000 -0.012473
# 5 -0.000101 0.001340 -0.000615 0.000000 0.030187 0.000000
# 6 0.000000 0.000000 0.000000 -0.012473 0.000000 0.092436
#
#
# Mechanical properties :
#
#
# Convention : Reuss Voigt Hill
#
# Bulk Modulus (GPa) = 59.52035 75.31294 67.41664
# Shear Modulus (GPa) = 21.08140 28.96720 25.02430
#
# Velocity S-wave (km/s) = 3.11426 3.65055 3.39301
# Velocity P-wave (km/s) = 6.34934 7.23994 6.80921
#
# Compressibility (1/GPa) = 0.01680098
#
# Stress axis : x y z
#
# Youngs Moduli (GPa) = 36.47386 76.37571 106.43617
#
# Poissons Ratio (x) = 0.53844 0.75688
# Poissons Ratio (y) = 0.25714 0.25451
# Poissons Ratio (z) = 0.25937 0.18263
#
# Static dielectric constant tensor:
#      x y z
#    x 9.756650 0.000000 4.961320 
#    y 0.000000 4.834890 0.000000 
#    z 4.961320 0.000000 8.422970 
# 
# 
# High freq. dielectric constant tensor:
#      x y z
#    x 1.856040 0.000000 0.011430 
#    y 0.000000 1.868970 0.000000 
#    z 0.011430 0.000000 1.850840 
# 
# From -- ./inp_files/264751.got.cif
#   From: 2010.06.25/outbox.cif.g09.slc.cpg/sg15_133_cif.got.tgz:264751.got - 2010.06.28 07:06:18.
