data_PCOD8137671
_publ_section_title
;
Structure prediction by ZEFSAII (Michael W. Deem and Ramdas Pophale) SiO2 
 PCOD8137671
Probable space group: C 2/C
;
_chemical_formula_sum "Si O2"
_cell_formula_units_Z 64
_cell_length_a 30.092861
_cell_length_b 8.114644
_cell_length_c 24.314347
_cell_angle_alpha 90.000000
_cell_angle_beta 147.522225
_cell_angle_gamma 90.000000
_cell_volume 3188.214543
_symmetry_space_group_name_H-M "C 2/C"
_symmetry_group_IT_number 15
_symmetry_cell_setting 'monoclinic'
loop_
_space_group_symop_operation_xyz
x,y,z
-x,y,1/2-z
-x,-y,-z
x,-y,1/2+z
1/2+x,1/2+y,z
1/2-x,1/2+y,1/2-z
1/2-x,1/2-y,-z
1/2+x,1/2-y,1/2+z
loop_
_atom_site_type_symbol
_atom_site_label
_atom_site_fract_x
_atom_site_fract_y
_atom_site_fract_z
Si Si1 0.039050 0.317066 0.850123
Si Si2 0.406202 0.021939 0.777486
Si Si3 0.245976 0.688763 0.933393
Si Si4 0.357026 0.925500 0.841109
Si Si5 0.881529 0.022279 0.509678
Si Si6 0.182758 0.489841 0.546667
Si Si7 0.206426 0.272825 0.160313
Si Si8 0.951494 0.713382 0.528777
O O1 0.057834 0.133321 0.890350
O O2 0.000000 0.307506 0.750000
O O3 0.969450 0.398521 0.815169
O O4 0.126280 0.418588 0.941169
O O5 0.341271 0.098037 0.666606
O O6 0.455944 0.171197 0.857224
O O7 0.359719 0.927932 0.777863
O O8 0.251125 0.861595 0.907051
O O9 0.250000 0.750000 0.000000
O O10 0.318381 0.567427 0.986597
O O11 0.278815 0.806828 0.772564
O O12 0.346687 0.111484 0.853908
O O13 0.437668 0.828075 0.949378
O O14 0.843174 0.124011 0.419434
O O15 0.938140 0.896758 0.535235
O O16 0.236120 0.617102 0.639038
O O17 0.117427 0.404621 0.517868
#
# Coordination Sequence:
#
# PCOD8137671 Si02
#       8
#     8   8   8   8   8   8   8   8
#     4  10  21  41  63  85 125 171 204 254 323 371
#     4  11  23  40  60  94 124 154 213 269 299 369
#     4  11  22  40  64  90 121 158 214 268 304 355
#     4  11  21  37  63  90 124 163 203 251 320 373
#     4  10  21  42  59  89 122 167 208 247 313 394
#     4   8  19  38  60  84 119 163 199 244 317 373
#     4  10  20  36  61  88 120 163 199 248 315 384
#     4   9  20  38  60  83 123 161 196 248 315 378
#
# _framework density 20.073931999999999
#
# number of rings (size 3 to 8) (size 9 to 14) (size 15 to 20)
#    0.000    2.000    1.250    2.625    3.500    1.000 
#    4.500    4.375    0.000    0.000    0.000    0.000 
#    0.000    0.000    0.000    0.000    0.000    0.000 
#
# Total GULP energy -396484.836032 kJ/mol
# GULP energy per Si atom -12390.151126 kJ/mol
# Density = 2.002824 g / cm^3
# Si number density = 20.073932 Si / 1000 Ang^3
#
#
#
# Elastic Constant Matrix: (Units=GPa)
#
#
# Indices 1 2 3 4 5 6 
#
# 1 69.6084 33.4968 40.9998 0.0000 -8.3725 0.0000
# 2 33.4968 119.9575 46.3439 0.0000 -1.7893 -0.0001
# 3 40.9998 46.3439 90.7237 0.0000 -17.6137 0.0000
# 4 0.0000 0.0000 0.0000 34.4906 0.0000 -6.9827
# 5 -8.3725 -1.7893 -17.6137 0.0000 29.6876 0.0000
# 6 0.0000 -0.0001 0.0000 -6.9827 0.0000 27.6716
#
#
#
# Elastic Compliance Matrix: (Units=1/GPa)
#
#
# Indices 1 2 3 4 5 6 
#
# 1 0.020254 -0.002720 -0.007557 0.000000 0.001065 0.000000
# 2 -0.002720 0.010969 -0.004967 0.000000 -0.003053 0.000000
# 3 -0.007557 -0.004967 0.018651 0.000000 0.008635 0.000000
# 4 0.000000 0.000000 0.000000 0.030554 0.000000 0.007710
# 5 0.001065 -0.003053 0.008635 0.000000 0.038924 0.000000
# 6 0.000000 0.000000 0.000000 0.007710 0.000000 0.038084
#
#
# Mechanical properties :
#
#
# Convention : Reuss Voigt Hill
#
# Bulk Modulus (GPa) = 51.58170 57.99673 54.78922
# Shear Modulus (GPa) = 25.72194 28.99990 27.36092
#
# Velocity S-wave (km/s) = 3.58349 3.80498 3.69590
# Velocity P-wave (km/s) = 6.54779 6.94681 6.75025
#
# Compressibility (1/GPa) = 0.01938672
#
# Stress axis : x y z
#
# Youngs Moduli (GPa) = 49.37212 91.16458 53.61589
#
# Poissons Ratio (x) = 0.24800 0.40517
# Poissons Ratio (y) = 0.13431 0.26629
# Poissons Ratio (z) = 0.37310 0.45278
#
# Static dielectric constant tensor:
#      x y z
#    x 3.523020 0.000000 -0.180380 
#    y 0.000000 3.985460 0.000000 
#    z -0.180380 0.000000 3.747920 
# 
# 
# High freq. dielectric constant tensor:
#      x y z
#    x 1.765470 0.000000 -0.015170 
#    y 0.000000 1.793440 0.000000 
#    z -0.015170 0.000000 1.787940 
# 
# From -- ./inp_files/284435.got.cif
#   From: 2010.06.25/outbox.cif.g09.slc.cpg/sg15_143_cif.got.tgz:284435.got - 2010.06.28 07:06:18.
