data_PCOD8137518
_publ_section_title
;
Structure prediction by ZEFSAII (Michael W. Deem and Ramdas Pophale) SiO2 
 PCOD8137518
Probable space group: C 2/C
;
_chemical_formula_sum "Si O2"
_cell_formula_units_Z 32
_cell_length_a 9.213410
_cell_length_b 10.547444
_cell_length_c 33.813216
_cell_angle_alpha 90.000000
_cell_angle_beta 30.802439
_cell_angle_gamma 90.000000
_cell_volume 1682.640876
_symmetry_space_group_name_H-M "C 2/C"
_symmetry_group_IT_number 15
_symmetry_cell_setting 'monoclinic'
loop_
_space_group_symop_operation_xyz
x,y,z
-x,y,1/2-z
-x,-y,-z
x,-y,1/2+z
1/2+x,1/2+y,z
1/2-x,1/2+y,1/2-z
1/2-x,1/2-y,-z
1/2+x,1/2-y,1/2+z
loop_
_atom_site_type_symbol
_atom_site_label
_atom_site_fract_x
_atom_site_fract_y
_atom_site_fract_z
Si Si1 0.582901 0.663688 0.952009
Si Si2 0.291534 0.736186 0.662181
Si Si3 0.548060 0.016465 0.086400
Si Si4 0.634645 0.882240 0.446293
O O1 0.728516 0.728296 0.880560
O O2 0.792076 0.553364 0.915910
O O3 0.278835 0.605389 0.009192
O O4 0.542746 0.759157 0.998427
O O5 0.337002 0.886965 0.658554
O O6 0.533894 0.643798 0.623027
O O7 0.000000 0.691577 0.750000
O O8 0.398384 0.914479 0.092613
O O9 0.500000 0.000000 0.500000
#
# Coordination Sequence:
#
# PCOD8137518 Si02
#       4
#     8   8   8   8
#     4  10  20  36  59  87 108 144 194 232 279 339
#     4  11  23  37  54  83 120 152 184 235 292 335
#     4  10  20  37  61  83 110 145 192 238 278 333
#     4  11  18  37  65  82 109 152 193 235 276 333
#
# _framework density 19.017723
#
# number of rings (size 3 to 8) (size 9 to 14) (size 15 to 20)
#    0.000    1.500    5.000    2.250    0.000    2.000 
#    0.000    0.000    0.000    0.000    0.000    0.000 
#    0.000    0.000    0.000    0.000    0.000    0.000 
#
# Total GULP energy -198341.300791 kJ/mol
# GULP energy per Si atom -12396.331299 kJ/mol
# Density = 1.897444 g / cm^3
# Si number density = 19.017723 Si / 1000 Ang^3
#
#
#
# Elastic Constant Matrix: (Units=GPa)
#
#
# Indices 1 2 3 4 5 6 
#
# 1 74.0002 35.5247 43.8559 0.0034 -7.2495 0.0011
# 2 35.5247 100.7528 37.4830 0.0020 -12.7700 0.0020
# 3 43.8559 37.4830 99.7836 -0.0187 -19.7987 0.0277
# 4 0.0034 0.0020 -0.0187 21.0381 0.0152 -0.9685
# 5 -7.2495 -12.7700 -19.7987 0.0152 14.6331 -0.0015
# 6 0.0011 0.0020 0.0277 -0.9685 -0.0015 39.5550
#
#
#
# Elastic Compliance Matrix: (Units=1/GPa)
#
#
# Indices 1 2 3 4 5 6 
#
# 1 0.020050 -0.004719 -0.008046 -0.000006 -0.005071 0.000005
# 2 -0.004719 0.013013 -0.001401 -0.000007 0.007123 0.000001
# 3 -0.008046 -0.001401 0.017840 0.000003 0.018929 -0.000011
# 4 -0.000006 -0.000007 0.000003 0.047586 -0.000054 0.001165
# 5 -0.005071 0.007123 0.018929 -0.000054 0.097654 -0.000011
# 6 0.000005 0.000001 -0.000011 0.001165 -0.000011 0.025310
#
#
# Mechanical properties :
#
#
# Convention : Reuss Voigt Hill
#
# Bulk Modulus (GPa) = 44.30274 56.47376 50.38825
# Shear Modulus (GPa) = 19.43186 25.55676 22.49431
#
# Velocity S-wave (km/s) = 3.19999 3.66982 3.44293
# Velocity P-wave (km/s) = 6.08271 6.90772 6.50830
#
# Compressibility (1/GPa) = 0.02257197
#
# Stress axis : x y z
#
# Youngs Moduli (GPa) = 49.87408 76.84523 56.05362
#
# Poissons Ratio (x) = 0.36264 0.45100
# Poissons Ratio (y) = 0.23536 0.07853
# Poissons Ratio (z) = 0.40128 0.10765
#
# Static dielectric constant tensor:
#      x y z
#    x 3.567830 0.000110 -0.070970 
#    y 0.000110 3.741250 0.000010 
#    z -0.070970 0.000010 3.196310 
# 
# 
# High freq. dielectric constant tensor:
#      x y z
#    x 1.739220 0.000000 -0.003160 
#    y 0.000000 1.752220 0.000000 
#    z -0.003160 0.000000 1.705720 
# 
# From -- ./inp_files/131720.got.cif
#   From: 2010.06.25/outbox.cif.g09.slc.cpg/sg15_66_cif.got.tgz:131720.got - 2010.06.28 07:06:18.
