data_PCOD8137981
_publ_section_title
;
Structure prediction by ZEFSAII (Michael W. Deem and Ramdas Pophale) SiO2 
 PCOD8137981
Probable space group: C 2/C
;
_chemical_formula_sum "Si O2"
_cell_formula_units_Z 56
_cell_length_a 12.985117
_cell_length_b 15.653779
_cell_length_c 15.449955
_cell_angle_alpha 90.000000
_cell_angle_beta 55.870896
_cell_angle_gamma 90.000000
_cell_volume 2599.589796
_symmetry_space_group_name_H-M "C 2/C"
_symmetry_group_IT_number 15
_symmetry_cell_setting 'monoclinic'
loop_
_space_group_symop_operation_xyz
x,y,z
-x,y,1/2-z
-x,-y,-z
x,-y,1/2+z
1/2+x,1/2+y,z
1/2-x,1/2+y,1/2-z
1/2-x,1/2-y,-z
1/2+x,1/2-y,1/2+z
loop_
_atom_site_type_symbol
_atom_site_label
_atom_site_fract_x
_atom_site_fract_y
_atom_site_fract_z
Si Si1 0.266660 0.941219 0.629464
Si Si2 0.284539 0.644701 0.647354
Si Si3 0.000000 0.616254 0.250000
Si Si4 0.000000 0.920164 0.750000
Si Si5 0.619758 0.160673 0.570520
Si Si6 0.910802 0.467152 0.184615
Si Si7 0.996502 0.825699 0.932398
Si Si8 0.726744 0.198872 0.223889
O O1 0.297231 0.907310 0.520504
O O2 0.280461 0.867850 0.694768
O O3 0.124635 0.977117 0.697837
O O4 0.362967 0.016698 0.608832
O O5 0.199391 0.692281 0.614900
O O6 0.216529 0.553866 0.701083
O O7 0.422246 0.621772 0.542740
O O8 0.292768 0.705970 0.727858
O O9 0.008600 0.550247 0.326272
O O10 0.121541 0.677365 0.200593
O O11 0.015026 0.861407 0.658644
O O12 0.492067 0.116435 0.659377
O O13 0.580710 0.237894 0.528020
O O14 0.140733 0.809953 0.888041
#
# Coordination Sequence:
#
# PCOD8137981 Si02
#       8
#     8   8   4   4   8   8   8   8
#     4  10  21  37  58  90 123 170 202 259 325 378
#     4  12  21  37  63 100 122 159 214 271 306 373
#     4  10  22  45  59  82 128 186 198 242 326 381
#     4  10  20  37  55  86 128 156 196 256 326 371
#     4  12  19  35  62  95 125 152 210 271 317 362
#     4  11  23  38  62  89 127 168 216 255 310 384
#     4  11  21  34  61  97 120 152 204 266 321 355
#     4  10  22  39  62  86 130 166 210 256 311 381
#
# _framework density 21.541858999999999
#
# number of rings (size 3 to 8) (size 9 to 14) (size 15 to 20)
#    0.000    1.143    5.714    2.571    0.000    0.000 
#    0.000    9.286    0.000    0.000    0.000    0.000 
#    0.000    0.000    0.000    0.000    0.000    0.000 
#
# Total GULP energy -346882.191620 kJ/mol
# GULP energy per Si atom -12388.649701 kJ/mol
# Density = 2.149283 g / cm^3
# Si number density = 21.541859 Si / 1000 Ang^3
#
#
#
# Elastic Constant Matrix: (Units=GPa)
#
#
# Indices 1 2 3 4 5 6 
#
# 1 147.5706 37.9748 37.3545 0.0000 -16.6086 0.0000
# 2 37.9748 45.3209 15.6893 0.0000 -2.3412 0.0000
# 3 37.3545 15.6893 92.9983 0.0000 -21.9800 0.0000
# 4 0.0000 0.0000 0.0000 9.2512 0.0000 1.0740
# 5 -16.6086 -2.3412 -21.9800 0.0000 25.1794 0.0000
# 6 0.0000 0.0000 0.0000 1.0740 0.0000 28.6139
#
#
#
# Elastic Compliance Matrix: (Units=1/GPa)
#
#
# Indices 1 2 3 4 5 6 
#
# 1 0.009508 -0.007191 -0.001615 0.000000 0.004193 0.000000
# 2 -0.007191 0.028924 -0.003120 0.000000 -0.004778 0.000000
# 3 -0.001615 -0.003120 0.014625 0.000000 0.011411 0.000000
# 4 0.000000 0.000000 0.000000 0.108568 0.000000 -0.004075
# 5 0.004193 -0.004778 0.011411 0.000000 0.051998 0.000000
# 6 0.000000 0.000000 0.000000 -0.004075 0.000000 0.035101
#
#
# Mechanical properties :
#
#
# Convention : Reuss Voigt Hill
#
# Bulk Modulus (GPa) = 34.24179 51.99188 43.11684
# Shear Modulus (GPa) = 17.71108 25.60032 21.65570
#
# Velocity S-wave (km/s) = 2.87046 3.45106 3.17406
# Velocity P-wave (km/s) = 5.18807 6.32988 5.78720
#
# Compressibility (1/GPa) = 0.02920408
#
# Stress axis : x y z
#
# Youngs Moduli (GPa) = 105.18009 34.57391 68.37620
#
# Poissons Ratio (x) = 0.24862 0.11041
# Poissons Ratio (y) = 0.75633 0.21336
# Poissons Ratio (z) = 0.16983 0.10789
#
# Static dielectric constant tensor:
#      x y z
#    x 4.365310 0.000000 -0.340490 
#    y 0.000000 3.649560 0.000000 
#    z -0.340490 0.000000 3.880000 
# 
# 
# High freq. dielectric constant tensor:
#      x y z
#    x 1.851660 0.000000 -0.023710 
#    y 0.000000 1.809560 0.000000 
#    z -0.023710 0.000000 1.836470 
# 
# From -- ./inp_files/146025.got.cif
#   From: 2010.06.25/outbox.cif.g09.slc.cpg/sg15_74_cif.got.tgz:146025.got - 2010.06.28 07:06:18.
