data_PCOD8137433
_publ_section_title
;
Structure prediction by ZEFSAII (Michael W. Deem and Ramdas Pophale) SiO2 
 PCOD8137433
Probable space group: C 2/C
;
_chemical_formula_sum "Si O2"
_cell_formula_units_Z 60
_cell_length_a 22.113267
_cell_length_b 20.768701
_cell_length_c 14.791327
_cell_angle_alpha 90.000000
_cell_angle_beta 152.319471
_cell_angle_gamma 90.000000
_cell_volume 3155.684355
_symmetry_space_group_name_H-M "C 2/C"
_symmetry_group_IT_number 15
_symmetry_cell_setting 'monoclinic'
loop_
_space_group_symop_operation_xyz
x,y,z
-x,y,1/2-z
-x,-y,-z
x,-y,1/2+z
1/2+x,1/2+y,z
1/2-x,1/2+y,1/2-z
1/2-x,1/2-y,-z
1/2+x,1/2-y,1/2+z
loop_
_atom_site_type_symbol
_atom_site_label
_atom_site_fract_x
_atom_site_fract_y
_atom_site_fract_z
Si Si1 0.727953 0.204038 0.852211
Si Si2 0.632959 0.240972 0.275798
Si Si3 0.326003 0.345340 0.659396
Si Si4 0.000000 0.677616 0.250000
Si Si5 0.973229 0.633104 0.469848
Si Si6 0.649378 0.079032 0.547714
Si Si7 0.383203 0.932267 0.030247
Si Si8 0.116925 0.842547 0.104193
O O1 0.731093 0.278151 0.882275
O O2 0.578261 0.182499 0.649931
O O3 0.802208 0.203004 0.855680
O O4 0.803961 0.156533 0.022112
O O5 0.750000 0.250000 0.500000
O O6 0.510019 0.224012 0.176492
O O7 0.604153 0.305602 0.182598
O O8 0.644030 0.177355 0.226237
O O9 0.248329 0.401715 0.605937
O O10 0.476213 0.358839 0.878971
O O11 0.122698 0.630679 0.431930
O O12 0.911601 0.588467 0.465175
O O13 0.044167 0.588372 0.489100
O O14 0.798940 0.091541 0.775928
O O15 0.636391 0.008362 0.491130
O O16 0.500000 0.910534 0.250000
#
# Coordination Sequence:
#
# PCOD8137433 Si02
#       8
#     8   8   8   4   8   8   8   8
#     4  10  21  38  60  90 121 155 194 251 311 369
#     4  11  21  35  60  88 119 151 189 255 305 360
#     4  11  23  35  62  90 123 158 193 254 308 364
#     4  10  20  36  58  86 112 152 204 246 302 340
#     4  10  21  39  62  92 117 156 208 253 303 359
#     4  10  22  39  61  84 122 163 205 249 298 358
#     4  12  23  39  62  90 122 162 213 253 293 363
#     4  11  22  39  59  89 123 160 195 246 314 374
#
# _framework density 19.013309
#
# number of rings (size 3 to 8) (size 9 to 14) (size 15 to 20)
#    0.000    1.333    4.667    1.600    0.000    1.600 
#    0.000    0.000    0.000    0.000    0.000    0.000 
#    0.000    0.000    0.000    0.000    0.000    0.000 
#
# Total GULP energy -371908.512079 kJ/mol
# GULP energy per Si atom -12396.950403 kJ/mol
# Density = 1.897003 g / cm^3
# Si number density = 19.013309 Si / 1000 Ang^3
#
#
#
# Elastic Constant Matrix: (Units=GPa)
#
#
# Indices 1 2 3 4 5 6 
#
# 1 79.1195 34.1976 24.5512 0.0000 -6.9768 0.0000
# 2 34.1976 74.4194 27.5153 0.0000 3.9845 0.0000
# 3 24.5512 27.5153 127.4011 0.0000 -1.5454 0.0000
# 4 0.0000 0.0000 0.0000 24.6399 0.0000 -4.7805
# 5 -6.9768 3.9845 -1.5454 0.0000 29.2613 0.0000
# 6 0.0000 0.0000 0.0000 -4.7805 0.0000 23.2723
#
#
#
# Elastic Compliance Matrix: (Units=1/GPa)
#
#
# Indices 1 2 3 4 5 6 
#
# 1 0.016750 -0.007378 -0.001575 0.000000 0.004915 0.000000
# 2 -0.007378 0.017991 -0.002516 0.000000 -0.004342 0.000000
# 3 -0.001575 -0.002516 0.008701 0.000000 0.000427 0.000000
# 4 0.000000 0.000000 0.000000 0.042269 0.000000 0.008683
# 5 0.004915 -0.004342 0.000427 0.000000 0.035961 0.000000
# 6 0.000000 0.000000 0.000000 0.008683 0.000000 0.044753
#
#
# Mechanical properties :
#
#
# Convention : Reuss Voigt Hill
#
# Bulk Modulus (GPa) = 48.77163 50.38534 49.57848
# Shear Modulus (GPa) = 25.48447 28.41309 26.94878
#
# Velocity S-wave (km/s) = 3.66505 3.86991 3.76887
# Velocity P-wave (km/s) = 6.60433 6.82099 6.71353
#
# Compressibility (1/GPa) = 0.02050372
#
# Stress axis : x y z
#
# Youngs Moduli (GPa) = 59.70081 55.58463 114.92471
#
# Poissons Ratio (x) = 0.41011 0.18098
# Poissons Ratio (y) = 0.44047 0.28919
# Poissons Ratio (z) = 0.09402 0.13987
#
# Static dielectric constant tensor:
#      x y z
#    x 3.634420 0.000000 -0.218720 
#    y 0.000000 3.313630 0.000000 
#    z -0.218720 0.000000 3.689240 
# 
# 
# High freq. dielectric constant tensor:
#      x y z
#    x 1.742840 0.000000 -0.017830 
#    y 0.000000 1.720660 0.000000 
#    z -0.017830 0.000000 1.744760 
# 
# From -- ./inp_files/169475.got.cif
#   From: 2010.06.25/outbox.cif.g09.slc.cpg/sg15_85_cif.got.tgz:169475.got - 2010.06.28 07:06:18.
