data_PCOD8137407
_publ_section_title
;
Structure prediction by ZEFSAII (Michael W. Deem and Ramdas Pophale) SiO2 
 PCOD8137407
Probable space group: C 2/C
;
_chemical_formula_sum "Si O2"
_cell_formula_units_Z 48
_cell_length_a 21.843579
_cell_length_b 11.516174
_cell_length_c 12.617677
_cell_angle_alpha 90.000000
_cell_angle_beta 49.363007
_cell_angle_gamma 90.000000
_cell_volume 2408.617952
_symmetry_space_group_name_H-M "C 2/C"
_symmetry_group_IT_number 15
_symmetry_cell_setting 'monoclinic'
loop_
_space_group_symop_operation_xyz
x,y,z
-x,y,1/2-z
-x,-y,-z
x,-y,1/2+z
1/2+x,1/2+y,z
1/2-x,1/2+y,1/2-z
1/2-x,1/2-y,-z
1/2+x,1/2-y,1/2+z
loop_
_atom_site_type_symbol
_atom_site_label
_atom_site_fract_x
_atom_site_fract_y
_atom_site_fract_z
Si Si1 0.204807 0.966212 0.877501
Si Si2 0.312652 0.869737 0.364137
Si Si3 0.909479 0.940708 0.310393
Si Si4 0.447147 0.310994 0.707455
Si Si5 0.291722 0.176410 0.111766
Si Si6 0.904129 0.164799 0.596588
O O1 0.221551 0.876532 0.763790
O O2 0.292605 0.014698 0.818160
O O3 0.144540 0.061857 0.902045
O O4 0.157124 0.904272 0.027503
O O5 0.393405 0.801328 0.238986
O O6 0.317186 0.906575 0.484279
O O7 0.236276 0.789807 0.420834
O O8 0.899118 0.848006 0.228265
O O9 0.000000 0.932262 0.250000
O O10 0.892808 0.074488 0.292543
O O11 0.500000 0.278147 0.750000
O O12 0.502944 0.340968 0.544148
O O13 0.366889 0.211711 0.101846
#
# Coordination Sequence:
#
# PCOD8137407 Si02
#       6
#     8   8   8   8   8   8
#     4  11  21  36  56  83 113 147 184 226 277 326
#     4  10  20  36  58  83 110 145 189 225 267 331
#     4  11  22  33  55  88 116 140 178 234 285 328
#     4  11  18  35  60  85 108 143 186 232 275 323
#     4  10  21  36  57  81 113 149 185 223 271 333
#     4  11  21  36  57  83 113 146 183 230 277 328
#
# _framework density 19.928439999999998
#
# number of rings (size 3 to 8) (size 9 to 14) (size 15 to 20)
#    0.000    1.333    5.000    4.500    2.333    0.667 
#    0.000    0.833    0.000    0.000    0.000    0.000 
#    0.000    0.000    0.000    0.000    0.000    0.000 
#
# Total GULP energy -297466.098823 kJ/mol
# GULP energy per Si atom -12394.420784 kJ/mol
# Density = 1.988308 g / cm^3
# Si number density = 19.928440 Si / 1000 Ang^3
#
#
#
# Elastic Constant Matrix: (Units=GPa)
#
#
# Indices 1 2 3 4 5 6 
#
# 1 76.4973 24.6750 34.7700 0.0000 11.5768 0.0000
# 2 24.6750 31.7238 39.1101 0.0000 5.3715 0.0000
# 3 34.7700 39.1101 150.3079 0.0000 14.5712 0.0000
# 4 0.0000 0.0000 0.0000 27.7239 0.0000 -3.1949
# 5 11.5768 5.3715 14.5712 0.0000 29.5447 0.0000
# 6 0.0000 0.0000 0.0000 -3.1949 0.0000 15.5238
#
#
#
# Elastic Compliance Matrix: (Units=1/GPa)
#
#
# Indices 1 2 3 4 5 6 
#
# 1 0.018070 -0.012772 -0.000415 0.000000 -0.004554 0.000000
# 2 -0.012772 0.055628 -0.011578 0.000000 0.000601 0.000000
# 3 -0.000415 -0.011578 0.010021 0.000000 -0.002674 0.000000
# 4 0.000000 0.000000 0.000000 0.036946 0.000000 0.007604
# 5 -0.004554 0.000601 -0.002674 0.000000 0.036841 0.000000
# 6 0.000000 0.000000 0.000000 0.007604 0.000000 0.065982
#
#
# Mechanical properties :
#
#
# Convention : Reuss Voigt Hill
#
# Bulk Modulus (GPa) = 29.24970 50.62659 39.93814
# Shear Modulus (GPa) = 17.57988 25.22339 21.40164
#
# Velocity S-wave (km/s) = 2.97332 3.56153 3.28063
# Velocity P-wave (km/s) = 5.14750 6.50937 5.86808
#
# Compressibility (1/GPa) = 0.03418839
#
# Stress axis : x y z
#
# Youngs Moduli (GPa) = 55.34047 17.97642 99.78989
#
# Poissons Ratio (x) = 0.22959 0.04145
# Poissons Ratio (y) = 0.70680 1.15540
# Poissons Ratio (z) = 0.02299 0.20814
#
# Static dielectric constant tensor:
#      x y z
#    x 3.886650 0.000000 0.244820 
#    y 0.000000 3.322380 0.000000 
#    z 0.244820 0.000000 3.707830 
# 
# 
# High freq. dielectric constant tensor:
#      x y z
#    x 1.784130 0.000000 0.011580 
#    y 0.000000 1.721860 0.000000 
#    z 0.011580 0.000000 1.780640 
# 
# From -- ./inp_files/104254.got.cif
#   From: 2010.06.25/outbox.cif.g09.slc.cpg/sg15_53_cif.got.tgz:104254.got - 2010.06.28 07:06:18.
