data_PCOD8137100
_publ_section_title
;
Structure prediction by ZEFSAII (Michael W. Deem and Ramdas Pophale) SiO2 
 PCOD8137100
Probable space group: C 2/C
;
_chemical_formula_sum "Si O2"
_cell_formula_units_Z 60
_cell_length_a 19.452924
_cell_length_b 10.937274
_cell_length_c 14.083191
_cell_angle_alpha 90.000000
_cell_angle_beta 81.645821
_cell_angle_gamma 90.000000
_cell_volume 2964.572395
_symmetry_space_group_name_H-M "C 2/C"
_symmetry_group_IT_number 15
_symmetry_cell_setting 'monoclinic'
loop_
_space_group_symop_operation_xyz
x,y,z
-x,y,1/2-z
-x,-y,-z
x,-y,1/2+z
1/2+x,1/2+y,z
1/2-x,1/2+y,1/2-z
1/2-x,1/2-y,-z
1/2+x,1/2-y,1/2+z
loop_
_atom_site_type_symbol
_atom_site_label
_atom_site_fract_x
_atom_site_fract_y
_atom_site_fract_z
Si Si1 0.607656 0.323713 0.003426
Si Si2 0.960147 0.804398 0.102089
Si Si3 0.000000 0.006028 0.750000
Si Si4 0.253531 0.107519 0.013998
Si Si5 0.487594 0.965011 0.645795
Si Si6 0.143245 0.996243 0.166347
Si Si7 0.339844 0.461838 0.123563
Si Si8 0.613138 0.052287 0.982465
O O1 0.625815 0.407683 0.910060
O O2 0.643345 0.189996 0.986388
O O3 0.523854 0.308456 0.015653
O O4 0.631333 0.379049 0.100068
O O5 0.957138 0.672414 0.150979
O O6 0.886440 0.847489 0.071609
O O7 0.965323 0.908646 0.179370
O O8 0.932460 0.934062 0.804964
O O9 0.198200 0.085616 0.108833
O O10 0.327066 0.050130 0.029564
O O11 0.250000 0.250000 0.000000
O O12 0.232584 0.043857 0.918705
O O13 0.500000 0.010109 0.750000
O O14 0.429349 0.048488 0.607851
O O15 0.561108 0.978202 0.578652
O O16 0.174297 0.952340 0.261220
#
# Coordination Sequence:
#
# PCOD8137100 Si02
#       8
#     8   8   4   8   8   8   8   8
#     4   9  19  37  60  87 126 157 204 254 306 363
#     4   9  15  30  60  89 117 155 193 251 299 355
#     4   8  14  30  56  90 116 142 204 242 286 354
#     4  11  24  44  58  86 128 165 203 256 316 370
#     4  10  20  38  63  92 120 159 215 251 303 368
#     4   9  20  37  60  90 117 160 204 248 300 372
#     4  10  20  35  60  91 119 161 204 246 308 369
#     4  10  23  40  61  88 123 164 203 258 310 365
#
# _framework density 20.239004999999999
#
# number of rings (size 3 to 8) (size 9 to 14) (size 15 to 20)
#    0.000    2.400    0.667    1.200    1.867    4.267 
#    7.200    0.000    1.467    0.000    0.000    0.000 
#    0.000    0.000    0.000    0.000    0.000    0.000 
#
# Total GULP energy -371746.123577 kJ/mol
# GULP energy per Si atom -12391.537453 kJ/mol
# Density = 2.019294 g / cm^3
# Si number density = 20.239005 Si / 1000 Ang^3
#
#
#
# Elastic Constant Matrix: (Units=GPa)
#
#
# Indices 1 2 3 4 5 6 
#
# 1 94.8449 41.8777 49.3898 0.0000 -8.5148 0.0000
# 2 41.8777 103.5974 45.0353 0.0000 -12.1920 0.0000
# 3 49.3898 45.0353 124.2344 0.0000 9.7188 0.0000
# 4 0.0000 0.0000 0.0000 -34.0738 0.0000 -53.8282
# 5 -8.5148 -12.1920 9.7188 0.0000 28.5991 0.0000
# 6 0.0000 0.0000 0.0000 -53.8282 0.0000 -29.0033
#
#
#
# Elastic Compliance Matrix: (Units=1/GPa)
#
#
# Indices 1 2 3 4 5 6 
#
# 1 0.015146 -0.003281 -0.005214 0.000000 0.004882 0.000000
# 2 -0.003281 0.013466 -0.004057 0.000000 0.006142 0.000000
# 3 -0.005214 -0.004057 0.012173 0.000000 -0.007419 0.000000
# 4 0.000000 0.000000 0.000000 0.015191 0.000000 -0.028194
# 5 0.004882 0.006142 -0.007419 0.000000 0.041559 0.000000
# 6 0.000000 0.000000 0.000000 -0.028194 0.000000 0.017847
#
#
# Mechanical properties :
#
#
# Convention : Reuss Voigt Hill
#
# Bulk Modulus (GPa) = 63.77608 66.14251 64.95930
# Shear Modulus (GPa) = 34.31387 5.52933 19.92160
#
# Velocity S-wave (km/s) = 4.12203 1.65468 3.14079
# Velocity P-wave (km/s) = 7.36442 6.03343 6.73190
#
# Compressibility (1/GPa) = 0.01567986
#
# Stress axis : x y z
#
# Youngs Moduli (GPa) = 66.02553 74.26162 82.14784
#
# Poissons Ratio (x) = 0.24368 0.42829
# Poissons Ratio (y) = 0.21666 0.33331
# Poissons Ratio (z) = 0.34423 0.30131
#
# Static dielectric constant tensor:
#      x y z
#    x 2.763630 0.000000 -0.280800 
#    y 0.000000 3.555530 0.000000 
#    z -0.280800 0.000000 3.543020 
# 
# 
# High freq. dielectric constant tensor:
#      x y z
#    x 1.790620 0.000000 0.006020 
#    y 0.000000 1.769890 0.000000 
#    z 0.006020 0.000000 1.785090 
# 
# From -- ./inp_files/167249.got.cif
#   From: 2010.06.25/outbox.cif.g09.slc.cpg/sg15_84_cif.got.tgz:167249.got - 2010.06.28 07:06:18.
