data_PCOD8137199
_publ_section_title
;
Structure prediction by ZEFSAII (Michael W. Deem and Ramdas Pophale) SiO2 
 PCOD8137199
Probable space group: C 2/C
;
_chemical_formula_sum "Si O2"
_cell_formula_units_Z 52
_cell_length_a 11.804624
_cell_length_b 28.790602
_cell_length_c 8.078816
_cell_angle_alpha 90.000000
_cell_angle_beta 67.567503
_cell_angle_gamma 90.000000
_cell_volume 2537.917804
_symmetry_space_group_name_H-M "C 2/C"
_symmetry_group_IT_number 15
_symmetry_cell_setting 'monoclinic'
loop_
_space_group_symop_operation_xyz
x,y,z
-x,y,1/2-z
-x,-y,-z
x,-y,1/2+z
1/2+x,1/2+y,z
1/2-x,1/2+y,1/2-z
1/2-x,1/2-y,-z
1/2+x,1/2-y,1/2+z
loop_
_atom_site_type_symbol
_atom_site_label
_atom_site_fract_x
_atom_site_fract_y
_atom_site_fract_z
Si Si1 0.740564 0.129438 0.771579
Si Si2 0.456147 0.686736 0.594207
Si Si3 0.207897 0.153020 0.389070
Si Si4 0.856314 0.946284 0.666734
Si Si5 0.500000 0.841567 0.250000
Si Si6 0.342760 0.778156 0.566737
Si Si7 0.638166 0.545787 0.951218
O O1 0.831070 0.160723 0.605079
O O2 0.600681 0.127287 0.787951
O O3 0.793196 0.077676 0.723021
O O4 0.748909 0.155230 0.944349
O O5 0.500000 0.670276 0.750000
O O6 0.570333 0.670291 0.418784
O O7 0.431948 0.741464 0.606227
O O8 0.221872 0.098190 0.345316
O O9 0.287635 0.188179 0.236644
O O10 0.993320 0.945065 0.514269
O O11 0.808515 0.995019 0.622509
O O12 0.835211 0.944405 0.873678
O O13 0.431772 0.809557 0.414604
O O14 0.250000 0.750000 0.500000
#
# Coordination Sequence:
#
# PCOD8137199 Si02
#       7
#     8   8   8   8   4   8   8
#     4  11  23  42  62  92 131 169 208 268 317 389
#     4  10  23  39  62  90 123 161 211 271 322 369
#     4  11  24  40  67  93 127 167 216 270 328 372
#     4  10  20  35  64  97 130 164 204 267 322 389
#     4  12  26  42  60  88 128 174 218 260 326 388
#     4  12  25  42  62  90 127 172 219 267 315 390
#     4  10  20  36  62  98 132 163 206 260 333 376
#
# _framework density 20.489238
#
# number of rings (size 3 to 8) (size 9 to 14) (size 15 to 20)
#    0.000    1.231    3.077    2.769    2.154    2.462 
#    0.000    0.000    0.000    8.308    0.000    0.000 
#    0.000    0.000    0.000    0.000    0.000    0.000 
#
# Total GULP energy -322100.757601 kJ/mol
# GULP energy per Si atom -12388.490677 kJ/mol
# Density = 2.044260 g / cm^3
# Si number density = 20.489238 Si / 1000 Ang^3
#
#
#
# Elastic Constant Matrix: (Units=GPa)
#
#
# Indices 1 2 3 4 5 6 
#
# 1 90.5962 31.5015 35.3684 0.0000 -4.0323 0.0000
# 2 31.5015 144.5400 51.8389 0.0000 -5.0213 0.0000
# 3 35.3684 51.8389 102.2533 0.0000 -13.5775 0.0000
# 4 0.0000 0.0000 0.0000 45.8220 0.0000 3.5048
# 5 -4.0323 -5.0213 -13.5775 0.0000 14.0008 0.0000
# 6 0.0000 0.0000 0.0000 3.5048 0.0000 31.5230
#
#
#
# Elastic Compliance Matrix: (Units=1/GPa)
#
#
# Indices 1 2 3 4 5 6 
#
# 1 0.013023 -0.001487 -0.003815 0.000000 -0.000482 0.000000
# 2 -0.001487 0.008646 -0.004034 0.000000 -0.001239 0.000000
# 3 -0.003815 -0.004034 0.014699 0.000000 0.011709 0.000000
# 4 0.000000 0.000000 0.000000 0.022011 0.000000 -0.002447
# 5 -0.000482 -0.001239 0.011709 0.000000 0.082196 0.000000
# 6 0.000000 0.000000 0.000000 -0.002447 0.000000 0.031995
#
#
# Mechanical properties :
#
#
# Convention : Reuss Voigt Hill
#
# Bulk Modulus (GPa) = 56.50497 63.86746 60.18622
# Shear Modulus (GPa) = 25.36281 32.84785 29.10533
#
# Velocity S-wave (km/s) = 3.52214 4.00831 3.77306
# Velocity P-wave (km/s) = 6.64668 7.25679 6.95843
#
# Compressibility (1/GPa) = 0.01769756
#
# Stress axis : x y z
#
# Youngs Moduli (GPa) = 76.78860 115.65885 68.03325
#
# Poissons Ratio (x) = 0.17197 0.25952
# Poissons Ratio (y) = 0.11417 0.27441
# Poissons Ratio (z) = 0.29292 0.46651
#
# Static dielectric constant tensor:
#      x y z
#    x 4.087940 0.000000 -0.127360 
#    y 0.000000 3.889830 0.000000 
#    z -0.127360 0.000000 3.683070 
# 
# 
# High freq. dielectric constant tensor:
#      x y z
#    x 1.776300 0.000000 0.008090 
#    y 0.000000 1.813480 0.000000 
#    z 0.008090 0.000000 1.803420 
# 
# From -- ./inp_files/35090.got.cif
#   From: 2010.06.25/outbox.cif.g09.slc.cpg/sg15_18_cif.got.tgz:35090.got - 2010.06.28 07:06:18.
