data_PCOD8137174
_publ_section_title
;
Structure prediction by ZEFSAII (Michael W. Deem and Ramdas Pophale) SiO2 
 PCOD8137174
Probable space group: C 2/C
;
_chemical_formula_sum "Si O2"
_cell_formula_units_Z 48
_cell_length_a 8.832437
_cell_length_b 21.721791
_cell_length_c 12.454092
_cell_angle_alpha 90.000000
_cell_angle_beta 91.244283
_cell_angle_gamma 90.000000
_cell_volume 2388.833218
_symmetry_space_group_name_H-M "C 2/C"
_symmetry_group_IT_number 15
_symmetry_cell_setting 'monoclinic'
loop_
_space_group_symop_operation_xyz
x,y,z
-x,y,1/2-z
-x,-y,-z
x,-y,1/2+z
1/2+x,1/2+y,z
1/2-x,1/2+y,1/2-z
1/2-x,1/2-y,-z
1/2+x,1/2-y,1/2+z
loop_
_atom_site_type_symbol
_atom_site_label
_atom_site_fract_x
_atom_site_fract_y
_atom_site_fract_z
Si Si1 0.259853 0.795464 0.901341
Si Si2 0.176475 0.422987 0.486178
Si Si3 0.343527 0.056203 0.924544
Si Si4 0.500000 0.673633 0.250000
Si Si5 0.326608 0.537405 0.782582
Si Si6 0.000000 0.324557 0.750000
Si Si7 0.258173 0.404738 0.855468
O O1 0.407103 0.780753 0.830550
O O2 0.112195 0.785336 0.824501
O O3 0.250000 0.750000 0.000000
O O4 0.275622 0.866195 0.938456
O O5 0.163742 0.482319 0.562334
O O6 0.304688 0.427947 0.395838
O O7 0.012732 0.415987 0.427275
O O8 0.268747 0.073067 0.809832
O O9 0.244811 0.086936 0.016801
O O10 0.590170 0.631784 0.167781
O O11 0.500000 0.535825 0.750000
O O12 0.258879 0.469325 0.793962
O O13 0.889607 0.367989 0.681371
#
# Coordination Sequence:
#
# PCOD8137174 Si02
#       7
#     8   8   8   4   8   4   8
#     4  11  24  46  66  91 121 164 220 266 309 369
#     4  10  22  38  62  87 126 166 204 257 304 386
#     4  10  20  36  60  93 124 163 203 245 318 382
#     4  10  22  40  66  92 116 162 204 260 306 368
#     4  11  23  33  54  96 135 164 192 254 324 374
#     4  10  20  42  68  88 114 166 210 252 310 376
#     4  10  20  35  63  88 124 161 208 244 304 384
#
# _framework density 20.093492999999999
#
# number of rings (size 3 to 8) (size 9 to 14) (size 15 to 20)
#    0.000    1.667    2.500    2.500    7.000    1.333 
#    4.500    3.333    0.000    0.000    0.000    0.000 
#    0.000    0.000    0.000    0.000    0.000    0.000 
#
# Total GULP energy -297604.605611 kJ/mol
# GULP energy per Si atom -12400.191900 kJ/mol
# Density = 2.004776 g / cm^3
# Si number density = 20.093493 Si / 1000 Ang^3
#
#
#
# Elastic Constant Matrix: (Units=GPa)
#
#
# Indices 1 2 3 4 5 6 
#
# 1 121.2176 24.3559 53.0241 0.0000 -11.8646 0.0000
# 2 24.3559 50.3635 29.0215 0.0000 -6.3279 0.0000
# 3 53.0241 29.0215 113.4457 0.0000 -9.8326 0.0000
# 4 0.0000 0.0000 0.0000 30.5579 0.0000 -5.5773
# 5 -11.8646 -6.3279 -9.8326 0.0000 38.3260 0.0000
# 6 0.0000 0.0000 0.0000 -5.5773 0.0000 4.8834
#
#
#
# Elastic Compliance Matrix: (Units=1/GPa)
#
#
# Indices 1 2 3 4 5 6 
#
# 1 0.010793 -0.002550 -0.004234 0.000000 0.001834 0.000000
# 2 -0.002550 0.024103 -0.004805 0.000000 0.001958 0.000000
# 3 -0.004234 -0.004805 0.012110 0.000000 0.001003 0.000000
# 4 0.000000 0.000000 0.000000 0.041343 0.000000 0.047217
# 5 0.001834 0.001958 0.001003 0.000000 0.027240 0.000000
# 6 0.000000 0.000000 0.000000 0.047217 0.000000 0.258701
#
#
# Mechanical properties :
#
#
# Convention : Reuss Voigt Hill
#
# Bulk Modulus (GPa) = 41.96317 55.31443 48.63880
# Shear Modulus (GPa) = 12.33321 26.66181 19.49751
#
# Velocity S-wave (km/s) = 2.48017 3.64660 3.11841
# Velocity P-wave (km/s) = 5.39731 6.73190 6.10121
#
# Compressibility (1/GPa) = 0.02383042
#
# Stress axis : x y z
#
# Youngs Moduli (GPa) = 92.64981 41.48803 82.57927
#
# Poissons Ratio (x) = 0.10578 0.34960
# Poissons Ratio (y) = 0.23623 0.39677
# Poissons Ratio (z) = 0.39224 0.19934
#
# Static dielectric constant tensor:
#      x y z
#    x 4.159320 0.000000 -0.227340 
#    y 0.000000 3.205660 0.000000 
#    z -0.227340 0.000000 3.850850 
# 
# 
# High freq. dielectric constant tensor:
#      x y z
#    x 1.797520 0.000000 -0.012020 
#    y 0.000000 1.733910 0.000000 
#    z -0.012020 0.000000 1.802260 
# 
# From -- ./inp_files/79315.got.cif
#   From: 2010.06.25/outbox.cif.g09.slc.cpg/sg15_40_cif.got.tgz:79315.got - 2010.06.28 07:06:18.
