data_PCOD8137898
_publ_section_title
;
Structure prediction by ZEFSAII (Michael W. Deem and Ramdas Pophale) SiO2 
 PCOD8137898
Probable space group: C 2/C
;
_chemical_formula_sum "Si O2"
_cell_formula_units_Z 36
_cell_length_a 9.507102
_cell_length_b 13.144174
_cell_length_c 25.046642
_cell_angle_alpha 90.000000
_cell_angle_beta 153.597194
_cell_angle_gamma 90.000000
_cell_volume 1391.802543
_symmetry_space_group_name_H-M "C 2/C"
_symmetry_group_IT_number 15
_symmetry_cell_setting 'monoclinic'
loop_
_space_group_symop_operation_xyz
x,y,z
-x,y,1/2-z
-x,-y,-z
x,-y,1/2+z
1/2+x,1/2+y,z
1/2-x,1/2+y,1/2-z
1/2-x,1/2-y,-z
1/2+x,1/2-y,1/2+z
loop_
_atom_site_type_symbol
_atom_site_label
_atom_site_fract_x
_atom_site_fract_y
_atom_site_fract_z
Si Si1 0.176236 0.960586 0.910893
Si Si2 0.195238 0.728980 0.105150
Si Si3 0.928033 0.902174 0.510225
Si Si4 0.500000 0.782081 0.750000
Si Si5 0.957441 0.175453 0.838890
O O1 0.084824 0.866316 0.840212
O O2 0.256417 0.924417 0.998061
O O3 0.915106 0.051660 0.824643
O O4 0.500000 0.000000 0.000000
O O5 0.252639 0.766087 0.186668
O O6 0.278980 0.824289 0.095386
O O7 0.826573 0.700051 0.974192
O O8 0.259943 0.854246 0.638505
O O9 0.000000 0.000000 0.500000
O O10 0.340025 0.712344 0.741081
#
# Coordination Sequence:
#
# PCOD8137898 Si02
#       5
#     8   8   8   4   8
#     4  10  20  36  65  98 119 172 224 268 336 401
#     4   9  18  35  64  87 123 167 216 261 327 397
#     4  11  21  41  66  92 132 180 223 276 339 403
#     4  10  24  40  62  92 134 172 222 274 344 402
#     4   9  18  38  58  88 127 166 206 274 328 387
#
# _framework density 25.865739000000001
#
# number of rings (size 3 to 8) (size 9 to 14) (size 15 to 20)
#    0.000    2.222    2.222    0.667    3.111    0.000 
#    4.000    4.444    0.000    0.000    0.000    0.000 
#    0.000    0.000    0.000    0.000    0.000    0.000 
#
# Total GULP energy -223121.297268 kJ/mol
# GULP energy per Si atom -12395.627626 kJ/mol
# Density = 2.580687 g / cm^3
# Si number density = 25.865739 Si / 1000 Ang^3
#
#
#
# Elastic Constant Matrix: (Units=GPa)
#
#
# Indices 1 2 3 4 5 6 
#
# 1 190.6680 101.5008 36.1094 0.0016 -55.2495 0.0005
# 2 101.5008 236.9247 57.7393 0.0005 -46.6516 0.0003
# 3 36.1094 57.7393 80.8388 0.0093 -47.8126 0.0026
# 4 0.0016 0.0005 0.0093 42.1835 0.0028 -14.5867
# 5 -55.2495 -46.6516 -47.8126 0.0028 45.1455 0.0006
# 6 0.0005 0.0003 0.0026 -14.5867 0.0006 59.6933
#
#
#
# Elastic Compliance Matrix: (Units=1/GPa)
#
#
# Indices 1 2 3 4 5 6 
#
# 1 0.010787 -0.002927 0.008810 -0.000004 0.019506 -0.000002
# 2 -0.002927 0.006159 -0.003870 0.000001 -0.001317 0.000000
# 3 0.008810 -0.003870 0.040714 -0.000015 0.049901 -0.000006
# 4 -0.000004 0.000001 -0.000015 0.025894 -0.000021 0.006327
# 5 0.019506 -0.001317 0.049901 -0.000021 0.097510 -0.000008
# 6 -0.000002 0.000000 -0.000006 0.006327 -0.000008 0.018298
#
#
# Mechanical properties :
#
#
# Convention : Reuss Voigt Hill
#
# Bulk Modulus (GPa) = 16.21188 99.90341 58.05765
# Shear Modulus (GPa) = 23.15891 50.27658 36.71774
#
# Velocity S-wave (km/s) = 2.99549 4.41358 3.77178
# Velocity P-wave (km/s) = 4.27144 8.04243 6.43917
#
# Compressibility (1/GPa) = 0.06168315
#
# Stress axis : x y z
#
# Youngs Moduli (GPa) = 92.70464 162.37313 24.56163
#
# Poissons Ratio (x) = 0.47531 -0.21638
# Poissons Ratio (y) = 0.27137 0.09507
# Poissons Ratio (z) = -0.81669 0.62846
#
# Static dielectric constant tensor:
#      x y z
#    x 5.068170 0.000190 -0.397720 
#    y 0.000190 19.559410 0.000350 
#    z -0.397720 0.000350 4.411520 
# 
# 
# High freq. dielectric constant tensor:
#      x y z
#    x 2.056610 0.000000 -0.011670 
#    y 0.000000 2.054460 0.000000 
#    z -0.011670 0.000000 2.026770 
# 
# From -- ./inp_files/132606.got.cif
#   From: 2010.06.25/outbox.cif.g09.slc.cpg/sg15_67_cif.got.tgz:132606.got - 2010.06.28 07:06:18.
