data_PCOD8137078
_publ_section_title
;
Structure prediction by ZEFSAII (Michael W. Deem and Ramdas Pophale) SiO2 
 PCOD8137078
Probable space group: C 2/C
;
_chemical_formula_sum "Si O2"
_cell_formula_units_Z 60
_cell_length_a 16.735511
_cell_length_b 9.760704
_cell_length_c 21.652033
_cell_angle_alpha 90.000000
_cell_angle_beta 120.042650
_cell_angle_gamma 90.000000
_cell_volume 3061.699937
_symmetry_space_group_name_H-M "C 2/C"
_symmetry_group_IT_number 15
_symmetry_cell_setting 'monoclinic'
loop_
_space_group_symop_operation_xyz
x,y,z
-x,y,1/2-z
-x,-y,-z
x,-y,1/2+z
1/2+x,1/2+y,z
1/2-x,1/2+y,1/2-z
1/2-x,1/2-y,-z
1/2+x,1/2-y,1/2+z
loop_
_atom_site_type_symbol
_atom_site_label
_atom_site_fract_x
_atom_site_fract_y
_atom_site_fract_z
Si Si1 0.148825 0.322733 0.149626
Si Si2 0.669746 0.425563 0.434379
Si Si3 0.639589 0.358392 0.287849
Si Si4 0.602901 0.644781 0.236901
Si Si5 0.894872 0.207778 0.128731
Si Si6 0.970784 0.475434 0.118924
Si Si7 0.500000 0.864871 0.750000
Si Si8 0.127506 0.683580 0.501414
O O1 0.252731 0.374348 0.185123
O O2 0.159827 0.191721 0.198761
O O3 0.077740 0.430985 0.152116
O O4 0.109541 0.288436 0.066598
O O5 0.622042 0.373988 0.353750
O O6 0.647372 0.588724 0.431910
O O7 0.778472 0.397741 0.475943
O O8 0.624810 0.336047 0.471587
O O9 0.593557 0.481489 0.232880
O O10 0.583776 0.220785 0.250170
O O11 0.501000 0.696516 0.187099
O O12 0.651029 0.701276 0.319782
O O13 0.894000 0.351204 0.090210
O O14 0.956540 0.542671 0.180082
O O15 0.950629 0.584493 0.056902
#
# Coordination Sequence:
#
# PCOD8137078 Si02
#       8
#     8   8   8   8   8   8   4   8
#     4  10  22  37  55  84 125 155 181 244 307 346
#     4   9  18  37  59  84 109 156 202 240 282 352
#     4  10  20  35  60  85 111 149 201 248 288 349
#     4   9  18  35  56  81 112 149 188 244 299 343
#     4   9  18  36  59  81 114 148 196 242 292 340
#     4  11  22  36  58  88 116 153 195 248 293 348
#     4  12  22  36  64  90 110 152 208 244 292 350
#     4  10  20  36  59  82 119 158 196 237 291 356
#
# _framework density 19.596957
#
# number of rings (size 3 to 8) (size 9 to 14) (size 15 to 20)
#    0.000    2.133    1.333    3.600    1.867    0.533 
#    0.000    2.667    2.933    0.000    0.000    0.000 
#    0.000    0.000    0.000    0.000    0.000    0.000 
#
# Total GULP energy -371679.970581 kJ/mol
# GULP energy per Si atom -12389.332353 kJ/mol
# Density = 1.955235 g / cm^3
# Si number density = 19.596957 Si / 1000 Ang^3
#
#
#
# Elastic Constant Matrix: (Units=GPa)
#
#
# Indices 1 2 3 4 5 6 
#
# 1 69.9063 39.0069 19.5625 0.0000 -11.9819 0.0000
# 2 39.0069 100.9359 39.3468 0.0000 -13.8924 0.0000
# 3 19.5625 39.3468 67.9715 0.0000 -16.7013 0.0000
# 4 0.0000 0.0000 0.0000 27.6390 0.0000 -0.2867
# 5 -11.9819 -13.8924 -16.7013 0.0000 29.6465 0.0000
# 6 0.0000 0.0000 0.0000 -0.2867 0.0000 21.7172
#
#
#
# Elastic Compliance Matrix: (Units=1/GPa)
#
#
# Indices 1 2 3 4 5 6 
#
# 1 0.018798 -0.006430 -0.000652 0.000000 0.004217 0.000000
# 2 -0.006430 0.015109 -0.006726 0.000000 0.000693 0.000000
# 3 -0.000652 -0.006726 0.020838 0.000000 0.008324 0.000000
# 4 0.000000 0.000000 0.000000 0.036186 0.000000 0.000478
# 5 0.004217 0.000693 0.008324 0.000000 0.040449 0.000000
# 6 0.000000 0.000000 0.000000 0.000478 0.000000 0.046053
#
#
# Mechanical properties :
#
#
# Convention : Reuss Voigt Hill
#
# Bulk Modulus (GPa) = 36.85867 48.29401 42.57634
# Shear Modulus (GPa) = 23.35454 25.19372 24.27413
#
# Velocity S-wave (km/s) = 3.45591 3.58941 3.52329
# Velocity P-wave (km/s) = 5.89691 6.47113 6.19069
#
# Compressibility (1/GPa) = 0.02713066
#
# Stress axis : x y z
#
# Youngs Moduli (GPa) = 53.19737 66.18458 47.98882
#
# Poissons Ratio (x) = 0.42557 0.03128
# Poissons Ratio (y) = 0.34206 0.32275
# Poissons Ratio (z) = 0.03467 0.44513
#
# Static dielectric constant tensor:
#      x y z
#    x 3.732500 0.000000 -0.408870 
#    y 0.000000 3.816050 0.000000 
#    z -0.408870 0.000000 3.763800 
# 
# 
# High freq. dielectric constant tensor:
#      x y z
#    x 1.745810 0.000000 -0.004430 
#    y 0.000000 1.763250 0.000000 
#    z -0.004430 0.000000 1.757300 
# 
# From -- ./inp_files/247550.got.cif
#   From: 2010.06.25/outbox.cif.g09.slc.cpg/sg15_124_cif.got.tgz:247550.got - 2010.06.28 07:06:18.
