data_PCOD8137459
_publ_section_title
;
Structure prediction by ZEFSAII (Michael W. Deem and Ramdas Pophale) SiO2 
 PCOD8137459
Probable space group: C 2/C
;
_chemical_formula_sum "Si O2"
_cell_formula_units_Z 40
_cell_length_a 28.222885
_cell_length_b 13.993794
_cell_length_c 8.570326
_cell_angle_alpha 90.000000
_cell_angle_beta 149.821635
_cell_angle_gamma 90.000000
_cell_volume 1701.521908
_symmetry_space_group_name_H-M "C 2/C"
_symmetry_group_IT_number 15
_symmetry_cell_setting 'monoclinic'
loop_
_space_group_symop_operation_xyz
x,y,z
-x,y,1/2-z
-x,-y,-z
x,-y,1/2+z
1/2+x,1/2+y,z
1/2-x,1/2+y,1/2-z
1/2-x,1/2-y,-z
1/2+x,1/2-y,1/2+z
loop_
_atom_site_type_symbol
_atom_site_label
_atom_site_fract_x
_atom_site_fract_y
_atom_site_fract_z
Si Si1 0.846902 0.726058 0.140711
Si Si2 0.802047 0.041327 0.046068
Si Si3 0.340249 0.625287 0.855179
Si Si4 0.014329 0.395244 0.106525
Si Si5 0.778840 0.620990 0.388497
O O1 0.890362 0.784568 0.414754
O O2 0.933837 0.673952 0.304369
O O3 0.772661 0.646203 0.990036
O O4 0.794017 0.797673 0.872723
O O5 0.864116 0.110419 0.107295
O O6 0.737896 0.979648 0.746001
O O7 0.736772 0.106854 0.970327
O O8 0.867017 0.971752 0.336456
O O9 0.113924 0.349332 0.339587
O O10 0.000000 0.398994 0.250000
O O11 0.000000 0.500000 0.000000
#
# Coordination Sequence:
#
# PCOD8137459 Si02
#       5
#     8   8   8   8   8
#     4  10  21  35  54  86 126 165 202 248 313 369
#     4   9  17  33  59  85 116 156 202 250 305 365
#     4   9  17  33  52  81 117 157 201 245 301 362
#     4  12  23  38  62  92 124 162 206 256 309 367
#     4  10  20  36  58  90 124 160 204 256 311 367
#
# _framework density 23.508367
#
# number of rings (size 3 to 8) (size 9 to 14) (size 15 to 20)
#    0.000    2.000    0.000    7.200    0.000    0.800 
#    0.000    2.000    0.000    0.000    0.000  124.600 
#    0.000    0.000    0.000    0.800    0.000    0.000 
#
# Total GULP energy -247849.044773 kJ/mol
# GULP energy per Si atom -12392.452239 kJ/mol
# Density = 2.345486 g / cm^3
# Si number density = 23.508367 Si / 1000 Ang^3
#
#
#
# Elastic Constant Matrix: (Units=GPa)
#
#
# Indices 1 2 3 4 5 6 
#
# 1 129.5575 66.0970 41.8413 0.0000 -20.5539 0.0000
# 2 66.0970 127.2214 50.4184 0.0000 1.1391 0.0000
# 3 41.8413 50.4184 73.1981 0.0000 7.7127 0.0000
# 4 0.0000 0.0000 0.0000 25.2291 0.0000 2.2924
# 5 -20.5539 1.1391 7.7127 0.0000 34.9808 0.0000
# 6 0.0000 0.0000 0.0000 2.2924 0.0000 42.5360
#
#
#
# Elastic Compliance Matrix: (Units=1/GPa)
#
#
# Indices 1 2 3 4 5 6 
#
# 1 0.013393 -0.004984 -0.005190 0.000000 0.009176 0.000000
# 2 -0.004984 0.012726 -0.005697 0.000000 -0.002087 0.000000
# 3 -0.005190 -0.005697 0.021350 0.000000 -0.007571 0.000000
# 4 0.000000 0.000000 0.000000 0.039832 0.000000 -0.002147
# 5 0.009176 -0.002087 -0.007571 0.000000 0.035716 0.000000
# 6 0.000000 0.000000 0.000000 -0.002147 0.000000 0.023625
#
#
# Mechanical properties :
#
#
# Convention : Reuss Voigt Hill
#
# Bulk Modulus (GPa) = 63.58074 71.85449 67.71761
# Shear Modulus (GPa) = 27.22940 31.99052 29.60996
#
# Velocity S-wave (km/s) = 3.40705 3.69292 3.55286
# Velocity P-wave (km/s) = 6.52549 6.98680 6.76008
#
# Compressibility (1/GPa) = 0.01572803
#
# Stress axis : x y z
#
# Youngs Moduli (GPa) = 74.66657 78.57969 46.83861
#
# Poissons Ratio (x) = 0.39161 0.24308
# Poissons Ratio (y) = 0.37211 0.26684
# Poissons Ratio (z) = 0.38750 0.44767
#
# Static dielectric constant tensor:
#      x y z
#    x 4.511130 0.000000 -0.187860 
#    y 0.000000 4.530960 0.000000 
#    z -0.187860 0.000000 3.744870 
# 
# 
# High freq. dielectric constant tensor:
#      x y z
#    x 1.931310 0.000000 -0.021890 
#    y 0.000000 1.947920 0.000000 
#    z -0.021890 0.000000 1.878080 
# 
# From -- ./inp_files/70218.got.cif
#   From: 2010.06.25/outbox.cif.g09.slc.cpg/sg15_36_cif.got.tgz:70218.got - 2010.06.28 07:06:18.
