data_PCOD8137081
_publ_section_title
;
Structure prediction by ZEFSAII (Michael W. Deem and Ramdas Pophale) SiO2 
 PCOD8137081
Probable space group: C 2/C
;
_chemical_formula_sum "Si O2"
_cell_formula_units_Z 56
_cell_length_a 9.653622
_cell_length_b 14.904105
_cell_length_c 26.864352
_cell_angle_alpha 90.000000
_cell_angle_beta 47.400103
_cell_angle_gamma 90.000000
_cell_volume 2845.171026
_symmetry_space_group_name_H-M "C 2/C"
_symmetry_group_IT_number 15
_symmetry_cell_setting 'monoclinic'
loop_
_space_group_symop_operation_xyz
x,y,z
-x,y,1/2-z
-x,-y,-z
x,-y,1/2+z
1/2+x,1/2+y,z
1/2-x,1/2+y,1/2-z
1/2-x,1/2-y,-z
1/2+x,1/2-y,1/2+z
loop_
_atom_site_type_symbol
_atom_site_label
_atom_site_fract_x
_atom_site_fract_y
_atom_site_fract_z
Si Si1 0.947054 0.692818 0.523531
Si Si2 0.415248 0.584317 0.887294
Si Si3 0.845053 0.820088 0.247155
Si Si4 0.381879 0.346731 0.074609
Si Si5 0.483739 0.886169 0.394148
Si Si6 0.343278 0.054958 0.098511
Si Si7 0.716286 0.290862 0.693126
O O1 0.725659 0.670021 0.580748
O O2 0.036870 0.687191 0.556858
O O3 0.978050 0.794339 0.497117
O O4 0.036996 0.619527 0.465211
O O5 0.578466 0.601063 0.807180
O O6 0.502602 0.578746 0.921858
O O7 0.315254 0.491164 0.897591
O O8 0.653735 0.857694 0.317102
O O9 0.808446 0.729231 0.224483
O O10 0.000000 0.794359 0.250000
O O11 0.301769 0.273865 0.131427
O O12 0.211931 0.394650 0.087381
O O13 0.520635 0.981478 0.410792
O O14 0.248413 0.107205 0.167752
O O15 0.500000 0.268426 0.750000
#
# Coordination Sequence:
#
# PCOD8137081 Si02
#       7
#     8   8   8   8   8   8   8
#     4  10  20  38  58  84 117 154 194 229 281 341
#     4  10  20  35  60  86 111 151 195 233 277 345
#     4  11  20  36  60  87 109 150 192 238 281 341
#     4  10  21  36  59  87 111 150 192 239 276 327
#     4  11  20  36  60  86 117 149 191 237 283 340
#     4  10  22  37  59  81 115 154 188 228 289 346
#     4  10  21  37  57  81 115 146 185 233 287 339
#
# _framework density 19.682473000000002
#
# number of rings (size 3 to 8) (size 9 to 14) (size 15 to 20)
#    0.000    1.714    4.286    2.571    2.000    0.000 
#    0.000    4.286    0.000    0.000    0.000    0.000 
#    0.000    0.000    0.000    0.000    0.000    0.000 
#
# Total GULP energy -347165.809292 kJ/mol
# GULP energy per Si atom -12398.778903 kJ/mol
# Density = 1.963767 g / cm^3
# Si number density = 19.682473 Si / 1000 Ang^3
#
#
#
# Elastic Constant Matrix: (Units=GPa)
#
#
# Indices 1 2 3 4 5 6 
#
# 1 148.7684 32.2914 15.3227 0.0017 14.4214 0.0004
# 2 32.2914 63.7084 18.9415 -0.0007 6.3165 0.0002
# 3 15.3227 18.9415 80.9416 -0.0033 6.2271 -0.0007
# 4 0.0017 -0.0007 -0.0033 -98.0991 0.0017 -17.3702
# 5 14.4214 6.3165 6.2271 0.0017 27.4027 0.0002
# 6 0.0004 0.0002 -0.0007 -17.3702 0.0002 16.3877
#
#
#
# Elastic Compliance Matrix: (Units=1/GPa)
#
#
# Indices 1 2 3 4 5 6 
#
# 1 0.007843 -0.003534 -0.000410 0.000000 -0.003220 0.000000
# 2 -0.003534 0.018716 -0.003585 0.000000 -0.001640 0.000000
# 3 -0.000410 -0.003585 0.013426 0.000000 -0.002009 0.000000
# 4 0.000000 0.000000 0.000000 -0.008583 0.000001 -0.009097
# 5 -0.003220 -0.001640 -0.002009 0.000001 0.039022 0.000000
# 6 0.000000 0.000000 0.000000 -0.009097 0.000000 0.051378
#
#
# Mechanical properties :
#
#
# Convention : Reuss Voigt Hill
#
# Bulk Modulus (GPa) = 40.11677 47.39217 43.75447
# Shear Modulus (GPa) = 34.44243 4.26244 19.35244
#
# Velocity S-wave (km/s) = 4.18772 1.47319 3.13905
# Velocity P-wave (km/s) = 6.61883 5.19850 5.95119
#
# Compressibility (1/GPa) = 0.02492723
#
# Stress axis : x y z
#
# Youngs Moduli (GPa) = 127.49595 53.42941 74.48453
#
# Poissons Ratio (x) = 0.18884 0.03054
# Poissons Ratio (y) = 0.45062 0.26700
# Poissons Ratio (z) = 0.05227 0.19153
#
# Static dielectric constant tensor:
#      x y z
#    x 3.773150 0.000000 0.218300 
#    y 0.000000 3.390700 0.000000 
#    z 0.218300 0.000000 3.874900 
# 
# 
# High freq. dielectric constant tensor:
#      x y z
#    x 1.773300 0.000000 0.004470 
#    y 0.000000 1.733750 0.000000 
#    z 0.004470 0.000000 1.786240 
# 
# From -- ./inp_files/289402.got.cif
#   From: 2010.06.25/outbox.cif.g09.slc.cpg/sg15_145_cif.got.tgz:289402.got - 2010.06.28 07:06:18.
