data_PCOD8137464
_publ_section_title
;
Structure prediction by ZEFSAII (Michael W. Deem and Ramdas Pophale) SiO2 
 PCOD8137464
Probable space group: C 2/C
;
_chemical_formula_sum "Si O2"
_cell_formula_units_Z 60
_cell_length_a 13.205034
_cell_length_b 21.162033
_cell_length_c 14.437476
_cell_angle_alpha 90.000000
_cell_angle_beta 135.092818
_cell_angle_gamma 90.000000
_cell_volume 2848.186996
_symmetry_space_group_name_H-M "C 2/C"
_symmetry_group_IT_number 15
_symmetry_cell_setting 'monoclinic'
loop_
_space_group_symop_operation_xyz
x,y,z
-x,y,1/2-z
-x,-y,-z
x,-y,1/2+z
1/2+x,1/2+y,z
1/2-x,1/2+y,1/2-z
1/2-x,1/2-y,-z
1/2+x,1/2-y,1/2+z
loop_
_atom_site_type_symbol
_atom_site_label
_atom_site_fract_x
_atom_site_fract_y
_atom_site_fract_z
Si Si1 0.401057 0.252377 0.542445
Si Si2 0.081628 0.075203 0.897605
Si Si3 0.332686 0.438699 0.540599
Si Si4 0.420543 0.139728 0.909282
Si Si5 0.139446 0.142126 0.620850
Si Si6 0.582136 0.108601 0.390806
Si Si7 0.500000 0.661024 0.250000
Si Si8 0.473389 0.970913 0.130857
O O1 0.250000 0.250000 0.500000
O O2 0.462051 0.182276 0.567683
O O3 0.386712 0.287884 0.435931
O O4 0.522421 0.292319 0.677317
O O5 0.000000 0.093834 0.750000
O O6 0.004604 0.113298 0.929696
O O7 0.061444 0.999308 0.900332
O O8 0.248252 0.096045 0.012662
O O9 0.308071 0.406133 0.425145
O O10 0.371052 0.385680 0.641470
O O11 0.193743 0.467248 0.497707
O O12 0.258481 0.154376 0.775793
O O13 0.442572 0.066642 0.894269
O O14 0.437145 0.150733 0.029794
O O15 0.500000 0.141881 0.250000
O O16 0.487445 0.044864 0.345583
O O17 0.500000 0.941291 0.250000
#
# Coordination Sequence:
#
# PCOD8137464 Si02
#       8
#     8   8   8   8   8   8   4   8
#     4  11  25  42  62  93 129 164 212 270 323 389
#     4  11  21  42  67  93 132 171 213 266 322 389
#     4  10  20  37  61  96 133 164 201 259 327 387
#     4  12  22  41  68  90 127 176 220 265 330 393
#     4  11  23  40  64  96 126 171 219 265 323 390
#     4  10  24  45  63  94 131 169 221 276 322 382
#     4  10  20  36  58  90 128 156 198 250 312 378
#     4  10  20  36  64  95 129 163 204 262 325 389
#
# _framework density 21.066033999999998
#
# number of rings (size 3 to 8) (size 9 to 14) (size 15 to 20)
#    0.000    1.333    3.333    3.200    0.933    0.000 
#   12.000    1.333    0.000    0.000    0.000    0.000 
#    0.000    0.000    0.000    0.000    0.000    0.000 
#
# Total GULP energy -371739.784207 kJ/mol
# GULP energy per Si atom -12391.326140 kJ/mol
# Density = 2.101809 g / cm^3
# Si number density = 21.066034 Si / 1000 Ang^3
#
#
#
# Elastic Constant Matrix: (Units=GPa)
#
#
# Indices 1 2 3 4 5 6 
#
# 1 80.2346 34.2165 43.3886 0.0000 -0.1751 0.0000
# 2 34.2165 71.8920 25.6702 0.0000 2.5303 0.0000
# 3 43.3886 25.6702 148.8749 0.0000 -13.7063 0.0000
# 4 0.0000 0.0000 0.0000 22.6780 0.0000 -4.7967
# 5 -0.1751 2.5303 -13.7063 0.0000 29.6793 0.0000
# 6 0.0000 0.0000 0.0000 -4.7967 0.0000 28.7945
#
#
#
# Elastic Compliance Matrix: (Units=1/GPa)
#
#
# Indices 1 2 3 4 5 6 
#
# 1 0.017584 -0.006883 -0.004047 0.000000 -0.001178 0.000000
# 2 -0.006883 0.017704 -0.001242 0.000000 -0.002124 0.000000
# 3 -0.004047 -0.001242 0.008479 0.000000 0.003998 0.000000
# 4 0.000000 0.000000 0.000000 0.045706 0.000000 0.007614
# 5 -0.001178 -0.002124 0.003998 0.000000 0.035714 0.000000
# 6 0.000000 0.000000 0.000000 0.007614 0.000000 0.035997
#
#
# Mechanical properties :
#
#
# Convention : Reuss Voigt Hill
#
# Bulk Modulus (GPa) = 51.48336 56.39468 53.93902
# Shear Modulus (GPa) = 26.04148 29.41212 27.72680
#
# Velocity S-wave (km/s) = 3.51975 3.74061 3.63186
# Velocity P-wave (km/s) = 6.40393 6.74424 6.57629
#
# Compressibility (1/GPa) = 0.01942375
#
# Stress axis : x y z
#
# Youngs Moduli (GPa) = 56.86881 56.48478 117.94392
#
# Poissons Ratio (x) = 0.38877 0.47726
# Poissons Ratio (y) = 0.39142 0.14651
# Poissons Ratio (z) = 0.23012 0.07017
#
# Static dielectric constant tensor:
#      x y z
#    x 3.463380 0.000000 -0.090920 
#    y 0.000000 3.843500 0.000000 
#    z -0.090920 0.000000 4.132290 
# 
# 
# High freq. dielectric constant tensor:
#      x y z
#    x 1.798280 0.000000 -0.002430 
#    y 0.000000 1.815080 0.000000 
#    z -0.002430 0.000000 1.842510 
# 
# From -- ./inp_files/156379.got.cif
#   From: 2010.06.25/outbox.cif.g09.slc.cpg/sg15_79_cif.got.tgz:156379.got - 2010.06.28 07:06:18.
