data_PCOD8137285
_publ_section_title
;
Structure prediction by ZEFSAII (Michael W. Deem and Ramdas Pophale) SiO2 
 PCOD8137285
Probable space group: C 2/C
;
_chemical_formula_sum "Si O2"
_cell_formula_units_Z 60
_cell_length_a 29.163659
_cell_length_b 7.976887
_cell_length_c 13.333024
_cell_angle_alpha 90.000000
_cell_angle_beta 103.419329
_cell_angle_gamma 90.000000
_cell_volume 3017.046302
_symmetry_space_group_name_H-M "C 2/C"
_symmetry_group_IT_number 15
_symmetry_cell_setting 'monoclinic'
loop_
_space_group_symop_operation_xyz
x,y,z
-x,y,1/2-z
-x,-y,-z
x,-y,1/2+z
1/2+x,1/2+y,z
1/2-x,1/2+y,1/2-z
1/2-x,1/2-y,-z
1/2+x,1/2-y,1/2+z
loop_
_atom_site_type_symbol
_atom_site_label
_atom_site_fract_x
_atom_site_fract_y
_atom_site_fract_z
Si Si1 0.739382 0.708382 0.609738
Si Si2 0.803612 0.490331 0.781765
Si Si3 0.462561 0.042654 0.898223
Si Si4 0.000000 0.781692 0.750000
Si Si5 0.625741 0.759076 0.113589
Si Si6 0.606312 0.772455 0.694264
Si Si7 0.138523 0.921095 0.027369
Si Si8 0.598923 0.567071 0.297845
O O1 0.750000 0.750000 0.500000
O O2 0.778256 0.585371 0.677120
O O3 0.733405 0.878936 0.672605
O O4 0.691518 0.605297 0.589145
O O5 0.826693 0.630015 0.866519
O O6 0.846322 0.378577 0.758996
O O7 0.440984 0.885754 0.824753
O O8 0.489239 0.168020 0.839197
O O9 0.419056 0.127056 0.934580
O O10 0.500000 0.000000 0.000000
O O11 0.044393 0.899941 0.795056
O O12 0.627266 0.617294 0.030662
O O13 0.619819 0.679820 0.220539
O O14 0.605807 0.690989 0.582904
O O15 0.604161 0.629534 0.777429
O O16 0.129976 0.874274 0.908102
#
# Coordination Sequence:
#
# PCOD8137285 Si02
#       8
#     8   8   8   4   8   8   8   8
#     4  11  23  37  60  86 111 147 187 232 284 333
#     4  10  21  40  57  80 116 146 184 234 276 335
#     4  10  20  36  56  80 109 142 183 223 265 323
#     4  10  22  34  54  82 110 144 176 224 276 312
#     4   9  20  37  56  78 110 148 179 220 277 324
#     4   9  21  37  57  80 108 149 184 221 278 328
#     4  10  20  36  57  80 107 144 183 223 273 328
#     4  10  20  37  56  81 113 142 183 229 270 327
#
# _framework density 19.886998999999999
#
# number of rings (size 3 to 8) (size 9 to 14) (size 15 to 20)
#    0.000    2.133    0.000    2.400    0.000    5.867 
#    0.000    8.667    0.000    0.000    0.000    0.000 
#    0.000    0.000    0.000    0.000    0.000    0.000 
#
# Total GULP energy -371993.955450 kJ/mol
# GULP energy per Si atom -12399.798515 kJ/mol
# Density = 1.984174 g / cm^3
# Si number density = 19.886999 Si / 1000 Ang^3
#
#
#
# Elastic Constant Matrix: (Units=GPa)
#
#
# Indices 1 2 3 4 5 6 
#
# 1 76.6703 42.8256 37.6308 0.0000 11.2203 0.0000
# 2 42.8256 113.0042 36.8127 0.0000 10.3253 0.0000
# 3 37.6308 36.8127 105.4835 0.0000 13.8391 0.0000
# 4 0.0000 0.0000 0.0000 25.8160 0.0000 0.8033
# 5 11.2203 10.3253 13.8391 0.0000 29.7571 0.0000
# 6 0.0000 0.0000 0.0000 0.8033 0.0000 32.1304
#
#
#
# Elastic Compliance Matrix: (Units=1/GPa)
#
#
# Indices 1 2 3 4 5 6 
#
# 1 0.018636 -0.005353 -0.004369 0.000000 -0.003138 0.000000
# 2 -0.005353 0.011631 -0.002007 0.000000 -0.001084 0.000000
# 3 -0.004369 -0.002007 0.012174 0.000000 -0.003318 0.000000
# 4 0.000000 0.000000 0.000000 0.038766 0.000000 -0.000969
# 5 -0.003138 -0.001084 -0.003318 0.000000 0.036708 0.000000
# 6 0.000000 0.000000 0.000000 -0.000969 0.000000 0.031147
#
#
# Mechanical properties :
#
#
# Convention : Reuss Voigt Hill
#
# Bulk Modulus (GPa) = 52.67558 58.85516 55.76537
# Shear Modulus (GPa) = 27.95674 29.39996 28.67835
#
# Velocity S-wave (km/s) = 3.75344 3.84910 3.80157
# Velocity P-wave (km/s) = 6.73271 7.02945 6.88268
#
# Compressibility (1/GPa) = 0.01898413
#
# Stress axis : x y z
#
# Youngs Moduli (GPa) = 53.65919 85.97938 82.13896
#
# Poissons Ratio (x) = 0.46023 0.35883
# Poissons Ratio (y) = 0.28722 0.16487
# Poissons Ratio (z) = 0.23442 0.17258
#
# Static dielectric constant tensor:
#      x y z
#    x 3.791760 0.000000 0.028710 
#    y 0.000000 3.868840 0.000000 
#    z 0.028710 0.000000 3.435120 
# 
# 
# High freq. dielectric constant tensor:
#      x y z
#    x 1.778290 0.000000 0.010510 
#    y 0.000000 1.789920 0.000000 
#    z 0.010510 0.000000 1.763320 
# 
# From -- ./inp_files/125551.got.cif
#   From: 2010.06.25/outbox.cif.g09.slc.cpg/sg15_63_cif.got.tgz:125551.got - 2010.06.28 07:06:18.
