data_PCOD8137555
_publ_section_title
;
Structure prediction by ZEFSAII (Michael W. Deem and Ramdas Pophale) SiO2 
 PCOD8137555
Probable space group: C 2/C
;
_chemical_formula_sum "Si O2"
_cell_formula_units_Z 60
_cell_length_a 11.664087
_cell_length_b 13.652441
_cell_length_c 18.759509
_cell_angle_alpha 90.000000
_cell_angle_beta 93.251082
_cell_angle_gamma 90.000000
_cell_volume 2982.517559
_symmetry_space_group_name_H-M "C 2/C"
_symmetry_group_IT_number 15
_symmetry_cell_setting 'monoclinic'
loop_
_space_group_symop_operation_xyz
x,y,z
-x,y,1/2-z
-x,-y,-z
x,-y,1/2+z
1/2+x,1/2+y,z
1/2-x,1/2+y,1/2-z
1/2-x,1/2-y,-z
1/2+x,1/2-y,1/2+z
loop_
_atom_site_type_symbol
_atom_site_label
_atom_site_fract_x
_atom_site_fract_y
_atom_site_fract_z
Si Si1 0.152976 0.829889 0.988244
Si Si2 0.065572 0.243670 0.621722
Si Si3 0.187357 0.506085 0.046217
Si Si4 0.056075 0.577817 0.426171
Si Si5 0.389154 0.934975 0.198300
Si Si6 0.676649 0.283717 0.841750
Si Si7 0.000000 0.883222 0.250000
Si Si8 0.706825 0.510787 0.297522
O O1 0.097116 0.807413 0.908500
O O2 0.210258 0.937252 0.990360
O O3 0.250000 0.750000 0.000000
O O4 0.060853 0.823036 0.049419
O O5 0.190460 0.294047 0.628977
O O6 0.958015 0.320105 0.617664
O O7 0.060127 0.181176 0.692445
O O8 0.225124 0.479402 0.127872
O O9 0.069797 0.568492 0.042968
O O10 0.152469 0.414641 0.992686
O O11 0.088211 0.485768 0.376810
O O12 0.500000 0.947428 0.250000
O O13 0.358547 0.819967 0.191748
O O14 0.284039 0.989885 0.231568
O O15 0.665163 0.376018 0.788276
O O16 0.093592 0.946711 0.293595
#
# Coordination Sequence:
#
# PCOD8137555 Si02
#       8
#     8   8   8   8   8   8   4   8
#     4   9  16  34  59  85 120 159 209 247 303 376
#     4  11  21  38  63  94 119 171 207 257 310 389
#     4  10  20  36  59  93 126 157 207 267 309 369
#     4  11  21  33  64  96 127 156 205 269 322 357
#     4  12  23  36  64 100 128 160 214 272 325 362
#     4  10  21  39  61  89 126 164 211 258 307 383
#     4  12  28  42  64  84 132 174 212 250 324 394
#     4  11  24  45  61  90 130 170 213 259 317 384
#
# _framework density 20.117232000000001
#
# number of rings (size 3 to 8) (size 9 to 14) (size 15 to 20)
#    0.000    1.333    6.667    1.600    5.600    0.000 
#    0.000    3.333    0.000    0.000    0.000    0.000 
#    0.000    0.000    0.000    0.000    0.000    0.000 
#
# Total GULP energy -371697.086973 kJ/mol
# GULP energy per Si atom -12389.902899 kJ/mol
# Density = 2.007144 g / cm^3
# Si number density = 20.117232 Si / 1000 Ang^3
#
#
#
# Elastic Constant Matrix: (Units=GPa)
#
#
# Indices 1 2 3 4 5 6 
#
# 1 42.9390 18.7548 25.6263 0.0000 5.2909 0.0000
# 2 18.7548 92.2384 43.1624 0.0000 -5.2733 0.0000
# 3 25.6263 43.1624 103.1438 0.0000 -11.5848 0.0000
# 4 0.0000 0.0000 0.0000 61.9392 0.0000 -6.0699
# 5 5.2909 -5.2733 -11.5848 0.0000 23.6262 0.0000
# 6 0.0000 0.0000 0.0000 -6.0699 0.0000 26.7107
#
#
#
# Elastic Compliance Matrix: (Units=1/GPa)
#
#
# Indices 1 2 3 4 5 6 
#
# 1 0.030601 -0.003378 -0.007454 0.000000 -0.011262 0.000000
# 2 -0.003378 0.013856 -0.004790 0.000000 0.001500 0.000000
# 3 -0.007454 -0.004790 0.014413 0.000000 0.007667 0.000000
# 4 0.000000 0.000000 0.000000 0.016513 0.000000 0.003752
# 5 -0.011262 0.001500 0.007667 0.000000 0.048942 0.000000
# 6 0.000000 0.000000 0.000000 0.003752 0.000000 0.038291
#
#
# Mechanical properties :
#
#
# Convention : Reuss Voigt Hill
#
# Bulk Modulus (GPa) = 36.19973 45.93425 41.06699
# Shear Modulus (GPa) = 24.62229 32.50706 28.56468
#
# Velocity S-wave (km/s) = 3.50228 4.02416 3.77226
# Velocity P-wave (km/s) = 5.86414 6.66894 6.27944
#
# Compressibility (1/GPa) = 0.02762452
#
# Stress axis : x y z
#
# Youngs Moduli (GPa) = 32.67917 72.17255 69.38161
#
# Poissons Ratio (x) = 0.24378 0.51718
# Poissons Ratio (y) = 0.11038 0.33237
# Poissons Ratio (z) = 0.24360 0.34574
#
# Static dielectric constant tensor:
#      x y z
#    x 3.506120 0.000000 -0.072900 
#    y 0.000000 3.621020 0.000000 
#    z -0.072900 0.000000 4.007590 
# 
# 
# High freq. dielectric constant tensor:
#      x y z
#    x 1.754430 0.000000 -0.004540 
#    y 0.000000 1.772230 0.000000 
#    z -0.004540 0.000000 1.800460 
# 
# From -- ./inp_files/197872.got.cif
#   From: 2010.06.25/outbox.cif.g09.slc.cpg/sg15_99_cif.got.tgz:197872.got - 2010.06.28 07:06:18.
