data_PCOD8137610
_publ_section_title
;
Structure prediction by ZEFSAII (Michael W. Deem and Ramdas Pophale) SiO2 
 PCOD8137610
Probable space group: C 2/C
;
_chemical_formula_sum "Si O2"
_cell_formula_units_Z 60
_cell_length_a 14.801094
_cell_length_b 21.320329
_cell_length_c 9.147876
_cell_angle_alpha 90.000000
_cell_angle_beta 112.328778
_cell_angle_gamma 90.000000
_cell_volume 2670.291337
_symmetry_space_group_name_H-M "C 2/C"
_symmetry_group_IT_number 15
_symmetry_cell_setting 'monoclinic'
loop_
_space_group_symop_operation_xyz
x,y,z
-x,y,1/2-z
-x,-y,-z
x,-y,1/2+z
1/2+x,1/2+y,z
1/2-x,1/2+y,1/2-z
1/2-x,1/2-y,-z
1/2+x,1/2-y,1/2+z
loop_
_atom_site_type_symbol
_atom_site_label
_atom_site_fract_x
_atom_site_fract_y
_atom_site_fract_z
Si Si1 0.434462 0.477748 0.329481
Si Si2 0.327889 0.598177 0.192563
Si Si3 0.000000 0.516945 0.250000
Si Si4 0.127990 0.467478 0.581429
Si Si5 0.259650 0.089428 0.787358
Si Si6 0.778722 0.842338 0.951717
Si Si7 0.610920 0.752351 0.780121
Si Si8 0.198752 0.194386 0.558040
O O1 0.500000 0.439999 0.250000
O O2 0.500000 0.500000 0.500000
O O3 0.394973 0.537769 0.214688
O O4 0.345851 0.435635 0.333284
O O5 0.215475 0.578569 0.096537
O O6 0.340790 0.624577 0.363420
O O7 0.357601 0.650931 0.093436
O O8 0.066143 0.473175 0.395740
O O9 0.064039 0.560180 0.178189
O O10 0.160186 0.534977 0.671307
O O11 0.278388 0.151551 0.698544
O O12 0.255532 0.105399 0.955563
O O13 0.681230 0.812435 0.822708
O O14 0.851407 0.793204 0.069919
O O15 0.500000 0.771177 0.750000
O O16 0.619581 0.720960 0.624673
O O17 0.250000 0.250000 0.500000
#
# Coordination Sequence:
#
# PCOD8137610 Si02
#       8
#     8   8   4   8   8   8   8   8
#     4  11  23  39  63 104 131 165 218 271 335 403
#     4  11  22  39  67  92 134 168 207 273 333 397
#     4  10  20  36  60  88 126 154 210 258 306 388
#     4  10  21  39  58  94 123 167 207 262 333 378
#     4  10  22  40  64  87 132 171 211 268 328 398
#     4  10  21  40  66  88 124 176 215 263 328 390
#     4  10  23  44  64  90 124 167 229 270 313 387
#     4  11  22  41  66  92 127 176 218 270 331 390
#
# _framework density 22.469459000000001
#
# number of rings (size 3 to 8) (size 9 to 14) (size 15 to 20)
#    0.000    1.600    1.333    3.200    0.000    9.600 
#    7.200    0.000    0.000    0.000    0.000    0.000 
#    0.000    0.000    0.000    0.000    0.000    0.000 
#
# Total GULP energy -371898.911018 kJ/mol
# GULP energy per Si atom -12396.630367 kJ/mol
# Density = 2.241832 g / cm^3
# Si number density = 22.469459 Si / 1000 Ang^3
#
#
#
# Elastic Constant Matrix: (Units=GPa)
#
#
# Indices 1 2 3 4 5 6 
#
# 1 91.7948 11.1812 34.2702 0.0000 3.6516 0.0000
# 2 11.1812 75.7902 23.7922 0.0000 -0.7618 0.0000
# 3 34.2702 23.7922 124.7830 0.0000 -12.9464 0.0000
# 4 0.0000 0.0000 0.0000 41.7647 0.0000 -14.5732
# 5 3.6516 -0.7618 -12.9464 0.0000 35.9051 0.0000
# 6 0.0000 0.0000 0.0000 -14.5732 0.0000 6.1989
#
#
#
# Elastic Compliance Matrix: (Units=1/GPa)
#
#
# Indices 1 2 3 4 5 6 
#
# 1 0.012404 -0.000748 -0.003528 0.000000 -0.002550 0.000000
# 2 -0.000748 0.014096 -0.002538 0.000000 -0.000540 0.000000
# 3 -0.003528 -0.002538 0.009868 0.000000 0.003863 0.000000
# 4 0.000000 0.000000 0.000000 0.133259 0.000000 0.313280
# 5 -0.002550 -0.000540 0.003863 0.000000 0.029492 0.000000
# 6 0.000000 0.000000 0.000000 0.313280 0.000000 0.897814
#
#
# Mechanical properties :
#
#
# Convention : Reuss Voigt Hill
#
# Bulk Modulus (GPa) = 43.97886 47.87278 45.92582
# Shear Modulus (GPa) = 4.47171 31.64869 18.06020
#
# Velocity S-wave (km/s) = 1.41225 3.75710 2.83815
# Velocity P-wave (km/s) = 4.71958 6.33822 5.58782
#
# Compressibility (1/GPa) = 0.02273820
#
# Stress axis : x y z
#
# Youngs Moduli (GPa) = 80.62118 70.94181 101.34030
#
# Poissons Ratio (x) = 0.05305 0.35758
# Poissons Ratio (y) = 0.06029 0.25723
# Poissons Ratio (z) = 0.28447 0.18007
#
# Static dielectric constant tensor:
#      x y z
#    x 2.956160 0.000000 -0.061920 
#    y 0.000000 4.021590 0.000000 
#    z -0.061920 0.000000 4.177820 
# 
# 
# High freq. dielectric constant tensor:
#      x y z
#    x 1.874000 0.000000 -0.016270 
#    y 0.000000 1.872040 0.000000 
#    z -0.016270 0.000000 1.904700 
# 
# From -- ./inp_files/42714.got.cif
#   From: 2010.06.25/outbox.cif.g09.slc.cpg/sg15_22_cif.got.tgz:42714.got - 2010.06.28 07:06:18.
