data_PCOD8137646
_publ_section_title
;
Structure prediction by ZEFSAII (Michael W. Deem and Ramdas Pophale) SiO2 
 PCOD8137646
Probable space group: C 2/C
;
_chemical_formula_sum "Si O2"
_cell_formula_units_Z 56
_cell_length_a 17.276001
_cell_length_b 13.427321
_cell_length_c 20.577683
_cell_angle_alpha 90.000000
_cell_angle_beta 29.545398
_cell_angle_gamma 90.000000
_cell_volume 2353.832422
_symmetry_space_group_name_H-M "C 2/C"
_symmetry_group_IT_number 15
_symmetry_cell_setting 'monoclinic'
loop_
_space_group_symop_operation_xyz
x,y,z
-x,y,1/2-z
-x,-y,-z
x,-y,1/2+z
1/2+x,1/2+y,z
1/2-x,1/2+y,1/2-z
1/2-x,1/2-y,-z
1/2+x,1/2-y,1/2+z
loop_
_atom_site_type_symbol
_atom_site_label
_atom_site_fract_x
_atom_site_fract_y
_atom_site_fract_z
Si Si1 0.456882 0.822735 0.113625
Si Si2 0.589988 0.958102 0.121813
Si Si3 0.663861 0.670730 0.629502
Si Si4 0.137933 0.069810 0.526235
Si Si5 0.229441 0.950440 0.196409
Si Si6 0.133355 0.362329 0.736431
Si Si7 0.297790 0.824132 0.667814
O O1 0.574693 0.878212 0.076241
O O2 0.328098 0.900910 0.182052
O O3 0.365728 0.735238 0.218372
O O4 0.563783 0.776590 0.977540
O O5 0.500000 0.914252 0.250000
O O6 0.516383 0.066143 0.157976
O O7 0.775238 0.975906 0.001989
O O8 0.500000 0.606769 0.750000
O O9 0.695440 0.668488 0.527716
O O10 0.778059 0.604425 0.592732
O O11 0.616690 0.773005 0.698107
O O12 0.208320 0.080203 0.401997
O O13 0.953364 0.058538 0.652387
O O14 0.278091 0.064448 0.156133
O O15 0.148624 0.317795 0.796771
#
# Coordination Sequence:
#
# PCOD8137646 Si02
#       7
#     8   8   8   8   8   8   8
#     4  12  27  48  74 100 148 184 239 290 353 421
#     4  10  23  46  69 101 139 191 234 294 351 416
#     4  10  20  36  60  99 140 176 222 279 347 411
#     4  10  23  39  69 104 146 186 237 287 351 420
#     4  11  24  44  70 102 140 186 231 294 352 424
#     4  11  22  38  67 104 146 183 232 286 356 423
#     4  12  28  45  72 107 137 188 239 289 349 422
#
# _framework density 23.790987999999999
#
# number of rings (size 3 to 8) (size 9 to 14) (size 15 to 20)
#    0.000    1.143    2.857    3.000    4.000    4.000 
#    0.000    5.000    0.000    0.000    0.000    0.000 
#    0.000    0.000    0.000    0.000    0.000    0.000 
#
# Total GULP energy -346930.341045 kJ/mol
# GULP energy per Si atom -12390.369323 kJ/mol
# Density = 2.373684 g / cm^3
# Si number density = 23.790988 Si / 1000 Ang^3
#
#
#
# Elastic Constant Matrix: (Units=GPa)
#
#
# Indices 1 2 3 4 5 6 
#
# 1 87.2871 6.6127 35.1389 -0.0683 11.2015 -0.1201
# 2 6.6127 64.8866 7.0892 0.0209 9.7147 0.0356
# 3 35.1389 7.0892 138.1098 0.0474 3.5037 0.0723
# 4 -0.0683 0.0209 0.0474 -279.0692 0.0106 -484.9576
# 5 11.2015 9.7147 3.5037 0.0106 33.6606 0.0201
# 6 -0.1201 0.0356 0.0723 -484.9576 0.0201 -750.0612
#
#
#
# Elastic Compliance Matrix: (Units=1/GPa)
#
#
# Indices 1 2 3 4 5 6 
#
# 1 0.013311 -0.000405 -0.003265 -0.000004 -0.003973 0.000000
# 2 -0.000405 0.016190 -0.000614 0.000001 -0.004474 0.000000
# 3 -0.003265 -0.000614 0.008092 0.000001 0.000422 0.000001
# 4 -0.000004 0.000001 0.000001 0.028999 0.000003 -0.018750
# 5 -0.003973 -0.004474 0.000422 0.000003 0.032278 -0.000001
# 6 0.000000 0.000000 0.000001 -0.018750 -0.000001 0.010790
#
#
# Mechanical properties :
#
#
# Convention : Reuss Voigt Hill
#
# Bulk Modulus (GPa) = 34.45429 43.10724 38.78077
# Shear Modulus (GPa) = 39.09183 -182.99780 -71.95298
#
# Velocity S-wave (km/s) = 4.05796 -8.77986 -5.50540
# Velocity P-wave (km/s) = 6.03900 9.19906 4.90679
#
# Compressibility (1/GPa) = 0.02902396
#
# Stress axis : x y z
#
# Youngs Moduli (GPa) = 75.12328 61.76759 123.57544
#
# Poissons Ratio (x) = 0.02502 0.40350
# Poissons Ratio (y) = 0.03043 0.07594
# Poissons Ratio (z) = 0.24529 0.03796
#
# Static dielectric constant tensor:
#      x y z
#    x 4.290490 -0.000010 0.134030 
#    y -0.000010 4.000080 0.000010 
#    z 0.134030 0.000010 4.598040 
# 
# 
# High freq. dielectric constant tensor:
#      x y z
#    x 1.942110 0.000000 0.008270 
#    y 0.000000 1.910110 0.000000 
#    z 0.008270 0.000000 1.963190 
# 
# From -- ./inp_files/249217.got.cif
#   From: 2010.06.25/outbox.cif.g09.slc.cpg/sg15_125_cif.got.tgz:249217.got - 2010.06.28 07:06:18.
