data_PCOD8137681
_publ_section_title
;
Structure prediction by ZEFSAII (Michael W. Deem and Ramdas Pophale) SiO2 
 PCOD8137681
Probable space group: C 2/C
;
_chemical_formula_sum "Si O2"
_cell_formula_units_Z 44
_cell_length_a 5.269572
_cell_length_b 22.443141
_cell_length_c 17.693102
_cell_angle_alpha 90.000000
_cell_angle_beta 94.400749
_cell_angle_gamma 90.000000
_cell_volume 2086.318753
_symmetry_space_group_name_H-M "C 2/C"
_symmetry_group_IT_number 15
_symmetry_cell_setting 'monoclinic'
loop_
_space_group_symop_operation_xyz
x,y,z
-x,y,1/2-z
-x,-y,-z
x,-y,1/2+z
1/2+x,1/2+y,z
1/2-x,1/2+y,1/2-z
1/2-x,1/2-y,-z
1/2+x,1/2-y,1/2+z
loop_
_atom_site_type_symbol
_atom_site_label
_atom_site_fract_x
_atom_site_fract_y
_atom_site_fract_z
Si Si1 0.144396 0.062559 0.327069
Si Si2 0.790305 0.276166 0.081707
Si Si3 0.000000 0.352946 0.750000
Si Si4 0.784217 0.162794 0.544964
Si Si5 0.738053 0.477753 0.458724
Si Si6 0.390029 0.674509 0.375762
O O1 0.377451 0.104060 0.309515
O O2 0.000000 0.038820 0.250000
O O3 0.965806 0.105003 0.374626
O O4 0.231427 0.004895 0.374527
O O5 0.530549 0.311391 0.096829
O O6 0.032631 0.319900 0.085000
O O7 0.869060 0.219053 0.135612
O O8 0.750000 0.250000 0.000000
O O9 0.806502 0.312064 0.697137
O O10 0.786639 0.092337 0.546812
O O11 0.776615 0.187145 0.457378
O O12 0.500000 0.500000 0.500000
O O13 0.000000 0.500000 0.500000
#
# Coordination Sequence:
#
# PCOD8137681 Si02
#       6
#     8   8   4   8   8   8
#     4  10  23  40  61  93 124 169 209 266 322 376
#     4  10  22  36  61  90 124 157 195 254 312 373
#     4  10  22  36  62  92 124 164 214 258 320 376
#     4  11  22  38  61  96 124 162 202 257 323 367
#     4  12  24  40  67  96 130 162 216 268 309 382
#     4  10  20  36  61  89 124 157 207 260 316 368
#
# _framework density 21.089780999999999
#
# number of rings (size 3 to 8) (size 9 to 14) (size 15 to 20)
#    0.000    1.455    1.818    4.364   12.727    0.000 
#    0.000    0.000    2.000    0.000    0.000    0.000 
#    0.000    0.000    0.000    0.000    0.000    0.000 
#
# Total GULP energy -272654.057777 kJ/mol
# GULP energy per Si atom -12393.366263 kJ/mol
# Density = 2.104178 g / cm^3
# Si number density = 21.089781 Si / 1000 Ang^3
#
#
#
# Elastic Constant Matrix: (Units=GPa)
#
#
# Indices 1 2 3 4 5 6 
#
# 1 129.7891 37.3154 33.7750 0.0000 32.5131 0.0000
# 2 37.3154 115.5822 37.8037 0.0000 34.9743 0.0000
# 3 33.7750 37.8037 93.0959 0.0000 27.0542 0.0000
# 4 0.0000 0.0000 0.0000 32.7517 0.0000 3.7056
# 5 32.5131 34.9743 27.0542 0.0000 35.7462 0.0000
# 6 0.0000 0.0000 0.0000 3.7056 0.0000 30.0830
#
#
#
# Elastic Compliance Matrix: (Units=1/GPa)
#
#
# Indices 1 2 3 4 5 6 
#
# 1 0.010116 -0.000518 -0.001196 0.000000 -0.007789 0.000000
# 2 -0.000518 0.012590 -0.001900 0.000000 -0.010410 0.000000
# 3 -0.001196 -0.001900 0.014218 0.000000 -0.007814 0.000000
# 4 0.000000 0.000000 0.000000 0.030964 0.000000 -0.003814
# 5 -0.007789 -0.010410 -0.007814 0.000000 0.051159 0.000000
# 6 0.000000 0.000000 0.000000 -0.003814 0.000000 0.033711
#
#
# Mechanical properties :
#
#
# Convention : Reuss Voigt Hill
#
# Bulk Modulus (GPa) = 33.67336 61.80615 47.73975
# Shear Modulus (GPa) = 29.43172 35.02105 32.22638
#
# Velocity S-wave (km/s) = 3.73975 4.07943 3.91328
# Velocity P-wave (km/s) = 5.88634 7.18045 6.56536
#
# Compressibility (1/GPa) = 0.02969707
#
# Stress axis : x y z
#
# Youngs Moduli (GPa) = 98.85074 79.42675 70.33456
#
# Poissons Ratio (x) = 0.04112 0.08414
# Poissons Ratio (y) = 0.05118 0.13360
# Poissons Ratio (z) = 0.11825 0.15088
#
# Static dielectric constant tensor:
#      x y z
#    x 4.724460 0.000000 0.261580 
#    y 0.000000 3.647090 0.000000 
#    z 0.261580 0.000000 3.549980 
# 
# 
# High freq. dielectric constant tensor:
#      x y z
#    x 1.844750 0.000000 0.015950 
#    y 0.000000 1.821310 0.000000 
#    z 0.015950 0.000000 1.799840 
# 
# From -- ./inp_files/184938.got.cif
#   From: 2010.06.25/outbox.cif.g09.slc.cpg/sg15_93_cif.got.tgz:184938.got - 2010.06.28 07:06:18.
