data_PCOD8137809
_publ_section_title
;
Structure prediction by ZEFSAII (Michael W. Deem and Ramdas Pophale) SiO2 
 PCOD8137809
Probable space group: C 2/C
;
_chemical_formula_sum "Si O2"
_cell_formula_units_Z 48
_cell_length_a 8.957385
_cell_length_b 15.818175
_cell_length_c 24.661909
_cell_angle_alpha 90.000000
_cell_angle_beta 132.659711
_cell_angle_gamma 90.000000
_cell_volume 2569.702122
_symmetry_space_group_name_H-M "C 2/C"
_symmetry_group_IT_number 15
_symmetry_cell_setting 'monoclinic'
loop_
_space_group_symop_operation_xyz
x,y,z
-x,y,1/2-z
-x,-y,-z
x,-y,1/2+z
1/2+x,1/2+y,z
1/2-x,1/2+y,1/2-z
1/2-x,1/2-y,-z
1/2+x,1/2-y,1/2+z
loop_
_atom_site_type_symbol
_atom_site_label
_atom_site_fract_x
_atom_site_fract_y
_atom_site_fract_z
Si Si1 0.931771 0.341976 0.172297
Si Si2 0.561792 0.765716 0.556944
Si Si3 0.514552 0.918530 0.468351
Si Si4 0.236898 0.010919 0.568349
Si Si5 0.215601 0.822384 0.327144
Si Si6 0.710828 0.180869 0.412265
O O1 0.785620 0.264903 0.123475
O O2 0.806752 0.429954 0.135220
O O3 0.000000 0.337728 0.250000
O O4 0.125203 0.325571 0.182270
O O5 0.596253 0.845663 0.527160
O O6 0.459554 0.784569 0.589288
O O7 0.432178 0.694745 0.493275
O O8 0.293382 0.890587 0.390843
O O9 0.500000 0.000000 0.500000
O O10 0.674259 0.939130 0.461146
O O11 0.330212 0.918887 0.604246
O O12 0.000000 0.000000 0.500000
O O13 0.196608 0.730032 0.351139
O O14 0.000000 0.850800 0.250000
#
# Coordination Sequence:
#
# PCOD8137809 Si02
#       6
#     8   8   8   8   8   8
#     4  11  24  40  59  85 121 160 197 247 300 355
#     4  10  20  37  61  87 118 154 197 237 293 358
#     4  10  21  38  62  90 118 156 197 243 297 355
#     4  11  22  36  61  93 122 150 199 249 296 348
#     4  10  23  39  62  84 119 158 201 244 300 357
#     4  10  20  36  63  88 116 155 193 243 293 354
#
# _framework density 18.679207000000002
#
# number of rings (size 3 to 8) (size 9 to 14) (size 15 to 20)
#    0.000    1.667    3.333    1.000    2.333    4.000 
#    0.000    0.833    3.667    0.000    0.000    0.000 
#    0.000    0.000    0.000    0.000    0.000    0.000 
#
# Total GULP energy -297518.335274 kJ/mol
# GULP energy per Si atom -12396.597303 kJ/mol
# Density = 1.863669 g / cm^3
# Si number density = 18.679207 Si / 1000 Ang^3
#
#
#
# Elastic Constant Matrix: (Units=GPa)
#
#
# Indices 1 2 3 4 5 6 
#
# 1 87.6003 49.4326 62.4000 0.0000 6.6336 0.0000
# 2 49.4326 137.0058 71.5988 0.0000 -7.2171 0.0000
# 3 62.4000 71.5988 151.4867 0.0000 6.8646 0.0000
# 4 0.0000 0.0000 0.0000 12.5535 0.0000 8.5343
# 5 6.6336 -7.2171 6.8646 0.0000 33.2971 0.0000
# 6 0.0000 0.0000 0.0000 8.5343 0.0000 24.3417
#
#
#
# Elastic Compliance Matrix: (Units=1/GPa)
#
#
# Indices 1 2 3 4 5 6 
#
# 1 0.017550 -0.003717 -0.005327 0.000000 -0.003204 0.000000
# 2 -0.003717 0.010803 -0.003749 0.000000 0.003855 0.000000
# 3 -0.005327 -0.003749 0.010656 0.000000 -0.001948 0.000000
# 4 0.000000 0.000000 0.000000 0.104589 0.000000 -0.036669
# 5 -0.003204 0.003855 -0.001948 0.000000 0.031908 0.000000
# 6 0.000000 0.000000 0.000000 -0.036669 0.000000 0.053938
#
#
# Mechanical properties :
#
#
# Convention : Reuss Voigt Hill
#
# Bulk Modulus (GPa) = 74.50646 82.55062 78.52854
# Shear Modulus (GPa) = 19.26745 26.88254 23.07499
#
# Velocity S-wave (km/s) = 3.21517 3.79775 3.51854
# Velocity P-wave (km/s) = 7.33192 7.96997 7.65759
#
# Compressibility (1/GPa) = 0.01342166
#
# Stress axis : x y z
#
# Youngs Moduli (GPa) = 56.97888 92.57102 93.84385
#
# Poissons Ratio (x) = 0.34409 0.49993
# Poissons Ratio (y) = 0.21179 0.35185
# Poissons Ratio (z) = 0.30354 0.34708
#
# Static dielectric constant tensor:
#      x y z
#    x 3.571710 0.000000 -0.081160 
#    y 0.000000 4.208300 0.000000 
#    z -0.081160 0.000000 3.424890 
# 
# 
# High freq. dielectric constant tensor:
#      x y z
#    x 1.734500 0.000000 -0.002690 
#    y 0.000000 1.730640 0.000000 
#    z -0.002690 0.000000 1.719820 
# 
# From -- ./inp_files/189847.got.cif
#   From: 2010.06.25/outbox.cif.g09.slc.cpg/sg15_95_cif.got.tgz:189847.got - 2010.06.28 07:06:18.
