data_PCOD8137184
_publ_section_title
;
Structure prediction by ZEFSAII (Michael W. Deem and Ramdas Pophale) SiO2 
 PCOD8137184
Probable space group: C 2/C
;
_chemical_formula_sum "Si O2"
_cell_formula_units_Z 48
_cell_length_a 19.009091
_cell_length_b 9.896648
_cell_length_c 20.216955
_cell_angle_alpha 90.000000
_cell_angle_beta 38.756278
_cell_angle_gamma 90.000000
_cell_volume 2380.925139
_symmetry_space_group_name_H-M "C 2/C"
_symmetry_group_IT_number 15
_symmetry_cell_setting 'monoclinic'
loop_
_space_group_symop_operation_xyz
x,y,z
-x,y,1/2-z
-x,-y,-z
x,-y,1/2+z
1/2+x,1/2+y,z
1/2-x,1/2+y,1/2-z
1/2-x,1/2-y,-z
1/2+x,1/2-y,1/2+z
loop_
_atom_site_type_symbol
_atom_site_label
_atom_site_fract_x
_atom_site_fract_y
_atom_site_fract_z
Si Si1 0.578714 0.573265 0.355948
Si Si2 0.507892 0.067946 0.422056
Si Si3 0.653316 0.153359 0.762876
Si Si4 0.155906 0.990722 0.434874
Si Si5 0.832262 0.199401 0.739952
Si Si6 0.701116 0.247455 0.963372
O O1 0.610375 0.693903 0.282535
O O2 0.659644 0.569604 0.361284
O O3 0.453947 0.601927 0.476134
O O4 0.587014 0.431162 0.312007
O O5 0.602011 0.185623 0.349831
O O6 0.389107 0.128110 0.483683
O O7 0.500000 0.000000 0.500000
O O8 0.547415 0.948009 0.344203
O O9 0.734997 0.106951 0.642949
O O10 0.720358 0.154308 0.783214
O O11 0.149008 0.103189 0.496305
O O12 0.802681 0.242248 0.836053
O O13 0.750000 0.250000 0.000000
#
# Coordination Sequence:
#
# PCOD8137184 Si02
#       6
#     8   8   8   8   8   8
#     4  10  20  35  63  93 126 157 207 278 332 372
#     4  12  23  39  66  99 128 163 229 273 329 384
#     4  11  21  34  64  96 125 156 212 283 323 378
#     4  10  20  38  57  91 127 160 212 264 327 379
#     4  11  21  39  62  99 128 166 214 273 331 391
#     4  12  25  42  63  93 134 177 219 265 327 412
#
# _framework density 20.160232000000001
#
# number of rings (size 3 to 8) (size 9 to 14) (size 15 to 20)
#    0.000    1.000    6.667    1.000    4.667    0.667 
#    0.000    0.000    0.000    6.000    0.000    0.000 
#    0.000    0.000    0.000    0.000    0.000    0.000 
#
# Total GULP energy -297456.177985 kJ/mol
# GULP energy per Si atom -12394.007416 kJ/mol
# Density = 2.011435 g / cm^3
# Si number density = 20.160232 Si / 1000 Ang^3
#
#
#
# Elastic Constant Matrix: (Units=GPa)
#
#
# Indices 1 2 3 4 5 6 
#
# 1 80.7821 29.5331 39.8303 0.0000 7.6834 0.0000
# 2 29.5331 151.4901 55.6706 0.0000 -9.5116 0.0000
# 3 39.8303 55.6706 108.7751 0.0000 -9.7898 0.0000
# 4 0.0000 0.0000 0.0000 43.6746 0.0000 -5.3638
# 5 7.6834 -9.5116 -9.7898 0.0000 21.8159 0.0000
# 6 0.0000 0.0000 0.0000 -5.3638 0.0000 18.9117
#
#
#
# Elastic Compliance Matrix: (Units=1/GPa)
#
#
# Indices 1 2 3 4 5 6 
#
# 1 0.016939 -0.001606 -0.006232 0.000000 -0.009463 0.000000
# 2 -0.001606 0.008347 -0.003444 0.000000 0.002659 0.000000
# 3 -0.006232 -0.003444 0.013860 0.000000 0.006913 0.000000
# 4 0.000000 0.000000 0.000000 0.023723 0.000000 0.006728
# 5 -0.009463 0.002659 0.006913 0.000000 0.053432 0.000000
# 6 0.000000 0.000000 0.000000 0.006728 0.000000 0.054786
#
#
# Mechanical properties :
#
#
# Convention : Reuss Voigt Hill
#
# Bulk Modulus (GPa) = 60.31114 65.67946 62.99530
# Shear Modulus (GPa) = 25.10294 31.28133 28.19214
#
# Velocity S-wave (km/s) = 3.53253 3.94335 3.74358
# Velocity P-wave (km/s) = 6.82782 7.30636 7.07114
#
# Compressibility (1/GPa) = 0.01658069
#
# Stress axis : x y z
#
# Youngs Moduli (GPa) = 59.03524 119.80385 72.14810
#
# Poissons Ratio (x) = 0.19242 0.44964
# Poissons Ratio (y) = 0.09482 0.24851
# Poissons Ratio (z) = 0.36792 0.41266
#
# Static dielectric constant tensor:
#      x y z
#    x 3.045020 0.000000 -0.254940 
#    y 0.000000 3.939620 0.000000 
#    z -0.254940 0.000000 3.844430 
# 
# 
# High freq. dielectric constant tensor:
#      x y z
#    x 1.713870 0.000000 -0.028520 
#    y 0.000000 1.803820 0.000000 
#    z -0.028520 0.000000 1.802560 
# 
# From -- ./inp_files/251780.got.cif
#   From: 2010.06.25/outbox.cif.g09.slc.cpg/sg15_126_cif.got.tgz:251780.got - 2010.06.28 07:06:18.
