data_PCOD8137990
_publ_section_title
;
Structure prediction by ZEFSAII (Michael W. Deem and Ramdas Pophale) SiO2 
 PCOD8137990
Probable space group: C 2/C
;
_chemical_formula_sum "Si O2"
_cell_formula_units_Z 64
_cell_length_a 26.680249
_cell_length_b 13.546385
_cell_length_c 9.185826
_cell_angle_alpha 90.000000
_cell_angle_beta 101.119520
_cell_angle_gamma 90.000000
_cell_volume 3257.624369
_symmetry_space_group_name_H-M "C 2/C"
_symmetry_group_IT_number 15
_symmetry_cell_setting 'monoclinic'
loop_
_space_group_symop_operation_xyz
x,y,z
-x,y,1/2-z
-x,-y,-z
x,-y,1/2+z
1/2+x,1/2+y,z
1/2-x,1/2+y,1/2-z
1/2-x,1/2-y,-z
1/2+x,1/2-y,1/2+z
loop_
_atom_site_type_symbol
_atom_site_label
_atom_site_fract_x
_atom_site_fract_y
_atom_site_fract_z
Si Si1 0.055912 0.546687 0.002308
Si Si2 0.207678 0.306403 0.293086
Si Si3 0.126356 0.327086 0.732020
Si Si4 0.112268 0.349834 0.042771
Si Si5 0.275092 0.540259 0.987266
Si Si6 0.761119 0.613823 0.231656
Si Si7 0.555550 0.778941 0.275593
Si Si8 0.855962 0.809619 0.515363
O O1 0.076980 0.610542 0.150150
O O2 0.097256 0.461805 0.995358
O O3 0.056368 0.616260 0.860535
O O4 0.000000 0.500000 0.000000
O O5 0.164753 0.345685 0.160377
O O6 0.241672 0.398111 0.354542
O O7 0.242988 0.226257 0.234050
O O8 0.185263 0.262578 0.431142
O O9 0.177857 0.392664 0.753405
O O10 0.133409 0.227905 0.641437
O O11 0.116807 0.292520 0.892262
O O12 0.068340 0.299173 0.114417
O O13 0.268428 0.428379 0.927720
O O14 0.255398 0.548262 0.139823
O O15 0.333810 0.579086 0.005818
O O16 0.500000 0.730814 0.250000
O O17 0.592351 0.695820 0.362493
#
# Coordination Sequence:
#
# PCOD8137990 Si02
#       8
#     8   8   8   8   8   8   8   8
#     4  11  22  37  52  76 116 151 188 228 276 336
#     4  10  20  40  56  75 116 151 192 224 279 338
#     4  11  22  34  51  80 110 147 191 221 277 322
#     4  11  23  32  52  78 109 150 181 236 265 322
#     4  11  21  38  57  82 110 148 194 231 278 328
#     4  11  23  36  58  82 110 156 190 231 277 337
#     4  10  20  37  56  77 106 149 190 222 281 338
#     4   9  19  39  57  72 112 149 180 228 279 329
#
# _framework density 19.646218000000001
#
# number of rings (size 3 to 8) (size 9 to 14) (size 15 to 20)
#    0.000    1.500    3.750    2.250    3.500    1.500 
#    0.000    0.000    0.000    0.000    0.000    7.875 
#    0.000    0.000    0.000    0.125    0.000    0.000 
#
# Total GULP energy -396806.277685 kJ/mol
# GULP energy per Si atom -12400.196178 kJ/mol
# Density = 1.960150 g / cm^3
# Si number density = 19.646218 Si / 1000 Ang^3
#
#
#
# Elastic Constant Matrix: (Units=GPa)
#
#
# Indices 1 2 3 4 5 6 
#
# 1 120.8355 19.3963 39.8306 0.0000 5.2881 0.0000
# 2 19.3963 16.9014 7.7002 0.0000 3.0617 0.0000
# 3 39.8306 7.7002 97.2817 0.0000 -20.5297 0.0000
# 4 0.0000 0.0000 0.0000 21.8638 0.0000 5.7920
# 5 5.2881 3.0617 -20.5297 0.0000 29.1132 0.0000
# 6 0.0000 0.0000 0.0000 5.7920 0.0000 26.0961
#
#
#
# Elastic Compliance Matrix: (Units=1/GPa)
#
#
# Indices 1 2 3 4 5 6 
#
# 1 0.011784 -0.010444 -0.004956 0.000000 -0.004537 0.000000
# 2 -0.010444 0.074168 -0.003337 0.000000 -0.008256 0.000000
# 3 -0.004956 -0.003337 0.015081 0.000000 0.011886 0.000000
# 4 0.000000 0.000000 0.000000 0.048595 0.000000 -0.010786
# 5 -0.004537 -0.008256 0.011886 0.000000 0.044422 0.000000
# 6 0.000000 0.000000 0.000000 -0.010786 0.000000 0.040714
#
#
# Mechanical properties :
#
#
# Convention : Reuss Voigt Hill
#
# Bulk Modulus (GPa) = 15.73307 40.98587 28.35947
# Shear Modulus (GPa) = 17.04016 26.62070 21.83043
#
# Velocity S-wave (km/s) = 2.94828 3.68503 3.33705
# Velocity P-wave (km/s) = 4.42892 6.24605 5.41427
#
# Compressibility (1/GPa) = 0.06356039
#
# Stress axis : x y z
#
# Youngs Moduli (GPa) = 84.85925 13.48282 66.30958
#
# Poissons Ratio (x) = 0.14082 0.32860
# Poissons Ratio (y) = 0.88629 0.22126
# Poissons Ratio (z) = 0.42052 0.04499
#
# Static dielectric constant tensor:
#      x y z
#    x 3.746570 0.000000 0.101920 
#    y 0.000000 3.229380 0.000000 
#    z 0.101920 0.000000 3.729110 
# 
# 
# High freq. dielectric constant tensor:
#      x y z
#    x 1.765590 0.000000 0.003110 
#    y 0.000000 1.719580 0.000000 
#    z 0.003110 0.000000 1.779510 
# 
# From -- ./inp_files/66236.got.cif
#   From: 2010.06.25/outbox.cif.g09.slc.cpg/sg15_34_cif.got.tgz:66236.got - 2010.06.28 07:06:18.
