data_PCOD8137036
_publ_section_title
;
Structure prediction by ZEFSAII (Michael W. Deem and Ramdas Pophale) SiO2 
 PCOD8137036
Probable space group: C 2/C
;
_chemical_formula_sum "Si O2"
_cell_formula_units_Z 56
_cell_length_a 15.953903
_cell_length_b 11.794966
_cell_length_c 18.184238
_cell_angle_alpha 90.000000
_cell_angle_beta 53.676634
_cell_angle_gamma 90.000000
_cell_volume 2756.925227
_symmetry_space_group_name_H-M "C 2/C"
_symmetry_group_IT_number 15
_symmetry_cell_setting 'monoclinic'
loop_
_space_group_symop_operation_xyz
x,y,z
-x,y,1/2-z
-x,-y,-z
x,-y,1/2+z
1/2+x,1/2+y,z
1/2-x,1/2+y,1/2-z
1/2-x,1/2-y,-z
1/2+x,1/2-y,1/2+z
loop_
_atom_site_type_symbol
_atom_site_label
_atom_site_fract_x
_atom_site_fract_y
_atom_site_fract_z
Si Si1 0.552081 0.900362 0.930265
Si Si2 0.567918 0.275252 0.919087
Si Si3 0.907948 0.333348 0.744159
Si Si4 0.748009 0.829520 0.245574
Si Si5 0.781226 0.025799 0.123925
Si Si6 0.369209 0.643918 0.459511
Si Si7 0.246512 0.677965 0.392402
O O1 0.539070 0.905883 0.849184
O O2 0.674509 0.911946 0.886860
O O3 0.503941 0.779351 0.980412
O O4 0.500000 0.000000 0.000000
O O5 0.640503 0.174927 0.847537
O O6 0.639955 0.370875 0.915194
O O7 0.493947 0.343851 0.900484
O O8 0.843248 0.228846 0.740970
O O9 0.832968 0.418882 0.828115
O O10 0.000000 0.288725 0.750000
O O11 0.713753 0.765558 0.188851
O O12 0.781848 0.955009 0.200985
O O13 0.816634 0.953526 0.035872
O O14 0.341513 0.620109 0.387853
O O15 0.325043 0.764957 0.507846
#
# Coordination Sequence:
#
# PCOD8137036 Si02
#       7
#     8   8   8   8   8   8   8
#     4  10  20  35  59  82 119 155 195 243 302 352
#     4  10  20  35  60  85 113 157 201 240 296 362
#     4  10  22  38  59  86 118 156 204 248 298 376
#     4   9  19  38  57  78 119 154 191 248 308 351
#     4  10  20  37  61  82 116 159 199 245 304 360
#     4   9  17  31  54  84 113 141 196 243 293 348
#     4   8  17  32  50  80 114 144 182 248 291 343
#
# _framework density 20.312486
#
# number of rings (size 3 to 8) (size 9 to 14) (size 15 to 20)
#    0.000    2.571    0.000    2.143    2.000    0.571 
#    5.143    2.857   25.143    0.000    0.000    0.000 
#    0.000    0.000    0.000    0.000    0.000    0.000 
#
# Total GULP energy -346898.350780 kJ/mol
# GULP energy per Si atom -12389.226814 kJ/mol
# Density = 2.026625 g / cm^3
# Si number density = 20.312486 Si / 1000 Ang^3
#
#
#
# Elastic Constant Matrix: (Units=GPa)
#
#
# Indices 1 2 3 4 5 6 
#
# 1 136.0125 23.2251 44.5730 0.0000 7.9611 0.0000
# 2 23.2251 56.7961 2.7571 0.0000 -3.0067 0.0000
# 3 44.5730 2.7571 51.8960 0.0000 0.6362 0.0000
# 4 0.0000 0.0000 0.0000 30.0123 0.0000 -0.6659
# 5 7.9611 -3.0067 0.6362 0.0000 28.8887 0.0000
# 6 0.0000 0.0000 0.0000 -0.6659 0.0000 11.7209
#
#
#
# Elastic Compliance Matrix: (Units=1/GPa)
#
#
# Indices 1 2 3 4 5 6 
#
# 1 0.011427 -0.004389 -0.009540 0.000000 -0.003396 0.000000
# 2 -0.004389 0.019439 0.002698 0.000000 0.003173 0.000000
# 3 -0.009540 0.002698 0.027291 0.000000 0.002309 0.000000
# 4 0.000000 0.000000 0.000000 0.033362 0.000000 0.001895
# 5 -0.003396 0.003173 0.002309 0.000000 0.035831 0.000000
# 6 0.000000 0.000000 0.000000 0.001895 0.000000 0.085425
#
#
# Mechanical properties :
#
#
# Convention : Reuss Voigt Hill
#
# Bulk Modulus (GPa) = 28.01471 42.86833 35.44152
# Shear Modulus (GPa) = 20.23193 25.73433 22.98313
#
# Velocity S-wave (km/s) = 3.15942 3.56325 3.36739
# Velocity P-wave (km/s) = 5.20875 6.17083 5.71009
#
# Compressibility (1/GPa) = 0.03569553
#
# Stress axis : x y z
#
# Youngs Moduli (GPa) = 87.51393 51.44365 36.64203
#
# Poissons Ratio (x) = 0.22580 0.34955
# Poissons Ratio (y) = 0.38413 -0.09887
# Poissons Ratio (z) = 0.83484 -0.13881
#
# Static dielectric constant tensor:
#      x y z
#    x 3.887500 0.000000 -0.119170 
#    y 0.000000 3.602790 0.000000 
#    z -0.119170 0.000000 3.803020 
# 
# 
# High freq. dielectric constant tensor:
#      x y z
#    x 1.787560 0.000000 -0.008550 
#    y 0.000000 1.775080 0.000000 
#    z -0.008550 0.000000 1.791510 
# 
# From -- ./inp_files/204387.got.cif
#   From: 2010.06.25/outbox.cif.g09.slc.cpg/sg15_103_cif.got.tgz:204387.got - 2010.06.28 07:06:18.
