data_PCOD8137230
_publ_section_title
;
Structure prediction by ZEFSAII (Michael W. Deem and Ramdas Pophale) SiO2 
 PCOD8137230
Probable space group: C 2/C
;
_chemical_formula_sum "Si O2"
_cell_formula_units_Z 52
_cell_length_a 25.843115
_cell_length_b 14.781716
_cell_length_c 19.814606
_cell_angle_alpha 90.000000
_cell_angle_beta 157.503142
_cell_angle_gamma 90.000000
_cell_volume 2896.258455
_symmetry_space_group_name_H-M "C 2/C"
_symmetry_group_IT_number 15
_symmetry_cell_setting 'monoclinic'
loop_
_space_group_symop_operation_xyz
x,y,z
-x,y,1/2-z
-x,-y,-z
x,-y,1/2+z
1/2+x,1/2+y,z
1/2-x,1/2+y,1/2-z
1/2-x,1/2-y,-z
1/2+x,1/2-y,1/2+z
loop_
_atom_site_type_symbol
_atom_site_label
_atom_site_fract_x
_atom_site_fract_y
_atom_site_fract_z
Si Si1 0.390567 0.499202 0.567864
Si Si2 0.790202 0.230668 0.745006
Si Si3 0.500000 0.673798 0.750000
Si Si4 0.117416 0.037112 0.595883
Si Si5 0.469413 0.789667 0.834455
Si Si6 0.362453 0.913438 0.885496
Si Si7 0.095335 0.517913 0.213523
O O1 0.500000 0.452443 0.750000
O O2 0.395854 0.608995 0.583127
O O3 0.424984 0.471509 0.533368
O O4 0.238397 0.472507 0.405934
O O5 0.845406 0.139648 0.844200
O O6 0.628940 0.226592 0.540214
O O7 0.822754 0.308154 0.839699
O O8 0.873093 0.250420 0.776707
O O9 0.423739 0.736560 0.712149
O O10 0.241571 0.974638 0.765832
O O11 0.000000 0.000000 0.500000
O O12 0.446575 0.896362 0.791104
O O13 0.399735 0.939907 0.854747
O O14 0.488060 0.935694 0.086556
#
# Coordination Sequence:
#
# PCOD8137230 Si02
#       7
#     8   8   4   8   8   8   8
#     4   9  21  36  54  79 111 156 185 229 292 355
#     4  11  22  34  60  89 116 152 196 249 297 335
#     4  10  20  36  52  82 118 150 184 226 290 376
#     4  11  20  37  57  86 119 146 198 251 288 344
#     4  11  21  35  54  89 116 153 192 234 300 355
#     4   9  18  33  54  83 110 146 190 241 290 337
#     4   9  17  34  54  75 113 147 189 232 281 354
#
# _framework density 17.954198999999999
#
# number of rings (size 3 to 8) (size 9 to 14) (size 15 to 20)
#    0.462    1.538    1.538    4.615    2.154    2.462 
#    0.000    0.000    0.000    0.923    2.000    0.000 
#    0.000    0.000    0.000    0.000    0.000    0.000 
#
# Total GULP energy -322197.392153 kJ/mol
# GULP energy per Si atom -12392.207390 kJ/mol
# Density = 1.791333 g / cm^3
# Si number density = 17.954199 Si / 1000 Ang^3
#
#
#
# Elastic Constant Matrix: (Units=GPa)
#
#
# Indices 1 2 3 4 5 6 
#
# 1 72.3379 30.8066 40.5080 0.0002 2.7560 0.0001
# 2 30.8066 102.8745 24.4630 0.0001 -1.3592 0.0001
# 3 40.5080 24.4630 106.9477 0.0000 6.0014 0.0000
# 4 0.0002 0.0001 0.0000 25.7175 0.0000 -0.4906
# 5 2.7560 -1.3592 6.0014 0.0000 21.7174 0.0000
# 6 0.0001 0.0001 0.0000 -0.4906 0.0000 26.6867
#
#
#
# Elastic Compliance Matrix: (Units=1/GPa)
#
#
# Indices 1 2 3 4 5 6 
#
# 1 0.019168 -0.004272 -0.006228 0.000000 -0.000979 0.000000
# 2 -0.004272 0.011269 -0.001046 0.000000 0.001536 0.000000
# 3 -0.006228 -0.001046 0.012095 0.000000 -0.002618 0.000000
# 4 0.000000 0.000000 0.000000 0.038898 0.000000 0.000715
# 5 -0.000979 0.001536 -0.002618 0.000000 0.046990 0.000000
# 6 0.000000 0.000000 0.000000 0.000715 0.000000 0.037485
#
#
# Mechanical properties :
#
#
# Convention : Reuss Voigt Hill
#
# Bulk Modulus (GPa) = 51.43836 52.63505 52.03671
# Shear Modulus (GPa) = 25.57845 27.24983 26.41414
#
# Velocity S-wave (km/s) = 3.77855 3.90005 3.83978
# Velocity P-wave (km/s) = 6.91003 7.04701 6.97886
#
# Compressibility (1/GPa) = 0.01944074
#
# Stress axis : x y z
#
# Youngs Moduli (GPa) = 52.16949 88.74027 82.67562
#
# Poissons Ratio (x) = 0.37910 0.51492
# Poissons Ratio (y) = 0.22287 0.08646
# Poissons Ratio (z) = 0.32492 0.09280
#
# Static dielectric constant tensor:
#      x y z
#    x 3.147180 0.000000 0.169740 
#    y 0.000000 3.404900 0.000000 
#    z 0.169740 0.000000 3.816840 
# 
# 
# High freq. dielectric constant tensor:
#      x y z
#    x 1.670810 0.000000 0.018940 
#    y 0.000000 1.685640 0.000000 
#    z 0.018940 0.000000 1.704700 
# 
# From -- ./inp_files/257810.got.cif
#   From: 2010.06.25/outbox.cif.g09.slc.cpg/sg15_129_cif.got.tgz:257810.got - 2010.06.28 07:06:18.
