data_PCOD8137218
_publ_section_title
;
Structure prediction by ZEFSAII (Michael W. Deem and Ramdas Pophale) SiO2 
 PCOD8137218
Probable space group: C 2/C
;
_chemical_formula_sum "Si O2"
_cell_formula_units_Z 64
_cell_length_a 29.913760
_cell_length_b 13.349370
_cell_length_c 9.764670
_cell_angle_alpha 90.000000
_cell_angle_beta 66.087432
_cell_angle_gamma 90.000000
_cell_volume 3564.625967
_symmetry_space_group_name_H-M "C 2/C"
_symmetry_group_IT_number 15
_symmetry_cell_setting 'monoclinic'
loop_
_space_group_symop_operation_xyz
x,y,z
-x,y,1/2-z
-x,-y,-z
x,-y,1/2+z
1/2+x,1/2+y,z
1/2-x,1/2+y,1/2-z
1/2-x,1/2-y,-z
1/2+x,1/2-y,1/2+z
loop_
_atom_site_type_symbol
_atom_site_label
_atom_site_fract_x
_atom_site_fract_y
_atom_site_fract_z
Si Si1 0.623949 0.780807 0.394257
Si Si2 0.311071 0.394347 0.610401
Si Si3 0.707259 0.795576 0.760404
Si Si4 0.211758 0.071967 0.664808
Si Si5 0.477006 0.139177 0.419709
Si Si6 0.858803 0.365106 0.417896
Si Si7 0.460004 0.089509 0.913194
Si Si8 0.822481 0.419419 0.959906
O O1 0.640908 0.670865 0.419275
O O2 0.565256 0.784977 0.480194
O O3 0.639971 0.797237 0.218051
O O4 0.647504 0.865308 0.459763
O O5 0.264353 0.322412 0.687990
O O6 0.311591 0.487445 0.711729
O O7 0.312940 0.435048 0.453433
O O8 0.701008 0.677963 0.747648
O O9 0.679485 0.851548 0.672447
O O10 0.684802 0.825412 0.933354
O O11 0.269433 0.053101 0.583723
O O12 0.500000 0.176889 0.250000
O O13 0.522072 0.139118 0.468685
O O14 0.452785 0.029314 0.439320
O O15 0.909582 0.357624 0.436285
O O16 0.849740 0.479155 0.383202
O O17 0.500000 0.112919 0.750000
#
# Coordination Sequence:
#
# PCOD8137218 Si02
#       8
#     8   8   8   8   8   8   8   8
#     4  12  23  38  56  88 121 158 201 245 292 360
#     4  11  24  40  61  84 121 159 204 251 293 348
#     4  11  23  39  57  87 121 167 200 242 295 347
#     4  11  23  41  58  83 123 161 203 253 286 340
#     4  10  22  34  58  82 117 156 193 236 300 366
#     4  12  24  33  60  88 124 161 199 239 294 362
#     4  10  20  36  49  84 121 153 188 240 294 354
#     4  11  21  37  55  85 125 165 199 237 291 346
#
# _framework density 17.954198000000002
#
# number of rings (size 3 to 8) (size 9 to 14) (size 15 to 20)
#    0.000    1.000    6.250    1.500    5.250    0.500 
#    0.000    0.000    0.000    0.000    0.000    4.375 
#    0.000    0.000    0.000    0.000    0.000    0.000 
#
# Total GULP energy -396992.682825 kJ/mol
# GULP energy per Si atom -12406.021338 kJ/mol
# Density = 1.791333 g / cm^3
# Si number density = 17.954198 Si / 1000 Ang^3
#
#
#
# Elastic Constant Matrix: (Units=GPa)
#
#
# Indices 1 2 3 4 5 6 
#
# 1 60.1339 24.8945 26.1651 0.0000 6.7454 0.0000
# 2 24.8945 89.1409 39.3237 0.0000 2.9248 0.0000
# 3 26.1651 39.3237 95.7177 0.0000 10.2535 0.0000
# 4 0.0000 0.0000 0.0000 21.2130 0.0000 -1.4190
# 5 6.7454 2.9248 10.2535 0.0000 22.3813 0.0000
# 6 0.0000 0.0000 0.0000 -1.4190 0.0000 23.0474
#
#
#
# Elastic Compliance Matrix: (Units=1/GPa)
#
#
# Indices 1 2 3 4 5 6 
#
# 1 0.020237 -0.003993 -0.003464 0.000000 -0.003990 0.000000
# 2 -0.003993 0.014504 -0.005040 0.000000 0.001617 0.000000
# 3 -0.003464 -0.005040 0.013968 0.000000 -0.004696 0.000000
# 4 0.000000 0.000000 0.000000 0.047336 0.000000 0.002914
# 5 -0.003990 0.001617 -0.004696 0.000000 0.047823 0.000000
# 6 0.000000 0.000000 0.000000 0.002914 0.000000 0.043568
#
#
# Mechanical properties :
#
#
# Convention : Reuss Voigt Hill
#
# Bulk Modulus (GPa) = 42.16776 47.30657 44.73717
# Shear Modulus (GPa) = 22.69264 23.63563 23.16414
#
# Velocity S-wave (km/s) = 3.55902 3.63221 3.59580
# Velocity P-wave (km/s) = 6.35815 6.63297 6.49702
#
# Compressibility (1/GPa) = 0.02371480
#
# Stress axis : x y z
#
# Youngs Moduli (GPa) = 49.41347 68.94820 71.59113
#
# Poissons Ratio (x) = 0.27528 0.24801
# Poissons Ratio (y) = 0.19729 0.36085
# Poissons Ratio (z) = 0.17118 0.34752
#
# Static dielectric constant tensor:
#      x y z
#    x 3.387100 0.000000 0.138300 
#    y 0.000000 3.100680 0.000000 
#    z 0.138300 0.000000 3.425110 
# 
# 
# High freq. dielectric constant tensor:
#      x y z
#    x 1.692790 0.000000 0.013890 
#    y 0.000000 1.667360 0.000000 
#    z 0.013890 0.000000 1.707530 
# 
# From -- ./inp_files/66202.got.cif
#   From: 2010.06.25/outbox.cif.g09.slc.cpg/sg15_34_cif.got.tgz:66202.got - 2010.06.28 07:06:18.
