data_PCOD8137761
_publ_section_title
;
Structure prediction by ZEFSAII (Michael W. Deem and Ramdas Pophale) SiO2 
 PCOD8137761
Probable space group: C 2/C
;
_chemical_formula_sum "Si O2"
_cell_formula_units_Z 48
_cell_length_a 17.960791
_cell_length_b 8.250526
_cell_length_c 16.179174
_cell_angle_alpha 90.000000
_cell_angle_beta 88.999820
_cell_angle_gamma 90.000000
_cell_volume 2397.161357
_symmetry_space_group_name_H-M "C 2/C"
_symmetry_group_IT_number 15
_symmetry_cell_setting 'monoclinic'
loop_
_space_group_symop_operation_xyz
x,y,z
-x,y,1/2-z
-x,-y,-z
x,-y,1/2+z
1/2+x,1/2+y,z
1/2-x,1/2+y,1/2-z
1/2-x,1/2-y,-z
1/2+x,1/2-y,1/2+z
loop_
_atom_site_type_symbol
_atom_site_label
_atom_site_fract_x
_atom_site_fract_y
_atom_site_fract_z
Si Si1 0.583362 0.378508 0.771628
Si Si2 0.905028 0.342054 0.509880
Si Si3 0.307389 0.603790 0.993362
Si Si4 0.932439 0.700672 0.558051
Si Si5 0.330679 0.630998 0.634330
Si Si6 0.687455 0.686112 0.124068
O O1 0.500000 0.431118 0.750000
O O2 0.582197 0.250528 0.846884
O O3 0.631802 0.539143 0.789770
O O4 0.623025 0.296131 0.693076
O O5 0.898335 0.524815 0.541087
O O6 0.898207 0.227394 0.589676
O O7 0.835599 0.303213 0.451396
O O8 0.980447 0.298524 0.461498
O O9 0.301665 0.498309 0.909476
O O10 0.250000 0.750000 0.000000
O O11 0.391738 0.673360 0.997587
O O12 0.291726 0.495176 0.073486
O O13 0.265115 0.754169 0.663086
#
# Coordination Sequence:
#
# PCOD8137761 Si02
#       6
#     8   8   8   8   8   8
#     4  11  24  41  60  89 127 166 202 252 316 371
#     4  10  20  39  63  89 120 153 209 250 304 357
#     4  10  20  36  62  91 117 154 204 248 299 364
#     4  10  21  37  63  89 119 161 198 255 301 368
#     4  10  23  37  60  86 118 157 198 248 301 364
#     4  11  22  39  64  89 123 159 201 259 306 367
#
# _framework density 20.023685
#
# number of rings (size 3 to 8) (size 9 to 14) (size 15 to 20)
#    0.000    1.667    1.667    4.000    2.333    6.000 
#    0.000    2.500    0.000    0.000    0.000    0.000 
#    0.000    0.000    0.000    0.000    0.000    0.000 
#
# Total GULP energy -297586.472429 kJ/mol
# GULP energy per Si atom -12399.436351 kJ/mol
# Density = 1.997811 g / cm^3
# Si number density = 20.023685 Si / 1000 Ang^3
#
#
#
# Elastic Constant Matrix: (Units=GPa)
#
#
# Indices 1 2 3 4 5 6 
#
# 1 101.0047 60.0139 44.6605 0.0000 3.2761 0.0000
# 2 60.0139 112.8028 37.3126 0.0000 7.0322 0.0000
# 3 44.6605 37.3126 72.0656 0.0000 0.0886 0.0000
# 4 0.0000 0.0000 0.0000 23.5769 0.0000 1.2342
# 5 3.2761 7.0322 0.0886 0.0000 24.2911 0.0000
# 6 0.0000 0.0000 0.0000 1.2342 0.0000 39.2750
#
#
#
# Elastic Compliance Matrix: (Units=1/GPa)
#
#
# Indices 1 2 3 4 5 6 
#
# 1 0.017018 -0.006691 -0.007082 0.000000 -0.000332 0.000000
# 2 -0.006691 0.013563 -0.002872 0.000000 -0.003013 0.000000
# 3 -0.007082 -0.002872 0.019750 0.000000 0.001714 0.000000
# 4 0.000000 0.000000 0.000000 0.042484 0.000000 -0.001335
# 5 -0.000332 -0.003013 0.001714 0.000000 0.042078 0.000000
# 6 0.000000 0.000000 0.000000 -0.001335 0.000000 0.025503
#
#
# Mechanical properties :
#
#
# Convention : Reuss Voigt Hill
#
# Bulk Modulus (GPa) = 58.68106 63.31635 60.99870
# Shear Modulus (GPa) = 25.07946 27.02101 26.05023
#
# Velocity S-wave (km/s) = 3.54289 3.67747 3.61081
# Velocity P-wave (km/s) = 6.79011 7.05132 6.92195
#
# Compressibility (1/GPa) = 0.01704127
#
# Stress axis : x y z
#
# Youngs Moduli (GPa) = 58.76088 73.73235 50.63322
#
# Poissons Ratio (x) = 0.49333 0.35858
# Poissons Ratio (y) = 0.39316 0.14542
# Poissons Ratio (z) = 0.41613 0.21176
#
# Static dielectric constant tensor:
#      x y z
#    x 3.699210 0.000000 0.064880 
#    y 0.000000 3.779610 0.000000 
#    z 0.064880 0.000000 3.461950 
# 
# 
# High freq. dielectric constant tensor:
#      x y z
#    x 1.796810 0.000000 -0.001030 
#    y 0.000000 1.785870 0.000000 
#    z -0.001030 0.000000 1.761350 
# 
# From -- ./inp_files/159751.got.cif
#   From: 2010.06.25/outbox.cif.g09.slc.cpg/sg15_80_cif.got.tgz:159751.got - 2010.06.28 07:06:18.
