data_PCOD8137685
_publ_section_title
;
Structure prediction by ZEFSAII (Michael W. Deem and Ramdas Pophale) SiO2 
 PCOD8137685
Probable space group: C 2/C
;
_chemical_formula_sum "Si O2"
_cell_formula_units_Z 52
_cell_length_a 14.341013
_cell_length_b 27.860649
_cell_length_c 9.825396
_cell_angle_alpha 90.000000
_cell_angle_beta 134.763608
_cell_angle_gamma 90.000000
_cell_volume 2787.344006
_symmetry_space_group_name_H-M "C 2/C"
_symmetry_group_IT_number 15
_symmetry_cell_setting 'monoclinic'
loop_
_space_group_symop_operation_xyz
x,y,z
-x,y,1/2-z
-x,-y,-z
x,-y,1/2+z
1/2+x,1/2+y,z
1/2-x,1/2+y,1/2-z
1/2-x,1/2-y,-z
1/2+x,1/2-y,1/2+z
loop_
_atom_site_type_symbol
_atom_site_label
_atom_site_fract_x
_atom_site_fract_y
_atom_site_fract_z
Si Si1 0.620762 0.978326 0.542841
Si Si2 0.532533 0.358951 0.009601
Si Si3 0.609687 0.275125 0.749136
Si Si4 0.786159 0.012514 0.475191
Si Si5 0.000000 0.067134 0.250000
Si Si6 0.500000 0.410726 0.250000
Si Si7 0.500000 0.104806 0.750000
Si Si8 0.209582 0.323043 0.358639
O O1 0.579482 0.926342 0.443454
O O2 0.500000 0.000000 0.500000
O O3 0.663881 0.009416 0.454598
O O4 0.741134 0.978819 0.773427
O O5 0.532411 0.376687 0.160392
O O6 0.681308 0.348722 0.119361
O O7 0.449161 0.310012 0.925165
O O8 0.465926 0.398530 0.841969
O O9 0.500000 0.265456 0.750000
O O10 0.649469 0.224238 0.721797
O O11 0.734825 0.302567 0.941797
O O12 0.871350 0.058084 0.598496
O O13 0.873060 0.964292 0.579675
O O14 0.400213 0.137294 0.731035
#
# Coordination Sequence:
#
# PCOD8137685 Si02
#       8
#     8   8   8   8   4   4   4   8
#     4  12  24  40  57  84 124 163 197 244 296 359
#     4  11  21  38  61  92 118 151 200 248 301 356
#     4   9  18  36  61  91 117 143 188 260 305 335
#     4  11  24  41  58  84 120 158 207 250 297 337
#     4  11  20  39  66  86 108 156 211 264 285 328
#     4  11  26  38  62  87 121 162 200 252 297 356
#     4  12  24  35  62  91 117 166 197 238 304 360
#     4  10  20  36  61  90 120 142 198 252 294 354
#
# _framework density 18.655752
#
# number of rings (size 3 to 8) (size 9 to 14) (size 15 to 20)
#    0.000    1.231    4.615    2.769    4.308    2.462 
#    0.000    0.769    0.000    0.000    0.000    0.000 
#    0.000    0.000    0.000    0.000    0.000    0.000 
#
# Total GULP energy -322356.412872 kJ/mol
# GULP energy per Si atom -12398.323572 kJ/mol
# Density = 1.861329 g / cm^3
# Si number density = 18.655752 Si / 1000 Ang^3
#
#
#
# Elastic Constant Matrix: (Units=GPa)
#
#
# Indices 1 2 3 4 5 6 
#
# 1 75.6029 60.5392 37.9298 0.0000 1.6769 0.0000
# 2 60.5392 144.0154 66.2993 0.0000 0.9408 0.0000
# 3 37.9298 66.2993 106.0106 0.0000 -6.3853 0.0000
# 4 0.0000 0.0000 0.0000 30.7563 0.0000 16.5831
# 5 1.6769 0.9408 -6.3853 0.0000 33.4641 0.0000
# 6 0.0000 0.0000 0.0000 16.5831 0.0000 35.0261
#
#
#
# Elastic Compliance Matrix: (Units=1/GPa)
#
#
# Indices 1 2 3 4 5 6 
#
# 1 0.020548 -0.007311 -0.002862 0.000000 -0.001370 0.000000
# 2 -0.007311 0.012423 -0.005212 0.000000 -0.000977 0.000000
# 3 -0.002862 -0.005212 0.013894 0.000000 0.002941 0.000000
# 4 0.000000 0.000000 0.000000 0.043658 0.000000 -0.020670
# 5 -0.001370 -0.000977 0.002941 0.000000 0.030540 0.000000
# 6 0.000000 0.000000 0.000000 -0.020670 0.000000 0.038336
#
#
# Mechanical properties :
#
#
# Convention : Reuss Voigt Hill
#
# Bulk Modulus (GPa) = 62.13587 72.79617 67.46602
# Shear Modulus (GPa) = 25.57089 30.57334 28.07211
#
# Velocity S-wave (km/s) = 3.70627 4.05262 3.88331
# Velocity P-wave (km/s) = 7.18986 7.81049 7.50659
#
# Compressibility (1/GPa) = 0.01609376
#
# Stress axis : x y z
#
# Youngs Moduli (GPa) = 48.66765 80.49589 71.97336
#
# Poissons Ratio (x) = 0.58850 0.20599
# Poissons Ratio (y) = 0.35581 0.37516
# Poissons Ratio (z) = 0.13929 0.41958
#
# Static dielectric constant tensor:
#      x y z
#    x 3.460800 0.000000 0.126960 
#    y 0.000000 3.661520 0.000000 
#    z 0.126960 0.000000 3.683080 
# 
# 
# High freq. dielectric constant tensor:
#      x y z
#    x 1.721580 0.000000 0.023750 
#    y 0.000000 1.735360 0.000000 
#    z 0.023750 0.000000 1.712430 
# 
# From -- ./inp_files/43677.got.cif
#   From: 2010.06.25/outbox.cif.g09.slc.cpg/sg15_22_cif.got.tgz:43677.got - 2010.06.28 07:06:18.
