data_PCOD8137803
_publ_section_title
;
Structure prediction by ZEFSAII (Michael W. Deem and Ramdas Pophale) SiO2 
 PCOD8137803
Probable space group: C 2/C
;
_chemical_formula_sum "Si O2"
_cell_formula_units_Z 56
_cell_length_a 28.703313
_cell_length_b 17.531550
_cell_length_c 9.548017
_cell_angle_alpha 90.000000
_cell_angle_beta 35.751402
_cell_angle_gamma 90.000000
_cell_volume 2807.234930
_symmetry_space_group_name_H-M "C 2/C"
_symmetry_group_IT_number 15
_symmetry_cell_setting 'monoclinic'
loop_
_space_group_symop_operation_xyz
x,y,z
-x,y,1/2-z
-x,-y,-z
x,-y,1/2+z
1/2+x,1/2+y,z
1/2-x,1/2+y,1/2-z
1/2-x,1/2-y,-z
1/2+x,1/2-y,1/2+z
loop_
_atom_site_type_symbol
_atom_site_label
_atom_site_fract_x
_atom_site_fract_y
_atom_site_fract_z
Si Si1 0.232002 0.322923 0.636278
Si Si2 0.085423 0.421782 0.980719
Si Si3 0.667479 0.661264 0.091798
Si Si4 0.852578 0.488866 0.413245
Si Si5 0.052701 0.963905 0.994700
Si Si6 0.305515 0.172869 0.969612
Si Si7 0.309517 0.429116 0.243076
O O1 0.250000 0.250000 0.500000
O O2 0.138545 0.345181 0.850099
O O3 0.251297 0.314329 0.754069
O O4 0.286257 0.391340 0.446918
O O5 0.086693 0.457471 0.821418
O O6 0.122332 0.490271 0.985464
O O7 0.000000 0.398601 0.250000
O O8 0.601414 0.607806 0.320174
O O9 0.751886 0.657213 0.964911
O O10 0.640559 0.750079 0.170314
O O11 0.680019 0.635546 0.900771
O O12 0.862907 0.399998 0.343741
O O13 0.760220 0.512533 0.629869
O O14 0.108989 0.027323 0.927231
O O15 0.000000 0.932054 0.250000
O O16 0.000000 0.000000 0.000000
#
# Coordination Sequence:
#
# PCOD8137803 Si02
#       7
#     8   8   8   8   8   8   8
#     4  10  21  39  61  90 123 164 212 256 314 383
#     4  10  21  36  60  90 121 155 203 263 318 374
#     4  11  22  39  61  89 127 158 215 266 324 373
#     4  10  20  36  63  86 118 159 209 256 314 381
#     4  12  26  41  62  92 129 173 217 273 332 392
#     4  10  21  37  63  90 120 161 210 270 307 381
#     4  11  22  39  64  91 120 167 222 267 314 395
#
# _framework density 19.948456
#
# number of rings (size 3 to 8) (size 9 to 14) (size 15 to 20)
#    0.000    1.429    4.286    1.286    6.000    0.000 
#    0.000    4.286    0.000    0.000    0.000    0.000 
#    0.000    0.000    0.000    0.000    0.000    0.000 
#
# Total GULP energy -347073.818911 kJ/mol
# GULP energy per Si atom -12395.493533 kJ/mol
# Density = 1.990305 g / cm^3
# Si number density = 19.948456 Si / 1000 Ang^3
#
#
#
# Elastic Constant Matrix: (Units=GPa)
#
#
# Indices 1 2 3 4 5 6 
#
# 1 79.5617 20.8303 28.2600 0.0000 4.9769 0.0000
# 2 20.8303 93.3492 33.0365 0.0000 -9.9788 0.0000
# 3 28.2600 33.0365 99.6580 0.0000 -2.4894 0.0000
# 4 0.0000 0.0000 0.0000 30.3711 0.0000 6.6071
# 5 4.9769 -9.9788 -2.4894 0.0000 29.7466 0.0000
# 6 0.0000 0.0000 0.0000 6.6071 0.0000 30.2487
#
#
#
# Elastic Compliance Matrix: (Units=1/GPa)
#
#
# Indices 1 2 3 4 5 6 
#
# 1 0.014649 -0.002433 -0.003436 0.000000 -0.003555 0.000000
# 2 -0.002433 0.012971 -0.003498 0.000000 0.004465 0.000000
# 3 -0.003436 -0.003498 0.012179 0.000000 0.000421 0.000000
# 4 0.000000 0.000000 0.000000 0.034569 0.000000 -0.007551
# 5 -0.003555 0.004465 0.000421 0.000000 0.035745 0.000000
# 6 0.000000 0.000000 0.000000 -0.007551 0.000000 0.034709
#
#
# Mechanical properties :
#
#
# Convention : Reuss Voigt Hill
#
# Bulk Modulus (GPa) = 47.47506 48.53585 48.00546
# Shear Modulus (GPa) = 29.31232 30.76940 30.04086
#
# Velocity S-wave (km/s) = 3.83744 3.93166 3.88483
# Velocity P-wave (km/s) = 6.59432 6.70776 6.65128
#
# Compressibility (1/GPa) = 0.02106369
#
# Stress axis : x y z
#
# Youngs Moduli (GPa) = 68.26557 77.09666 82.10865
#
# Poissons Ratio (x) = 0.18755 0.28215
# Poissons Ratio (y) = 0.16606 0.28725
# Poissons Ratio (z) = 0.23458 0.26972
#
# Static dielectric constant tensor:
#      x y z
#    x 3.764190 0.000000 0.294490 
#    y 0.000000 3.750780 0.000000 
#    z 0.294490 0.000000 3.642400 
# 
# 
# High freq. dielectric constant tensor:
#      x y z
#    x 1.777620 0.000000 0.026170 
#    y 0.000000 1.780790 0.000000 
#    z 0.026170 0.000000 1.771680 
# 
# From -- ./inp_files/67136.got.cif
#   From: 2010.06.25/outbox.cif.g09.slc.cpg/sg15_34_cif.got.tgz:67136.got - 2010.06.28 07:06:18.
