data_PCOD8137009
_publ_section_title
;
Structure prediction by ZEFSAII (Michael W. Deem and Ramdas Pophale) SiO2 
 PCOD8137009
Probable space group: C 2/C
;
_chemical_formula_sum "Si O2"
_cell_formula_units_Z 48
_cell_length_a 22.122530
_cell_length_b 6.132752
_cell_length_c 30.066124
_cell_angle_alpha 90.000000
_cell_angle_beta 143.947739
_cell_angle_gamma 90.000000
_cell_volume 2400.662070
_symmetry_space_group_name_H-M "C 2/C"
_symmetry_group_IT_number 15
_symmetry_cell_setting 'monoclinic'
loop_
_space_group_symop_operation_xyz
x,y,z
-x,y,1/2-z
-x,-y,-z
x,-y,1/2+z
1/2+x,1/2+y,z
1/2-x,1/2+y,1/2-z
1/2-x,1/2-y,-z
1/2+x,1/2-y,1/2+z
loop_
_atom_site_type_symbol
_atom_site_label
_atom_site_fract_x
_atom_site_fract_y
_atom_site_fract_z
Si Si1 0.269404 0.059393 0.045719
Si Si2 0.385844 0.820020 0.338416
Si Si3 0.262532 0.861080 0.400948
Si Si4 0.375217 0.825722 0.036077
Si Si5 0.115065 0.963273 0.580897
Si Si6 0.745237 0.145273 0.181929
O O1 0.306176 0.179294 0.113547
O O2 0.355249 0.899821 0.075711
O O3 0.250000 0.250000 0.000000
O O4 0.163033 0.924780 0.991331
O O5 0.506226 0.863628 0.404100
O O6 0.371139 0.606847 0.359714
O O7 0.337285 0.767429 0.261616
O O8 0.330094 0.028090 0.327432
O O9 0.355418 0.731827 0.433975
O O10 0.307104 0.032612 0.462215
O O11 0.204774 0.981547 0.325356
O O12 0.180107 0.183547 0.613827
O O13 0.000000 0.000000 0.500000
#
# Coordination Sequence:
#
# PCOD8137009 Si02
#       6
#     8   8   8   8   8   8
#     4   9  19  37  60  89 109 147 198 255 295 348
#     4  11  22  37  56  88 118 162 189 241 306 361
#     4  10  20  35  58  86 113 153 191 250 294 351
#     4  10  20  37  63  85 116 148 204 248 300 355
#     4  11  21  35  58  86 117 152 199 244 294 364
#     4  11  22  37  55  84 126 155 197 240 303 372
#
# _framework density 19.994484
#
# number of rings (size 3 to 8) (size 9 to 14) (size 15 to 20)
#    0.000    1.667    1.667    4.000    0.000    4.000 
#    0.000    0.000    0.000   24.000    0.000    0.000 
#    0.000    0.000    0.000    0.000    0.000    0.000 
#
# Total GULP energy -297392.692937 kJ/mol
# GULP energy per Si atom -12391.362206 kJ/mol
# Density = 1.994898 g / cm^3
# Si number density = 19.994484 Si / 1000 Ang^3
#
#
#
# Elastic Constant Matrix: (Units=GPa)
#
#
# Indices 1 2 3 4 5 6 
#
# 1 81.1610 25.2575 19.8992 -0.0024 -13.8614 0.0054
# 2 25.2575 97.0020 28.9608 -0.0002 -12.8000 0.0136
# 3 19.8992 28.9608 50.5705 -0.0021 -15.1901 0.0008
# 4 -0.0024 -0.0002 -0.0021 26.3193 0.0017 -11.7853
# 5 -13.8614 -12.8000 -15.1901 0.0017 25.0224 -0.0015
# 6 0.0054 0.0136 0.0008 -11.7853 -0.0015 45.5665
#
#
#
# Elastic Compliance Matrix: (Units=1/GPa)
#
#
# Indices 1 2 3 4 5 6 
#
# 1 0.014620 -0.002256 -0.002905 0.000000 0.005182 -0.000001
# 2 -0.002256 0.012912 -0.005990 -0.000002 0.001719 -0.000004
# 3 -0.002905 -0.005990 0.028061 0.000002 0.012361 0.000003
# 4 0.000000 -0.000002 0.000002 0.042972 -0.000002 0.011114
# 5 0.005182 0.001719 0.012361 -0.000002 0.051218 0.000000
# 6 -0.000001 -0.000004 0.000003 0.011114 0.000000 0.024821
#
#
# Mechanical properties :
#
#
# Convention : Reuss Voigt Hill
#
# Bulk Modulus (GPa) = 30.03794 41.88538 35.96166
# Shear Modulus (GPa) = 24.03821 29.68936 26.86379
#
# Velocity S-wave (km/s) = 3.47110 3.85759 3.66944
# Velocity P-wave (km/s) = 5.57857 6.39025 5.99815
#
# Compressibility (1/GPa) = 0.03329123
#
# Stress axis : x y z
#
# Youngs Moduli (GPa) = 68.39765 77.44886 35.63669
#
# Poissons Ratio (x) = 0.17472 0.10351
# Poissons Ratio (y) = 0.15430 0.21348
# Poissons Ratio (z) = 0.19867 0.46395
#
# Static dielectric constant tensor:
#      x y z
#    x 4.122740 -0.000050 -0.443030 
#    y -0.000050 4.109520 -0.000140 
#    z -0.443030 -0.000140 3.592250 
# 
# 
# High freq. dielectric constant tensor:
#      x y z
#    x 1.787640 0.000000 -0.030750 
#    y 0.000000 1.803680 0.000000 
#    z -0.030750 0.000000 1.737500 
# 
# From -- ./inp_files/217529.got.cif
#   From: 2010.06.25/outbox.cif.g09.slc.cpg/sg15_109_cif.got.tgz:217529.got - 2010.06.28 07:06:18.
