data_PCOD8137816
_publ_section_title
;
Structure prediction by ZEFSAII (Michael W. Deem and Ramdas Pophale) SiO2 
 PCOD8137816
Probable space group: C 2/C
;
_chemical_formula_sum "Si O2"
_cell_formula_units_Z 64
_cell_length_a 14.361102
_cell_length_b 12.567100
_cell_length_c 18.549014
_cell_angle_alpha 90.000000
_cell_angle_beta 73.112180
_cell_angle_gamma 90.000000
_cell_volume 3203.310507
_symmetry_space_group_name_H-M "C 2/C"
_symmetry_group_IT_number 15
_symmetry_cell_setting 'monoclinic'
loop_
_space_group_symop_operation_xyz
x,y,z
-x,y,1/2-z
-x,-y,-z
x,-y,1/2+z
1/2+x,1/2+y,z
1/2-x,1/2+y,1/2-z
1/2-x,1/2-y,-z
1/2+x,1/2-y,1/2+z
loop_
_atom_site_type_symbol
_atom_site_label
_atom_site_fract_x
_atom_site_fract_y
_atom_site_fract_z
Si Si1 0.703072 0.408281 0.812875
Si Si2 0.504102 0.099169 0.444811
Si Si3 0.857715 0.027386 0.016142
Si Si4 0.545781 0.665021 0.944853
Si Si5 0.901807 0.102137 0.725370
Si Si6 0.906150 0.481218 0.720208
Si Si7 0.800846 0.672980 0.680481
Si Si8 0.298672 0.856837 0.016760
O O1 0.685051 0.432462 0.899646
O O2 0.636390 0.482219 0.777551
O O3 0.818919 0.413816 0.774090
O O4 0.667517 0.290200 0.803340
O O5 0.544418 0.211192 0.469957
O O6 0.567716 0.071234 0.361638
O O7 0.393497 0.123097 0.446318
O O8 0.500000 0.000000 0.500000
O O9 0.885043 0.902495 0.016265
O O10 0.773316 0.041930 0.975734
O O11 0.943311 0.105194 0.971904
O O12 0.581642 0.660339 0.854391
O O13 0.815994 0.162412 0.786749
O O14 0.000000 0.102731 0.750000
O O15 0.863160 0.599000 0.719268
O O16 0.000000 0.484496 0.750000
O O17 0.831678 0.649961 0.591725
O O18 0.250000 0.750000 0.000000
#
# Coordination Sequence:
#
# PCOD8137816 Si02
#       8
#     8   8   8   8   8   8   8   8
#     4  10  21  39  60  87 120 162 206 254 307 371
#     4  12  24  41  62  92 128 160 206 262 308 370
#     4  10  20  36  63  91 117 156 203 252 305 358
#     4  10  21  38  60  90 123 157 201 255 307 362
#     4  10  22  36  59  90 122 156 206 263 311 361
#     4  11  25  41  61  88 125 167 206 253 316 371
#     4  11  22  39  60  89 125 160 208 257 306 376
#     4  12  21  37  66  94 119 160 211 254 306 366
#
# _framework density 19.979330999999998
#
# number of rings (size 3 to 8) (size 9 to 14) (size 15 to 20)
#    0.000    1.250    3.750    2.250    0.000    1.500 
#    0.000    0.625    5.500    0.000    0.000    0.000 
#    0.000    0.000    0.000    0.000    0.000    0.000 
#
# Total GULP energy -396681.315291 kJ/mol
# GULP energy per Si atom -12396.291103 kJ/mol
# Density = 1.993386 g / cm^3
# Si number density = 19.979331 Si / 1000 Ang^3
#
#
#
# Elastic Constant Matrix: (Units=GPa)
#
#
# Indices 1 2 3 4 5 6 
#
# 1 76.4241 36.7776 -2.3847 0.0000 -10.4129 0.0000
# 2 36.7776 159.0144 15.1275 0.0000 2.3010 0.0000
# 3 -2.3847 15.1275 51.1863 0.0000 -18.4816 0.0000
# 4 0.0000 0.0000 0.0000 20.1617 0.0000 0.2939
# 5 -10.4129 2.3010 -18.4816 0.0000 36.0989 0.0000
# 6 0.0000 0.0000 0.0000 0.2939 0.0000 23.5392
#
#
#
# Elastic Compliance Matrix: (Units=1/GPa)
#
#
# Indices 1 2 3 4 5 6 
#
# 1 0.016324 -0.004331 0.004711 0.000000 0.007397 0.000000
# 2 -0.004331 0.007706 -0.003812 0.000000 -0.003692 0.000000
# 3 0.004711 -0.003812 0.026328 0.000000 0.015081 0.000000
# 4 0.000000 0.000000 0.000000 0.049608 0.000000 -0.000619
# 5 0.007397 -0.003692 0.015081 0.000000 0.037792 0.000000
# 6 0.000000 0.000000 0.000000 -0.000619 0.000000 0.042490
#
#
# Mechanical properties :
#
#
# Convention : Reuss Voigt Hill
#
# Bulk Modulus (GPa) = 22.99167 42.85172 32.92169
# Shear Modulus (GPa) = 24.80034 31.76691 28.28362
#
# Velocity S-wave (km/s) = 3.52703 3.99179 3.76659
# Velocity P-wave (km/s) = 5.30276 6.53762 5.95230
#
# Compressibility (1/GPa) = 0.04349402
#
# Stress axis : x y z
#
# Youngs Moduli (GPa) = 61.26052 129.76109 37.98243
#
# Poissons Ratio (x) = 0.56195 -0.17894
# Poissons Ratio (y) = 0.26530 0.14481
# Poissons Ratio (z) = -0.28860 0.49471
#
# Static dielectric constant tensor:
#      x y z
#    x 3.847130 0.000000 -0.237850 
#    y 0.000000 3.875210 0.000000 
#    z -0.237850 0.000000 3.849490 
# 
# 
# High freq. dielectric constant tensor:
#      x y z
#    x 1.770010 0.000000 -0.028330 
#    y 0.000000 1.787370 0.000000 
#    z -0.028330 0.000000 1.786410 
# 
# From -- ./inp_files/243720.got.cif
#   From: 2010.06.25/outbox.cif.g09.slc.cpg/sg15_122_cif.got.tgz:243720.got - 2010.06.28 07:06:18.
