data_PCOD8137820
_publ_section_title
;
Structure prediction by ZEFSAII (Michael W. Deem and Ramdas Pophale) SiO2 
 PCOD8137820
Probable space group: C 2/C
;
_chemical_formula_sum "Si O2"
_cell_formula_units_Z 56
_cell_length_a 5.159864
_cell_length_b 17.630257
_cell_length_c 31.486842
_cell_angle_alpha 90.000000
_cell_angle_beta 117.821210
_cell_angle_gamma 90.000000
_cell_volume 2533.254342
_symmetry_space_group_name_H-M "C 2/C"
_symmetry_group_IT_number 15
_symmetry_cell_setting 'monoclinic'
loop_
_space_group_symop_operation_xyz
x,y,z
-x,y,1/2-z
-x,-y,-z
x,-y,1/2+z
1/2+x,1/2+y,z
1/2-x,1/2+y,1/2-z
1/2-x,1/2-y,-z
1/2+x,1/2-y,1/2+z
loop_
_atom_site_type_symbol
_atom_site_label
_atom_site_fract_x
_atom_site_fract_y
_atom_site_fract_z
Si Si1 0.383341 0.437929 0.040189
Si Si2 0.628119 0.773205 0.887562
Si Si3 0.269722 0.950777 0.377440
Si Si4 0.182795 0.429712 0.936000
Si Si5 0.827591 0.914878 0.278289
Si Si6 0.833529 0.735195 0.279274
Si Si7 0.670346 0.176416 0.904647
O O1 0.253011 0.418326 0.076244
O O2 0.527337 0.521781 0.053023
O O3 0.620803 0.371283 0.047140
O O4 0.140545 0.434171 0.984202
O O5 0.700189 0.843662 0.922974
O O6 0.511318 0.800191 0.832594
O O7 0.367214 0.721190 0.885969
O O8 0.943071 0.732211 0.910242
O O9 0.473364 0.890045 0.366962
O O10 0.961639 0.955808 0.330035
O O11 0.406579 0.034259 0.390451
O O12 0.500000 0.945430 0.250000
O O13 0.841781 0.825206 0.285602
O O14 0.000000 0.941938 0.250000
O O15 0.500000 0.705605 0.250000
O O16 0.000000 0.708341 0.250000
#
# Coordination Sequence:
#
# PCOD8137820 Si02
#       7
#     8   8   8   8   8   8   8
#     4  10  22  47  68  99 128 192 224 272 326 413
#     4  12  24  43  65 104 133 173 216 286 338 391
#     4  11  22  44  70  95 139 175 225 279 327 404
#     4  10  26  41  70  97 140 181 224 266 349 402
#     4  10  22  35  65  98 122 164 224 275 324 383
#     4  10  20  36  63  92 125 166 216 268 329 398
#     4  11  23  40  70  95 137 166 225 277 331 381
#
# _framework density 22.105951000000001
#
# number of rings (size 3 to 8) (size 9 to 14) (size 15 to 20)
#    0.000    1.429    2.857    1.286   10.000    1.143 
#    0.000    0.714    0.000    0.000    0.000    0.000 
#    0.000    0.000    0.000    0.000    0.000    0.000 
#
# Total GULP energy -347083.319277 kJ/mol
# GULP energy per Si atom -12395.832831 kJ/mol
# Density = 2.205564 g / cm^3
# Si number density = 22.105951 Si / 1000 Ang^3
#
#
#
# Elastic Constant Matrix: (Units=GPa)
#
#
# Indices 1 2 3 4 5 6 
#
# 1 122.5621 24.8568 28.0163 0.0000 -6.0598 0.0000
# 2 24.8568 68.5565 25.7955 0.0000 -2.9105 0.0000
# 3 28.0163 25.7955 109.5717 0.0000 -0.8870 0.0000
# 4 0.0000 0.0000 0.0000 25.4839 0.0000 4.9058
# 5 -6.0598 -2.9105 -0.8870 0.0000 33.2622 0.0000
# 6 0.0000 0.0000 0.0000 4.9058 0.0000 2.4164
#
#
#
# Elastic Compliance Matrix: (Units=1/GPa)
#
#
# Indices 1 2 3 4 5 6 
#
# 1 0.009150 -0.002614 -0.001713 0.000000 0.001393 0.000000
# 2 -0.002614 0.016807 -0.003281 0.000000 0.000907 0.000000
# 3 -0.001713 -0.003281 0.010334 0.000000 -0.000324 0.000000
# 4 0.000000 0.000000 0.000000 0.064416 0.000000 -0.130778
# 5 0.001393 0.000907 -0.000324 0.000000 0.030389 0.000000
# 6 0.000000 0.000000 0.000000 -0.130778 0.000000 0.679351
#
#
# Mechanical properties :
#
#
# Convention : Reuss Voigt Hill
#
# Bulk Modulus (GPa) = 47.44827 50.89192 49.17009
# Shear Modulus (GPa) = 6.00466 27.03395 16.51930
#
# Velocity S-wave (km/s) = 1.64991 3.50083 2.73661
# Velocity P-wave (km/s) = 5.01400 6.27797 5.68125
#
# Compressibility (1/GPa) = 0.02107559
#
# Stress axis : x y z
#
# Youngs Moduli (GPa) = 109.29415 59.49804 96.76583
#
# Poissons Ratio (x) = 0.15552 0.16574
# Poissons Ratio (y) = 0.28567 0.31750
# Poissons Ratio (z) = 0.18720 0.19522
#
# Static dielectric constant tensor:
#      x y z
#    x 4.173100 0.000000 0.157230 
#    y 0.000000 3.661780 0.000000 
#    z 0.157230 0.000000 3.982380 
# 
# 
# High freq. dielectric constant tensor:
#      x y z
#    x 1.878930 0.000000 0.008160 
#    y 0.000000 1.841140 0.000000 
#    z 0.008160 0.000000 1.867480 
# 
# From -- ./inp_files/286032.got.cif
#   From: 2010.06.25/outbox.cif.g09.slc.cpg/sg15_144_cif.got.tgz:286032.got - 2010.06.28 07:06:18.
