data_PCOD8137939
_publ_section_title
;
Structure prediction by ZEFSAII (Michael W. Deem and Ramdas Pophale) SiO2 
 PCOD8137939
Probable space group: C 2/C
;
_chemical_formula_sum "Si O2"
_cell_formula_units_Z 48
_cell_length_a 15.214854
_cell_length_b 29.802435
_cell_length_c 8.656491
_cell_angle_alpha 90.000000
_cell_angle_beta 37.349510
_cell_angle_gamma 90.000000
_cell_volume 2381.320852
_symmetry_space_group_name_H-M "C 2/C"
_symmetry_group_IT_number 15
_symmetry_cell_setting 'monoclinic'
loop_
_space_group_symop_operation_xyz
x,y,z
-x,y,1/2-z
-x,-y,-z
x,-y,1/2+z
1/2+x,1/2+y,z
1/2-x,1/2+y,1/2-z
1/2-x,1/2-y,-z
1/2+x,1/2-y,1/2+z
loop_
_atom_site_type_symbol
_atom_site_label
_atom_site_fract_x
_atom_site_fract_y
_atom_site_fract_z
Si Si1 0.830095 0.125049 0.998552
Si Si2 0.858055 0.372078 0.027822
Si Si3 0.586246 0.214460 0.860643
Si Si4 0.183911 0.458003 0.842566
Si Si5 0.218062 0.294233 0.850367
Si Si6 0.653612 0.050681 0.734823
O O1 0.788241 0.074303 0.100104
O O2 0.765089 0.157899 0.218744
O O3 0.767819 0.137348 0.918369
O O4 0.000000 0.130534 0.750000
O O5 0.911163 0.325128 0.020671
O O6 0.795043 0.404553 0.248824
O O7 0.000000 0.394838 0.750000
O O8 0.651750 0.258806 0.848574
O O9 0.680702 0.198808 0.582079
O O10 0.421238 0.225095 0.045010
O O11 0.211775 0.509046 0.753543
O O12 0.222483 0.452257 0.968864
O O13 0.018881 0.446224 0.036737
#
# Coordination Sequence:
#
# PCOD8137939 Si02
#       6
#     8   8   8   8   8   8
#     4  12  26  41  59  91 131 164 201 255 312 367
#     4  12  22  39  61  92 123 161 211 251 301 362
#     4  10  22  40  66  91 123 161 210 258 302 368
#     4  10  20  38  62  95 121 157 204 250 306 357
#     4  10  22  42  63  91 124 164 207 254 310 360
#     4  10  20  36  68  91 119 156 206 257 295 363
#
# _framework density 20.156880000000001
#
# number of rings (size 3 to 8) (size 9 to 14) (size 15 to 20)
#    0.000    1.333    3.333    2.000    4.667    4.000 
#    0.000    5.833    0.000    0.000    0.000    0.000 
#    0.000    0.000    0.000    0.000    0.000    0.000 
#
# Total GULP energy -297724.843019 kJ/mol
# GULP energy per Si atom -12405.201792 kJ/mol
# Density = 2.011100 g / cm^3
# Si number density = 20.156880 Si / 1000 Ang^3
#
#
#
# Elastic Constant Matrix: (Units=GPa)
#
#
# Indices 1 2 3 4 5 6 
#
# 1 118.9630 37.2024 36.8120 0.0000 5.4295 0.0000
# 2 37.2024 84.8227 21.6596 0.0000 2.4989 0.0000
# 3 36.8120 21.6596 60.0897 0.0000 -5.3115 0.0000
# 4 0.0000 0.0000 0.0000 27.6540 0.0000 6.4146
# 5 5.4295 2.4989 -5.3115 0.0000 36.4544 0.0000
# 6 0.0000 0.0000 0.0000 6.4146 0.0000 37.3211
#
#
#
# Elastic Compliance Matrix: (Units=1/GPa)
#
#
# Indices 1 2 3 4 5 6 
#
# 1 0.011431 -0.003418 -0.005978 0.000000 -0.002339 0.000000
# 2 -0.003418 0.014099 -0.003068 0.000000 -0.000904 0.000000
# 3 -0.005978 -0.003068 0.021788 0.000000 0.004275 0.000000
# 4 0.000000 0.000000 0.000000 0.037663 0.000000 -0.006473
# 5 -0.002339 -0.000904 0.004275 0.000000 0.028465 0.000000
# 6 0.000000 0.000000 0.000000 -0.006473 0.000000 0.027907
#
#
# Mechanical properties :
#
#
# Convention : Reuss Voigt Hill
#
# Bulk Modulus (GPa) = 44.66284 50.58037 47.62161
# Shear Modulus (GPa) = 28.77812 31.49932 30.13872
#
# Velocity S-wave (km/s) = 3.78260 3.95740 3.87099
# Velocity P-wave (km/s) = 6.42520 6.78448 6.60728
#
# Compressibility (1/GPa) = 0.02238998
#
# Stress axis : x y z
#
# Youngs Moduli (GPa) = 87.47759 70.92926 45.89787
#
# Poissons Ratio (x) = 0.24246 0.27436
# Poissons Ratio (y) = 0.29903 0.14080
# Poissons Ratio (z) = 0.52292 0.21759
#
# Static dielectric constant tensor:
#      x y z
#    x 3.781190 0.000000 0.182280 
#    y 0.000000 3.614560 0.000000 
#    z 0.182280 0.000000 3.529260 
# 
# 
# High freq. dielectric constant tensor:
#      x y z
#    x 1.793880 0.000000 0.019450 
#    y 0.000000 1.791060 0.000000 
#    z 0.019450 0.000000 1.768380 
# 
# From -- ./inp_files/44440.got.cif
#   From: 2010.06.25/outbox.cif.g09.slc.cpg/sg15_23_cif.got.tgz:44440.got - 2010.06.28 07:06:18.
