data_PCOD8137468
_publ_section_title
;
Structure prediction by ZEFSAII (Michael W. Deem and Ramdas Pophale) SiO2 
 PCOD8137468
Probable space group: C 2/C
;
_chemical_formula_sum "Si O2"
_cell_formula_units_Z 52
_cell_length_a 18.254408
_cell_length_b 18.953698
_cell_length_c 15.339716
_cell_angle_alpha 90.000000
_cell_angle_beta 149.085790
_cell_angle_gamma 90.000000
_cell_volume 2726.680699
_symmetry_space_group_name_H-M "C 2/C"
_symmetry_group_IT_number 15
_symmetry_cell_setting 'monoclinic'
loop_
_space_group_symop_operation_xyz
x,y,z
-x,y,1/2-z
-x,-y,-z
x,-y,1/2+z
1/2+x,1/2+y,z
1/2-x,1/2+y,1/2-z
1/2-x,1/2-y,-z
1/2+x,1/2-y,1/2+z
loop_
_atom_site_type_symbol
_atom_site_label
_atom_site_fract_x
_atom_site_fract_y
_atom_site_fract_z
Si Si1 0.516258 0.695673 0.075383
Si Si2 0.000000 0.746147 0.750000
Si Si3 0.500000 0.007747 0.750000
Si Si4 0.192583 0.326858 0.213692
Si Si5 0.398472 0.035365 0.967617
Si Si6 0.000000 0.075188 0.250000
Si Si7 0.402321 0.539387 0.331399
Si Si8 0.700283 0.870657 0.413607
O O1 0.510716 0.709054 0.172862
O O2 0.601802 0.755487 0.110148
O O3 0.599528 0.622245 0.147884
O O4 0.359104 0.690666 0.873513
O O5 0.138311 0.695456 0.904416
O O6 0.359510 0.055811 0.612675
O O7 0.480456 0.960944 0.643817
O O8 0.142474 0.383627 0.091666
O O9 0.157139 0.362978 0.269425
O O10 0.257420 0.988065 0.827753
O O11 0.500000 0.000000 0.000000
O O12 0.029921 0.026733 0.196040
O O13 0.130635 0.128800 0.401620
O O14 0.500000 0.500000 0.500000
#
# Coordination Sequence:
#
# PCOD8137468 Si02
#       8
#     8   4   4   8   8   4   8   8
#     4  11  24  37  60  90 130 170 205 257 323 380
#     4   9  23  34  56  90 135 169 200 238 316 416
#     4  11  22  38  65  89 125 172 210 268 315 370
#     4  11  24  39  59  92 128 163 211 256 319 390
#     4  12  25  43  66  93 129 170 219 264 315 382
#     4  12  21  36  63  95 130 167 208 262 317 378
#     4  12  25  42  65  95 129 166 213 269 316 380
#     4  10  20  36  58  92 130 168 203 247 318 392
#
# _framework density 19.070806000000001
#
# number of rings (size 3 to 8) (size 9 to 14) (size 15 to 20)
#    0.000    0.923    6.154    0.462    4.308    1.231 
#    0.000    0.000    0.000    1.846    0.000    0.000 
#    0.000    0.000    0.000    0.000    0.000    0.000 
#
# Total GULP energy -322444.702800 kJ/mol
# GULP energy per Si atom -12401.719338 kJ/mol
# Density = 1.902740 g / cm^3
# Si number density = 19.070806 Si / 1000 Ang^3
#
#
#
# Elastic Constant Matrix: (Units=GPa)
#
#
# Indices 1 2 3 4 5 6 
#
# 1 99.5577 58.6664 59.5122 0.0000 4.2481 0.0000
# 2 58.6664 143.8284 64.7227 0.0000 -3.1325 0.0000
# 3 59.5122 64.7227 116.5122 0.0000 3.3218 0.0000
# 4 0.0000 0.0000 0.0000 33.1805 0.0000 2.5314
# 5 4.2481 -3.1325 3.3218 0.0000 38.6416 0.0000
# 6 0.0000 0.0000 0.0000 2.5314 0.0000 33.9716
#
#
#
# Elastic Compliance Matrix: (Units=1/GPa)
#
#
# Indices 1 2 3 4 5 6 
#
# 1 0.015944 -0.003857 -0.005958 0.000000 -0.001553 0.000000
# 2 -0.003857 0.010258 -0.003774 0.000000 0.001580 0.000000
# 3 -0.005958 -0.003774 0.013746 0.000000 -0.000833 0.000000
# 4 0.000000 0.000000 0.000000 0.030311 0.000000 -0.002259
# 5 -0.001553 0.001580 -0.000833 0.000000 0.026249 0.000000
# 6 0.000000 0.000000 0.000000 -0.002259 0.000000 0.029605
#
#
# Mechanical properties :
#
#
# Convention : Reuss Voigt Hill
#
# Bulk Modulus (GPa) = 78.28983 80.63344 79.46163
# Shear Modulus (GPa) = 31.73666 32.95853 32.34759
#
# Velocity S-wave (km/s) = 4.08382 4.16170 4.12294
# Velocity P-wave (km/s) = 7.96104 8.09109 8.02633
#
# Compressibility (1/GPa) = 0.01277305
#
# Stress axis : x y z
#
# Youngs Moduli (GPa) = 62.71764 97.48124 72.74929
#
# Poissons Ratio (x) = 0.37594 0.43341
# Poissons Ratio (y) = 0.24188 0.27454
# Poissons Ratio (z) = 0.37364 0.36787
#
# Static dielectric constant tensor:
#      x y z
#    x 3.634820 0.000000 0.193590 
#    y 0.000000 3.508080 0.000000 
#    z 0.193590 0.000000 3.684660 
# 
# 
# High freq. dielectric constant tensor:
#      x y z
#    x 1.728430 0.000000 0.021410 
#    y 0.000000 1.737420 0.000000 
#    z 0.021410 0.000000 1.753810 
# 
# From -- ./inp_files/48484.got.cif
#   From: 2010.06.25/outbox.cif.g09.slc.cpg/sg15_25_cif.got.tgz:48484.got - 2010.06.28 07:06:18.
