data_PCOD8137331
_publ_section_title
;
Structure prediction by ZEFSAII (Michael W. Deem and Ramdas Pophale) SiO2 
 PCOD8137331
Probable space group: C 2/C
;
_chemical_formula_sum "Si O2"
_cell_formula_units_Z 40
_cell_length_a 14.178401
_cell_length_b 5.056929
_cell_length_c 20.670928
_cell_angle_alpha 90.000000
_cell_angle_beta 99.719167
_cell_angle_gamma 90.000000
_cell_volume 1460.815983
_symmetry_space_group_name_H-M "C 2/C"
_symmetry_group_IT_number 15
_symmetry_cell_setting 'monoclinic'
loop_
_space_group_symop_operation_xyz
x,y,z
-x,y,1/2-z
-x,-y,-z
x,-y,1/2+z
1/2+x,1/2+y,z
1/2-x,1/2+y,1/2-z
1/2-x,1/2-y,-z
1/2+x,1/2-y,1/2+z
loop_
_atom_site_type_symbol
_atom_site_label
_atom_site_fract_x
_atom_site_fract_y
_atom_site_fract_z
Si Si1 0.575488 0.406965 0.878282
Si Si2 0.436019 0.122696 0.047128
Si Si3 0.377225 0.328760 0.754187
Si Si4 0.773520 0.472461 0.950958
Si Si5 0.337190 0.826395 0.824170
O O1 0.513043 0.621245 0.912590
O O2 0.550073 0.386536 0.798650
O O3 0.677816 0.561459 0.901769
O O4 0.578985 0.108566 0.902439
O O5 0.500000 0.000000 0.000000
O O6 0.334187 0.195368 0.998374
O O7 0.386896 0.550932 0.810398
O O8 0.272990 0.324096 0.710146
O O9 0.396559 0.055014 0.793653
O O10 0.844802 0.365231 0.902233
O O11 0.750000 0.250000 0.000000
#
# Coordination Sequence:
#
# PCOD8137331 Si02
#       5
#     8   8   8   8   8
#     4  10  20  36  57  79 106 139 180 219 260 317
#     4  11  22  36  55  79 109 141 174 219 270 317
#     4   9  17  30  50  76 102 134 171 216 262 303
#     4   9  20  35  56  83 109 140 179 221 265 314
#     4   9  17  29  49  77 106 131 170 219 261 305
#
# _framework density 27.381955999999999
#
# number of rings (size 3 to 8) (size 9 to 14) (size 15 to 20)
#    0.000    2.400    0.000    2.400    0.000   12.800 
#    0.000    0.000    0.000    7.200    0.000    0.000 
#    0.000    0.000    0.000    0.000    0.000    0.000 
#
# Total GULP energy -247852.089923 kJ/mol
# GULP energy per Si atom -12392.604496 kJ/mol
# Density = 2.731963 g / cm^3
# Si number density = 27.381956 Si / 1000 Ang^3
#
#
#
# Elastic Constant Matrix: (Units=GPa)
#
#
# Indices 1 2 3 4 5 6 
#
# 1 30.2256 -17.6336 19.9016 0.0000 6.2084 0.0000
# 2 -17.6336 125.1127 26.5268 0.0000 -3.5332 0.0000
# 3 19.9016 26.5268 181.0188 0.0000 -7.2827 0.0000
# 4 0.0000 0.0000 0.0000 39.0656 0.0000 -13.5028
# 5 6.2084 -3.5332 -7.2827 0.0000 42.5790 0.0000
# 6 0.0000 0.0000 0.0000 -13.5028 0.0000 14.9346
#
#
#
# Elastic Compliance Matrix: (Units=1/GPa)
#
#
# Indices 1 2 3 4 5 6 
#
# 1 0.042507 0.007071 -0.005976 0.000000 -0.006633 0.000000
# 2 0.007071 0.009435 -0.002185 0.000000 -0.000622 0.000000
# 3 -0.005976 -0.002185 0.006575 0.000000 0.001815 0.000000
# 4 0.000000 0.000000 0.000000 0.037234 0.000000 0.033664
# 5 -0.006633 -0.000622 0.001815 0.000000 0.024712 0.000000
# 6 0.000000 0.000000 0.000000 0.033664 0.000000 0.097395
#
#
# Mechanical properties :
#
#
# Convention : Reuss Voigt Hill
#
# Bulk Modulus (GPa) = 17.75077 43.77187 30.76132
# Shear Modulus (GPa) = 20.93656 39.82000 30.37828
#
# Velocity S-wave (km/s) = 2.76816 3.81759 3.33442
# Velocity P-wave (km/s) = 4.08824 5.95419 5.10715
#
# Compressibility (1/GPa) = 0.05633558
#
# Stress axis : x y z
#
# Youngs Moduli (GPa) = 23.52547 105.98745 152.10184
#
# Poissons Ratio (x) = -0.74942 0.90902
# Poissons Ratio (y) = -0.16634 0.33235
# Poissons Ratio (z) = 0.14060 0.23159
#
# Static dielectric constant tensor:
#      x y z
#    x 5.642940 0.000000 0.169500 
#    y 0.000000 6.153500 0.000000 
#    z 0.169500 0.000000 5.474900 
# 
# 
# High freq. dielectric constant tensor:
#      x y z
#    x 2.134620 0.000000 0.015170 
#    y 0.000000 2.081650 0.000000 
#    z 0.015170 0.000000 2.132910 
# 
# From -- ./inp_files/208054.got.cif
#   From: 2010.06.25/outbox.cif.g09.slc.cpg/sg15_105_cif.got.tgz:208054.got - 2010.06.28 07:06:18.
