data_PCOD8137620
_publ_section_title
;
Structure prediction by ZEFSAII (Michael W. Deem and Ramdas Pophale) SiO2 
 PCOD8137620
Probable space group: C 2/C
;
_chemical_formula_sum "Si O2"
_cell_formula_units_Z 52
_cell_length_a 18.090933
_cell_length_b 22.198235
_cell_length_c 9.090106
_cell_angle_alpha 90.000000
_cell_angle_beta 48.350472
_cell_angle_gamma 90.000000
_cell_volume 2727.715737
_symmetry_space_group_name_H-M "C 2/C"
_symmetry_group_IT_number 15
_symmetry_cell_setting 'monoclinic'
loop_
_space_group_symop_operation_xyz
x,y,z
-x,y,1/2-z
-x,-y,-z
x,-y,1/2+z
1/2+x,1/2+y,z
1/2-x,1/2+y,1/2-z
1/2-x,1/2-y,-z
1/2+x,1/2-y,1/2+z
loop_
_atom_site_type_symbol
_atom_site_label
_atom_site_fract_x
_atom_site_fract_y
_atom_site_fract_z
Si Si1 0.143187 0.800344 0.777886
Si Si2 0.766778 0.482356 0.781884
Si Si3 0.185371 0.671319 0.655874
Si Si4 0.114124 0.114832 0.585722
Si Si5 0.000000 0.132518 0.250000
Si Si6 0.889786 0.448401 0.356113
Si Si7 0.327989 0.396790 0.170460
O O1 0.125525 0.728251 0.799524
O O2 0.254052 0.813261 0.572972
O O3 0.060033 0.826567 0.782721
O O4 0.131088 0.827947 0.956880
O O5 0.829485 0.442119 0.586840
O O6 0.837326 0.501858 0.822956
O O7 0.727869 0.540052 0.744175
O O8 0.672785 0.443844 0.955039
O O9 0.109147 0.616985 0.723363
O O10 0.262459 0.653103 0.678614
O O11 0.151173 0.131991 0.698777
O O12 0.000000 0.096504 0.750000
O O13 0.927116 0.091105 0.443173
O O14 0.000000 0.469874 0.250000
#
# Coordination Sequence:
#
# PCOD8137620 Si02
#       7
#     8   8   8   8   4   8   8
#     4  10  20  38  60  84 121 154 203 249 300 358
#     4  11  23  40  59  93 127 158 202 255 299 368
#     4   9  21  39  60  85 113 163 202 250 303 351
#     4  12  23  37  62  93 125 163 198 243 317 363
#     4  10  20  36  60  90 120 156 206 246 294 382
#     4  11  22  40  65  88 120 164 210 253 303 353
#     4  10  22  38  59  88 127 158 198 247 307 362
#
# _framework density 19.063569999999999
#
# number of rings (size 3 to 8) (size 9 to 14) (size 15 to 20)
#    0.000    1.538    4.615    0.462    2.154    1.231 
#    0.000    0.000    3.385    0.000    0.000    0.000 
#    0.000    0.000    0.000    0.000    0.000    0.000 
#
# Total GULP energy -322391.960874 kJ/mol
# GULP energy per Si atom -12399.690803 kJ/mol
# Density = 1.902018 g / cm^3
# Si number density = 19.063570 Si / 1000 Ang^3
#
#
#
# Elastic Constant Matrix: (Units=GPa)
#
#
# Indices 1 2 3 4 5 6 
#
# 1 108.0029 38.0799 61.0571 0.0000 4.9047 0.0000
# 2 38.0799 96.9508 43.2013 0.0000 1.0458 0.0000
# 3 61.0571 43.2013 103.5329 0.0000 12.1185 0.0000
# 4 0.0000 0.0000 0.0000 25.0142 0.0000 -2.2821
# 5 4.9047 1.0458 12.1185 0.0000 34.8267 0.0000
# 6 0.0000 0.0000 0.0000 -2.2821 0.0000 7.7016
#
#
#
# Elastic Compliance Matrix: (Units=1/GPa)
#
#
# Indices 1 2 3 4 5 6 
#
# 1 0.014305 -0.002249 -0.007578 0.000000 0.000690 0.000000
# 2 -0.002249 0.013102 -0.004307 0.000000 0.001422 0.000000
# 3 -0.007578 -0.004307 0.016455 0.000000 -0.004529 0.000000
# 4 0.000000 0.000000 0.000000 0.041088 0.000000 0.012175
# 5 0.000690 0.001422 -0.004529 0.000000 0.030150 0.000000
# 6 0.000000 0.000000 0.000000 0.012175 0.000000 0.133451
#
#
# Mechanical properties :
#
#
# Convention : Reuss Voigt Hill
#
# Bulk Modulus (GPa) = 64.13159 65.90704 65.01932
# Shear Modulus (GPa) = 17.72934 24.58504 21.15719
#
# Velocity S-wave (km/s) = 3.05292 3.59504 3.33501
# Velocity P-wave (km/s) = 6.79272 7.20276 7.00074
#
# Compressibility (1/GPa) = 0.01559294
#
# Stress axis : x y z
#
# Youngs Moduli (GPa) = 69.90566 76.32534 60.77028
#
# Poissons Ratio (x) = 0.17167 0.46054
# Poissons Ratio (y) = 0.15723 0.26174
# Poissons Ratio (z) = 0.52978 0.32874
#
# Static dielectric constant tensor:
#      x y z
#    x 3.579180 0.000000 0.020030 
#    y 0.000000 3.332560 0.000000 
#    z 0.020030 0.000000 3.585130 
# 
# 
# High freq. dielectric constant tensor:
#      x y z
#    x 1.748830 0.000000 0.005810 
#    y 0.000000 1.729520 0.000000 
#    z 0.005810 0.000000 1.739360 
# 
# From -- ./inp_files/42049.got.cif
#   From: 2010.06.25/outbox.cif.g09.slc.cpg/sg15_22_cif.got.tgz:42049.got - 2010.06.28 07:06:18.
