data_PCOD8137890
_publ_section_title
;
Structure prediction by ZEFSAII (Michael W. Deem and Ramdas Pophale) SiO2 
 PCOD8137890
Probable space group: C 2/C
;
_chemical_formula_sum "Si O2"
_cell_formula_units_Z 64
_cell_length_a 30.232109
_cell_length_b 13.730674
_cell_length_c 9.476538
_cell_angle_alpha 90.000000
_cell_angle_beta 50.929377
_cell_angle_gamma 90.000000
_cell_volume 3054.067061
_symmetry_space_group_name_H-M "C 2/C"
_symmetry_group_IT_number 15
_symmetry_cell_setting 'monoclinic'
loop_
_space_group_symop_operation_xyz
x,y,z
-x,y,1/2-z
-x,-y,-z
x,-y,1/2+z
1/2+x,1/2+y,z
1/2-x,1/2+y,1/2-z
1/2-x,1/2-y,-z
1/2+x,1/2-y,1/2+z
loop_
_atom_site_type_symbol
_atom_site_label
_atom_site_fract_x
_atom_site_fract_y
_atom_site_fract_z
Si Si1 0.483792 0.796165 0.124970
Si Si2 0.302597 0.193137 0.951735
Si Si3 0.102436 0.415820 0.372460
Si Si4 0.755627 0.998484 0.348987
Si Si5 0.839612 0.968079 0.429345
Si Si6 0.400664 0.289948 0.204051
Si Si7 0.640242 0.091108 0.100932
Si Si8 0.884070 0.831800 0.921687
O O1 0.500000 0.837620 0.250000
O O2 0.456580 0.882061 0.083750
O O3 0.440578 0.708830 0.237164
O O4 0.534715 0.749716 0.930365
O O5 0.282324 0.092327 0.052013
O O6 0.250000 0.250000 0.000000
O O7 0.350970 0.170234 0.738571
O O8 0.330534 0.259791 0.015034
O O9 0.122247 0.516650 0.261301
O O10 0.097947 0.426936 0.551590
O O11 0.795381 0.959018 0.391611
O O12 0.706317 0.918861 0.416315
O O13 0.798444 0.028196 0.143228
O O14 0.884455 0.877488 0.345215
O O15 0.875564 0.067229 0.356557
O O16 0.362786 0.197776 0.323976
O O17 0.388504 0.341928 0.079822
#
# Coordination Sequence:
#
# PCOD8137890 Si02
#       8
#     8   8   8   8   8   8   8   8
#     4   9  22  46  71  97 131 175 226 288 343 392
#     4  10  20  36  65  91 130 175 217 268 335 405
#     4  10  24  43  68 100 135 174 218 283 340 409
#     4  11  24  39  61  98 139 173 218 275 342 403
#     4  12  24  41  64  97 134 179 224 271 335 404
#     4  11  26  43  67  96 133 176 235 283 326 406
#     4  11  26  43  68 103 138 174 225 277 344 409
#     4  10  22  42  67  96 131 176 226 278 347 395
#
# _framework density 20.955663000000001
#
# number of rings (size 3 to 8) (size 9 to 14) (size 15 to 20)
#    0.000    1.500    2.500    1.500   10.500    2.000 
#    0.000    0.000    0.000    0.000    0.000    0.000 
#    0.000    0.000    0.000    0.000    0.000    0.000 
#
# Total GULP energy -396507.430951 kJ/mol
# GULP energy per Si atom -12390.857217 kJ/mol
# Density = 2.090797 g / cm^3
# Si number density = 20.955663 Si / 1000 Ang^3
#
#
#
# Elastic Constant Matrix: (Units=GPa)
#
#
# Indices 1 2 3 4 5 6 
#
# 1 102.7279 28.9534 27.2755 0.0000 -1.1440 0.0000
# 2 28.9534 105.9935 29.2238 0.0000 -9.3340 0.0000
# 3 27.2755 29.2238 102.1022 0.0000 -11.1408 0.0000
# 4 0.0000 0.0000 0.0000 65.3765 0.0000 15.2489
# 5 -1.1440 -9.3340 -11.1408 0.0000 30.4860 0.0000
# 6 0.0000 0.0000 0.0000 15.2489 0.0000 37.7178
#
#
#
# Elastic Compliance Matrix: (Units=1/GPa)
#
#
# Indices 1 2 3 4 5 6 
#
# 1 0.011048 -0.002469 -0.002377 0.000000 -0.001210 0.000000
# 2 -0.002469 0.010932 -0.002202 0.000000 0.002450 0.000000
# 3 -0.002377 -0.002202 0.011432 0.000000 0.003414 0.000000
# 4 0.000000 0.000000 0.000000 0.016889 0.000000 -0.006828
# 5 -0.001210 0.002450 0.003414 0.000000 0.034754 0.000000
# 6 0.000000 0.000000 0.000000 -0.006828 0.000000 0.029273
#
#
# Mechanical properties :
#
#
# Convention : Reuss Voigt Hill
#
# Bulk Modulus (GPa) = 51.77062 53.52545 52.64803
# Shear Modulus (GPa) = 37.07497 41.74079 39.40788
#
# Velocity S-wave (km/s) = 4.21076 4.46787 4.34122
# Velocity P-wave (km/s) = 6.95695 7.22589 7.09270
#
# Compressibility (1/GPa) = 0.01931598
#
# Stress axis : x y z
#
# Youngs Moduli (GPa) = 90.51474 91.47569 87.47514
#
# Poissons Ratio (x) = 0.22587 0.20790
# Poissons Ratio (y) = 0.22349 0.19262
# Poissons Ratio (z) = 0.21512 0.20143
#
# Static dielectric constant tensor:
#      x y z
#    x 3.638080 0.000000 -0.222750 
#    y 0.000000 306.723840 0.000000 
#    z -0.222750 0.000000 3.899050 
# 
# 
# High freq. dielectric constant tensor:
#      x y z
#    x 1.821990 0.000000 -0.007080 
#    y 0.000000 1.823230 0.000000 
#    z -0.007080 0.000000 1.822630 
# 
# From -- ./inp_files/70138.got.cif
#   From: 2010.06.25/outbox.cif.g09.slc.cpg/sg15_36_cif.got.tgz:70138.got - 2010.06.28 07:06:18.
