data_PCOD8137768
_publ_section_title
;
Structure prediction by ZEFSAII (Michael W. Deem and Ramdas Pophale) SiO2 
 PCOD8137768
Probable space group: C 2/C
;
_chemical_formula_sum "Si O2"
_cell_formula_units_Z 60
_cell_length_a 16.996605
_cell_length_b 9.615244
_cell_length_c 16.653261
_cell_angle_alpha 90.000000
_cell_angle_beta 101.693662
_cell_angle_gamma 90.000000
_cell_volume 2665.098393
_symmetry_space_group_name_H-M "C 2/C"
_symmetry_group_IT_number 15
_symmetry_cell_setting 'monoclinic'
loop_
_space_group_symop_operation_xyz
x,y,z
-x,y,1/2-z
-x,-y,-z
x,-y,1/2+z
1/2+x,1/2+y,z
1/2-x,1/2+y,1/2-z
1/2-x,1/2-y,-z
1/2+x,1/2-y,1/2+z
loop_
_atom_site_type_symbol
_atom_site_label
_atom_site_fract_x
_atom_site_fract_y
_atom_site_fract_z
Si Si1 0.433386 0.553589 0.676658
Si Si2 0.545003 0.661086 0.444088
Si Si3 0.947974 0.473061 0.068584
Si Si4 0.626984 0.421422 0.551013
Si Si5 0.176579 0.330005 0.764484
Si Si6 0.658397 0.227037 0.430578
Si Si7 0.198351 0.040060 0.724647
Si Si8 0.500000 0.924887 0.750000
O O1 0.500000 0.613135 0.750000
O O2 0.465637 0.412162 0.644152
O O3 0.419221 0.673845 0.607600
O O4 0.351290 0.515820 0.705040
O O5 0.581959 0.814245 0.442395
O O6 0.609252 0.571808 0.508503
O O7 0.455646 0.667676 0.463433
O O8 0.871270 0.574910 0.047943
O O9 0.992199 0.488376 0.164833
O O10 0.000000 0.500000 0.000000
O O11 0.692364 0.323592 0.512546
O O12 0.660509 0.451472 0.645334
O O13 0.211574 0.289565 0.860728
O O14 0.212514 0.476594 0.742372
O O15 0.080354 0.333373 0.754235
O O16 0.202243 0.206198 0.708498
#
# Coordination Sequence:
#
# PCOD8137768 Si02
#       8
#     8   8   8   8   8   8   8   4
#     4  10  20  36  64  91 127 174 217 265 323 403
#     4  10  21  34  57  98 135 164 228 271 325 400
#     4  11  22  35  62  99 132 168 223 292 323 388
#     4  10  20  36  62  91 128 179 219 267 325 410
#     4  10  25  44  68  96 132 173 224 275 335 408
#     4   9  21  39  59  91 129 170 222 264 333 399
#     4  11  24  40  68  95 133 168 223 276 339 395
#     4  10  26  44  72  94 136 186 222 272 350 406
#
# _framework density 22.513241000000001
#
# number of rings (size 3 to 8) (size 9 to 14) (size 15 to 20)
#    0.000    1.867    2.667    0.000   11.200    3.733 
#    0.000    0.000    5.867   10.400    0.000    0.000 
#    0.000    0.000    0.000    0.000    0.000    0.000 
#
# Total GULP energy -371669.163958 kJ/mol
# GULP energy per Si atom -12388.972132 kJ/mol
# Density = 2.246200 g / cm^3
# Si number density = 22.513241 Si / 1000 Ang^3
#
#
#
# Elastic Constant Matrix: (Units=GPa)
#
#
# Indices 1 2 3 4 5 6 
#
# 1 57.3812 27.4929 4.3792 0.0000 -13.9896 0.0000
# 2 27.4929 160.2622 20.5231 0.0000 -11.8930 0.0000
# 3 4.3792 20.5231 92.4954 0.0000 -12.0697 0.0000
# 4 0.0000 0.0000 0.0000 36.4142 0.0000 -13.7357
# 5 -13.9896 -11.8930 -12.0697 0.0000 26.1759 0.0000
# 6 0.0000 0.0000 0.0000 -13.7357 0.0000 37.2280
#
#
#
# Elastic Compliance Matrix: (Units=1/GPa)
#
#
# Indices 1 2 3 4 5 6 
#
# 1 0.021358 -0.003015 0.001031 0.000000 0.010520 0.000000
# 2 -0.003015 0.006994 -0.001282 0.000000 0.000975 0.000000
# 3 0.001031 -0.001282 0.011750 0.000000 0.005386 0.000000
# 4 0.000000 0.000000 0.000000 0.031902 0.000000 0.011770
# 5 0.010520 0.000975 0.005386 0.000000 0.046752 0.000000
# 6 0.000000 0.000000 0.000000 0.011770 0.000000 0.031204
#
#
# Mechanical properties :
#
#
# Convention : Reuss Voigt Hill
#
# Bulk Modulus (GPa) = 29.78976 46.10324 37.94650
# Shear Modulus (GPa) = 29.81836 37.14653 33.48244
#
# Velocity S-wave (km/s) = 3.64329 4.06641 3.86065
# Velocity P-wave (km/s) = 5.56407 6.52459 6.06338
#
# Compressibility (1/GPa) = 0.03356858
#
# Stress axis : x y z
#
# Youngs Moduli (GPa) = 46.82056 142.98914 85.10777
#
# Poissons Ratio (x) = 0.43115 -0.08771
# Poissons Ratio (y) = 0.14118 0.10909
# Poissons Ratio (z) = -0.04825 0.18328
#
# Static dielectric constant tensor:
#      x y z
#    x 3.864530 0.000000 -0.144160 
#    y 0.000000 4.267040 0.000000 
#    z -0.144160 0.000000 4.527070 
# 
# 
# High freq. dielectric constant tensor:
#      x y z
#    x 1.866670 0.000000 -0.010190 
#    y 0.000000 1.891570 0.000000 
#    z -0.010190 0.000000 1.901330 
# 
# From -- ./inp_files/213937.got.cif
#   From: 2010.06.25/outbox.cif.g09.slc.cpg/sg15_107_cif.got.tgz:213937.got - 2010.06.28 07:06:18.
