data_PCOD8137771
_publ_section_title
;
Structure prediction by ZEFSAII (Michael W. Deem and Ramdas Pophale) SiO2 
 PCOD8137771
Probable space group: C 2/C
;
_chemical_formula_sum "Si O2"
_cell_formula_units_Z 52
_cell_length_a 16.305760
_cell_length_b 7.636469
_cell_length_c 21.498888
_cell_angle_alpha 90.000000
_cell_angle_beta 97.136205
_cell_angle_gamma 90.000000
_cell_volume 2656.270721
_symmetry_space_group_name_H-M "C 2/C"
_symmetry_group_IT_number 15
_symmetry_cell_setting 'monoclinic'
loop_
_space_group_symop_operation_xyz
x,y,z
-x,y,1/2-z
-x,-y,-z
x,-y,1/2+z
1/2+x,1/2+y,z
1/2-x,1/2+y,1/2-z
1/2-x,1/2-y,-z
1/2+x,1/2-y,1/2+z
loop_
_atom_site_type_symbol
_atom_site_label
_atom_site_fract_x
_atom_site_fract_y
_atom_site_fract_z
Si Si1 0.726282 0.535581 0.169899
Si Si2 0.573515 0.513274 0.080066
Si Si3 0.500000 0.970764 0.750000
Si Si4 0.047813 0.046634 0.318394
Si Si5 0.890223 0.296567 0.638395
Si Si6 0.527896 0.197686 0.482463
Si Si7 0.148695 0.298335 0.256699
O O1 0.665209 0.461656 0.111725
O O2 0.801340 0.626590 0.142584
O O3 0.764176 0.384910 0.216937
O O4 0.669494 0.660218 0.206095
O O5 0.515932 0.568325 0.131929
O O6 0.545666 0.333582 0.043141
O O7 0.577646 0.690886 0.039102
O O8 0.464273 0.862212 0.689368
O O9 0.423555 0.074399 0.775301
O O10 0.104171 0.218147 0.313845
O O11 0.000000 0.999191 0.250000
O O12 0.115938 0.906485 0.345621
O O13 0.911398 0.334702 0.569263
O O14 0.500000 0.000000 0.500000
#
# Coordination Sequence:
#
# PCOD8137771 Si02
#       7
#     8   8   4   8   8   8   8
#     4  11  23  37  58  95 131 156 199 263 322 368
#     4  10  23  43  64  91 124 163 216 259 307 374
#     4  10  20  36  62  92 116 166 206 250 310 390
#     4  11  19  38  63  87 120 166 200 252 303 370
#     4  10  23  38  62  92 124 154 211 255 312 372
#     4  10  24  43  68  86 118 172 219 253 302 378
#     4  11  22  35  59  92 132 160 196 251 324 378
#
# _framework density 19.576318000000001
#
# number of rings (size 3 to 8) (size 9 to 14) (size 15 to 20)
#    0.000    1.538    3.077    0.923    6.462    1.846 
#    2.769    0.769    0.000    0.000    0.000    0.000 
#    0.000    0.000    0.000    0.000    0.000    0.000 
#
# Total GULP energy -322131.701629 kJ/mol
# GULP energy per Si atom -12389.680832 kJ/mol
# Density = 1.953176 g / cm^3
# Si number density = 19.576318 Si / 1000 Ang^3
#
#
#
# Elastic Constant Matrix: (Units=GPa)
#
#
# Indices 1 2 3 4 5 6 
#
# 1 91.2394 31.3842 33.5368 0.0000 18.4185 0.0000
# 2 31.3842 80.0466 27.9941 0.0000 -0.3069 0.0000
# 3 33.5368 27.9941 96.8372 0.0000 -6.3529 0.0000
# 4 0.0000 0.0000 0.0000 10.6617 0.0000 -16.0831
# 5 18.4185 -0.3069 -6.3529 0.0000 31.8172 0.0000
# 6 0.0000 0.0000 0.0000 -16.0831 0.0000 6.4436
#
#
#
# Elastic Compliance Matrix: (Units=1/GPa)
#
#
# Indices 1 2 3 4 5 6 
#
# 1 0.016630 -0.004786 -0.005077 0.000000 -0.010687 0.000000
# 2 -0.004786 0.015289 -0.002605 0.000000 0.002398 0.000000
# 3 -0.005077 -0.002605 0.013202 0.000000 0.005550 0.000000
# 4 0.000000 0.000000 0.000000 -0.033920 0.000000 -0.084663
# 5 -0.010687 0.002398 0.005550 0.000000 0.038747 0.000000
# 6 0.000000 0.000000 0.000000 -0.084663 0.000000 -0.056125
#
#
# Mechanical properties :
#
#
# Convention : Reuss Voigt Hill
#
# Bulk Modulus (GPa) = 49.54001 50.43927 49.98964
# Shear Modulus (GPa) = 196.17318 21.46505 108.81911
#
# Velocity S-wave (km/s) = 10.02133 3.31491 7.46377
# Velocity P-wave (km/s) = 12.61997 6.36183 9.99341
#
# Compressibility (1/GPa) = 0.02018570
#
# Stress axis : x y z
#
# Youngs Moduli (GPa) = 60.13340 65.40505 75.74565
#
# Poissons Ratio (x) = 0.31300 0.38455
# Poissons Ratio (y) = 0.28777 0.19734
# Poissons Ratio (z) = 0.30529 0.17040
#
# Static dielectric constant tensor:
#      x y z
#    x 3.716010 0.000000 0.089890 
#    y 0.000000 3.818740 0.000000 
#    z 0.089890 0.000000 3.666750 
# 
# 
# High freq. dielectric constant tensor:
#      x y z
#    x 1.762780 0.000000 -0.002550 
#    y 0.000000 1.770690 0.000000 
#    z -0.002550 0.000000 1.759510 
# 
# From -- ./inp_files/242481.got.cif
#   From: 2010.06.25/outbox.cif.g09.slc.cpg/sg15_122_cif.got.tgz:242481.got - 2010.06.28 07:06:18.
