data_PCOD8137877
_publ_section_title
;
Structure prediction by ZEFSAII (Michael W. Deem and Ramdas Pophale) SiO2 
 PCOD8137877
Probable space group: C 2/C
;
_chemical_formula_sum "Si O2"
_cell_formula_units_Z 64
_cell_length_a 9.076209
_cell_length_b 18.314468
_cell_length_c 18.844581
_cell_angle_alpha 90.000000
_cell_angle_beta 92.650541
_cell_angle_gamma 90.000000
_cell_volume 3129.106967
_symmetry_space_group_name_H-M "C 2/C"
_symmetry_group_IT_number 15
_symmetry_cell_setting 'monoclinic'
loop_
_space_group_symop_operation_xyz
x,y,z
-x,y,1/2-z
-x,-y,-z
x,-y,1/2+z
1/2+x,1/2+y,z
1/2-x,1/2+y,1/2-z
1/2-x,1/2-y,-z
1/2+x,1/2-y,1/2+z
loop_
_atom_site_type_symbol
_atom_site_label
_atom_site_fract_x
_atom_site_fract_y
_atom_site_fract_z
Si Si1 0.754351 0.145707 0.563500
Si Si2 0.583464 0.391156 0.077784
Si Si3 0.887475 0.427511 0.684395
Si Si4 0.333309 0.596477 0.085491
Si Si5 0.923722 0.018931 0.319811
Si Si6 0.153819 0.698750 0.419042
Si Si7 0.329293 0.762360 0.929244
Si Si8 0.933050 0.487671 0.421500
O O1 0.754950 0.227206 0.597459
O O2 0.745728 0.151748 0.477765
O O3 0.618533 0.096832 0.590013
O O4 0.907583 0.106559 0.583505
O O5 0.635260 0.456243 0.129011
O O6 0.658691 0.316358 0.110094
O O7 0.625822 0.402819 0.996743
O O8 0.725158 0.442968 0.710295
O O9 0.878251 0.346944 0.651402
O O10 0.000000 0.422788 0.750000
O O11 0.940934 0.490503 0.631360
O O12 0.475119 0.577485 0.136193
O O13 0.263670 0.673755 0.112079
O O14 0.209918 0.536218 0.094487
O O15 0.000000 0.988325 0.250000
O O16 0.996495 0.715488 0.451605
O O17 0.250000 0.750000 0.000000
O O18 0.000000 0.500000 0.500000
#
# Coordination Sequence:
#
# PCOD8137877 Si02
#       8
#     8   8   8   8   8   8   8   8
#     4  10  20  36  64  97 130 158 209 268 328 381
#     4  10  21  37  65  98 125 163 210 264 328 381
#     4  12  26  43  65  91 131 178 222 273 334 404
#     4  11  20  37  66  94 129 158 215 268 326 389
#     4  12  26  42  63  89 128 176 221 268 320 393
#     4  10  20  38  62  97 129 165 210 267 330 389
#     4   9  19  36  62  97 128 159 201 267 327 382
#     4  12  21  36  65  98 130 165 216 273 333 389
#
# _framework density 20.453120999999999
#
# number of rings (size 3 to 8) (size 9 to 14) (size 15 to 20)
#    0.000    1.250    3.750    2.625    0.000    2.000 
#    0.000    2.500    0.000    1.500    0.000    0.000 
#    0.000    0.000    0.000    0.000    0.000    0.000 
#
# Total GULP energy -396625.586366 kJ/mol
# GULP energy per Si atom -12394.549574 kJ/mol
# Density = 2.040657 g / cm^3
# Si number density = 20.453121 Si / 1000 Ang^3
#
#
#
# Elastic Constant Matrix: (Units=GPa)
#
#
# Indices 1 2 3 4 5 6 
#
# 1 108.8474 56.9463 34.7469 0.0000 11.4706 0.0000
# 2 56.9463 136.1727 38.6915 0.0000 6.0169 0.0000
# 3 34.7469 38.6915 89.6692 0.0000 8.7539 0.0000
# 4 0.0000 0.0000 0.0000 17.0841 0.0000 0.1288
# 5 11.4706 6.0169 8.7539 0.0000 34.1592 0.0000
# 6 0.0000 0.0000 0.0000 0.1288 0.0000 41.0654
#
#
#
# Elastic Compliance Matrix: (Units=1/GPa)
#
#
# Indices 1 2 3 4 5 6 
#
# 1 0.012650 -0.004390 -0.002737 0.000000 -0.002773 0.000000
# 2 -0.004390 0.009904 -0.002611 0.000000 0.000399 0.000000
# 3 -0.002737 -0.002611 0.013544 0.000000 -0.002092 0.000000
# 4 0.000000 0.000000 0.000000 0.058535 0.000000 -0.000184
# 5 -0.002773 0.000399 -0.002092 0.000000 0.030672 0.000000
# 6 0.000000 0.000000 0.000000 -0.000184 0.000000 0.024352
#
#
# Mechanical properties :
#
#
# Convention : Reuss Voigt Hill
#
# Bulk Modulus (GPa) = 60.16434 66.16208 63.16321
# Shear Modulus (GPa) = 28.62499 32.08205 30.35352
#
# Velocity S-wave (km/s) = 3.74510 3.96481 3.85652
# Velocity P-wave (km/s) = 6.94123 7.30602 7.12596
#
# Compressibility (1/GPa) = 0.01662114
#
# Stress axis : x y z
#
# Youngs Moduli (GPa) = 79.05291 100.97196 73.83563
#
# Poissons Ratio (x) = 0.44325 0.20208
# Poissons Ratio (y) = 0.34703 0.19280
# Poissons Ratio (z) = 0.21636 0.26366
#
# Static dielectric constant tensor:
#      x y z
#    x 3.947840 0.000000 -0.102850 
#    y 0.000000 4.554970 0.000000 
#    z -0.102850 0.000000 2.943160 
# 
# 
# High freq. dielectric constant tensor:
#      x y z
#    x 1.817890 0.000000 0.003140 
#    y 0.000000 1.810820 0.000000 
#    z 0.003140 0.000000 1.756860 
# 
# From -- ./inp_files/232699.got.cif
#   From: 2010.06.25/outbox.cif.g09.slc.cpg/sg15_117_cif.got.tgz:232699.got - 2010.06.28 07:06:18.
