data_PCOD8137807
_publ_section_title
;
Structure prediction by ZEFSAII (Michael W. Deem and Ramdas Pophale) SiO2 
 PCOD8137807
Probable space group: C 2/C
;
_chemical_formula_sum "Si O2"
_cell_formula_units_Z 48
_cell_length_a 15.706461
_cell_length_b 8.958457
_cell_length_c 18.959209
_cell_angle_alpha 90.000000
_cell_angle_beta 70.554065
_cell_angle_gamma 90.000000
_cell_volume 2515.493629
_symmetry_space_group_name_H-M "C 2/C"
_symmetry_group_IT_number 15
_symmetry_cell_setting 'monoclinic'
loop_
_space_group_symop_operation_xyz
x,y,z
-x,y,1/2-z
-x,-y,-z
x,-y,1/2+z
1/2+x,1/2+y,z
1/2-x,1/2+y,1/2-z
1/2-x,1/2-y,-z
1/2+x,1/2-y,1/2+z
loop_
_atom_site_type_symbol
_atom_site_label
_atom_site_fract_x
_atom_site_fract_y
_atom_site_fract_z
Si Si1 0.855455 0.882279 0.919487
Si Si2 0.095390 0.426082 0.479374
Si Si3 0.247538 0.957696 0.165918
Si Si4 0.772296 0.889605 0.681657
Si Si5 0.458883 0.617914 0.064503
Si Si6 0.788495 0.553316 0.932966
O O1 0.808963 0.725864 0.914990
O O2 0.960308 0.844815 0.903569
O O3 0.839166 0.993146 0.857469
O O4 0.809122 0.957834 0.001371
O O5 0.161722 0.495778 0.402500
O O6 0.080193 0.251007 0.472618
O O7 0.136531 0.462037 0.544174
O O8 0.000000 0.500000 0.500000
O O9 0.245928 0.783572 0.184575
O O10 0.251976 0.055714 0.234356
O O11 0.876405 0.932556 0.636786
O O12 0.711125 0.976400 0.642748
O O13 0.500000 0.500000 0.000000
#
# Coordination Sequence:
#
# PCOD8137807 Si02
#       6
#     8   8   8   8   8   8
#     4  10  20  37  60  91 117 157 193 244 290 357
#     4  10  21  39  61  90 116 154 196 246 290 358
#     4  10  24  38  61  84 121 157 202 236 304 348
#     4  11  23  41  60  85 120 162 193 249 291 362
#     4  11  22  35  62  92 119 147 199 246 293 341
#     4  10  20  36  63  87 120 155 196 236 302 351
#
# _framework density 19.081741999999998
#
# number of rings (size 3 to 8) (size 9 to 14) (size 15 to 20)
#    0.000    1.667    3.333    1.000    2.333    4.000 
#    0.000    0.833    3.667    0.000    0.000    0.000 
#    0.000    0.000    0.000    0.000    0.000    0.000 
#
# Total GULP energy -297569.602079 kJ/mol
# GULP energy per Si atom -12398.733420 kJ/mol
# Density = 1.903831 g / cm^3
# Si number density = 19.081742 Si / 1000 Ang^3
#
#
#
# Elastic Constant Matrix: (Units=GPa)
#
#
# Indices 1 2 3 4 5 6 
#
# 1 95.5287 25.4776 25.9663 0.0000 2.0167 0.0000
# 2 25.4776 87.3495 37.5928 0.0000 7.4007 0.0000
# 3 25.9663 37.5928 89.5291 0.0000 17.6537 0.0000
# 4 0.0000 0.0000 0.0000 35.6017 0.0000 4.8466
# 5 2.0167 7.4007 17.6537 0.0000 27.3969 0.0000
# 6 0.0000 0.0000 0.0000 4.8466 0.0000 34.4494
#
#
#
# Elastic Compliance Matrix: (Units=1/GPa)
#
#
# Indices 1 2 3 4 5 6 
#
# 1 0.011817 -0.002406 -0.002719 0.000000 0.001532 0.000000
# 2 -0.002406 0.014463 -0.005315 0.000000 -0.000305 0.000000
# 3 -0.002719 -0.005315 0.015886 0.000000 -0.008600 0.000000
# 4 0.000000 0.000000 0.000000 0.028637 0.000000 -0.004029
# 5 0.001532 -0.000305 -0.008600 0.000000 0.042012 0.000000
# 6 0.000000 0.000000 0.000000 -0.004029 0.000000 0.029595
#
#
# Mechanical properties :
#
#
# Convention : Reuss Voigt Hill
#
# Bulk Modulus (GPa) = 46.98100 50.05341 48.51721
# Shear Modulus (GPa) = 29.34532 31.71432 30.52982
#
# Velocity S-wave (km/s) = 3.92583 4.08122 4.00428
# Velocity P-wave (km/s) = 6.72487 6.96394 6.84545
#
# Compressibility (1/GPa) = 0.02128520
#
# Stress axis : x y z
#
# Youngs Moduli (GPa) = 84.62741 69.14000 62.94950
#
# Poissons Ratio (x) = 0.16637 0.17115
# Poissons Ratio (y) = 0.20363 0.33458
# Poissons Ratio (z) = 0.23009 0.36748
#
# Static dielectric constant tensor:
#      x y z
#    x 3.241990 0.000000 -1.006310 
#    y 0.000000 2.441170 0.000000 
#    z -1.006310 0.000000 1.667040 
# 
# 
# High freq. dielectric constant tensor:
#      x y z
#    x 1.749000 0.000000 0.007800 
#    y 0.000000 1.750540 0.000000 
#    z 0.007800 0.000000 1.729740 
# 
# From -- ./inp_files/242316.got.cif
#   From: 2010.06.25/outbox.cif.g09.slc.cpg/sg15_122_cif.got.tgz:242316.got - 2010.06.28 07:06:18.
