data_PCOD8137997
_publ_section_title
;
Structure prediction by ZEFSAII (Michael W. Deem and Ramdas Pophale) SiO2 
 PCOD8137997
Probable space group: C 2/C
;
_chemical_formula_sum "Si O2"
_cell_formula_units_Z 60
_cell_length_a 17.457395
_cell_length_b 23.219682
_cell_length_c 12.507333
_cell_angle_alpha 90.000000
_cell_angle_beta 40.581405
_cell_angle_gamma 90.000000
_cell_volume 3298.118511
_symmetry_space_group_name_H-M "C 2/C"
_symmetry_group_IT_number 15
_symmetry_cell_setting 'monoclinic'
loop_
_space_group_symop_operation_xyz
x,y,z
-x,y,1/2-z
-x,-y,-z
x,-y,1/2+z
1/2+x,1/2+y,z
1/2-x,1/2+y,1/2-z
1/2-x,1/2-y,-z
1/2+x,1/2-y,1/2+z
loop_
_atom_site_type_symbol
_atom_site_label
_atom_site_fract_x
_atom_site_fract_y
_atom_site_fract_z
Si Si1 0.900876 0.423699 0.242408
Si Si2 0.342106 0.600946 0.589252
Si Si3 0.814383 0.026339 0.806564
Si Si4 0.385892 0.706577 0.431047
Si Si5 0.655381 0.927038 0.874243
Si Si6 0.500000 0.539856 0.250000
Si Si7 0.624307 0.949589 0.664159
Si Si8 0.830220 0.668261 0.981309
O O1 0.797501 0.411334 0.268659
O O2 0.874149 0.480977 0.337414
O O3 0.908811 0.371507 0.319166
O O4 0.019991 0.434984 0.051864
O O5 0.382373 0.570383 0.654964
O O6 0.366660 0.669931 0.561196
O O7 0.408974 0.577401 0.414338
O O8 0.737455 0.979978 0.821878
O O9 0.730495 0.065325 0.970894
O O10 0.921310 0.998573 0.756248
O O11 0.500000 0.684499 0.250000
O O12 0.283621 0.691088 0.457141
O O13 0.399322 0.774223 0.445180
O O14 0.654720 0.922049 0.746662
O O15 0.704188 0.868307 0.876390
O O16 0.500000 0.926019 0.750000
#
# Coordination Sequence:
#
# PCOD8137997 Si02
#       8
#     8   8   8   8   8   4   8   8
#     4  11  18  35  53  84 112 138 173 225 280 335
#     4  11  22  35  55  77 110 145 183 228 274 330
#     4  12  22  36  51  79 113 148 185 224 276 329
#     4  10  20  37  56  81 108 143 185 230 276 325
#     4  12  21  34  57  81 114 146 178 226 285 336
#     4  12  22  36  50  78 108 146 186 228 276 330
#     4  12  21  33  53  82 112 144 179 219 278 340
#     4  10  21  34  57  84 112 139 179 232 281 328
#
# _framework density 18.19219
#
# number of rings (size 3 to 8) (size 9 to 14) (size 15 to 20)
#    0.000    0.800    6.000    3.600    0.000    0.000 
#    0.000    0.000    0.000    0.800    1.733    0.000 
#    0.000    0.000    0.000    0.000    0.000    0.000 
#
# Total GULP energy -371860.893062 kJ/mol
# GULP energy per Si atom -12395.363102 kJ/mol
# Density = 1.815078 g / cm^3
# Si number density = 18.192190 Si / 1000 Ang^3
#
#
#
# Elastic Constant Matrix: (Units=GPa)
#
#
# Indices 1 2 3 4 5 6 
#
# 1 69.3746 31.4321 25.5960 -0.0004 13.6902 0.0007
# 2 31.4321 105.6711 40.8163 0.0000 16.8444 0.0001
# 3 25.5960 40.8163 67.3267 -0.0001 10.7968 0.0007
# 4 -0.0004 0.0000 -0.0001 28.2299 0.0002 10.5708
# 5 13.6902 16.8444 10.7968 0.0002 35.4638 -0.0009
# 6 0.0007 0.0001 0.0007 10.5708 -0.0009 26.3777
#
#
#
# Elastic Compliance Matrix: (Units=1/GPa)
#
#
# Indices 1 2 3 4 5 6 
#
# 1 0.018264 -0.003050 -0.004412 0.000001 -0.004259 -0.000001
# 2 -0.003050 0.013366 -0.006428 0.000000 -0.003214 0.000000
# 3 -0.004412 -0.006428 0.020674 0.000000 -0.001538 -0.000001
# 4 0.000001 0.000000 0.000000 0.041678 -0.000001 -0.016702
# 5 -0.004259 -0.003214 -0.001538 -0.000001 0.031837 0.000002
# 6 -0.000001 0.000000 -0.000001 -0.016702 0.000002 0.044604
#
#
# Mechanical properties :
#
#
# Convention : Reuss Voigt Hill
#
# Bulk Modulus (GPa) = 40.77518 48.67348 44.72433
# Shear Modulus (GPa) = 24.22759 27.64948 25.93854
#
# Velocity S-wave (km/s) = 3.65328 3.90276 3.78008
# Velocity P-wave (km/s) = 6.34488 6.86454 6.60982
#
# Compressibility (1/GPa) = 0.02452472
#
# Stress axis : x y z
#
# Youngs Moduli (GPa) = 54.75104 74.81852 48.37058
#
# Poissons Ratio (x) = 0.22818 0.21340
# Poissons Ratio (y) = 0.16698 0.31092
# Poissons Ratio (z) = 0.24155 0.48093
#
# Static dielectric constant tensor:
#      x y z
#    x 3.610440 0.000000 0.003670 
#    y 0.000000 3.518050 0.000000 
#    z 0.003670 0.000000 3.444070 
# 
# 
# High freq. dielectric constant tensor:
#      x y z
#    x 1.706850 0.000000 -0.017250 
#    y 0.000000 1.681740 0.000000 
#    z -0.017250 0.000000 1.704320 
# 
# From -- ./inp_files/108093.got.cif
#   From: 2010.06.25/outbox.cif.g09.slc.cpg/sg15_55_cif.got.tgz:108093.got - 2010.06.28 07:06:18.
