data_PCOD8137577
_publ_section_title
;
Structure prediction by ZEFSAII (Michael W. Deem and Ramdas Pophale) SiO2 
 PCOD8137577
Probable space group: C 2/C
;
_chemical_formula_sum "Si O2"
_cell_formula_units_Z 56
_cell_length_a 9.108093
_cell_length_b 25.573152
_cell_length_c 16.186626
_cell_angle_alpha 90.000000
_cell_angle_beta 127.178395
_cell_angle_gamma 90.000000
_cell_volume 3003.961731
_symmetry_space_group_name_H-M "C 2/C"
_symmetry_group_IT_number 15
_symmetry_cell_setting 'monoclinic'
loop_
_space_group_symop_operation_xyz
x,y,z
-x,y,1/2-z
-x,-y,-z
x,-y,1/2+z
1/2+x,1/2+y,z
1/2-x,1/2+y,1/2-z
1/2-x,1/2-y,-z
1/2+x,1/2-y,1/2+z
loop_
_atom_site_type_symbol
_atom_site_label
_atom_site_fract_x
_atom_site_fract_y
_atom_site_fract_z
Si Si1 0.231297 0.128931 0.127660
Si Si2 0.809030 0.228321 0.138264
Si Si3 0.839201 0.172599 0.978439
Si Si4 0.421705 0.144238 0.355391
Si Si5 0.698638 0.521081 0.045386
Si Si6 0.413339 0.056365 0.976215
Si Si7 0.063452 0.580867 0.863223
O O1 0.255182 0.135856 0.233848
O O2 0.391135 0.157591 0.130038
O O3 0.246796 0.066606 0.125130
O O4 0.041463 0.151005 0.026443
O O5 0.740347 0.288695 0.119070
O O6 0.638501 0.194540 0.113681
O O7 0.000000 0.222920 0.250000
O O8 0.855436 0.208395 0.063618
O O9 0.707745 0.123097 0.945469
O O10 0.452431 0.094216 0.425024
O O11 0.844920 0.475697 0.109766
O O12 0.500000 0.500000 0.000000
O O13 0.719056 0.546865 0.959196
O O14 0.398350 0.078980 0.876645
O O15 0.500000 0.000000 0.000000
O O16 0.000000 0.596988 0.750000
#
# Coordination Sequence:
#
# PCOD8137577 Si02
#       7
#     8   8   8   8   8   8   8
#     4  10  21  36  60  89 114 155 192 245 305 357
#     4  11  22  38  61  87 111 150 206 253 294 355
#     4  11  22  38  59  84 118 155 198 249 299 355
#     4  10  20  37  61  85 118 147 199 248 298 355
#     4  10  20  36  60  85 119 155 200 242 293 359
#     4   9  20  35  56  83 119 156 192 241 296 350
#     4  11  22  37  58  85 124 165 195 240 305 355
#
# _framework density 18.642047999999999
#
# number of rings (size 3 to 8) (size 9 to 14) (size 15 to 20)
#    0.000    1.714    4.286    0.429    6.000    0.571 
#    0.000    0.714    0.000    0.000    0.000    0.000 
#    0.000    0.000    0.000    0.000    0.000    0.000 
#
# Total GULP energy -346913.290273 kJ/mol
# GULP energy per Si atom -12389.760367 kJ/mol
# Density = 1.859962 g / cm^3
# Si number density = 18.642048 Si / 1000 Ang^3
#
#
#
# Elastic Constant Matrix: (Units=GPa)
#
#
# Indices 1 2 3 4 5 6 
#
# 1 108.2448 36.6365 36.1105 0.0000 -1.5308 0.0000
# 2 36.6365 104.3955 16.1043 0.0000 4.2634 0.0000
# 3 36.1105 16.1043 68.8975 0.0000 -6.0580 0.0000
# 4 0.0000 0.0000 0.0000 26.4838 0.0000 0.5785
# 5 -1.5308 4.2634 -6.0580 0.0000 28.1041 0.0000
# 6 0.0000 0.0000 0.0000 0.5785 0.0000 24.6906
#
#
#
# Elastic Compliance Matrix: (Units=1/GPa)
#
#
# Indices 1 2 3 4 5 6 
#
# 1 0.012282 -0.003440 -0.005635 0.000000 -0.000024 0.000000
# 2 -0.003440 0.011018 -0.000954 0.000000 -0.002064 0.000000
# 3 -0.005635 -0.000954 0.018018 0.000000 0.003722 0.000000
# 4 0.000000 0.000000 0.000000 0.037778 0.000000 -0.000885
# 5 -0.000024 -0.002064 0.003722 0.000000 0.036696 0.000000
# 6 0.000000 0.000000 0.000000 -0.000885 0.000000 0.040522
#
#
# Mechanical properties :
#
#
# Convention : Reuss Voigt Hill
#
# Bulk Modulus (GPa) = 47.03770 51.02672 49.03221
# Shear Modulus (GPa) = 27.25399 28.70146 27.97772
#
# Velocity S-wave (km/s) = 3.82771 3.92804 3.87820
# Velocity P-wave (km/s) = 6.69492 6.92849 6.81271
#
# Compressibility (1/GPa) = 0.02125954
#
# Stress axis : x y z
#
# Youngs Moduli (GPa) = 81.41826 90.76349 55.49969
#
# Poissons Ratio (x) = 0.31223 0.31276
# Poissons Ratio (y) = 0.28008 0.05294
# Poissons Ratio (z) = 0.45882 0.08657
#
# Static dielectric constant tensor:
#      x y z
#    x 3.748250 0.000000 -0.268750 
#    y 0.000000 3.595820 0.000000 
#    z -0.268750 0.000000 3.446010 
# 
# 
# High freq. dielectric constant tensor:
#      x y z
#    x 1.725150 0.000000 -0.015680 
#    y 0.000000 1.733570 0.000000 
#    z -0.015680 0.000000 1.706110 
# 
# From -- ./inp_files/137922.got.cif
#   From: 2010.06.25/outbox.cif.g09.slc.cpg/sg15_69_cif.got.tgz:137922.got - 2010.06.28 07:06:18.
