data_PCOD8137567
_publ_section_title
;
Structure prediction by ZEFSAII (Michael W. Deem and Ramdas Pophale) SiO2 
 PCOD8137567
Probable space group: C 2/C
;
_chemical_formula_sum "Si O2"
_cell_formula_units_Z 56
_cell_length_a 8.888053
_cell_length_b 15.888176
_cell_length_c 24.960947
_cell_angle_alpha 90.000000
_cell_angle_beta 55.683571
_cell_angle_gamma 90.000000
_cell_volume 2911.310233
_symmetry_space_group_name_H-M "C 2/C"
_symmetry_group_IT_number 15
_symmetry_cell_setting 'monoclinic'
loop_
_space_group_symop_operation_xyz
x,y,z
-x,y,1/2-z
-x,-y,-z
x,-y,1/2+z
1/2+x,1/2+y,z
1/2-x,1/2+y,1/2-z
1/2-x,1/2-y,-z
1/2+x,1/2-y,1/2+z
loop_
_atom_site_type_symbol
_atom_site_label
_atom_site_fract_x
_atom_site_fract_y
_atom_site_fract_z
Si Si1 0.598855 0.350668 0.332839
Si Si2 0.862068 0.428697 0.548298
Si Si3 0.611255 0.675488 0.032647
Si Si4 0.500000 0.743272 0.750000
Si Si5 0.886990 0.184333 0.180398
Si Si6 0.464260 0.253506 0.461060
Si Si7 0.500000 0.801776 0.250000
Si Si8 0.959552 0.986377 0.819519
O O1 0.493094 0.315136 0.302913
O O2 0.551536 0.287947 0.389783
O O3 0.818031 0.358224 0.284855
O O4 0.519244 0.444520 0.351865
O O5 0.717363 0.409959 0.529001
O O6 0.750720 0.461231 0.623426
O O7 0.000000 0.500000 0.500000
O O8 0.962052 0.340837 0.542163
O O9 0.462857 0.699460 0.106384
O O10 0.750000 0.750000 0.000000
O O11 0.510791 0.674148 0.995702
O O12 0.326472 0.802205 0.779158
O O13 0.998899 0.245498 0.197026
O O14 0.908231 0.091328 0.198205
O O15 0.250000 0.250000 0.500000
O O16 0.000000 0.016267 0.750000
#
# Coordination Sequence:
#
# PCOD8137567 Si02
#       8
#     8   8   8   4   8   8   4   8
#     4  11  22  39  58  88 119 161 203 251 301 369
#     4  10  22  41  64  91 120 167 206 255 318 374
#     4   9  19  37  59  86 116 155 198 238 301 363
#     4  10  22  36  60  86 120 156 204 244 306 362
#     4  10  20  37  61  85 116 154 195 249 302 365
#     4  11  22  39  64  90 123 157 208 257 307 371
#     4  10  20  36  60  82 116 152 204 238 302 352
#     4  11  22  40  60  87 123 159 203 253 312 369
#
# _framework density 19.235326000000001
#
# number of rings (size 3 to 8) (size 9 to 14) (size 15 to 20)
#    0.000    1.714    1.429    4.286    2.000    1.714 
#    2.571    7.857    0.000    0.000    0.000    0.000 
#    0.000    0.000    0.000    0.000    0.000    0.000 
#
# Total GULP energy -346986.755807 kJ/mol
# GULP energy per Si atom -12392.384136 kJ/mol
# Density = 1.919155 g / cm^3
# Si number density = 19.235326 Si / 1000 Ang^3
#
#
#
# Elastic Constant Matrix: (Units=GPa)
#
#
# Indices 1 2 3 4 5 6 
#
# 1 106.4463 41.6995 34.5175 -0.0004 5.1294 0.0004
# 2 41.6995 94.0146 37.9002 -0.0002 -9.5690 0.0002
# 3 34.5175 37.9002 106.3674 -0.0008 9.8338 0.0004
# 4 -0.0004 -0.0002 -0.0008 32.0594 0.0005 -1.6869
# 5 5.1294 -9.5690 9.8338 0.0005 33.2201 -0.0003
# 6 0.0004 0.0002 0.0004 -1.6869 -0.0003 24.7705
#
#
#
# Elastic Compliance Matrix: (Units=1/GPa)
#
#
# Indices 1 2 3 4 5 6 
#
# 1 0.012046 -0.004834 -0.001939 0.000000 -0.002678 0.000000
# 2 -0.004834 0.015234 -0.004456 0.000000 0.006454 0.000000
# 3 -0.001939 -0.004456 0.012039 0.000000 -0.004548 0.000000
# 4 0.000000 0.000000 0.000000 0.031304 -0.000001 0.002132
# 5 -0.002678 0.006454 -0.004548 -0.000001 0.033721 0.000000
# 6 0.000000 0.000000 0.000000 0.002132 0.000000 0.040516
#
#
# Mechanical properties :
#
#
# Convention : Reuss Voigt Hill
#
# Bulk Modulus (GPa) = 59.30927 59.45139 59.38033
# Shear Modulus (GPa) = 28.91217 30.85742 29.88480
#
# Velocity S-wave (km/s) = 3.88116 4.00960 3.94590
# Velocity P-wave (km/s) = 7.14038 7.23950 7.19011
#
# Compressibility (1/GPa) = 0.01686077
#
# Stress axis : x y z
#
# Youngs Moduli (GPa) = 83.01619 65.64330 83.06447
#
# Poissons Ratio (x) = 0.31730 0.16107
# Poissons Ratio (y) = 0.40128 0.37014
# Poissons Ratio (z) = 0.16097 0.29251
#
# Static dielectric constant tensor:
#      x y z
#    x 3.886900 -0.000010 0.175190 
#    y -0.000010 3.873840 0.000000 
#    z 0.175190 0.000000 3.617670 
# 
# 
# High freq. dielectric constant tensor:
#      x y z
#    x 1.754420 0.000000 -0.004280 
#    y 0.000000 1.741150 0.000000 
#    z -0.004280 0.000000 1.759360 
# 
# From -- ./inp_files/264638.got.cif
#   From: 2010.06.25/outbox.cif.g09.slc.cpg/sg15_133_cif.got.tgz:264638.got - 2010.06.28 07:06:18.
