data_PCOD8137335
_publ_section_title
;
Structure prediction by ZEFSAII (Michael W. Deem and Ramdas Pophale) SiO2 
 PCOD8137335
Probable space group: C 2/C
;
_chemical_formula_sum "Si O2"
_cell_formula_units_Z 48
_cell_length_a 18.216143
_cell_length_b 18.357500
_cell_length_c 8.742817
_cell_angle_alpha 90.000000
_cell_angle_beta 121.361158
_cell_angle_gamma 90.000000
_cell_volume 2496.492699
_symmetry_space_group_name_H-M "C 2/C"
_symmetry_group_IT_number 15
_symmetry_cell_setting 'monoclinic'
loop_
_space_group_symop_operation_xyz
x,y,z
-x,y,1/2-z
-x,-y,-z
x,-y,1/2+z
1/2+x,1/2+y,z
1/2-x,1/2+y,1/2-z
1/2-x,1/2-y,-z
1/2+x,1/2-y,1/2+z
loop_
_atom_site_type_symbol
_atom_site_label
_atom_site_fract_x
_atom_site_fract_y
_atom_site_fract_z
Si Si1 0.571164 0.590250 0.032370
Si Si2 0.839848 0.702837 0.976803
Si Si3 0.248453 0.655130 0.333145
Si Si4 0.606950 0.932833 0.518623
Si Si5 0.500000 0.291775 0.250000
Si Si6 0.585911 0.080367 0.638913
Si Si7 0.000000 0.032777 0.250000
O O1 0.669530 0.604835 0.100073
O O2 0.559029 0.582584 0.202680
O O3 0.507206 0.654948 0.906043
O O4 0.556245 0.515255 0.926178
O O5 0.775461 0.761232 0.829975
O O6 0.877457 0.656875 0.878407
O O7 0.786504 0.649999 0.031060
O O8 0.914556 0.742028 0.159473
O O9 0.174610 0.628381 0.139841
O O10 0.516141 0.915699 0.501266
O O11 0.604176 0.930956 0.334967
O O12 0.631768 0.014609 0.597047
#
# Coordination Sequence:
#
# PCOD8137335 Si02
#       7
#     8   8   8   8   4   8   4
#     4   9  19  35  56  82 107 141 181 222 271 322
#     4  10  20  36  57  80 111 149 182 220 272 327
#     4  10  21  36  55  83 113 141 181 228 273 318
#     4  10  21  37  57  84 113 142 184 231 272 323
#     4   9  18  36  56  76 110 149 182 212 264 333
#     4  10  21  37  58  80 109 150 185 220 276 334
#     4   9  18  36  58  78 108 143 180 220 268 331
#
# _framework density 19.226973000000001
#
# number of rings (size 3 to 8) (size 9 to 14) (size 15 to 20)
#    0.000    2.333    0.000    2.000    0.000    6.000 
#    0.000   18.333    0.000    0.000    0.000    0.000 
#    0.000    0.000    0.000    0.000    0.000    0.000 
#
# Total GULP energy -297530.617279 kJ/mol
# GULP energy per Si atom -12397.109053 kJ/mol
# Density = 1.918321 g / cm^3
# Si number density = 19.226973 Si / 1000 Ang^3
#
#
#
# Elastic Constant Matrix: (Units=GPa)
#
#
# Indices 1 2 3 4 5 6 
#
# 1 116.0992 59.1921 54.0352 0.0000 -9.0501 0.0000
# 2 59.1921 91.7159 50.9613 0.0000 -2.2520 0.0000
# 3 54.0352 50.9613 90.4843 0.0000 0.8070 0.0000
# 4 0.0000 0.0000 0.0000 23.1824 0.0000 -2.2079
# 5 -9.0501 -2.2520 0.8070 0.0000 31.6634 0.0000
# 6 0.0000 0.0000 0.0000 -2.2079 0.0000 40.7014
#
#
#
# Elastic Compliance Matrix: (Units=1/GPa)
#
#
# Indices 1 2 3 4 5 6 
#
# 1 0.014594 -0.006496 -0.005091 0.000000 0.003839 0.000000
# 2 -0.006496 0.018819 -0.006717 0.000000 -0.000347 0.000000
# 3 -0.005091 -0.006717 0.017896 0.000000 -0.002389 0.000000
# 4 0.000000 0.000000 0.000000 0.043360 0.000000 0.002352
# 5 0.003839 -0.000347 -0.002389 0.000000 0.032716 0.000000
# 6 0.000000 0.000000 0.000000 0.002352 0.000000 0.024697
#
#
# Mechanical properties :
#
#
# Convention : Reuss Voigt Hill
#
# Bulk Modulus (GPa) = 68.01749 69.63074 68.82412
# Shear Modulus (GPa) = 25.82789 28.05015 26.93902
#
# Velocity S-wave (km/s) = 3.66910 3.82369 3.74720
# Velocity P-wave (km/s) = 7.30771 7.46913 7.38886
#
# Compressibility (1/GPa) = 0.01470210
#
# Stress axis : x y z
#
# Youngs Moduli (GPa) = 68.52254 53.13756 55.87790
#
# Poissons Ratio (x) = 0.34516 0.28447
# Poissons Ratio (y) = 0.44509 0.37533
# Poissons Ratio (z) = 0.34885 0.35692
#
# Static dielectric constant tensor:
#      x y z
#    x 3.593920 0.000000 0.057110 
#    y 0.000000 3.600700 0.000000 
#    z 0.057110 0.000000 3.385020 
# 
# 
# High freq. dielectric constant tensor:
#      x y z
#    x 1.749740 0.000000 0.000540 
#    y 0.000000 1.751390 0.000000 
#    z 0.000540 0.000000 1.734940 
# 
# From -- ./inp_files/48732.got.cif
#   From: 2010.06.25/outbox.cif.g09.slc.cpg/sg15_25_cif.got.tgz:48732.got - 2010.06.28 07:06:18.
