data_PCOD8137994
_publ_section_title
;
Structure prediction by ZEFSAII (Michael W. Deem and Ramdas Pophale) SiO2 
 PCOD8137994
Probable space group: C 2/C
;
_chemical_formula_sum "Si O2"
_cell_formula_units_Z 60
_cell_length_a 14.400506
_cell_length_b 27.925553
_cell_length_c 12.890925
_cell_angle_alpha 90.000000
_cell_angle_beta 33.854709
_cell_angle_gamma 90.000000
_cell_volume 2887.939336
_symmetry_space_group_name_H-M "C 2/C"
_symmetry_group_IT_number 15
_symmetry_cell_setting 'monoclinic'
loop_
_space_group_symop_operation_xyz
x,y,z
-x,y,1/2-z
-x,-y,-z
x,-y,1/2+z
1/2+x,1/2+y,z
1/2-x,1/2+y,1/2-z
1/2-x,1/2-y,-z
1/2+x,1/2-y,1/2+z
loop_
_atom_site_type_symbol
_atom_site_label
_atom_site_fract_x
_atom_site_fract_y
_atom_site_fract_z
Si Si1 0.128247 0.458855 0.401848
Si Si2 0.000000 0.394820 0.250000
Si Si3 0.319371 0.558360 0.519299
Si Si4 0.443964 0.389653 0.572906
Si Si5 0.552986 0.205749 0.084641
Si Si6 0.061562 0.812249 0.301505
Si Si7 0.969464 0.035605 0.674282
Si Si8 0.932894 0.631383 0.039506
O O1 0.228767 0.455045 0.206028
O O2 0.267815 0.471630 0.358059
O O3 0.000000 0.500000 0.500000
O O4 0.032884 0.408972 0.512276
O O5 0.169453 0.426821 0.079804
O O6 0.003293 0.364006 0.354897
O O7 0.443296 0.603323 0.428325
O O8 0.433700 0.513353 0.385244
O O9 0.517734 0.346885 0.436513
O O10 0.452183 0.439223 0.499182
O O11 0.260532 0.381049 0.783889
O O12 0.500000 0.189020 0.250000
O O13 0.529876 0.262198 0.093289
O O14 0.448257 0.180086 0.090932
O O15 0.742739 0.193922 0.887201
O O16 0.000000 0.834371 0.250000
O O17 0.000000 0.067632 0.750000
#
# Coordination Sequence:
#
# PCOD8137994 Si02
#       8
#     8   4   8   8   8   8   8   8
#     4  10  20  37  56  79 115 157 203 260 306 360
#     4  10  24  40  62  90 116 172 210 266 308 370
#     4  10  22  37  56  81 116 159 216 252 307 365
#     4  11  22  40  60  87 123 166 204 265 316 374
#     4  11  22  39  65  99 127 165 201 254 317 375
#     4  11  21  38  64  94 131 158 203 253 318 382
#     4  11  23  35  55  87 120 160 209 259 315 374
#     4  11  23  40  64  87 126 162 216 257 313 377
#
# _framework density 20.776059
#
# number of rings (size 3 to 8) (size 9 to 14) (size 15 to 20)
#    0.000    1.333    0.000    9.200    5.600    1.067 
#    0.000    0.000    0.000    7.200    0.000    0.000 
#    0.000    0.000    0.000    0.000    0.000    0.000 
#
# Total GULP energy -371671.230432 kJ/mol
# GULP energy per Si atom -12389.041014 kJ/mol
# Density = 2.072877 g / cm^3
# Si number density = 20.776059 Si / 1000 Ang^3
#
#
#
# Elastic Constant Matrix: (Units=GPa)
#
#
# Indices 1 2 3 4 5 6 
#
# 1 68.6278 23.2218 11.6012 0.0000 -26.2601 0.0000
# 2 23.2218 80.3704 22.3879 0.0000 1.0879 0.0000
# 3 11.6012 22.3879 115.3905 -0.0002 -24.0457 0.0000
# 4 0.0000 0.0000 -0.0002 39.5569 0.0000 -6.8811
# 5 -26.2601 1.0879 -24.0457 0.0000 32.3557 0.0000
# 6 0.0000 0.0000 0.0000 -6.8811 0.0000 27.5701
#
#
#
# Elastic Compliance Matrix: (Units=1/GPa)
#
#
# Indices 1 2 3 4 5 6 
#
# 1 0.026563 -0.009227 0.004350 0.000000 0.025102 0.000000
# 2 -0.009227 0.016571 -0.004690 0.000000 -0.011531 0.000000
# 3 0.004350 -0.004690 0.011723 0.000000 0.012401 0.000000
# 4 0.000000 0.000000 0.000000 0.026427 0.000000 0.006596
# 5 0.025102 -0.011531 0.012401 0.000000 0.060883 0.000000
# 6 0.000000 0.000000 0.000000 0.006596 0.000000 0.037917
#
#
# Mechanical properties :
#
#
# Convention : Reuss Voigt Hill
#
# Bulk Modulus (GPa) = 27.99242 42.09005 35.04123
# Shear Modulus (GPa) = 23.68249 33.70840 28.69544
#
# Velocity S-wave (km/s) = 3.37989 4.03235 3.72045
# Velocity P-wave (km/s) = 5.36043 6.47941 5.94630
#
# Compressibility (1/GPa) = 0.03572396
#
# Stress axis : x y z
#
# Youngs Moduli (GPa) = 37.64592 60.34655 85.30260
#
# Poissons Ratio (x) = 0.55680 -0.37111
# Poissons Ratio (y) = 0.34735 0.40010
# Poissons Ratio (z) = -0.16378 0.28305
#
# Static dielectric constant tensor:
#      x y z
#    x 4.307390 -0.000010 0.474630 
#    y -0.000010 4.462760 0.000000 
#    z 0.474630 0.000000 2.798810 
# 
# 
# High freq. dielectric constant tensor:
#      x y z
#    x 1.822060 0.000000 -0.012550 
#    y 0.000000 1.789130 0.000000 
#    z -0.012550 0.000000 1.836640 
# 
# From -- ./inp_files/157337.got.cif
#   From: 2010.06.25/outbox.cif.g09.slc.cpg/sg15_79_cif.got.tgz:157337.got - 2010.06.28 07:06:18.
