data_PCOD8137966
_publ_section_title
;
Structure prediction by ZEFSAII (Michael W. Deem and Ramdas Pophale) SiO2 
 PCOD8137966
Probable space group: C 2/C
;
_chemical_formula_sum "Si O2"
_cell_formula_units_Z 64
_cell_length_a 24.897565
_cell_length_b 17.615226
_cell_length_c 24.239448
_cell_angle_alpha 90.000000
_cell_angle_beta 19.796106
_cell_angle_gamma 90.000000
_cell_volume 3600.390806
_symmetry_space_group_name_H-M "C 2/C"
_symmetry_group_IT_number 15
_symmetry_cell_setting 'monoclinic'
loop_
_space_group_symop_operation_xyz
x,y,z
-x,y,1/2-z
-x,-y,-z
x,-y,1/2+z
1/2+x,1/2+y,z
1/2-x,1/2+y,1/2-z
1/2-x,1/2-y,-z
1/2+x,1/2-y,1/2+z
loop_
_atom_site_type_symbol
_atom_site_label
_atom_site_fract_x
_atom_site_fract_y
_atom_site_fract_z
Si Si1 0.813929 0.024428 0.080892
Si Si2 0.629848 0.868083 0.000277
Si Si3 0.644161 0.469836 0.783638
Si Si4 0.814385 0.831324 0.924291
Si Si5 0.616785 0.949211 0.184202
Si Si6 0.470005 0.798273 0.510926
Si Si7 0.348896 0.649992 0.131071
Si Si8 0.849670 0.552334 0.659383
O O1 0.841510 0.110504 0.077204
O O2 0.710538 0.018227 0.124230
O O3 0.717887 0.973090 0.216632
O O4 0.987651 0.988941 0.899822
O O5 0.478226 0.896598 0.180819
O O6 0.584491 0.800046 0.001115
O O7 0.706314 0.938995 0.894760
O O8 0.769925 0.840070 0.903595
O O9 0.594705 0.412503 0.879906
O O10 0.711538 0.545696 0.747253
O O11 0.000000 0.834743 0.750000
O O12 0.750000 0.750000 0.000000
O O13 0.742461 0.895140 0.033108
O O14 0.500000 0.983990 0.250000
O O15 0.528996 0.718688 0.478255
O O16 0.327777 0.821879 0.687693
O O17 0.610188 0.859372 0.378813
O O18 0.000000 0.500000 0.500000
#
# Coordination Sequence:
#
# PCOD8137966 Si02
#       8
#     8   8   8   8   8   8   8   8
#     4  11  20  36  56  78 111 144 189 235 273 325
#     4  10  20  37  54  77 104 150 184 221 282 324
#     4  10  21  33  54  80 108 144 186 220 274 336
#     4  11  23  38  53  78 113 145 190 234 270 321
#     4  10  21  36  59  79 103 146 192 234 273 326
#     4  11  22  34  51  78 115 142 179 225 273 342
#     4  10  23  33  50  82 112 147 187 216 280 335
#     4  11  17  35  54  74 107 149 180 224 268 341
#
# _framework density 17.775848
#
# number of rings (size 3 to 8) (size 9 to 14) (size 15 to 20)
#    0.000    1.500    5.000    3.375    3.500    5.000 
#    0.000    0.000    0.000    0.000    0.000    0.875 
#    0.000    0.000    0.000    0.000    0.000    0.000 
#
# Total GULP energy -396535.666160 kJ/mol
# GULP energy per Si atom -12391.739568 kJ/mol
# Density = 1.773539 g / cm^3
# Si number density = 17.775848 Si / 1000 Ang^3
#
#
#
# Elastic Constant Matrix: (Units=GPa)
#
#
# Indices 1 2 3 4 5 6 
#
# 1 129.9645 58.6858 41.6550 -0.0340 -24.8697 0.0168
# 2 58.6858 86.0957 29.9318 -0.1273 -13.8674 0.0306
# 3 41.6550 29.9318 91.0189 -0.1309 -16.6144 0.0858
# 4 -0.0340 -0.1273 -0.1309 25.9405 0.0413 -9.1488
# 5 -24.8697 -13.8674 -16.6144 0.0413 31.8485 -0.0048
# 6 0.0168 0.0306 0.0858 -9.1488 -0.0048 30.1317
#
#
#
# Elastic Compliance Matrix: (Units=1/GPa)
#
#
# Indices 1 2 3 4 5 6 
#
# 1 0.012670 -0.006859 -0.002522 -0.000040 0.005591 -0.000004
# 2 -0.006859 0.017263 -0.002369 0.000067 0.000925 0.000014
# 3 -0.002522 -0.002369 0.013675 0.000040 0.004132 -0.000022
# 4 -0.000040 0.000067 0.000040 0.043173 -0.000036 0.013108
# 5 0.005591 0.000925 0.004132 -0.000036 0.038323 -0.000021
# 6 -0.000004 0.000014 -0.000022 0.013108 -0.000021 0.037168
#
#
# Mechanical properties :
#
#
# Convention : Reuss Voigt Hill
#
# Bulk Modulus (GPa) = 49.73415 63.06939 56.40177
# Shear Modulus (GPa) = 25.97748 29.37124 27.67436
#
# Velocity S-wave (km/s) = 3.82696 4.06927 3.94998
# Velocity P-wave (km/s) = 6.89687 7.59184 7.25268
#
# Compressibility (1/GPa) = 0.02010691
#
# Stress axis : x y z
#
# Youngs Moduli (GPa) = 78.92729 57.92790 73.12860
#
# Poissons Ratio (x) = 0.39732 0.18445
# Poissons Ratio (y) = 0.54135 0.17325
# Poissons Ratio (z) = 0.19908 0.13724
#
# Static dielectric constant tensor:
#      x y z
#    x 3.528080 -0.000120 -0.064820 
#    y -0.000120 3.250240 0.000280 
#    z -0.064820 0.000280 3.635280 
# 
# 
# High freq. dielectric constant tensor:
#      x y z
#    x 1.677280 -0.000010 -0.015880 
#    y -0.000010 1.657800 0.000030 
#    z -0.015880 0.000030 1.708730 
# 
# From -- ./inp_files/282243.got.cif
#   From: 2010.06.25/outbox.cif.g09.slc.cpg/sg15_142_cif.got.tgz:282243.got - 2010.06.28 07:06:18.
