data_PCOD8137665
_publ_section_title
;
Structure prediction by ZEFSAII (Michael W. Deem and Ramdas Pophale) SiO2 
 PCOD8137665
Probable space group: C 2/C
;
_chemical_formula_sum "Si O2"
_cell_formula_units_Z 52
_cell_length_a 14.501194
_cell_length_b 7.673426
_cell_length_c 30.202327
_cell_angle_alpha 90.000000
_cell_angle_beta 39.720417
_cell_angle_gamma 90.000000
_cell_volume 2147.646726
_symmetry_space_group_name_H-M "C 2/C"
_symmetry_group_IT_number 15
_symmetry_cell_setting 'monoclinic'
loop_
_space_group_symop_operation_xyz
x,y,z
-x,y,1/2-z
-x,-y,-z
x,-y,1/2+z
1/2+x,1/2+y,z
1/2-x,1/2+y,1/2-z
1/2-x,1/2-y,-z
1/2+x,1/2-y,1/2+z
loop_
_atom_site_type_symbol
_atom_site_label
_atom_site_fract_x
_atom_site_fract_y
_atom_site_fract_z
Si Si1 0.000000 0.027909 0.750000
Si Si2 0.966576 0.493572 0.651762
Si Si3 0.996737 0.195447 0.984808
Si Si4 0.601008 0.207191 0.532246
Si Si5 0.664659 0.277776 0.114395
Si Si6 0.172116 0.153012 0.261524
Si Si7 0.476398 0.547976 0.613975
O O1 0.109177 0.147514 0.681559
O O2 0.098552 0.904076 0.743349
O O3 0.900997 0.667569 0.697073
O O4 0.846510 0.338320 0.691254
O O5 0.031766 0.534276 0.579228
O O6 0.094557 0.415359 0.634667
O O7 0.835881 0.270992 0.049254
O O8 0.103147 0.311085 0.977555
O O9 0.052209 0.196901 0.913055
O O10 0.000000 0.000000 0.000000
O O11 0.750000 0.250000 0.500000
O O12 0.498792 0.369562 0.579626
O O13 0.616726 0.400252 0.091073
O O14 0.154658 0.996428 0.304222
#
# Coordination Sequence:
#
# PCOD8137665 Si02
#       7
#     4   8   8   8   8   8   8
#     4  10  22  40  60  86 118 154 206 260 308 374
#     4  11  22  39  63  87 123 166 204 260 322 376
#     4  10  20  36  61  87 118 159 204 250 305 369
#     4  10  21  40  63  91 125 162 211 266 314 374
#     4  11  22  39  61  88 122 162 205 256 313 371
#     4  10  21  39  60  89 122 159 205 256 313 375
#     4   9  20  38  59  84 123 162 201 254 307 370
#
# _framework density 24.212548000000002
#
# number of rings (size 3 to 8) (size 9 to 14) (size 15 to 20)
#    0.000    1.846    0.000    5.077    0.000    3.077 
#    0.000   15.385    0.000    0.000    0.000    0.000 
#    0.000    0.000    0.000    0.000    0.000    0.000 
#
# Total GULP energy -322210.855234 kJ/mol
# GULP energy per Si atom -12392.725201 kJ/mol
# Density = 2.415744 g / cm^3
# Si number density = 24.212548 Si / 1000 Ang^3
#
#
#
# Elastic Constant Matrix: (Units=GPa)
#
#
# Indices 1 2 3 4 5 6 
#
# 1 118.3780 -14.8658 25.5558 -0.0575 8.8806 -0.0650
# 2 -14.8658 63.5089 -6.6168 -0.0889 7.6236 -0.0908
# 3 25.5558 -6.6168 57.7724 -0.0336 12.7196 -0.0372
# 4 -0.0575 -0.0889 -0.0336 20.4759 -0.0027 -4.9261
# 5 8.8806 7.6236 12.7196 -0.0027 44.5217 -0.0087
# 6 -0.0650 -0.0908 -0.0372 -4.9261 -0.0087 34.2588
#
#
#
# Elastic Compliance Matrix: (Units=1/GPa)
#
#
# Indices 1 2 3 4 5 6 
#
# 1 0.009598 0.001997 -0.003756 0.000035 -0.001183 0.000024
# 2 0.001997 0.016870 0.001891 0.000097 -0.003827 0.000064
# 3 -0.003756 0.001891 0.020376 0.000036 -0.005396 0.000024
# 4 0.000035 0.000097 0.000036 0.050589 -0.000029 0.007275
# 5 -0.001183 -0.003827 -0.005396 -0.000029 0.024894 -0.000016
# 6 0.000024 0.000064 0.000024 0.007275 -0.000016 0.030236
#
#
# Mechanical properties :
#
#
# Convention : Reuss Voigt Hill
#
# Bulk Modulus (GPa) = 21.22754 27.53397 24.38076
# Shear Modulus (GPa) = 29.76185 35.55701 32.65943
#
# Velocity S-wave (km/s) = 3.50979 3.83631 3.67667
# Velocity P-wave (km/s) = 5.02106 5.56951 5.30238
#
# Compressibility (1/GPa) = 0.04710861
#
# Stress axis : x y z
#
# Youngs Moduli (GPa) = 104.18727 59.27644 49.07832
#
# Poissons Ratio (x) = -0.11840 0.18436
# Poissons Ratio (y) = -0.20811 -0.09283
# Poissons Ratio (z) = 0.39137 -0.11211
#
# Static dielectric constant tensor:
#      x y z
#    x 4.883530 -0.000050 0.599910 
#    y -0.000050 4.542960 0.000020 
#    z 0.599910 0.000020 4.757410 
# 
# 
# High freq. dielectric constant tensor:
#      x y z
#    x 1.957950 0.000000 0.013980 
#    y 0.000000 1.977030 0.000000 
#    z 0.013980 0.000000 1.966750 
# 
# From -- ./inp_files/313086.got.cif
#   From: 2010.06.25/outbox.cif.g09.slc.cpg/sg15_157_cif.got.tgz:313086.got - 2010.06.28 07:06:18.
