data_PCOD8137254
_publ_section_title
;
Structure prediction by ZEFSAII (Michael W. Deem and Ramdas Pophale) SiO2 
 PCOD8137254
Probable space group: C 2/C
;
_chemical_formula_sum "Si O2"
_cell_formula_units_Z 44
_cell_length_a 16.480560
_cell_length_b 16.548899
_cell_length_c 9.709444
_cell_angle_alpha 90.000000
_cell_angle_beta 128.797897
_cell_angle_gamma 90.000000
_cell_volume 2063.830757
_symmetry_space_group_name_H-M "C 2/C"
_symmetry_group_IT_number 15
_symmetry_cell_setting 'monoclinic'
loop_
_space_group_symop_operation_xyz
x,y,z
-x,y,1/2-z
-x,-y,-z
x,-y,1/2+z
1/2+x,1/2+y,z
1/2-x,1/2+y,1/2-z
1/2-x,1/2-y,-z
1/2+x,1/2-y,1/2+z
loop_
_atom_site_type_symbol
_atom_site_label
_atom_site_fract_x
_atom_site_fract_y
_atom_site_fract_z
Si Si1 0.823413 0.035679 0.592825
Si Si2 0.649937 0.833152 0.623545
Si Si3 0.056816 0.817265 0.169754
Si Si4 0.500000 0.118105 0.750000
Si Si5 0.095172 0.534685 0.270047
Si Si6 0.368937 0.399873 0.846054
O O1 0.698913 0.033316 0.474213
O O2 0.860117 0.043184 0.472911
O O3 0.860464 0.112504 0.718066
O O4 0.873129 0.955713 0.714624
O O5 0.623466 0.759177 0.693572
O O6 0.583981 0.824413 0.413363
O O7 0.617102 0.919572 0.652072
O O8 0.773584 0.836375 0.731017
O O9 0.000000 0.792966 0.250000
O O10 0.973215 0.846160 0.966486
O O11 0.438402 0.059039 0.792638
O O12 0.000000 0.578812 0.250000
#
# Coordination Sequence:
#
# PCOD8137254 Si02
#       6
#     8   8   8   4   8   8
#     4  10  20  39  62  89 117 156 205 239 290 354
#     4  11  21  38  58  86 122 149 199 242 299 349
#     4  10  23  39  61  88 119 157 196 243 291 351
#     4  10  20  36  54  84 120 148 196 232 292 350
#     4   9  19  33  60  83 114 153 193 240 285 347
#     4  10  21  41  63  87 118 159 200 244 289 356
#
# _framework density 21.319579000000001
#
# number of rings (size 3 to 8) (size 9 to 14) (size 15 to 20)
#    0.545    1.455    1.818    1.636    0.000    8.000 
#    3.273    0.909    0.000    0.000    0.000    0.000 
#    0.000    0.000    0.000    0.000    0.000    0.000 
#
# Total GULP energy -272711.690605 kJ/mol
# GULP energy per Si atom -12395.985937 kJ/mol
# Density = 2.127105 g / cm^3
# Si number density = 21.319579 Si / 1000 Ang^3
#
#
#
# Elastic Constant Matrix: (Units=GPa)
#
#
# Indices 1 2 3 4 5 6 
#
# 1 30.3040 12.9124 8.9389 0.0000 11.5779 0.0000
# 2 12.9124 77.0548 26.4416 0.0000 3.5024 0.0000
# 3 8.9389 26.4416 120.6485 0.0000 21.7762 0.0000
# 4 0.0000 0.0000 0.0000 17.2231 0.0000 7.7834
# 5 11.5779 3.5024 21.7762 0.0000 26.5842 0.0000
# 6 0.0000 0.0000 0.0000 7.7834 0.0000 27.2835
#
#
#
# Elastic Compliance Matrix: (Units=1/GPa)
#
#
# Indices 1 2 3 4 5 6 
#
# 1 0.042740 -0.006912 0.001811 0.000000 -0.019187 0.000000
# 2 -0.006912 0.015165 -0.003514 0.000000 0.003890 0.000000
# 3 0.001811 -0.003514 0.010542 0.000000 -0.008961 0.000000
# 4 0.000000 0.000000 0.000000 0.066655 0.000000 -0.019015
# 5 -0.019187 0.003890 -0.008961 0.000000 0.052801 0.000000
# 6 0.000000 0.000000 0.000000 -0.019015 0.000000 0.042077
#
#
# Mechanical properties :
#
#
# Convention : Reuss Voigt Hill
#
# Bulk Modulus (GPa) = 19.52397 36.06589 27.79493
# Shear Modulus (GPa) = 18.91928 26.19911 22.55920
#
# Velocity S-wave (km/s) = 2.98218 3.50934 3.25644
# Velocity P-wave (km/s) = 4.58645 5.77703 5.21582
#
# Compressibility (1/GPa) = 0.05121909
#
# Stress axis : x y z
#
# Youngs Moduli (GPa) = 23.39713 65.94185 94.86022
#
# Poissons Ratio (x) = 0.45576 -0.17182
# Poissons Ratio (y) = 0.16171 0.33331
# Poissons Ratio (z) = -0.04238 0.23170
#
# Static dielectric constant tensor:
#      x y z
#    x 3.657890 0.000000 0.329830 
#    y 0.000000 3.494370 0.000000 
#    z 0.329830 0.000000 4.037640 
# 
# 
# High freq. dielectric constant tensor:
#      x y z
#    x 1.817260 0.000000 0.026630 
#    y 0.000000 1.813440 0.000000 
#    z 0.026630 0.000000 1.851610 
# 
# From -- ./inp_files/49271.got.cif
#   From: 2010.06.25/outbox.cif.g09.slc.cpg/sg15_25_cif.got.tgz:49271.got - 2010.06.28 07:06:18.
