data_PCOD8137817
_publ_section_title
;
Structure prediction by ZEFSAII (Michael W. Deem and Ramdas Pophale) SiO2 
 PCOD8137817
Probable space group: C 2/C
;
_chemical_formula_sum "Si O2"
_cell_formula_units_Z 48
_cell_length_a 12.505998
_cell_length_b 9.322995
_cell_length_c 18.903208
_cell_angle_alpha 90.000000
_cell_angle_beta 104.784808
_cell_angle_gamma 90.000000
_cell_volume 2131.016811
_symmetry_space_group_name_H-M "C 2/C"
_symmetry_group_IT_number 15
_symmetry_cell_setting 'monoclinic'
loop_
_space_group_symop_operation_xyz
x,y,z
-x,y,1/2-z
-x,-y,-z
x,-y,1/2+z
1/2+x,1/2+y,z
1/2-x,1/2+y,1/2-z
1/2-x,1/2-y,-z
1/2+x,1/2-y,1/2+z
loop_
_atom_site_type_symbol
_atom_site_label
_atom_site_fract_x
_atom_site_fract_y
_atom_site_fract_z
Si Si1 0.681042 0.885693 0.177790
Si Si2 0.701179 0.786951 0.915160
Si Si3 0.484591 0.975279 0.579594
Si Si4 0.821886 0.268995 0.081107
Si Si5 0.293528 0.548017 0.841483
Si Si6 0.481762 0.383327 0.827972
O O1 0.776542 0.843407 0.136433
O O2 0.732779 0.957091 0.255747
O O3 0.603141 0.749700 0.180416
O O4 0.605312 0.013504 0.134513
O O5 0.570969 0.822611 0.907730
O O6 0.756260 0.927068 0.890712
O O7 0.750000 0.750000 0.000000
O O8 0.500000 0.000000 0.500000
O O9 0.404077 0.097992 0.593971
O O10 0.732602 0.297144 0.128513
O O11 0.900497 0.134002 0.112099
O O12 0.750000 0.250000 0.000000
O O13 0.424418 0.524148 0.852025
O O14 0.500000 0.414741 0.750000
#
# Coordination Sequence:
#
# PCOD8137817 Si02
#       6
#     8   8   8   8   8   8
#     4  10  20  39  64  88 127 167 213 268 322 388
#     4  10  20  37  60  92 127 164 216 270 324 391
#     4  10  20  36  63  91 122 167 212 259 325 387
#     4  10  22  39  62  89 126 168 212 262 321 391
#     4  10  22  39  65  91 124 174 215 262 330 389
#     4  10  20  39  65  86 124 172 210 263 330 381
#
# _framework density 22.524457999999999
#
# number of rings (size 3 to 8) (size 9 to 14) (size 15 to 20)
#    0.000    2.000    3.333    0.000    0.000    2.000 
#    0.000    1.667    0.000    0.000    0.000    0.000 
#    0.000    0.000    0.000    0.000    0.000    0.000 
#
# Total GULP energy -297340.337767 kJ/mol
# GULP energy per Si atom -12389.180740 kJ/mol
# Density = 2.247319 g / cm^3
# Si number density = 22.524458 Si / 1000 Ang^3
#
#
#
# Elastic Constant Matrix: (Units=GPa)
#
#
# Indices 1 2 3 4 5 6 
#
# 1 155.0911 59.9037 80.2823 0.0000 -3.9682 0.0000
# 2 59.9037 45.3356 39.5524 0.0000 4.7223 0.0000
# 3 80.2823 39.5524 184.6971 0.0000 1.5860 0.0000
# 4 0.0000 0.0000 0.0000 35.9903 0.0000 -6.1167
# 5 -3.9682 4.7223 1.5860 0.0000 44.8094 0.0000
# 6 0.0000 0.0000 0.0000 -6.1167 0.0000 50.6547
#
#
#
# Elastic Compliance Matrix: (Units=1/GPa)
#
#
# Indices 1 2 3 4 5 6 
#
# 1 0.014584 -0.017277 -0.002667 0.000000 0.003207 0.000000
# 2 -0.017277 0.047914 -0.002695 0.000000 -0.006484 0.000000
# 3 -0.002667 -0.002695 0.007152 0.000000 -0.000205 0.000000
# 4 0.000000 0.000000 0.000000 0.028367 0.000000 0.003425
# 5 0.003207 -0.006484 -0.000205 0.000000 0.023291 0.000000
# 6 0.000000 0.000000 0.000000 0.003425 0.000000 0.020155
#
#
# Mechanical properties :
#
#
# Convention : Reuss Voigt Hill
#
# Bulk Modulus (GPa) = 41.03163 82.73339 61.88251
# Shear Modulus (GPa) = 25.65876 39.98326 32.82101
#
# Velocity S-wave (km/s) = 3.37879 4.21777 3.82138
# Velocity P-wave (km/s) = 5.78599 7.78008 6.85592
#
# Compressibility (1/GPa) = 0.02437144
#
# Stress axis : x y z
#
# Youngs Moduli (GPa) = 68.56988 20.87091 139.81564
#
# Poissons Ratio (x) = 0.36060 0.37285
# Poissons Ratio (y) = 1.18471 0.37679
# Poissons Ratio (z) = 0.18286 0.05624
#
# Static dielectric constant tensor:
#      x y z
#    x 7.457680 0.000000 -0.679060 
#    y 0.000000 3.982090 0.000000 
#    z -0.679060 0.000000 4.072410 
# 
# 
# High freq. dielectric constant tensor:
#      x y z
#    x 1.902720 0.000000 -0.016400 
#    y 0.000000 1.863510 0.000000 
#    z -0.016400 0.000000 1.891240 
# 
# From -- ./inp_files/196610.got.cif
#   From: 2010.06.25/outbox.cif.g09.slc.cpg/sg15_99_cif.got.tgz:196610.got - 2010.06.28 07:06:18.
