data_PCOD8137773
_publ_section_title
;
Structure prediction by ZEFSAII (Michael W. Deem and Ramdas Pophale) SiO2 
 PCOD8137773
Probable space group: C 2/C
;
_chemical_formula_sum "Si O2"
_cell_formula_units_Z 56
_cell_length_a 9.434941
_cell_length_b 17.318958
_cell_length_c 19.658944
_cell_angle_alpha 90.000000
_cell_angle_beta 60.711781
_cell_angle_gamma 90.000000
_cell_volume 2801.703789
_symmetry_space_group_name_H-M "C 2/C"
_symmetry_group_IT_number 15
_symmetry_cell_setting 'monoclinic'
loop_
_space_group_symop_operation_xyz
x,y,z
-x,y,1/2-z
-x,-y,-z
x,-y,1/2+z
1/2+x,1/2+y,z
1/2-x,1/2+y,1/2-z
1/2-x,1/2-y,-z
1/2+x,1/2-y,1/2+z
loop_
_atom_site_type_symbol
_atom_site_label
_atom_site_fract_x
_atom_site_fract_y
_atom_site_fract_z
Si Si1 0.322524 0.077710 0.781474
Si Si2 0.109873 0.055029 0.284945
Si Si3 0.191160 0.188487 0.917751
Si Si4 0.901675 0.658607 0.209318
Si Si5 0.581896 0.312421 0.592731
Si Si6 0.612029 0.264616 0.085729
Si Si7 0.216200 0.704922 0.820649
O O1 0.500000 0.038878 0.750000
O O2 0.308748 0.129190 0.852362
O O3 0.316178 0.126260 0.712554
O O4 0.178923 0.014337 0.814454
O O5 0.266644 0.098250 0.215751
O O6 0.000000 0.021768 0.250000
O O7 0.999362 0.112684 0.355032
O O8 0.273902 0.274354 0.895486
O O9 0.023113 0.182768 0.916986
O O10 0.159221 0.162863 0.002782
O O11 0.813148 0.739106 0.247560
O O12 0.000000 0.623578 0.250000
O O13 0.035697 0.680162 0.121225
O O14 0.449526 0.244675 0.614401
O O15 0.676289 0.310128 0.137193
O O16 0.750000 0.250000 0.000000
#
# Coordination Sequence:
#
# PCOD8137773 Si02
#       7
#     8   8   8   8   8   8   8
#     4  12  25  41  64  92 128 169 208 266 327 379
#     4  11  25  40  63  91 128 165 214 261 322 384
#     4  11  22  38  67  92 126 164 215 270 316 373
#     4   9  19  36  60  85 120 161 206 258 304 373
#     4  10  22  42  64  96 121 166 218 260 314 387
#     4  11  20  33  59  94 122 155 198 267 318 358
#     4  10  20  36  62  92 119 155 214 259 308 372
#
# _framework density 19.987838
#
# number of rings (size 3 to 8) (size 9 to 14) (size 15 to 20)
#    0.000    1.429    4.286    1.286    4.000    0.571 
#    0.000    0.000    0.000    1.714    0.000    0.000 
#    0.000    0.000    0.000    0.000    0.000    0.000 
#
# Total GULP energy -347109.901026 kJ/mol
# GULP energy per Si atom -12396.782180 kJ/mol
# Density = 1.994234 g / cm^3
# Si number density = 19.987838 Si / 1000 Ang^3
#
#
#
# Elastic Constant Matrix: (Units=GPa)
#
#
# Indices 1 2 3 4 5 6 
#
# 1 132.0902 38.7542 33.9975 0.0000 0.2824 0.0000
# 2 38.7542 78.1284 36.9408 0.0000 7.1568 0.0000
# 3 33.9975 36.9408 115.2349 0.0000 -4.1048 0.0000
# 4 0.0000 0.0000 0.0000 13.1955 0.0000 -4.0689
# 5 0.2824 7.1568 -4.1048 0.0000 26.8392 0.0000
# 6 0.0000 0.0000 0.0000 -4.0689 0.0000 34.8566
#
#
#
# Elastic Compliance Matrix: (Units=1/GPa)
#
#
# Indices 1 2 3 4 5 6 
#
# 1 0.009075 -0.003907 -0.001399 0.000000 0.000733 0.000000
# 2 -0.003907 0.017406 -0.004616 0.000000 -0.005306 0.000000
# 3 -0.001399 -0.004616 0.010673 0.000000 0.002878 0.000000
# 4 0.000000 0.000000 0.000000 0.078613 0.000000 0.009177
# 5 0.000733 -0.005306 0.002878 0.000000 0.039106 0.000000
# 6 0.000000 0.000000 0.000000 0.009177 0.000000 0.029760
#
#
# Mechanical properties :
#
#
# Convention : Reuss Voigt Hill
#
# Bulk Modulus (GPa) = 57.77034 60.53762 59.15398
# Shear Modulus (GPa) = 23.78133 29.36233 26.57183
#
# Velocity S-wave (km/s) = 3.45308 3.83692 3.65005
# Velocity P-wave (km/s) = 6.69804 7.06982 6.88644
#
# Compressibility (1/GPa) = 0.01730992
#
# Stress axis : x y z
#
# Youngs Moduli (GPa) = 110.18734 57.45028 93.69488
#
# Poissons Ratio (x) = 0.22448 0.13106
# Poissons Ratio (y) = 0.43055 0.43251
# Poissons Ratio (z) = 0.15413 0.26520
#
# Static dielectric constant tensor:
#      x y z
#    x 4.045290 0.000000 -0.205850 
#    y 0.000000 3.403830 0.000000 
#    z -0.205850 0.000000 3.695460 
# 
# 
# High freq. dielectric constant tensor:
#      x y z
#    x 1.808320 0.000000 -0.009170 
#    y 0.000000 1.739040 0.000000 
#    z -0.009170 0.000000 1.776010 
# 
# From -- ./inp_files/232588.got.cif
#   From: 2010.06.25/outbox.cif.g09.slc.cpg/sg15_117_cif.got.tgz:232588.got - 2010.06.28 07:06:18.
