data_PCOD8137512
_publ_section_title
;
Structure prediction by ZEFSAII (Michael W. Deem and Ramdas Pophale) SiO2 
 PCOD8137512
Probable space group: C 2/C
;
_chemical_formula_sum "Si O2"
_cell_formula_units_Z 56
_cell_length_a 19.967441
_cell_length_b 15.186371
_cell_length_c 8.801057
_cell_angle_alpha 90.000000
_cell_angle_beta 90.000000
_cell_angle_gamma 90.000000
_cell_volume 2668.770626
_symmetry_space_group_name_H-M "C 2/C"
_symmetry_group_IT_number 15
_symmetry_cell_setting 'monoclinic'
loop_
_space_group_symop_operation_xyz
x,y,z
-x,y,1/2-z
-x,-y,-z
x,-y,1/2+z
1/2+x,1/2+y,z
1/2-x,1/2+y,1/2-z
1/2-x,1/2-y,-z
1/2+x,1/2-y,1/2+z
loop_
_atom_site_type_symbol
_atom_site_label
_atom_site_fract_x
_atom_site_fract_y
_atom_site_fract_z
Si Si1 0.500000 0.514755 0.750000
Si Si2 0.801153 0.074443 0.463883
Si Si3 0.796334 0.161144 0.156229
Si Si4 0.703666 0.161144 0.656229
Si Si5 0.090739 0.059202 0.492490
Si Si6 0.500000 0.985245 0.750000
Si Si7 0.590739 0.940798 0.007510
Si Si8 0.698847 0.925557 0.463883
O O1 0.551738 0.575398 0.652430
O O2 0.462494 0.446017 0.641342
O O3 0.796037 0.086142 0.284047
O O4 0.774827 0.159945 0.562137
O O5 0.874603 0.038332 0.503632
O O6 0.750000 1.000000 0.516614
O O7 0.808328 0.250000 0.250000
O O8 0.857179 0.139394 0.038377
O O9 0.725173 0.159945 0.062137
O O10 0.642821 0.139394 0.538377
O O11 0.703963 0.086142 0.784047
O O12 0.448262 0.924602 0.652430
O O13 0.462494 0.053983 0.858658
O O14 0.625397 0.038332 0.003632
#
# Coordination Sequence:
#
# PCOD8137512 Si02
#       8
#     4   8   8   8   8   4   8   8
#     4  10  20  36  63  85 106 158 212 248 278 344
#     4  10  20  36  59  86 115 153 196 245 299 368
#     4  11  22  36  57  91 123 154 186 253 318 367
#     4  11  22  36  57  91 123 154 186 253 318 367
#     4  10  20  37  62  85 115 153 210 247 289 362
#     4  10  20  36  63  85 106 158 212 248 278 344
#     4  10  20  37  62  85 115 153 210 247 289 362
#     4  10  20  36  59  86 115 153 196 245 299 368
#
# _framework density 20.983443999999999
#
# number of rings (size 3 to 8) (size 9 to 14) (size 15 to 20)
#    0.000    1.714    2.857    3.429    4.000    0.000 
#    0.000    0.714    0.000    1.714    0.000    0.000 
#    0.000    0.000    0.000    0.000    0.000    0.000 
#
# Total GULP energy -346926.841506 kJ/mol
# GULP energy per Si atom -12390.244339 kJ/mol
# Density = 2.093568 g / cm^3
# Si number density = 20.983444 Si / 1000 Ang^3
#
#
#
# Elastic Constant Matrix: (Units=GPa)
#
#
# Indices 1 2 3 4 5 6 
#
# 1 116.1991 34.7512 58.8704 0.0000 0.0000 0.0000
# 2 34.7512 51.7731 25.5560 0.0000 0.0000 0.0000
# 3 58.8704 25.5560 130.3478 0.0000 0.0000 0.0000
# 4 0.0000 0.0000 0.0000 17.7634 0.0000 0.0000
# 5 0.0000 0.0000 0.0000 0.0000 53.1319 0.0000
# 6 0.0000 0.0000 0.0000 0.0000 0.0000 20.8755
#
#
#
# Elastic Compliance Matrix: (Units=1/GPa)
#
#
# Indices 1 2 3 4 5 6 
#
# 1 0.012805 -0.006356 -0.004537 0.000000 0.000000 0.000000
# 2 -0.006356 0.024539 -0.001941 0.000000 0.000000 0.000000
# 3 -0.004537 -0.001941 0.010102 0.000000 0.000000 0.000000
# 4 0.000000 0.000000 0.000000 0.056296 0.000000 0.000000
# 5 0.000000 0.000000 0.000000 0.000000 0.018821 0.000000
# 6 0.000000 0.000000 0.000000 0.000000 0.000000 0.047903
#
#
# Mechanical properties :
#
#
# Convention : Reuss Voigt Hill
#
# Bulk Modulus (GPa) = 45.91640 59.63056 52.77348
# Shear Modulus (GPa) = 24.58301 30.29698 27.43999
#
# Velocity S-wave (km/s) = 3.42649 3.80393 3.62013
# Velocity P-wave (km/s) = 6.13060 6.91178 6.53288
#
# Compressibility (1/GPa) = 0.02177871
#
# Stress axis : x y z
#
# Youngs Moduli (GPa) = 78.09180 40.75150 98.99475
#
# Poissons Ratio (x) = 0.25900 0.44918
# Poissons Ratio (y) = 0.49632 0.19212
# Poissons Ratio (z) = 0.35433 0.07909
#
# Static dielectric constant tensor:
#      x y z
#    x 4.055800 0.000000 0.000000 
#    y 0.000000 3.440420 0.000000 
#    z 0.000000 0.000000 4.144330 
# 
# 
# High freq. dielectric constant tensor:
#      x y z
#    x 1.821670 0.000000 0.000000 
#    y 0.000000 1.765950 0.000000 
#    z 0.000000 0.000000 1.850090 
# 
# From -- ./inp_files/55665.got.cif
#   From: 2010.06.25/outbox.cif.g09.slc.cpg/sg15_28_cif.got.tgz:55665.got - 2010.06.28 07:06:18.
