data_PCOD8137097
_publ_section_title
;
Structure prediction by ZEFSAII (Michael W. Deem and Ramdas Pophale) SiO2 
 PCOD8137097
Probable space group: C 2/C
;
_chemical_formula_sum "Si O2"
_cell_formula_units_Z 64
_cell_length_a 8.929082
_cell_length_b 30.079404
_cell_length_c 23.457508
_cell_angle_alpha 90.000000
_cell_angle_beta 32.759927
_cell_angle_gamma 90.000000
_cell_volume 3409.193425
_symmetry_space_group_name_H-M "C 2/C"
_symmetry_group_IT_number 15
_symmetry_cell_setting 'monoclinic'
loop_
_space_group_symop_operation_xyz
x,y,z
-x,y,1/2-z
-x,-y,-z
x,-y,1/2+z
1/2+x,1/2+y,z
1/2-x,1/2+y,1/2-z
1/2-x,1/2-y,-z
1/2+x,1/2-y,1/2+z
loop_
_atom_site_type_symbol
_atom_site_label
_atom_site_fract_x
_atom_site_fract_y
_atom_site_fract_z
Si Si1 0.794336 0.711073 0.656171
Si Si2 0.372145 0.945825 0.734652
Si Si3 0.182694 0.646708 0.141755
Si Si4 0.820603 0.499105 0.142699
Si Si5 0.565850 0.737644 0.163678
Si Si6 0.222113 0.561392 0.447528
Si Si7 0.722990 0.344898 0.538457
Si Si8 0.649541 0.729622 0.472877
O O1 0.500000 0.685777 0.750000
O O2 0.784030 0.741999 0.604064
O O3 0.819434 0.740319 0.706060
O O4 0.039390 0.675914 0.576761
O O5 0.500000 0.967624 0.750000
O O6 0.524933 0.898460 0.672678
O O7 0.427081 0.980854 0.667579
O O8 0.049698 0.941152 0.851995
O O9 0.484576 0.637809 0.072120
O O10 0.214878 0.680600 0.078244
O O11 0.000000 0.669600 0.250000
O O12 0.500000 0.482361 0.250000
O O13 0.852006 0.539369 0.088475
O O14 0.033519 0.460197 0.057804
O O15 0.500000 0.728201 0.250000
O O16 0.626518 0.690041 0.116452
O O17 0.818228 0.772456 0.080640
O O18 0.146773 0.613384 0.469608
O O19 0.750000 0.750000 0.500000
#
# Coordination Sequence:
#
# PCOD8137097 Si02
#       8
#     8   8   8   8   8   8   8   8
#     4  11  22  39  56  79 116 157 195 241 281 340
#     4  10  20  35  60  91 110 148 185 229 289 337
#     4  11  20  36  59  84 118 145 183 250 292 320
#     4   9  21  39  60  86 122 148 178 233 287 347
#     4  11  23  37  57  84 117 155 194 244 285 341
#     4  10  20  38  61  87 115 148 187 233 286 339
#     4  11  21  38  58  86 114 149 198 240 286 339
#     4  11  22  35  56  84 113 152 196 234 294 342
#
# _framework density 18.772769
#
# number of rings (size 3 to 8) (size 9 to 14) (size 15 to 20)
#    0.000    1.500    5.000    1.875    1.750    4.500 
#    0.000    0.000    0.000    0.750    0.000    0.000 
#    0.000    0.000    0.000    0.000    0.000    0.000 
#
# Total GULP energy -396525.359774 kJ/mol
# GULP energy per Si atom -12391.417493 kJ/mol
# Density = 1.873004 g / cm^3
# Si number density = 18.772769 Si / 1000 Ang^3
#
#
#
# Elastic Constant Matrix: (Units=GPa)
#
#
# Indices 1 2 3 4 5 6 
#
# 1 112.3218 36.0120 43.2538 0.0020 4.2620 -0.0001
# 2 36.0120 90.3657 54.5786 0.0021 -5.7628 0.0000
# 3 43.2538 54.5786 113.5880 0.0348 -7.8955 -0.0001
# 4 0.0020 0.0021 0.0348 78.2961 -0.0052 -0.6197
# 5 4.2620 -5.7628 -7.8955 -0.0052 31.3590 0.0001
# 6 -0.0001 0.0000 -0.0001 -0.6197 0.0001 23.5926
#
#
#
# Elastic Compliance Matrix: (Units=1/GPa)
#
#
# Indices 1 2 3 4 5 6 
#
# 1 0.011076 -0.002715 -0.003107 0.000001 -0.002786 0.000000
# 2 -0.002715 0.016287 -0.006675 0.000003 0.001681 0.000000
# 3 -0.003107 -0.006675 0.013372 -0.000006 0.002562 0.000000
# 4 0.000001 0.000003 -0.000006 0.012775 0.000001 0.000336
# 5 -0.002786 0.001681 0.002562 0.000001 0.033222 0.000000
# 6 0.000000 0.000000 0.000000 0.000336 0.000000 0.042395
#
#
# Mechanical properties :
#
#
# Convention : Reuss Voigt Hill
#
# Bulk Modulus (GPa) = 63.52787 64.88495 64.20641
# Shear Modulus (GPa) = 31.37420 38.81160 35.09290
#
# Velocity S-wave (km/s) = 4.09254 4.55185 4.32829
# Velocity P-wave (km/s) = 7.49972 7.89076 7.69772
#
# Compressibility (1/GPa) = 0.01574112
#
# Stress axis : x y z
#
# Youngs Moduli (GPa) = 90.28901 61.39883 74.78224
#
# Poissons Ratio (x) = 0.16671 0.23232
# Poissons Ratio (y) = 0.24515 0.49917
# Poissons Ratio (z) = 0.28049 0.40984
#
# Static dielectric constant tensor:
#      x y z
#    x 3.536380 0.000000 -0.079920 
#    y 0.000000 3.399800 -0.000010 
#    z -0.079920 -0.000010 4.074270 
# 
# 
# High freq. dielectric constant tensor:
#      x y z
#    x 1.732240 0.000000 -0.008740 
#    y 0.000000 1.706060 0.000000 
#    z -0.008740 0.000000 1.739690 
# 
# From -- ./inp_files/266710.got.cif
#   From: 2010.06.25/outbox.cif.g09.slc.cpg/sg15_134_cif.got.tgz:266710.got - 2010.06.28 07:06:18.
