data_PCOD8137762
_publ_section_title
;
Structure prediction by ZEFSAII (Michael W. Deem and Ramdas Pophale) SiO2 
 PCOD8137762
Probable space group: C 2/C
;
_chemical_formula_sum "Si O2"
_cell_formula_units_Z 48
_cell_length_a 15.513528
_cell_length_b 11.526795
_cell_length_c 18.742854
_cell_angle_alpha 90.000000
_cell_angle_beta 135.136265
_cell_angle_gamma 90.000000
_cell_volume 2364.310639
_symmetry_space_group_name_H-M "C 2/C"
_symmetry_group_IT_number 15
_symmetry_cell_setting 'monoclinic'
loop_
_space_group_symop_operation_xyz
x,y,z
-x,y,1/2-z
-x,-y,-z
x,-y,1/2+z
1/2+x,1/2+y,z
1/2-x,1/2+y,1/2-z
1/2-x,1/2-y,-z
1/2+x,1/2-y,1/2+z
loop_
_atom_site_type_symbol
_atom_site_label
_atom_site_fract_x
_atom_site_fract_y
_atom_site_fract_z
Si Si1 0.862697 0.334417 0.143149
Si Si2 0.662392 0.832329 0.537980
Si Si3 0.773158 0.065289 0.424106
Si Si4 0.885020 0.759762 0.230298
Si Si5 0.493300 0.282914 0.050273
Si Si6 0.794483 0.412109 0.451182
O O1 0.800089 0.215323 0.133155
O O2 0.769948 0.434485 0.117945
O O3 0.000000 0.352667 0.250000
O O4 0.873357 0.326625 0.065107
O O5 0.566580 0.750752 0.522470
O O6 0.659620 0.967601 0.557091
O O7 0.702892 0.148823 0.327867
O O8 0.742430 0.084967 0.488363
O O9 0.918237 0.094896 0.498129
O O10 0.914122 0.787412 0.329256
O O11 0.822334 0.874964 0.163009
O O12 0.000000 0.727777 0.250000
O O13 0.399941 0.180550 0.009525
#
# Coordination Sequence:
#
# PCOD8137762 Si02
#       6
#     8   8   8   8   8   8
#     4  10  23  44  66  81 119 167 209 242 301 377
#     4  10  24  42  59  90 121 164 201 251 307 357
#     4  10  20  36  62  91 117 157 204 250 301 358
#     4  11  18  33  60  90 116 157 202 248 304 359
#     4  11  21  37  61  91 129 149 199 262 302 354
#     4  10  20  37  59  88 122 160 200 247 309 361
#
# _framework density 20.301901999999998
#
# number of rings (size 3 to 8) (size 9 to 14) (size 15 to 20)
#    0.000    1.667    3.333    2.000    2.333    4.000 
#    6.000    0.000    0.000    0.000    0.000    0.000 
#    0.000    0.000    0.000    0.000    0.000    0.000 
#
# Total GULP energy -297448.354484 kJ/mol
# GULP energy per Si atom -12393.681437 kJ/mol
# Density = 2.025569 g / cm^3
# Si number density = 20.301902 Si / 1000 Ang^3
#
#
#
# Elastic Constant Matrix: (Units=GPa)
#
#
# Indices 1 2 3 4 5 6 
#
# 1 39.8832 11.1110 2.2717 0.0000 5.7352 0.0000
# 2 11.1110 70.7333 32.5387 0.0000 6.9853 0.0000
# 3 2.2717 32.5387 110.8004 0.0000 5.0957 0.0000
# 4 0.0000 0.0000 0.0000 28.9067 0.0000 30.1217
# 5 5.7352 6.9853 5.0957 0.0000 11.1814 0.0000
# 6 0.0000 0.0000 0.0000 30.1217 0.0000 109.2417
#
#
#
# Elastic Compliance Matrix: (Units=1/GPa)
#
#
# Indices 1 2 3 4 5 6 
#
# 1 0.027819 -0.003629 0.001070 0.000000 -0.012490 0.000000
# 2 -0.003629 0.017589 -0.004771 0.000000 -0.006953 0.000000
# 3 0.001070 -0.004771 0.010513 0.000000 -0.002359 0.000000
# 4 0.000000 0.000000 0.000000 0.048541 0.000000 -0.013384
# 5 -0.012490 -0.006953 -0.002359 0.000000 0.101259 0.000000
# 6 0.000000 0.000000 0.000000 -0.013384 0.000000 0.012845
#
#
# Mechanical properties :
#
#
# Convention : Reuss Voigt Hill
#
# Bulk Modulus (GPa) = 24.23598 34.80663 29.52131
# Shear Modulus (GPa) = 20.24458 41.56566 30.90512
#
# Velocity S-wave (km/s) = 3.16124 4.52970 3.90587
# Velocity P-wave (km/s) = 5.02874 6.67378 5.90879
#
# Compressibility (1/GPa) = 0.04126097
#
# Stress axis : x y z
#
# Youngs Moduli (GPa) = 35.94635 56.85347 95.12064
#
# Poissons Ratio (x) = 0.20630 -0.10175
# Poissons Ratio (y) = 0.13043 0.45384
# Poissons Ratio (z) = -0.03845 0.27126
#
# Static dielectric constant tensor:
#      x y z
#    x 3.581870 0.000000 0.109280 
#    y 0.000000 4.081620 0.000000 
#    z 0.109280 0.000000 3.850350 
# 
# 
# High freq. dielectric constant tensor:
#      x y z
#    x 1.781290 0.000000 0.006470 
#    y 0.000000 1.795880 0.000000 
#    z 0.006470 0.000000 1.796480 
# 
# From -- ./inp_files/103805.got.cif
#   From: 2010.06.25/outbox.cif.g09.slc.cpg/sg15_52_cif.got.tgz:103805.got - 2010.06.28 07:06:18.
