data_PCOD8137544
_publ_section_title
;
Structure prediction by ZEFSAII (Michael W. Deem and Ramdas Pophale) SiO2 
 PCOD8137544
Probable space group: C 2/C
;
_chemical_formula_sum "Si O2"
_cell_formula_units_Z 40
_cell_length_a 6.092600
_cell_length_b 17.972284
_cell_length_c 22.136647
_cell_angle_alpha 90.000000
_cell_angle_beta 120.946464
_cell_angle_gamma 90.000000
_cell_volume 2078.868136
_symmetry_space_group_name_H-M "C 2/C"
_symmetry_group_IT_number 15
_symmetry_cell_setting 'monoclinic'
loop_
_space_group_symop_operation_xyz
x,y,z
-x,y,1/2-z
-x,-y,-z
x,-y,1/2+z
1/2+x,1/2+y,z
1/2-x,1/2+y,1/2-z
1/2-x,1/2-y,-z
1/2+x,1/2-y,1/2+z
loop_
_atom_site_type_symbol
_atom_site_label
_atom_site_fract_x
_atom_site_fract_y
_atom_site_fract_z
Si Si1 0.572704 0.664017 0.921906
Si Si2 0.224938 0.459557 0.422649
Si Si3 0.380348 0.554503 0.073267
Si Si4 0.634124 0.794703 0.539148
Si Si5 0.328394 0.563947 0.668142
O O1 0.448844 0.600947 0.945904
O O2 0.417366 0.740949 0.910396
O O3 0.564502 0.637687 0.850574
O O4 0.866843 0.669405 0.982263
O O5 0.325344 0.536432 0.405836
O O6 0.193164 0.467889 0.490586
O O7 0.968698 0.428432 0.354366
O O8 0.336922 0.640832 0.085083
O O9 0.319825 0.507614 0.123978
O O10 0.750000 0.750000 0.500000
O O11 0.500000 0.547684 0.750000
#
# Coordination Sequence:
#
# PCOD8137544 Si02
#       5
#     8   8   8   8   8
#     4  10  21  34  60  89 116 151 192 245 297 356
#     4  10  20  36  59  90 112 148 199 253 291 343
#     4  10  21  33  61  85 115 148 192 246 293 343
#     4  11  20  35  58  91 119 147 189 246 306 351
#     4  11  23  39  59  85 118 159 201 243 298 360
#
# _framework density 19.241237999999999
#
# number of rings (size 3 to 8) (size 9 to 14) (size 15 to 20)
#    0.000    1.600    4.000    0.600    5.600    3.200 
#    0.000    0.000    8.800    0.000    0.000    0.000 
#    0.000    0.000    0.000    0.000    0.000    0.000 
#
# Total GULP energy -247839.491798 kJ/mol
# GULP energy per Si atom -12391.974590 kJ/mol
# Density = 1.919744 g / cm^3
# Si number density = 19.241238 Si / 1000 Ang^3
#
#
#
# Elastic Constant Matrix: (Units=GPa)
#
#
# Indices 1 2 3 4 5 6 
#
# 1 114.9416 64.5712 49.0283 0.0000 8.2494 0.0000
# 2 64.5712 136.1977 40.6260 0.0000 -2.3916 0.0000
# 3 49.0283 40.6260 106.3943 0.0000 8.5461 0.0000
# 4 0.0000 0.0000 0.0000 16.1383 0.0000 -5.4311
# 5 8.2494 -2.3916 8.5461 0.0000 19.2162 0.0000
# 6 0.0000 0.0000 0.0000 -5.4311 0.0000 51.7848
#
#
#
# Elastic Compliance Matrix: (Units=1/GPa)
#
#
# Indices 1 2 3 4 5 6 
#
# 1 0.013766 -0.005458 -0.003868 0.000000 -0.004868 0.000000
# 2 -0.005458 0.010570 -0.001882 0.000000 0.004496 0.000000
# 3 -0.003868 -0.001882 0.012222 0.000000 -0.004009 0.000000
# 4 0.000000 0.000000 0.000000 0.064232 0.000000 0.006737
# 5 -0.004868 0.004496 -0.004009 0.000000 0.056472 0.000000
# 6 0.000000 0.000000 0.000000 0.006737 0.000000 0.020017
#
#
# Mechanical properties :
#
#
# Convention : Reuss Voigt Hill
#
# Bulk Modulus (GPa) = 70.71455 73.99832 72.35643
# Shear Modulus (GPa) = 24.46071 30.98174 27.72123
#
# Velocity S-wave (km/s) = 3.56935 4.01705 3.79980
# Velocity P-wave (km/s) = 7.33610 7.74966 7.54571
#
# Compressibility (1/GPa) = 0.01414136
#
# Stress axis : x y z
#
# Youngs Moduli (GPa) = 72.64490 94.60541 81.81744
#
# Poissons Ratio (x) = 0.51634 0.31650
# Poissons Ratio (y) = 0.39649 0.15400
# Poissons Ratio (z) = 0.28101 0.17807
#
# Static dielectric constant tensor:
#      x y z
#    x 3.988710 0.000000 -0.012130 
#    y 0.000000 3.734500 0.000000 
#    z -0.012130 0.000000 3.037750 
# 
# 
# High freq. dielectric constant tensor:
#      x y z
#    x 1.777060 0.000000 -0.002990 
#    y 0.000000 1.749010 0.000000 
#    z -0.002990 0.000000 1.687900 
# 
# From -- ./inp_files/184224.got.cif
#   From: 2010.06.25/outbox.cif.g09.slc.cpg/sg15_93_cif.got.tgz:184224.got - 2010.06.28 07:06:18.
