data_PCOD8137871
_publ_section_title
;
Structure prediction by ZEFSAII (Michael W. Deem and Ramdas Pophale) SiO2 
 PCOD8137871
Probable space group: C 2/C
;
_chemical_formula_sum "Si O2"
_cell_formula_units_Z 40
_cell_length_a 14.941400
_cell_length_b 15.470189
_cell_length_c 15.010757
_cell_angle_alpha 90.000000
_cell_angle_beta 150.517834
_cell_angle_gamma 90.000000
_cell_volume 1707.612458
_symmetry_space_group_name_H-M "C 2/C"
_symmetry_group_IT_number 15
_symmetry_cell_setting 'monoclinic'
loop_
_space_group_symop_operation_xyz
x,y,z
-x,y,1/2-z
-x,-y,-z
x,-y,1/2+z
1/2+x,1/2+y,z
1/2-x,1/2+y,1/2-z
1/2-x,1/2-y,-z
1/2+x,1/2-y,1/2+z
loop_
_atom_site_type_symbol
_atom_site_label
_atom_site_fract_x
_atom_site_fract_y
_atom_site_fract_z
Si Si1 0.810412 0.980391 0.979433
Si Si2 0.868639 0.313863 0.722244
Si Si3 0.344889 0.842214 0.389620
Si Si4 0.291258 0.510954 0.161671
Si Si5 0.526112 0.878993 0.175642
O O1 0.796926 0.882759 0.929504
O O2 0.643147 0.035443 0.797140
O O3 0.790598 0.963140 0.066730
O O4 0.001186 0.030848 0.126350
O O5 0.790511 0.219036 0.673257
O O6 0.000000 0.311172 0.750000
O O7 0.965944 0.343063 0.895857
O O8 0.280135 0.941778 0.328682
O O9 0.373486 0.816683 0.309340
O O10 0.164515 0.595414 0.038679
O O11 0.500000 0.831740 0.250000
#
# Coordination Sequence:
#
# PCOD8137871 Si02
#       5
#     8   8   8   8   8
#     4  10  20  38  66  94 126 161 202 256 320 375
#     4  12  23  40  61  96 134 164 200 264 319 381
#     4  12  24  38  63  93 128 168 210 250 320 379
#     4  10  20  36  64  95 123 159 203 254 317 373
#     4  10  22  45  63  89 126 166 211 267 301 359
#
# _framework density 23.424517999999999
#
# number of rings (size 3 to 8) (size 9 to 14) (size 15 to 20)
#    0.000    1.200    4.000    3.000    2.800    0.800 
#    3.600    1.000    0.000    0.000    0.000    0.000 
#    0.000    0.000    0.000    0.000    0.000    0.000 
#
# Total GULP energy -247777.269424 kJ/mol
# GULP energy per Si atom -12388.863471 kJ/mol
# Density = 2.337120 g / cm^3
# Si number density = 23.424518 Si / 1000 Ang^3
#
#
#
# Elastic Constant Matrix: (Units=GPa)
#
#
# Indices 1 2 3 4 5 6 
#
# 1 101.5929 15.2799 54.0725 0.0115 -23.5454 0.0065
# 2 15.2799 24.6165 9.3806 0.0074 5.6611 0.0121
# 3 54.0725 9.3806 104.5361 0.0094 16.5686 0.0165
# 4 0.0115 0.0074 0.0094 -1.0187 0.0058 6.2542
# 5 -23.5454 5.6611 16.5686 0.0058 33.4115 0.0082
# 6 0.0065 0.0121 0.0165 6.2542 0.0082 14.7049
#
#
#
# Elastic Compliance Matrix: (Units=1/GPa)
#
#
# Indices 1 2 3 4 5 6 
#
# 1 0.032569 -0.020744 -0.020816 0.000074 0.036789 -0.000026
# 2 -0.020744 0.056300 0.010318 -0.000026 -0.029274 -0.000021
# 3 -0.020816 0.010318 0.023887 -0.000045 -0.028263 0.000009
# 4 0.000074 -0.000026 -0.000045 -0.271832 0.000098 0.115614
# 5 0.036789 -0.029274 -0.028263 0.000098 0.074831 -0.000044
# 6 -0.000026 -0.000021 0.000009 0.115614 -0.000044 0.018832
#
#
# Mechanical properties :
#
#
# Convention : Reuss Voigt Hill
#
# Bulk Modulus (GPa) = 19.89200 43.13458 31.51329
# Shear Modulus (GPa) = 361.60895 19.55370 190.58133
#
# Velocity S-wave (km/s) = 12.43813 2.89234 9.02975
# Velocity P-wave (km/s) = 14.65560 5.44137 11.05430
#
# Compressibility (1/GPa) = 0.05027147
#
# Stress axis : x y z
#
# Youngs Moduli (GPa) = 30.70442 17.76201 41.86376
#
# Poissons Ratio (x) = 0.36846 0.87143
# Poissons Ratio (y) = 0.63693 -0.43195
# Poissons Ratio (z) = 0.63914 -0.18327
#
# Static dielectric constant tensor:
#      x y z
#    x 4.474660 -0.000020 0.011740 
#    y -0.000020 3.567470 -0.000020 
#    z 0.011740 -0.000020 4.599440 
# 
# 
# High freq. dielectric constant tensor:
#      x y z
#    x 1.935090 0.000000 -0.007010 
#    y 0.000000 1.871450 0.000000 
#    z -0.007010 0.000000 1.941440 
# 
# From -- ./inp_files/155374.got.cif
#   From: 2010.06.25/outbox.cif.g09.slc.cpg/sg15_78_cif.got.tgz:155374.got - 2010.06.28 07:06:18.
