data_PCOD8137749
_publ_section_title
;
Structure prediction by ZEFSAII (Michael W. Deem and Ramdas Pophale) SiO2 
 PCOD8137749
Probable space group: C 2/C
;
_chemical_formula_sum "Si O2"
_cell_formula_units_Z 56
_cell_length_a 12.608976
_cell_length_b 7.902643
_cell_length_c 30.952492
_cell_angle_alpha 90.000000
_cell_angle_beta 55.110580
_cell_angle_gamma 90.000000
_cell_volume 2529.868909
_symmetry_space_group_name_H-M "C 2/C"
_symmetry_group_IT_number 15
_symmetry_cell_setting 'monoclinic'
loop_
_space_group_symop_operation_xyz
x,y,z
-x,y,1/2-z
-x,-y,-z
x,-y,1/2+z
1/2+x,1/2+y,z
1/2-x,1/2+y,1/2-z
1/2-x,1/2-y,-z
1/2+x,1/2-y,1/2+z
loop_
_atom_site_type_symbol
_atom_site_label
_atom_site_fract_x
_atom_site_fract_y
_atom_site_fract_z
Si Si1 0.500000 0.715091 0.250000
Si Si2 0.467398 0.536034 0.683968
Si Si3 0.887550 0.913102 0.433231
Si Si4 0.120104 0.546617 0.038407
Si Si5 0.702020 0.467129 0.428515
Si Si6 0.011273 0.792382 0.532471
Si Si7 0.282349 0.963638 0.314392
Si Si8 0.000000 0.716641 0.250000
O O1 0.480985 0.617368 0.299221
O O2 0.367684 0.816384 0.273544
O O3 0.582127 0.588704 0.624686
O O4 0.336190 0.492342 0.689205
O O5 0.437971 0.683720 0.724624
O O6 0.939478 0.735127 0.442184
O O7 0.735944 0.940486 0.476839
O O8 0.962120 0.073802 0.435434
O O9 0.167552 0.481374 0.074094
O O10 0.017365 0.405023 0.045513
O O11 0.612260 0.321448 0.470205
O O12 0.633205 0.653829 0.448918
O O13 0.729901 0.410688 0.373480
O O14 0.378821 0.119087 0.298234
#
# Coordination Sequence:
#
# PCOD8137749 Si02
#       8
#     4   8   8   8   8   8   8   4
#     4  10  26  38  64  96 114 166 224 252 340 382
#     4  11  22  43  62  89 129 160 210 277 311 381
#     4  10  20  39  62  89 127 165 210 255 314 376
#     4  10  22  38  60  94 129 168 205 258 310 388
#     4  10  20  36  62  89 124 162 210 250 316 381
#     4  10  21  39  60  92 129 166 202 256 311 384
#     4  11  22  41  66  91 122 166 210 268 318 385
#     4  10  24  42  62  90 124 162 210 270 324 366
#
# _framework density 22.135535000000001
#
# number of rings (size 3 to 8) (size 9 to 14) (size 15 to 20)
#    0.000    1.714    1.429    3.429    4.000    0.000 
#    0.000   17.143    0.000    0.000    0.000    0.000 
#    0.000    0.000    0.000    0.000    0.000    0.000 
#
# Total GULP energy -347033.653896 kJ/mol
# GULP energy per Si atom -12394.059068 kJ/mol
# Density = 2.208515 g / cm^3
# Si number density = 22.135535 Si / 1000 Ang^3
#
#
#
# Elastic Constant Matrix: (Units=GPa)
#
#
# Indices 1 2 3 4 5 6 
#
# 1 75.4288 10.0919 13.8517 0.0000 11.9584 0.0000
# 2 10.0919 114.3013 20.3741 0.0001 4.9247 0.0001
# 3 13.8517 20.3741 114.9205 0.0000 16.6643 0.0000
# 4 0.0000 0.0001 0.0000 20.2892 0.0000 5.3076
# 5 11.9584 4.9247 16.6643 0.0000 27.4224 0.0000
# 6 0.0000 0.0001 0.0000 5.3076 0.0000 27.6253
#
#
#
# Elastic Compliance Matrix: (Units=1/GPa)
#
#
# Indices 1 2 3 4 5 6 
#
# 1 0.014414 -0.000894 -0.000758 0.000000 -0.005665 0.000000
# 2 -0.000894 0.009102 -0.001454 0.000000 -0.000362 0.000000
# 3 -0.000758 -0.001454 0.009831 0.000000 -0.005383 0.000000
# 4 0.000000 0.000000 0.000000 0.051896 0.000000 -0.009971
# 5 -0.005665 -0.000362 -0.005383 0.000000 0.042273 0.000000
# 6 0.000000 0.000000 0.000000 -0.009971 0.000000 0.038114
#
#
# Mechanical properties :
#
#
# Convention : Reuss Voigt Hill
#
# Bulk Modulus (GPa) = 36.84789 43.69846 40.27318
# Shear Modulus (GPa) = 27.64163 32.42291 30.03227
#
# Velocity S-wave (km/s) = 3.53759 3.83135 3.68740
# Velocity P-wave (km/s) = 5.77656 6.27348 6.03014
#
# Compressibility (1/GPa) = 0.02713859
#
# Stress axis : x y z
#
# Youngs Moduli (GPa) = 69.37541 109.86132 101.71645
#
# Poissons Ratio (x) = 0.09817 0.07705
# Poissons Ratio (y) = 0.06199 0.14786
# Poissons Ratio (z) = 0.05255 0.15969
#
# Static dielectric constant tensor:
#      x y z
#    x 3.927410 0.000000 0.027690 
#    y 0.000000 3.996900 0.000000 
#    z 0.027690 0.000000 4.161710 
# 
# 
# High freq. dielectric constant tensor:
#      x y z
#    x 1.865810 0.000000 0.013940 
#    y 0.000000 1.865930 0.000000 
#    z 0.013940 0.000000 1.872280 
# 
# From -- ./inp_files/312877.got.cif
#   From: 2010.06.25/outbox.cif.g09.slc.cpg/sg15_157_cif.got.tgz:312877.got - 2010.06.28 07:06:18.
