data_PCOD8137013
_publ_section_title
;
Structure prediction by ZEFSAII (Michael W. Deem and Ramdas Pophale) SiO2 
 PCOD8137013
Probable space group: C 2/C
;
_chemical_formula_sum "Si O2"
_cell_formula_units_Z 56
_cell_length_a 14.482897
_cell_length_b 17.897862
_cell_length_c 12.137894
_cell_angle_alpha 90.000000
_cell_angle_beta 65.054993
_cell_angle_gamma 90.000000
_cell_volume 2852.789854
_symmetry_space_group_name_H-M "C 2/C"
_symmetry_group_IT_number 15
_symmetry_cell_setting 'monoclinic'
loop_
_space_group_symop_operation_xyz
x,y,z
-x,y,1/2-z
-x,-y,-z
x,-y,1/2+z
1/2+x,1/2+y,z
1/2-x,1/2+y,1/2-z
1/2-x,1/2-y,-z
1/2+x,1/2-y,1/2+z
loop_
_atom_site_type_symbol
_atom_site_label
_atom_site_fract_x
_atom_site_fract_y
_atom_site_fract_z
Si Si1 0.113839 0.568291 0.209732
Si Si2 0.801363 0.078704 0.840606
Si Si3 0.947544 0.822466 0.388864
Si Si4 0.420504 0.432589 0.062744
Si Si5 0.057147 0.580804 0.473296
Si Si6 0.627179 0.828709 0.494915
Si Si7 0.269648 0.044390 0.971891
O O1 0.123587 0.595986 0.329625
O O2 0.194077 0.501317 0.153639
O O3 0.000000 0.536348 0.250000
O O4 0.136155 0.633532 0.110817
O O5 0.885168 0.103628 0.887693
O O6 0.853632 0.050260 0.703865
O O7 0.723873 0.149735 0.869137
O O8 0.738830 0.009460 0.918439
O O9 0.877684 0.760007 0.481483
O O10 0.000000 0.790427 0.250000
O O11 0.025477 0.852912 0.442519
O O12 0.339965 0.419308 0.002376
O O13 0.500000 0.500000 0.000000
O O14 0.135649 0.595888 0.535549
O O15 0.000000 0.500000 0.500000
O O16 0.972467 0.645200 0.521474
#
# Coordination Sequence:
#
# PCOD8137013 Si02
#       7
#     8   8   8   8   8   8   8
#     4   9  17  30  51  81 114 140 184 235 295 331
#     4  10  20  36  59  86 111 144 197 244 287 332
#     4  10  20  37  58  83 117 153 194 242 285 340
#     4  11  23  37  57  84 117 155 194 237 287 345
#     4  11  18  31  51  84 116 146 188 238 291 348
#     4  10  20  35  58  86 116 146 188 243 295 336
#     4  11  20  32  54  83 112 149 186 239 285 344
#
# _framework density 19.629908
#
# number of rings (size 3 to 8) (size 9 to 14) (size 15 to 20)
#    0.000    1.714    5.714    2.571    0.000    0.000 
#    0.000    0.714    0.000    0.000    3.714    0.000 
#    0.000    0.000    0.000    0.000    0.000    0.000 
#
# Total GULP energy -346906.083584 kJ/mol
# GULP energy per Si atom -12389.502985 kJ/mol
# Density = 1.958523 g / cm^3
# Si number density = 19.629908 Si / 1000 Ang^3
#
#
#
# Elastic Constant Matrix: (Units=GPa)
#
#
# Indices 1 2 3 4 5 6 
#
# 1 118.7652 16.5749 28.6669 0.0000 14.7289 0.0000
# 2 16.5749 49.9343 22.9203 0.0000 2.2226 0.0000
# 3 28.6669 22.9203 81.2646 0.0000 -17.3960 0.0000
# 4 0.0000 0.0000 0.0000 19.7999 0.0000 -7.9003
# 5 14.7289 2.2226 -17.3960 0.0000 32.5933 0.0000
# 6 0.0000 0.0000 0.0000 -7.9003 0.0000 26.6251
#
#
#
# Elastic Compliance Matrix: (Units=1/GPa)
#
#
# Indices 1 2 3 4 5 6 
#
# 1 0.010718 -0.000857 -0.005152 0.000000 -0.007534 0.000000
# 2 -0.000857 0.024044 -0.007617 0.000000 -0.005318 0.000000
# 3 -0.005152 -0.007617 0.019058 0.000000 0.013019 0.000000
# 4 0.000000 0.000000 0.000000 0.057288 0.000000 0.016999
# 5 -0.007534 -0.005318 0.013019 0.000000 0.041397 0.000000
# 6 0.000000 0.000000 0.000000 0.016999 0.000000 0.042602
#
#
# Mechanical properties :
#
#
# Convention : Reuss Voigt Hill
#
# Bulk Modulus (GPa) = 37.64107 42.92093 40.28100
# Shear Modulus (GPa) = 21.62478 27.92381 24.77429
#
# Velocity S-wave (km/s) = 3.32267 3.77571 3.55641
# Velocity P-wave (km/s) = 5.82556 6.39692 6.11791
#
# Compressibility (1/GPa) = 0.02656673
#
# Stress axis : x y z
#
# Youngs Moduli (GPa) = 93.30507 41.59032 52.47072
#
# Poissons Ratio (x) = 0.03566 0.27031
# Poissons Ratio (y) = 0.08001 0.39969
# Poissons Ratio (z) = 0.48068 0.31681
#
# Static dielectric constant tensor:
#      x y z
#    x 3.825960 0.000000 -0.124270 
#    y 0.000000 3.147920 0.000000 
#    z -0.124270 0.000000 3.715120 
# 
# 
# High freq. dielectric constant tensor:
#      x y z
#    x 1.780320 0.000000 -0.015890 
#    y 0.000000 1.716190 0.000000 
#    z -0.015890 0.000000 1.753150 
# 
# From -- ./inp_files/98235.got.cif
#   From: 2010.06.25/outbox.cif.g09.slc.cpg/sg15_50_cif.got.tgz:98235.got - 2010.06.28 07:06:18.
