data_PCOD8137034
_publ_section_title
;
Structure prediction by ZEFSAII (Michael W. Deem and Ramdas Pophale) SiO2 
 PCOD8137034
Probable space group: C 2/C
;
_chemical_formula_sum "Si O2"
_cell_formula_units_Z 56
_cell_length_a 22.068569
_cell_length_b 29.900328
_cell_length_c 9.112130
_cell_angle_alpha 90.000000
_cell_angle_beta 152.734380
_cell_angle_gamma 90.000000
_cell_volume 2754.518803
_symmetry_space_group_name_H-M "C 2/C"
_symmetry_group_IT_number 15
_symmetry_cell_setting 'monoclinic'
loop_
_space_group_symop_operation_xyz
x,y,z
-x,y,1/2-z
-x,-y,-z
x,-y,1/2+z
1/2+x,1/2+y,z
1/2-x,1/2+y,1/2-z
1/2-x,1/2-y,-z
1/2+x,1/2-y,1/2+z
loop_
_atom_site_type_symbol
_atom_site_label
_atom_site_fract_x
_atom_site_fract_y
_atom_site_fract_z
Si Si1 0.485924 0.290867 0.553066
Si Si2 0.079135 0.059018 0.171226
Si Si3 0.033117 0.297716 0.990967
Si Si4 0.183227 0.999341 0.644969
Si Si5 0.725961 0.437902 0.486394
Si Si6 0.278644 0.645408 0.954233
Si Si7 0.776101 0.656007 0.000692
O O1 0.500000 0.273628 0.750000
O O2 0.542929 0.252411 0.571261
O O3 0.337965 0.308533 0.197459
O O4 0.579496 0.332389 0.726040
O O5 0.092328 0.028185 0.341903
O O6 0.194774 0.096609 0.420263
O O7 0.091759 0.030659 0.051453
O O8 0.929146 0.075668 0.853006
O O9 0.914634 0.319903 0.826234
O O10 0.000000 0.294644 0.750000
O O11 0.166915 0.326704 0.302234
O O12 0.268523 0.032463 0.934431
O O13 0.268980 0.965835 0.724759
O O14 0.791238 0.389016 0.629170
O O15 0.240252 0.640708 0.702148
#
# Coordination Sequence:
#
# PCOD8137034 Si02
#       7
#     8   8   8   8   8   8   8
#     4  10  20  38  60  83 105 140 184 229 273 314
#     4  11  18  33  52  83 113 141 182 222 274 313
#     4  10  22  40  56  79 109 150 180 217 275 328
#     4  10  21  30  54  83 114 143 176 233 270 315
#     4  11  18  33  52  83 113 141 182 222 274 313
#     4  10  20  35  59  80 112 145 180 220 269 329
#     4  10  20  35  59  80 112 145 180 220 269 329
#
# _framework density 20.33023
#
# number of rings (size 3 to 8) (size 9 to 14) (size 15 to 20)
#    0.000    1.714    2.857    4.286    0.000    0.000 
#    5.143    0.000    0.000    5.143    0.000    0.000 
#    0.000    0.000    0.000    0.000    0.000    0.000 
#
# Total GULP energy -347014.065010 kJ/mol
# GULP energy per Si atom -12393.359465 kJ/mol
# Density = 2.028396 g / cm^3
# Si number density = 20.330230 Si / 1000 Ang^3
#
#
#
# Elastic Constant Matrix: (Units=GPa)
#
#
# Indices 1 2 3 4 5 6 
#
# 1 85.1978 38.6315 23.1672 0.0000 -2.5436 0.0000
# 2 38.6315 95.2774 2.6168 0.0000 -5.2028 0.0000
# 3 23.1672 2.6168 28.4012 0.0000 8.0648 0.0000
# 4 0.0000 0.0000 0.0000 7.8752 0.0000 -3.7313
# 5 -2.5436 -5.2028 8.0648 0.0000 27.5290 0.0000
# 6 0.0000 0.0000 0.0000 -3.7313 0.0000 53.7640
#
#
#
# Elastic Compliance Matrix: (Units=1/GPa)
#
#
# Indices 1 2 3 4 5 6 
#
# 1 0.019840 -0.007278 -0.017062 0.000000 0.005456 0.000000
# 2 -0.007278 0.013349 0.004561 0.000000 0.000514 0.000000
# 3 -0.017062 0.004561 0.053349 0.000000 -0.016343 0.000000
# 4 0.000000 0.000000 0.000000 0.131298 0.000000 0.009112
# 5 0.005456 0.000514 -0.016343 0.000000 0.041715 0.000000
# 6 0.000000 0.000000 0.000000 0.009112 0.000000 0.019232
#
#
# Mechanical properties :
#
#
# Convention : Reuss Voigt Hill
#
# Bulk Modulus (GPa) = 21.28640 37.52304 29.40472
# Shear Modulus (GPa) = 14.97001 27.46439 21.21720
#
# Velocity S-wave (km/s) = 2.71651 3.67947 3.23403
# Velocity P-wave (km/s) = 4.50913 6.04550 5.33293
#
# Compressibility (1/GPa) = 0.04697835
#
# Stress axis : x y z
#
# Youngs Moduli (GPa) = 50.40334 74.90980 18.74466
#
# Poissons Ratio (x) = 0.54518 0.31983
# Poissons Ratio (y) = 0.36683 -0.08549
# Poissons Ratio (z) = 0.86001 -0.34163
#
# Static dielectric constant tensor:
#      x y z
#    x 3.844200 0.000000 -0.048240 
#    y 0.000000 3.778040 0.000000 
#    z -0.048240 0.000000 3.370560 
# 
# 
# High freq. dielectric constant tensor:
#      x y z
#    x 1.787650 0.000000 -0.004380 
#    y 0.000000 1.810480 0.000000 
#    z -0.004380 0.000000 1.753200 
# 
# From -- ./inp_files/59373.got.cif
#   From: 2010.06.25/outbox.cif.g09.slc.cpg/sg15_30_cif.got.tgz:59373.got - 2010.06.28 07:06:18.
