data_PCOD8137443
_publ_section_title
;
Structure prediction by ZEFSAII (Michael W. Deem and Ramdas Pophale) SiO2 
 PCOD8137443
Probable space group: C 2/C
;
_chemical_formula_sum "Si O2"
_cell_formula_units_Z 64
_cell_length_a 25.715807
_cell_length_b 19.219019
_cell_length_c 19.749447
_cell_angle_alpha 90.000000
_cell_angle_beta 19.075736
_cell_angle_gamma 90.000000
_cell_volume 3190.008776
_symmetry_space_group_name_H-M "C 2/C"
_symmetry_group_IT_number 15
_symmetry_cell_setting 'monoclinic'
loop_
_space_group_symop_operation_xyz
x,y,z
-x,y,1/2-z
-x,-y,-z
x,-y,1/2+z
1/2+x,1/2+y,z
1/2-x,1/2+y,1/2-z
1/2-x,1/2-y,-z
1/2+x,1/2-y,1/2+z
loop_
_atom_site_type_symbol
_atom_site_label
_atom_site_fract_x
_atom_site_fract_y
_atom_site_fract_z
Si Si1 0.199763 0.848958 0.760593
Si Si2 0.680440 0.319316 0.052750
Si Si3 0.680142 0.917211 0.513534
Si Si4 0.833133 0.844691 0.206160
Si Si5 0.817799 0.819041 0.951008
Si Si6 0.299822 0.808773 0.262209
Si Si7 0.180571 0.420373 0.015191
Si Si8 0.842941 0.313159 0.717918
O O1 0.246790 0.772484 0.675491
O O2 0.273241 0.904404 0.618835
O O3 0.271831 0.860835 0.746102
O O4 0.014176 0.861082 0.999188
O O5 0.500000 0.308517 0.250000
O O6 0.750000 0.250000 0.000000
O O7 0.693519 0.379096 0.093044
O O8 0.788313 0.343537 0.856838
O O9 0.500000 0.892642 0.750000
O O10 0.722550 0.898029 0.383735
O O11 0.700143 0.998256 0.503032
O O12 0.815066 0.851623 0.146926
O O13 0.781035 0.766301 0.289999
O O14 0.800230 0.881621 0.919436
O O15 0.000000 0.808698 0.750000
O O16 0.750000 0.750000 0.000000
O O17 0.713382 0.838702 0.145830
O O18 0.469609 0.816705 0.019126
O O19 0.000000 0.395531 0.250000
#
# Coordination Sequence:
#
# PCOD8137443 Si02
#       8
#     8   8   8   8   8   8   8   8
#     4  10  20  36  58  87 118 156 199 247 304 358
#     4  12  24  39  64  94 124 162 205 258 308 359
#     4  11  24  42  63  88 125 167 206 250 308 370
#     4  10  20  36  58  87 118 156 199 247 304 358
#     4  12  24  39  64  94 124 162 205 258 308 359
#     4  10  21  34  60  89 121 151 197 255 300 358
#     4  11  24  42  63  88 125 167 206 250 308 370
#     4  10  21  34  60  89 121 151 197 255 300 358
#
# _framework density 20.062640999999999
#
# number of rings (size 3 to 8) (size 9 to 14) (size 15 to 20)
#    0.000    1.250    2.500    3.750    7.000    1.000 
#    0.000    1.250    0.000    4.500    0.000    0.000 
#    0.000    0.000    0.000    0.000    0.000    0.000 
#
# Total GULP energy -396894.860649 kJ/mol
# GULP energy per Si atom -12402.964395 kJ/mol
# Density = 2.001698 g / cm^3
# Si number density = 20.062641 Si / 1000 Ang^3
#
#
#
# Elastic Constant Matrix: (Units=GPa)
#
#
# Indices 1 2 3 4 5 6 
#
# 1 118.5317 37.2760 31.5432 0.0076 3.9528 -0.0142
# 2 37.2760 73.4285 28.7554 0.0032 -6.1460 -0.0156
# 3 31.5432 28.7554 88.0013 -0.0168 4.0947 -0.0181
# 4 0.0076 0.0032 -0.0168 17.9899 -0.0061 4.9538
# 5 3.9528 -6.1460 4.0947 -0.0061 47.4990 0.0161
# 6 -0.0142 -0.0156 -0.0181 4.9538 0.0161 28.0286
#
#
#
# Elastic Compliance Matrix: (Units=1/GPa)
#
#
# Indices 1 2 3 4 5 6 
#
# 1 0.010506 -0.004574 -0.002212 -0.000007 -0.001275 0.000003
# 2 -0.004574 0.017903 -0.004353 -0.000005 0.003072 0.000004
# 3 -0.002212 -0.004353 0.013651 0.000013 -0.001556 0.000004
# 4 -0.000007 -0.000005 0.000013 0.058430 0.000010 -0.010327
# 5 -0.001275 0.003072 -0.001556 0.000010 0.021691 -0.000014
# 6 0.000003 0.000004 0.000004 -0.010327 -0.000014 0.037503
#
#
# Mechanical properties :
#
#
# Convention : Reuss Voigt Hill
#
# Bulk Modulus (GPa) = 50.55213 52.79009 51.67111
# Shear Modulus (GPa) = 26.51721 30.86263 28.68992
#
# Velocity S-wave (km/s) = 3.63949 3.92639 3.78566
# Velocity P-wave (km/s) = 6.55081 6.85019 6.70217
#
# Compressibility (1/GPa) = 0.01978156
#
# Stress axis : x y z
#
# Youngs Moduli (GPa) = 95.18231 55.85762 73.25363
#
# Poissons Ratio (x) = 0.25549 0.16203
# Poissons Ratio (y) = 0.43537 0.31890
# Poissons Ratio (z) = 0.21053 0.24317
#
# Static dielectric constant tensor:
#      x y z
#    x 3.898630 -0.000020 0.019280 
#    y -0.000020 3.330490 0.000010 
#    z 0.019280 0.000010 3.685910 
# 
# 
# High freq. dielectric constant tensor:
#      x y z
#    x 1.801960 0.000000 0.004470 
#    y 0.000000 1.741510 0.000000 
#    z 0.004470 0.000000 1.795610 
# 
# From -- ./inp_files/220246.got.cif
#   From: 2010.06.25/outbox.cif.g09.slc.cpg/sg15_111_cif.got.tgz:220246.got - 2010.06.28 07:06:18.
