data_PCOD8137775
_publ_section_title
;
Structure prediction by ZEFSAII (Michael W. Deem and Ramdas Pophale) SiO2 
 PCOD8137775
Probable space group: C 2/C
;
_chemical_formula_sum "Si O2"
_cell_formula_units_Z 60
_cell_length_a 12.036401
_cell_length_b 11.353801
_cell_length_c 21.609959
_cell_angle_alpha 90.000000
_cell_angle_beta 109.237865
_cell_angle_gamma 90.000000
_cell_volume 2788.283485
_symmetry_space_group_name_H-M "C 2/C"
_symmetry_group_IT_number 15
_symmetry_cell_setting 'monoclinic'
loop_
_space_group_symop_operation_xyz
x,y,z
-x,y,1/2-z
-x,-y,-z
x,-y,1/2+z
1/2+x,1/2+y,z
1/2-x,1/2+y,1/2-z
1/2-x,1/2-y,-z
1/2+x,1/2-y,1/2+z
loop_
_atom_site_type_symbol
_atom_site_label
_atom_site_fract_x
_atom_site_fract_y
_atom_site_fract_z
Si Si1 0.500000 0.037798 0.750000
Si Si2 0.038173 0.876066 0.871919
Si Si3 0.048100 0.141649 0.880570
Si Si4 0.510087 0.284925 0.996852
Si Si5 0.342557 0.215354 0.783050
Si Si6 0.305163 0.867444 0.412718
Si Si7 0.605127 0.167483 0.193280
Si Si8 0.201175 0.634173 0.078896
O O1 0.473427 0.944864 0.799897
O O2 0.384052 0.125202 0.734587
O O3 0.166844 0.818052 0.886199
O O4 0.004209 0.873300 0.938129
O O5 0.948591 0.806418 0.812355
O O6 0.039510 0.010944 0.851141
O O7 0.180146 0.192611 0.904031
O O8 0.976329 0.217901 0.817779
O O9 0.997151 0.143255 0.940793
O O10 0.402946 0.194765 0.971580
O O11 0.633221 0.212620 0.015537
O O12 0.327739 0.138233 0.842810
O O13 0.227886 0.296344 0.749191
O O14 0.296643 0.998031 0.439654
O O15 0.625369 0.141392 0.126224
#
# Coordination Sequence:
#
# PCOD8137775 Si02
#       8
#     4   8   8   8   8   8   8   8
#     4  12  24  44  66  92 132 164 228 264 324 394
#     4  10  22  39  63  91 129 166 211 263 327 387
#     4  10  22  39  63  91 129 166 211 263 327 387
#     4  10  20  36  62  92 124 165 213 256 322 392
#     4  11  24  41  64  93 126 169 219 271 325 387
#     4  10  20  38  59  88 126 163 208 262 321 381
#     4  11  24  41  64  93 126 169 219 271 325 387
#     4  10  20  38  59  88 126 163 208 262 321 381
#
# _framework density 21.518613999999999
#
# number of rings (size 3 to 8) (size 9 to 14) (size 15 to 20)
#    0.000    1.600    1.333    3.200    1.867    0.000 
#    0.000    3.333   14.667    0.000    0.000    0.000 
#    0.000    0.000    0.000    0.000    0.000    0.000 
#
# Total GULP energy -371654.516522 kJ/mol
# GULP energy per Si atom -12388.483884 kJ/mol
# Density = 2.146964 g / cm^3
# Si number density = 21.518614 Si / 1000 Ang^3
#
#
#
# Elastic Constant Matrix: (Units=GPa)
#
#
# Indices 1 2 3 4 5 6 
#
# 1 122.3218 44.1768 25.8053 0.0000 23.9662 0.0000
# 2 44.1768 88.2233 30.3826 0.0000 17.5930 0.0000
# 3 25.8053 30.3826 55.4498 0.0000 14.4483 0.0000
# 4 0.0000 0.0000 0.0000 9.7697 0.0000 1.5333
# 5 23.9662 17.5930 14.4483 0.0000 37.7047 0.0000
# 6 0.0000 0.0000 0.0000 1.5333 0.0000 36.6608
#
#
#
# Elastic Compliance Matrix: (Units=1/GPa)
#
#
# Indices 1 2 3 4 5 6 
#
# 1 0.010825 -0.003951 -0.001733 0.000000 -0.004373 0.000000
# 2 -0.003951 0.015974 -0.006250 0.000000 -0.002547 0.000000
# 3 -0.001733 -0.006250 0.023572 0.000000 -0.005015 0.000000
# 4 0.000000 0.000000 0.000000 0.103034 0.000000 -0.004309
# 5 -0.004373 -0.002547 -0.005015 0.000000 0.032411 0.000000
# 6 0.000000 0.000000 0.000000 -0.004309 0.000000 0.027457
#
#
# Mechanical properties :
#
#
# Convention : Reuss Voigt Hill
#
# Bulk Modulus (GPa) = 37.73386 51.85828 44.79607
# Shear Modulus (GPa) = 20.32719 27.86902 24.09811
#
# Velocity S-wave (km/s) = 3.07682 3.60267 3.35008
# Velocity P-wave (km/s) = 5.49509 6.43873 5.98553
#
# Compressibility (1/GPa) = 0.02650140
#
# Stress axis : x y z
#
# Youngs Moduli (GPa) = 92.38247 62.60261 42.42292
#
# Poissons Ratio (x) = 0.24737 0.07352
# Poissons Ratio (y) = 0.36505 0.26514
# Poissons Ratio (z) = 0.16011 0.39127
#
# Static dielectric constant tensor:
#      x y z
#    x 4.221110 0.000000 0.033090 
#    y 0.000000 3.916700 0.000000 
#    z 0.033090 0.000000 3.685460 
# 
# 
# High freq. dielectric constant tensor:
#      x y z
#    x 1.864220 0.000000 -0.004600 
#    y 0.000000 1.846810 0.000000 
#    z -0.004600 0.000000 1.822960 
# 
# From -- ./inp_files/111625.got.cif
#   From: 2010.06.25/outbox.cif.g09.slc.cpg/sg15_56_cif.got.tgz:111625.got - 2010.06.28 07:06:18.
