data_PCOD8137116
_publ_section_title
;
Structure prediction by ZEFSAII (Michael W. Deem and Ramdas Pophale) SiO2 
 PCOD8137116
Probable space group: C 2/C
;
_chemical_formula_sum "Si O2"
_cell_formula_units_Z 48
_cell_length_a 20.469196
_cell_length_b 12.477184
_cell_length_c 14.366997
_cell_angle_alpha 90.000000
_cell_angle_beta 141.029040
_cell_angle_gamma 90.000000
_cell_volume 2307.720476
_symmetry_space_group_name_H-M "C 2/C"
_symmetry_group_IT_number 15
_symmetry_cell_setting 'monoclinic'
loop_
_space_group_symop_operation_xyz
x,y,z
-x,y,1/2-z
-x,-y,-z
x,-y,1/2+z
1/2+x,1/2+y,z
1/2-x,1/2+y,1/2-z
1/2-x,1/2-y,-z
1/2+x,1/2-y,1/2+z
loop_
_atom_site_type_symbol
_atom_site_label
_atom_site_fract_x
_atom_site_fract_y
_atom_site_fract_z
Si Si1 0.108236 0.920307 0.881141
Si Si2 0.086507 0.634073 0.132629
Si Si3 0.842403 0.731044 0.672744
Si Si4 0.874036 0.555691 0.955170
Si Si5 0.700557 0.677884 0.667399
Si Si6 0.171203 0.496563 0.891156
O O1 0.078976 0.823124 0.773955
O O2 0.000000 0.987209 0.750000
O O3 0.133665 0.882774 0.014459
O O4 0.205407 0.990230 0.953591
O O5 0.103614 0.560556 0.061881
O O6 0.124112 0.752202 0.146196
O O7 0.154267 0.592654 0.294096
O O8 0.964138 0.638287 0.022063
O O9 0.750000 0.750000 0.500000
O O10 0.793372 0.747385 0.721365
O O11 0.881822 0.607975 0.704242
O O12 0.759284 0.593843 0.799032
O O13 0.883271 0.543524 0.075994
#
# Coordination Sequence:
#
# PCOD8137116 Si02
#       6
#     8   8   8   8   8   8
#     4  10  20  35  61  85 119 154 205 254 309 348
#     4  11  22  38  63  87 123 160 206 247 298 369
#     4   8  16  34  55  81 115 149 197 249 299 331
#     4  11  22  38  62  88 119 162 207 244 303 361
#     4  10  21  38  55  92 122 155 201 254 299 356
#     4  10  20  39  56  87 120 160 199 254 296 353
#
# _framework density 20.799745999999999
#
# number of rings (size 3 to 8) (size 9 to 14) (size 15 to 20)
#    0.000    2.333    3.333    3.500    2.333    2.000 
#    0.000    2.500    0.000    0.000    0.000    0.000 
#    0.000    0.000    0.000    0.000    0.000    0.000 
#
# Total GULP energy -297345.158193 kJ/mol
# GULP energy per Si atom -12389.381591 kJ/mol
# Density = 2.075240 g / cm^3
# Si number density = 20.799746 Si / 1000 Ang^3
#
#
#
# Elastic Constant Matrix: (Units=GPa)
#
#
# Indices 1 2 3 4 5 6 
#
# 1 105.6342 28.8596 38.1527 0.0000 -9.5114 0.0000
# 2 28.8596 38.8423 21.3769 0.0000 4.6675 0.0000
# 3 38.1527 21.3769 91.0903 0.0000 8.4126 0.0000
# 4 0.0000 0.0000 0.0000 22.5975 0.0000 -0.5109
# 5 -9.5114 4.6675 8.4126 0.0000 38.5897 0.0000
# 6 0.0000 0.0000 0.0000 -0.5109 0.0000 24.9444
#
#
#
# Elastic Compliance Matrix: (Units=1/GPa)
#
#
# Indices 1 2 3 4 5 6 
#
# 1 0.013840 -0.008573 -0.004282 0.000000 0.005382 0.000000
# 2 -0.008573 0.035043 -0.004130 0.000000 -0.005451 0.000000
# 3 -0.004282 -0.004130 0.014075 0.000000 -0.003624 0.000000
# 4 0.000000 0.000000 0.000000 0.044273 0.000000 0.000907
# 5 0.005382 -0.005451 -0.003624 0.000000 0.028690 0.000000
# 6 0.000000 0.000000 0.000000 0.000907 0.000000 0.040108
#
#
# Mechanical properties :
#
#
# Convention : Reuss Voigt Hill
#
# Bulk Modulus (GPa) = 34.49585 45.81613 40.15599
# Shear Modulus (GPa) = 22.76240 27.03815 24.90028
#
# Velocity S-wave (km/s) = 3.31170 3.60936 3.46373
# Velocity P-wave (km/s) = 5.58962 6.28053 5.94512
#
# Compressibility (1/GPa) = 0.02898899
#
# Stress axis : x y z
#
# Youngs Moduli (GPa) = 72.25489 28.53664 71.04611
#
# Poissons Ratio (x) = 0.24465 0.30421
# Poissons Ratio (y) = 0.61945 0.29339
# Poissons Ratio (z) = 0.30938 0.11784
#
# Static dielectric constant tensor:
#      x y z
#    x 12.797720 0.000000 0.691710 
#    y 0.000000 4.642820 0.000000 
#    z 0.691710 0.000000 3.757890 
# 
# 
# High freq. dielectric constant tensor:
#      x y z
#    x 1.819150 0.000000 -0.000440 
#    y 0.000000 1.764530 0.000000 
#    z -0.000440 0.000000 1.816750 
# 
# From -- ./inp_files/167911.got.cif
#   From: 2010.06.25/outbox.cif.g09.slc.cpg/sg15_84_cif.got.tgz:167911.got - 2010.06.28 07:06:18.
