data_PCOD8137659
_publ_section_title
;
Structure prediction by ZEFSAII (Michael W. Deem and Ramdas Pophale) SiO2 
 PCOD8137659
Probable space group: C 2/C
;
_chemical_formula_sum "Si O2"
_cell_formula_units_Z 44
_cell_length_a 10.430042
_cell_length_b 21.891470
_cell_length_c 12.241028
_cell_angle_alpha 90.000000
_cell_angle_beta 123.573101
_cell_angle_gamma 90.000000
_cell_volume 2328.725007
_symmetry_space_group_name_H-M "C 2/C"
_symmetry_group_IT_number 15
_symmetry_cell_setting 'monoclinic'
loop_
_space_group_symop_operation_xyz
x,y,z
-x,y,1/2-z
-x,-y,-z
x,-y,1/2+z
1/2+x,1/2+y,z
1/2-x,1/2+y,1/2-z
1/2-x,1/2-y,-z
1/2+x,1/2-y,1/2+z
loop_
_atom_site_type_symbol
_atom_site_label
_atom_site_fract_x
_atom_site_fract_y
_atom_site_fract_z
Si Si1 0.571729 0.760808 0.400647
Si Si2 0.825140 0.826811 0.148445
Si Si3 0.811851 0.799205 0.892337
Si Si4 0.120162 0.399736 0.726689
Si Si5 0.472649 0.109348 0.925237
Si Si6 0.500000 0.985563 0.250000
O O1 0.500000 0.742083 0.250000
O O2 0.750000 0.750000 0.500000
O O3 0.488001 0.719576 0.453063
O O4 0.549532 0.831781 0.409853
O O5 0.793298 0.760090 0.186399
O O6 0.710683 0.877899 0.146004
O O7 0.000000 0.847890 0.250000
O O8 0.789056 0.821889 0.004001
O O9 0.770111 0.856593 0.794067
O O10 0.144376 0.467463 0.793705
O O11 0.000000 0.363476 0.750000
O O12 0.051544 0.408821 0.575037
O O13 0.516589 0.054675 0.865260
#
# Coordination Sequence:
#
# PCOD8137659 Si02
#       6
#     8   8   8   8   8   4
#     4  11  24  38  59  90 130 166 197 255 318 375
#     4  10  21  32  57  85 118 150 193 259 298 359
#     4  10  21  35  56  86 117 154 201 246 310 352
#     4  10  20  36  61  86 117 153 206 250 295 356
#     4  11  21  39  59  90 118 158 209 247 307 370
#     4  10  22  36  64  88 122 162 206 248 304 368
#
# _framework density 18.894459999999999
#
# number of rings (size 3 to 8) (size 9 to 14) (size 15 to 20)
#    0.545    1.091    2.727    2.182   10.182    0.000 
#    0.000    0.000    0.000   13.091    0.000    0.000 
#    0.000    0.000    0.000    0.000    0.000    0.000 
#
# Total GULP energy -272583.337061 kJ/mol
# GULP energy per Si atom -12390.151685 kJ/mol
# Density = 1.885146 g / cm^3
# Si number density = 18.894460 Si / 1000 Ang^3
#
#
#
# Elastic Constant Matrix: (Units=GPa)
#
#
# Indices 1 2 3 4 5 6 
#
# 1 95.2711 49.2384 43.9024 0.0000 13.8226 0.0000
# 2 49.2384 126.0419 47.2599 0.0000 4.2372 0.0000
# 3 43.9024 47.2599 97.8394 0.0000 2.9073 0.0000
# 4 0.0000 0.0000 0.0000 17.5968 0.0000 -7.4709
# 5 13.8226 4.2372 2.9073 0.0000 36.2795 0.0000
# 6 0.0000 0.0000 0.0000 -7.4709 0.0000 25.2400
#
#
#
# Elastic Compliance Matrix: (Units=1/GPa)
#
#
# Indices 1 2 3 4 5 6 
#
# 1 0.015592 -0.004095 -0.004867 0.000000 -0.005072 0.000000
# 2 -0.004095 0.010785 -0.003389 0.000000 0.000572 0.000000
# 3 -0.004867 -0.003389 0.014008 0.000000 0.001128 0.000000
# 4 0.000000 0.000000 0.000000 0.064997 0.000000 0.019239
# 5 -0.005072 0.000572 0.001128 0.000000 0.029339 0.000000
# 6 0.000000 0.000000 0.000000 0.019239 0.000000 0.045314
#
#
# Mechanical properties :
#
#
# Convention : Reuss Voigt Hill
#
# Bulk Modulus (GPa) = 63.76772 66.66155 65.21464
# Shear Modulus (GPa) = 23.81335 27.74002 25.77669
#
# Velocity S-wave (km/s) = 3.55397 3.83581 3.69758
# Velocity P-wave (km/s) = 7.11784 7.41455 7.26771
#
# Compressibility (1/GPa) = 0.01568191
#
# Stress axis : x y z
#
# Youngs Moduli (GPa) = 64.13599 92.71959 71.38567
#
# Poissons Ratio (x) = 0.37972 0.34746
# Poissons Ratio (y) = 0.26266 0.24192
# Poissons Ratio (z) = 0.31218 0.31422
#
# Static dielectric constant tensor:
#      x y z
#    x 3.408160 0.000000 -0.258560 
#    y 0.000000 3.438420 0.000000 
#    z -0.258560 0.000000 3.314440 
# 
# 
# High freq. dielectric constant tensor:
#      x y z
#    x 1.727010 0.000000 -0.023340 
#    y 0.000000 1.725020 0.000000 
#    z -0.023340 0.000000 1.726480 
# 
# From -- ./inp_files/79971.got.cif
#   From: 2010.06.25/outbox.cif.g09.slc.cpg/sg15_40_cif.got.tgz:79971.got - 2010.06.28 07:06:18.
