data_PCOD8137025
_publ_section_title
;
Structure prediction by ZEFSAII (Michael W. Deem and Ramdas Pophale) SiO2 
 PCOD8137025
Probable space group: C 2/C
;
_chemical_formula_sum "Si O2"
_cell_formula_units_Z 48
_cell_length_a 13.801807
_cell_length_b 6.191904
_cell_length_c 27.652773
_cell_angle_alpha 90.000000
_cell_angle_beta 119.786511
_cell_angle_gamma 90.000000
_cell_volume 2050.972086
_symmetry_space_group_name_H-M "C 2/C"
_symmetry_group_IT_number 15
_symmetry_cell_setting 'monoclinic'
loop_
_space_group_symop_operation_xyz
x,y,z
-x,y,1/2-z
-x,-y,-z
x,-y,1/2+z
1/2+x,1/2+y,z
1/2-x,1/2+y,1/2-z
1/2-x,1/2-y,-z
1/2+x,1/2-y,1/2+z
loop_
_atom_site_type_symbol
_atom_site_label
_atom_site_fract_x
_atom_site_fract_y
_atom_site_fract_z
Si Si1 0.937072 0.638583 0.420740
Si Si2 0.299279 0.562010 0.544280
Si Si3 0.119712 0.855691 0.759645
Si Si4 0.091652 0.718760 0.982380
Si Si5 0.673843 0.458210 0.171558
Si Si6 0.227956 0.847500 0.359523
O O1 0.971133 0.742949 0.481353
O O2 0.926572 0.815220 0.375694
O O3 0.817978 0.528088 0.392887
O O4 0.030641 0.457206 0.432401
O O5 0.250000 0.750000 0.500000
O O6 0.213898 0.364036 0.527372
O O7 0.406384 0.450956 0.544475
O O8 0.335882 0.668403 0.604680
O O9 0.214944 0.673927 0.786726
O O10 0.000000 0.766262 0.750000
O O11 0.117114 0.923100 0.702917
O O12 0.146026 0.070811 0.797094
O O13 0.713487 0.625046 0.140380
#
# Coordination Sequence:
#
# PCOD8137025 Si02
#       6
#     8   8   8   8   8   8
#     4   9  20  37  64  89 126 177 212 272 343 395
#     4  10  20  35  58  89 129 167 216 275 324 408
#     4  11  25  44  68  94 126 172 222 282 343 400
#     4   9  19  37  57  91 130 166 217 269 332 406
#     4  11  22  45  66  92 133 170 223 288 334 410
#     4  10  22  40  61  92 127 167 219 276 336 406
#
# _framework density 23.403537
#
# number of rings (size 3 to 8) (size 9 to 14) (size 15 to 20)
#    0.000    2.000    1.667    1.000    0.000    6.000 
#    0.000    5.000    0.000    0.000    0.000    0.000 
#    0.000    0.000    0.000    0.000    0.000    0.000 
#
# Total GULP energy -297408.379397 kJ/mol
# GULP energy per Si atom -12392.015808 kJ/mol
# Density = 2.335027 g / cm^3
# Si number density = 23.403537 Si / 1000 Ang^3
#
#
#
# Elastic Constant Matrix: (Units=GPa)
#
#
# Indices 1 2 3 4 5 6 
#
# 1 98.2258 42.7688 37.8566 0.0000 -17.3983 0.0000
# 2 42.7688 93.8475 52.4535 0.0000 -39.7149 0.0000
# 3 37.8566 52.4535 118.2638 0.0000 -36.3177 0.0000
# 4 0.0000 0.0000 0.0000 25.4095 0.0000 5.5847
# 5 -17.3983 -39.7149 -36.3177 0.0000 36.3371 0.0000
# 6 0.0000 0.0000 0.0000 5.5847 0.0000 47.3485
#
#
#
# Elastic Compliance Matrix: (Units=1/GPa)
#
#
# Indices 1 2 3 4 5 6 
#
# 1 0.013148 -0.005581 -0.002414 0.000000 -0.002217 0.000000
# 2 -0.005581 0.023007 -0.002188 0.000000 0.020287 0.000000
# 3 -0.002414 -0.002188 0.013144 0.000000 0.009589 0.000000
# 4 0.000000 0.000000 0.000000 0.040403 0.000000 -0.004765
# 5 -0.002217 0.020287 0.009589 0.000000 0.058215 0.000000
# 6 0.000000 0.000000 0.000000 -0.004765 0.000000 0.021682
#
#
# Mechanical properties :
#
#
# Convention : Reuss Voigt Hill
#
# Bulk Modulus (GPa) = 34.56346 64.05498 49.30922
# Shear Modulus (GPa) = 25.04888 33.63624 29.34256
#
# Velocity S-wave (km/s) = 3.27510 3.79519 3.54470
# Velocity P-wave (km/s) = 5.39465 6.82890 6.15370
#
# Compressibility (1/GPa) = 0.02893229
#
# Stress axis : x y z
#
# Youngs Moduli (GPa) = 76.05466 43.46537 76.08160
#
# Poissons Ratio (x) = 0.24258 0.18370
# Poissons Ratio (y) = 0.42446 0.16646
# Poissons Ratio (z) = 0.18363 0.09510
#
# Static dielectric constant tensor:
#      x y z
#    x 4.306460 0.000000 -0.221780 
#    y 0.000000 4.111190 0.000000 
#    z -0.221780 0.000000 4.586510 
# 
# 
# High freq. dielectric constant tensor:
#      x y z
#    x 1.920650 0.000000 -0.007520 
#    y 0.000000 1.921990 0.000000 
#    z -0.007520 0.000000 1.928770 
# 
# From -- ./inp_files/312440.got.cif
#   From: 2010.06.25/outbox.cif.g09.slc.cpg/sg15_157_cif.got.tgz:312440.got - 2010.06.28 07:06:18.
