data_PCOD8137404
_publ_section_title
;
Structure prediction by ZEFSAII (Michael W. Deem and Ramdas Pophale) SiO2 
 PCOD8137404
Probable space group: C 2/C
;
_chemical_formula_sum "Si O2"
_cell_formula_units_Z 48
_cell_length_a 23.267701
_cell_length_b 11.229519
_cell_length_c 15.547138
_cell_angle_alpha 90.000000
_cell_angle_beta 145.367442
_cell_angle_gamma 90.000000
_cell_volume 2308.614647
_symmetry_space_group_name_H-M "C 2/C"
_symmetry_group_IT_number 15
_symmetry_cell_setting 'monoclinic'
loop_
_space_group_symop_operation_xyz
x,y,z
-x,y,1/2-z
-x,-y,-z
x,-y,1/2+z
1/2+x,1/2+y,z
1/2-x,1/2+y,1/2-z
1/2-x,1/2-y,-z
1/2+x,1/2-y,1/2+z
loop_
_atom_site_type_symbol
_atom_site_label
_atom_site_fract_x
_atom_site_fract_y
_atom_site_fract_z
Si Si1 0.901708 0.504900 0.178960
Si Si2 0.287395 0.178855 0.630632
Si Si3 0.100975 0.762003 0.570204
Si Si4 0.731717 0.100485 0.622046
Si Si5 0.880355 0.305579 0.785935
Si Si6 0.786109 0.026629 0.350965
O O1 0.884942 0.398214 0.224862
O O2 0.913432 0.633136 0.237851
O O3 0.000000 0.467651 0.250000
O O4 0.804705 0.511636 0.996955
O O5 0.250000 0.250000 0.500000
O O6 0.325621 0.264916 0.754678
O O7 0.205930 0.079763 0.567466
O O8 0.133111 0.651721 0.549748
O O9 0.120030 0.880205 0.534564
O O10 0.984037 0.746321 0.455160
O O11 0.803561 0.200051 0.668892
O O12 0.796934 0.028726 0.770500
O O13 0.820959 0.401427 0.772323
#
# Coordination Sequence:
#
# PCOD8137404 Si02
#       6
#     8   8   8   8   8   8
#     4  11  21  35  60  88 115 154 200 239 292 350
#     4  10  22  39  60  87 123 155 193 246 295 345
#     4  10  20  38  60  85 118 154 199 244 291 353
#     4  10  20  36  58  82 118 153 191 250 292 349
#     4  10  21  36  59  86 115 153 199 245 295 347
#     4   9  21  37  61  85 115 154 200 238 298 349
#
# _framework density 20.791689999999999
#
# number of rings (size 3 to 8) (size 9 to 14) (size 15 to 20)
#    0.000    2.000    1.667    1.500    2.333    2.667 
#    0.000    0.000    0.000    0.000    0.000    0.000 
#    0.000    0.000    0.000    0.000    0.000    0.000 
#
# Total GULP energy -297356.702525 kJ/mol
# GULP energy per Si atom -12389.862605 kJ/mol
# Density = 2.074437 g / cm^3
# Si number density = 20.791690 Si / 1000 Ang^3
#
#
#
# Elastic Constant Matrix: (Units=GPa)
#
#
# Indices 1 2 3 4 5 6 
#
# 1 81.2531 31.7143 21.3790 0.0000 2.0218 0.0000
# 2 31.7143 79.8062 19.7468 0.0000 1.6212 0.0000
# 3 21.3790 19.7468 64.3172 0.0000 1.5339 0.0000
# 4 0.0000 0.0000 0.0000 21.0500 0.0000 -11.2333
# 5 2.0218 1.6212 1.5339 0.0000 33.7277 0.0000
# 6 0.0000 0.0000 0.0000 -11.2333 0.0000 30.8517
#
#
#
# Elastic Compliance Matrix: (Units=1/GPa)
#
#
# Indices 1 2 3 4 5 6 
#
# 1 0.015260 -0.005196 -0.003465 0.000000 -0.000507 0.000000
# 2 -0.005196 0.015337 -0.002975 0.000000 -0.000290 0.000000
# 3 -0.003465 -0.002975 0.017624 0.000000 -0.000451 0.000000
# 4 0.000000 0.000000 0.000000 0.058963 0.000000 0.021469
# 5 -0.000507 -0.000290 -0.000451 0.000000 0.029714 0.000000
# 6 0.000000 0.000000 0.000000 0.021469 0.000000 0.040230
#
#
# Mechanical properties :
#
#
# Convention : Reuss Voigt Hill
#
# Bulk Modulus (GPa) = 40.08196 41.22851 40.65524
# Shear Modulus (GPa) = 23.95602 27.29498 25.62550
#
# Velocity S-wave (km/s) = 3.39808 3.62717 3.51449
# Velocity P-wave (km/s) = 5.89200 6.11671 6.00541
#
# Compressibility (1/GPa) = 0.02494888
#
# Stress axis : x y z
#
# Youngs Moduli (GPa) = 65.53187 65.20045 56.74190
#
# Poissons Ratio (x) = 0.33881 0.19660
# Poissons Ratio (y) = 0.34053 0.16879
# Poissons Ratio (z) = 0.22706 0.19395
#
# Static dielectric constant tensor:
#      x y z
#    x 3.825810 0.000000 -0.111800 
#    y 0.000000 3.882760 0.000000 
#    z -0.111800 0.000000 3.324180 
# 
# 
# High freq. dielectric constant tensor:
#      x y z
#    x 1.822100 0.000000 -0.007050 
#    y 0.000000 1.818180 0.000000 
#    z -0.007050 0.000000 1.773570 
# 
# From -- ./inp_files/167906.got.cif
#   From: 2010.06.25/outbox.cif.g09.slc.cpg/sg15_84_cif.got.tgz:167906.got - 2010.06.28 07:06:18.
