data_PCOD8137030
_publ_section_title
;
Structure prediction by ZEFSAII (Michael W. Deem and Ramdas Pophale) SiO2 
 PCOD8137030
Probable space group: C 2/C
;
_chemical_formula_sum "Si O2"
_cell_formula_units_Z 64
_cell_length_a 22.577244
_cell_length_b 6.562134
_cell_length_c 21.674253
_cell_angle_alpha 90.000000
_cell_angle_beta 95.844474
_cell_angle_gamma 90.000000
_cell_volume 3194.455151
_symmetry_space_group_name_H-M "C 2/C"
_symmetry_group_IT_number 15
_symmetry_cell_setting 'monoclinic'
loop_
_space_group_symop_operation_xyz
x,y,z
-x,y,1/2-z
-x,-y,-z
x,-y,1/2+z
1/2+x,1/2+y,z
1/2-x,1/2+y,1/2-z
1/2-x,1/2-y,-z
1/2+x,1/2-y,1/2+z
loop_
_atom_site_type_symbol
_atom_site_label
_atom_site_fract_x
_atom_site_fract_y
_atom_site_fract_z
Si Si1 0.670674 0.595534 0.395189
Si Si2 0.042030 0.000360 0.177436
Si Si3 0.095332 0.751975 0.447739
Si Si4 0.566723 0.277884 0.806555
Si Si5 0.003367 0.419048 0.648282
Si Si6 0.406062 0.776524 0.407386
Si Si7 0.793292 0.493568 0.044331
Si Si8 0.274367 0.163056 0.908726
O O1 0.625551 0.465982 0.432707
O O2 0.634170 0.713538 0.338157
O O3 0.705175 0.753855 0.442947
O O4 0.721241 0.455464 0.366827
O O5 0.065886 0.138710 0.236687
O O6 0.082537 0.056224 0.122890
O O7 0.973964 0.070342 0.156991
O O8 0.040668 0.756204 0.189544
O O9 0.082666 0.751302 0.519288
O O10 0.140442 0.573198 0.434436
O O11 0.034189 0.705389 0.406412
O O12 0.539082 0.048672 0.809838
O O13 0.049528 0.560086 0.617128
O O14 0.338647 0.846103 0.383656
O O15 0.744721 0.601750 0.083749
O O16 0.775272 0.543819 0.973280
#
# Coordination Sequence:
#
# PCOD8137030 Si02
#       8
#     8   8   8   8   8   8   8   8
#     4  11  19  35  64  87 116 158 201 255 293 338
#     4  10  23  40  60  85 121 160 195 246 297 354
#     4  10  20  35  58  94 123 151 200 243 302 360
#     4  10  22  40  61  90 114 145 218 249 288 351
#     4  11  21  40  63  87 120 161 188 249 307 350
#     4  10  23  38  55  88 131 159 193 235 295 377
#     4   9  18  34  57  87 120 157 197 250 289 347
#     4   9  20  35  55  87 123 157 201 236 296 354
#
# _framework density 20.034714000000001
#
# number of rings (size 3 to 8) (size 9 to 14) (size 15 to 20)
#    0.000    2.000    2.500    1.500    0.000    7.500 
#    0.000    0.000    5.500    0.000    0.000    0.000 
#    0.000    0.000    0.000    0.000    0.000    0.000 
#
# Total GULP energy -396541.656510 kJ/mol
# GULP energy per Si atom -12391.926766 kJ/mol
# Density = 1.998911 g / cm^3
# Si number density = 20.034714 Si / 1000 Ang^3
#
#
#
# Elastic Constant Matrix: (Units=GPa)
#
#
# Indices 1 2 3 4 5 6 
#
# 1 98.5734 38.2056 29.1532 0.0000 0.1270 0.0000
# 2 38.2056 131.0258 33.2522 0.0000 0.4258 0.0000
# 3 29.1532 33.2522 66.7963 0.0000 -1.6884 0.0000
# 4 0.0000 0.0000 0.0000 21.7296 0.0000 3.3671
# 5 0.1270 0.4258 -1.6884 0.0000 17.8957 0.0000
# 6 0.0000 0.0000 0.0000 3.3671 0.0000 29.9051
#
#
#
# Elastic Compliance Matrix: (Units=1/GPa)
#
#
# Indices 1 2 3 4 5 6 
#
# 1 0.012357 -0.002553 -0.004133 0.000000 -0.000417 0.000000
# 2 -0.002553 0.009270 -0.003514 0.000000 -0.000534 0.000000
# 3 -0.004133 -0.003514 0.018571 0.000000 0.001865 0.000000
# 4 0.000000 0.000000 0.000000 0.046837 0.000000 -0.005274
# 5 -0.000417 -0.000534 0.001865 0.000000 0.056071 0.000000
# 6 0.000000 0.000000 0.000000 -0.005274 0.000000 0.034033
#
#
# Mechanical properties :
#
#
# Convention : Reuss Voigt Hill
#
# Bulk Modulus (GPa) = 50.50876 55.29082 52.89979
# Shear Modulus (GPa) = 24.49314 26.95837 25.72575
#
# Velocity S-wave (km/s) = 3.50027 3.67220 3.58726
# Velocity P-wave (km/s) = 6.44990 6.75555 6.60449
#
# Compressibility (1/GPa) = 0.01979855
#
# Stress axis : x y z
#
# Youngs Moduli (GPa) = 80.92543 107.87446 53.84698
#
# Poissons Ratio (x) = 0.27540 0.22254
# Poissons Ratio (y) = 0.20660 0.18922
# Poissons Ratio (z) = 0.33445 0.37907
#
# Static dielectric constant tensor:
#      x y z
#    x 3.832100 0.000000 0.135700 
#    y 0.000000 3.747210 0.000000 
#    z 0.135700 0.000000 3.290890 
# 
# 
# High freq. dielectric constant tensor:
#      x y z
#    x 1.783370 0.000000 0.014650 
#    y 0.000000 1.792570 0.000000 
#    z 0.014650 0.000000 1.746720 
# 
# From -- ./inp_files/256559.got.cif
#   From: 2010.06.25/outbox.cif.g09.slc.cpg/sg15_129_cif.got.tgz:256559.got - 2010.06.28 07:06:18.
