data_PCOD8137948
_publ_section_title
;
Structure prediction by ZEFSAII (Michael W. Deem and Ramdas Pophale) SiO2 
 PCOD8137948
Probable space group: C 2/C
;
_chemical_formula_sum "Si O2"
_cell_formula_units_Z 56
_cell_length_a 19.345577
_cell_length_b 8.900796
_cell_length_c 16.872064
_cell_angle_alpha 90.000000
_cell_angle_beta 109.079763
_cell_angle_gamma 90.000000
_cell_volume 2745.618329
_symmetry_space_group_name_H-M "C 2/C"
_symmetry_group_IT_number 15
_symmetry_cell_setting 'monoclinic'
loop_
_space_group_symop_operation_xyz
x,y,z
-x,y,1/2-z
-x,-y,-z
x,-y,1/2+z
1/2+x,1/2+y,z
1/2-x,1/2+y,1/2-z
1/2-x,1/2-y,-z
1/2+x,1/2-y,1/2+z
loop_
_atom_site_type_symbol
_atom_site_label
_atom_site_fract_x
_atom_site_fract_y
_atom_site_fract_z
Si Si1 0.893924 0.937501 0.155595
Si Si2 0.784411 0.554615 0.681179
Si Si3 0.666271 0.753467 0.727429
Si Si4 0.706779 0.385622 0.521948
Si Si5 0.922604 0.746933 0.748435
Si Si6 0.575832 0.668436 0.076546
Si Si7 0.474897 0.660324 0.900183
O O1 0.850803 0.821246 0.194429
O O2 0.969299 0.865613 0.151773
O O3 0.911935 0.085239 0.212038
O O4 0.842001 0.974504 0.061124
O O5 0.723494 0.657260 0.698720
O O6 0.798671 0.415646 0.745364
O O7 0.760012 0.503782 0.584342
O O8 0.858491 0.643744 0.691733
O O9 0.589906 0.771510 0.651025
O O10 0.750000 0.250000 0.500000
O O11 0.655895 0.312148 0.570088
O O12 0.924658 0.736630 0.843981
O O13 0.000000 0.680302 0.750000
O O14 0.562335 0.495045 0.089784
O O15 0.515326 0.730631 0.991900
#
# Coordination Sequence:
#
# PCOD8137948 Si02
#       7
#     8   8   8   8   8   8   8
#     4  11  21  37  71  95 127 175 215 261 318 387
#     4  12  27  42  66  92 134 171 211 274 330 386
#     4  12  22  42  63  97 126 169 218 262 324 389
#     4  11  22  41  65 100 132 166 220 271 322 385
#     4  12  24  43  64  95 133 172 221 269 324 385
#     4  10  20  40  65  94 130 170 210 267 313 381
#     4  10  20  36  69  94 125 169 219 255 311 388
#
# _framework density 20.396134
#
# number of rings (size 3 to 8) (size 9 to 14) (size 15 to 20)
#    0.000    0.857    5.714    2.143    0.000    1.714 
#    0.000    2.143    0.000    0.000    0.000    0.000 
#    0.000    0.000    0.000    0.000    0.000    0.000 
#
# Total GULP energy -347280.120955 kJ/mol
# GULP energy per Si atom -12402.861463 kJ/mol
# Density = 2.034971 g / cm^3
# Si number density = 20.396134 Si / 1000 Ang^3
#
#
#
# Elastic Constant Matrix: (Units=GPa)
#
#
# Indices 1 2 3 4 5 6 
#
# 1 150.8744 32.8877 51.2341 0.0000 -1.2841 0.0000
# 2 32.8877 49.2212 19.6821 0.0000 5.6268 0.0000
# 3 51.2341 19.6821 131.7909 0.0000 8.2305 0.0000
# 4 0.0000 0.0000 0.0000 24.3043 0.0000 -1.6974
# 5 -1.2841 5.6268 8.2305 0.0000 41.2001 0.0000
# 6 0.0000 0.0000 0.0000 -1.6974 0.0000 26.5047
#
#
#
# Elastic Compliance Matrix: (Units=1/GPa)
#
#
# Indices 1 2 3 4 5 6 
#
# 1 0.008619 -0.004840 -0.002720 0.000000 0.001473 0.000000
# 2 -0.004840 0.024549 -0.001586 0.000000 -0.003187 0.000000
# 3 -0.002720 -0.001586 0.008986 0.000000 -0.001663 0.000000
# 4 0.000000 0.000000 0.000000 0.041330 0.000000 0.002647
# 5 0.001473 -0.003187 -0.001663 0.000000 0.025085 0.000000
# 6 0.000000 0.000000 0.000000 0.002647 0.000000 0.037899
#
#
# Mechanical properties :
#
#
# Convention : Reuss Voigt Hill
#
# Bulk Modulus (GPa) = 41.90619 59.94381 50.92500
# Shear Modulus (GPa) = 28.94988 33.60733 31.27861
#
# Velocity S-wave (km/s) = 3.77155 4.06363 3.92031
# Velocity P-wave (km/s) = 6.28943 7.17433 6.74640
#
# Compressibility (1/GPa) = 0.02386282
#
# Stress axis : x y z
#
# Youngs Moduli (GPa) = 116.02025 40.73561 111.28618
#
# Poissons Ratio (x) = 0.19715 0.30269
# Poissons Ratio (y) = 0.56151 0.17646
# Poissons Ratio (z) = 0.31557 0.06459
#
# Static dielectric constant tensor:
#      x y z
#    x 4.013000 0.000000 0.116580 
#    y 0.000000 3.326630 0.000000 
#    z 0.116580 0.000000 4.172460 
# 
# 
# High freq. dielectric constant tensor:
#      x y z
#    x 1.818050 0.000000 0.007970 
#    y 0.000000 1.754750 0.000000 
#    z 0.007970 0.000000 1.820600 
# 
# From -- ./inp_files/209639.got.cif
#   From: 2010.06.25/outbox.cif.g09.slc.cpg/sg15_105_cif.got.tgz:209639.got - 2010.06.28 07:06:18.
