data_PCOD8137965
_publ_section_title
;
Structure prediction by ZEFSAII (Michael W. Deem and Ramdas Pophale) SiO2 
 PCOD8137965
Probable space group: C 2/C
;
_chemical_formula_sum "Si O2"
_cell_formula_units_Z 32
_cell_length_a 11.439631
_cell_length_b 23.575296
_cell_length_c 7.628676
_cell_angle_alpha 90.000000
_cell_angle_beta 127.243230
_cell_angle_gamma 90.000000
_cell_volume 1637.840166
_symmetry_space_group_name_H-M "C 2/C"
_symmetry_group_IT_number 15
_symmetry_cell_setting 'monoclinic'
loop_
_space_group_symop_operation_xyz
x,y,z
-x,y,1/2-z
-x,-y,-z
x,-y,1/2+z
1/2+x,1/2+y,z
1/2-x,1/2+y,1/2-z
1/2-x,1/2-y,-z
1/2+x,1/2-y,1/2+z
loop_
_atom_site_type_symbol
_atom_site_label
_atom_site_fract_x
_atom_site_fract_y
_atom_site_fract_z
Si Si1 0.768070 0.275772 0.784631
Si Si2 0.112611 0.428525 0.992424
Si Si3 0.000000 0.741300 0.750000
Si Si4 0.500000 0.963468 0.250000
Si Si5 0.330222 0.665295 0.640443
O O1 0.614988 0.280986 0.749677
O O2 0.801551 0.209662 0.770545
O O3 0.904969 0.297168 0.028647
O O4 0.236222 0.313981 0.889332
O O5 0.268637 0.396606 0.132881
O O6 0.057138 0.424507 0.143500
O O7 0.128160 0.494809 0.946917
O O8 0.000000 0.399131 0.750000
O O9 0.500000 0.660229 0.750000
#
# Coordination Sequence:
#
# PCOD8137965 Si02
#       5
#     8   8   4   4   8
#     4  10  22  37  55  78 124 155 194 242 276 346
#     4   9  19  37  64  82 113 146 193 246 290 342
#     4  10  20  37  54  76 108 164 200 241 280 316
#     4   8  18  41  62  88 108 140 204 251 276 354
#     4  11  22  37  53  85 119 159 189 232 293 352
#
# _framework density 19.537925000000001
#
# number of rings (size 3 to 8) (size 9 to 14) (size 15 to 20)
#    0.750    1.500    2.500    0.000    3.500    1.000 
#    4.500    1.250    0.000    0.000    0.000    0.000 
#    0.000    0.000    0.000    0.000    0.000    0.000 
#
# Total GULP energy -198232.987063 kJ/mol
# GULP energy per Si atom -12389.561691 kJ/mol
# Density = 1.949346 g / cm^3
# Si number density = 19.537925 Si / 1000 Ang^3
#
#
#
# Elastic Constant Matrix: (Units=GPa)
#
#
# Indices 1 2 3 4 5 6 
#
# 1 131.8000 46.4918 56.4078 0.0000 -2.8651 0.0000
# 2 46.4918 64.6531 22.0648 0.0000 8.8690 0.0000
# 3 56.4078 22.0648 111.0095 0.0000 -2.4517 0.0000
# 4 0.0000 0.0000 0.0000 9.8204 0.0000 9.5200
# 5 -2.8651 8.8690 -2.4517 0.0000 40.5048 0.0000
# 6 0.0000 0.0000 0.0000 9.5200 0.0000 20.0773
#
#
#
# Elastic Compliance Matrix: (Units=1/GPa)
#
#
# Indices 1 2 3 4 5 6 
#
# 1 0.012316 -0.007558 -0.004707 0.000000 0.002241 0.000000
# 2 -0.007558 0.021848 -0.000621 0.000000 -0.005356 0.000000
# 3 -0.004707 -0.000621 0.011534 0.000000 0.000501 0.000000
# 4 0.000000 0.000000 0.000000 0.188453 0.000000 -0.089358
# 5 0.002241 -0.005356 0.000501 0.000000 0.026050 0.000000
# 6 0.000000 0.000000 0.000000 -0.089358 0.000000 0.092178
#
#
# Mechanical properties :
#
#
# Convention : Reuss Voigt Hill
#
# Bulk Modulus (GPa) = 50.17817 61.93237 56.05527
# Shear Modulus (GPa) = 12.99398 26.24705 19.62052
#
# Velocity S-wave (km/s) = 2.58168 3.66920 3.17239
# Velocity P-wave (km/s) = 5.88430 7.05111 6.49396
#
# Compressibility (1/GPa) = 0.01992898
#
# Stress axis : x y z
#
# Youngs Moduli (GPa) = 81.19343 45.76982 86.69826
#
# Poissons Ratio (x) = 0.34592 0.40806
# Poissons Ratio (y) = 0.61364 0.05381
# Poissons Ratio (z) = 0.38215 0.02841
#
# Static dielectric constant tensor:
#      x y z
#    x 3.531870 0.000000 -0.243760 
#    y 0.000000 3.088720 0.000000 
#    z -0.243760 0.000000 3.734860 
# 
# 
# High freq. dielectric constant tensor:
#      x y z
#    x 1.767800 0.000000 -0.023240 
#    y 0.000000 1.716180 0.000000 
#    z -0.023240 0.000000 1.764700 
# 
# From -- ./inp_files/25202.got.cif
#   From: 2010.06.25/outbox.cif.g09.slc.cpg/sg15_13_cif.got.tgz:25202.got - 2010.06.28 07:06:18.
