data_PCOD8137627
_publ_section_title
;
Structure prediction by ZEFSAII (Michael W. Deem and Ramdas Pophale) SiO2 
 PCOD8137627
Probable space group: C 2/C
;
_chemical_formula_sum "Si O2"
_cell_formula_units_Z 44
_cell_length_a 7.419252
_cell_length_b 18.827648
_cell_length_c 16.709331
_cell_angle_alpha 90.000000
_cell_angle_beta 60.024287
_cell_angle_gamma 90.000000
_cell_volume 2021.864841
_symmetry_space_group_name_H-M "C 2/C"
_symmetry_group_IT_number 15
_symmetry_cell_setting 'monoclinic'
loop_
_space_group_symop_operation_xyz
x,y,z
-x,y,1/2-z
-x,-y,-z
x,-y,1/2+z
1/2+x,1/2+y,z
1/2-x,1/2+y,1/2-z
1/2-x,1/2-y,-z
1/2+x,1/2-y,1/2+z
loop_
_atom_site_type_symbol
_atom_site_label
_atom_site_fract_x
_atom_site_fract_y
_atom_site_fract_z
Si Si1 0.000000 0.372897 0.750000
Si Si2 0.545252 0.989569 0.153426
Si Si3 0.392260 0.157766 0.515432
Si Si4 0.150407 0.041503 0.643507
Si Si5 0.312181 0.584229 0.473972
Si Si6 0.828883 0.804706 0.592298
O O1 0.961930 0.424657 0.835688
O O2 0.207821 0.323723 0.702856
O O3 0.500000 0.953103 0.250000
O O4 0.378575 0.970536 0.125432
O O5 0.757847 0.958637 0.068387
O O6 0.611341 0.116771 0.473566
O O7 0.350386 0.187222 0.435938
O O8 0.404251 0.223341 0.575787
O O9 0.187014 0.109905 0.579603
O O10 0.075354 0.972319 0.610650
O O11 0.000000 0.058127 0.750000
O O12 0.471503 0.645428 0.462221
#
# Coordination Sequence:
#
# PCOD8137627 Si02
#       6
#     4   8   8   8   8   8
#     4  10  20  36  60  92 116 154 202 244 300 364
#     4   9  21  37  59  92 125 150 203 262 306 360
#     4  10  24  41  58  89 126 162 206 253 307 372
#     4  11  22  37  63  94 121 157 210 262 309 365
#     4  11  22  41  65  90 123 163 207 261 307 364
#     4  11  23  40  64  85 126 169 202 248 315 377
#
# _framework density 21.762086
#
# number of rings (size 3 to 8) (size 9 to 14) (size 15 to 20)
#    0.545    1.091    0.000    6.000    3.818    1.455 
#    0.000    0.000    0.000    4.364    0.000    0.000 
#    0.000    0.000    0.000    0.000    0.000    0.000 
#
# Total GULP energy -272591.412819 kJ/mol
# GULP energy per Si atom -12390.518765 kJ/mol
# Density = 2.171255 g / cm^3
# Si number density = 21.762086 Si / 1000 Ang^3
#
#
#
# Elastic Constant Matrix: (Units=GPa)
#
#
# Indices 1 2 3 4 5 6 
#
# 1 50.0802 15.1183 8.0331 0.0000 -5.1947 0.0000
# 2 15.1183 120.5476 26.8931 0.0000 -13.5855 0.0000
# 3 8.0331 26.8931 80.8297 0.0000 -19.8738 0.0000
# 4 0.0000 0.0000 0.0000 33.3132 0.0000 14.1519
# 5 -5.1947 -13.5855 -19.8738 0.0000 31.1516 0.0000
# 6 0.0000 0.0000 0.0000 14.1519 0.0000 48.0468
#
#
#
# Elastic Compliance Matrix: (Units=1/GPa)
#
#
# Indices 1 2 3 4 5 6 
#
# 1 0.020981 -0.002216 -0.000860 0.000000 0.001984 0.000000
# 2 -0.002216 0.009346 -0.002346 0.000000 0.002210 0.000000
# 3 -0.000860 -0.002346 0.015360 0.000000 0.008633 0.000000
# 4 0.000000 0.000000 0.000000 0.034311 0.000000 -0.010106
# 5 0.001984 0.002210 0.008633 0.000000 0.038903 0.000000
# 6 0.000000 0.000000 0.000000 -0.010106 0.000000 0.023790
#
#
# Mechanical properties :
#
#
# Convention : Reuss Voigt Hill
#
# Bulk Modulus (GPa) = 28.70038 39.06071 33.88055
# Shear Modulus (GPa) = 30.27568 35.92983 33.10276
#
# Velocity S-wave (km/s) = 3.73394 4.06769 3.90439
# Velocity P-wave (km/s) = 5.63974 6.32846 5.99400
#
# Compressibility (1/GPa) = 0.03484275
#
# Stress axis : x y z
#
# Youngs Moduli (GPa) = 47.66302 107.00041 65.10293
#
# Poissons Ratio (x) = 0.23709 0.05600
# Poissons Ratio (y) = 0.10561 0.15273
# Poissons Ratio (z) = 0.04100 0.25102
#
# Static dielectric constant tensor:
#      x y z
#    x 2.920650 0.000000 1.771710 
#    y 0.000000 4.240160 0.000000 
#    z 1.771710 0.000000 -0.691060 
# 
# 
# High freq. dielectric constant tensor:
#      x y z
#    x 1.838570 0.000000 -0.006200 
#    y 0.000000 1.857240 0.000000 
#    z -0.006200 0.000000 1.858520 
# 
# From -- ./inp_files/190795.got.cif
#   From: 2010.06.25/outbox.cif.g09.slc.cpg/sg15_96_cif.got.tgz:190795.got - 2010.06.28 07:06:18.
