data_PCOD8137494
_publ_section_title
;
Structure prediction by ZEFSAII (Michael W. Deem and Ramdas Pophale) SiO2 
 PCOD8137494
Probable space group: C 2/C
;
_chemical_formula_sum "Si O2"
_cell_formula_units_Z 48
_cell_length_a 22.221623
_cell_length_b 5.294281
_cell_length_c 22.879003
_cell_angle_alpha 90.000000
_cell_angle_beta 65.827617
_cell_angle_gamma 90.000000
_cell_volume 2455.646848
_symmetry_space_group_name_H-M "C 2/C"
_symmetry_group_IT_number 15
_symmetry_cell_setting 'monoclinic'
loop_
_space_group_symop_operation_xyz
x,y,z
-x,y,1/2-z
-x,-y,-z
x,-y,1/2+z
1/2+x,1/2+y,z
1/2-x,1/2+y,1/2-z
1/2-x,1/2-y,-z
1/2+x,1/2-y,1/2+z
loop_
_atom_site_type_symbol
_atom_site_label
_atom_site_fract_x
_atom_site_fract_y
_atom_site_fract_z
Si Si1 0.054935 0.808757 0.458592
Si Si2 0.890974 0.867662 0.650591
Si Si3 0.264511 0.085869 0.708566
Si Si4 0.479365 0.082300 0.915237
Si Si5 0.069482 0.507076 0.690772
Si Si6 0.863059 0.994145 0.290763
O O1 0.071805 0.657580 0.511824
O O2 0.024532 0.642727 0.419311
O O3 0.117019 0.950366 0.403560
O O4 0.000000 0.000000 0.500000
O O5 0.840786 0.633242 0.659860
O O6 0.968042 0.795613 0.624457
O O7 0.874822 0.014442 0.716398
O O8 0.237743 0.341153 0.749743
O O9 0.216470 0.040543 0.671377
O O10 0.436293 0.006566 0.876742
O O11 0.098443 0.234675 0.695005
O O12 0.000000 0.546227 0.750000
O O13 0.116757 0.735827 0.690969
#
# Coordination Sequence:
#
# PCOD8137494 Si02
#       6
#     8   8   8   8   8   8
#     4   9  20  36  58  85 113 148 204 246 291 334
#     4  10  20  36  59  84 116 151 199 247 291 344
#     4  10  22  37  58  84 119 156 198 245 286 347
#     4  10  21  36  57  89 114 154 193 248 297 345
#     4  12  23  35  58  83 126 155 186 236 300 371
#     4  11  23  37  55  89 121 157 187 232 301 357
#
# _framework density 19.546786000000001
#
# number of rings (size 3 to 8) (size 9 to 14) (size 15 to 20)
#    0.000    1.667    1.667    3.500    9.333    0.000 
#    0.000    0.000    0.000    2.000    0.000    0.000 
#    0.000    0.000    0.000    0.000    0.000    0.000 
#
# Total GULP energy -297350.134812 kJ/mol
# GULP energy per Si atom -12389.588951 kJ/mol
# Density = 1.950230 g / cm^3
# Si number density = 19.546786 Si / 1000 Ang^3
#
#
#
# Elastic Constant Matrix: (Units=GPa)
#
#
# Indices 1 2 3 4 5 6 
#
# 1 79.6897 7.6886 22.9978 -0.0477 16.0497 0.0050
# 2 7.6886 84.2336 9.1889 -0.2340 10.0029 0.1144
# 3 22.9978 9.1889 72.4205 -0.1586 23.2264 0.0919
# 4 -0.0477 -0.2340 -0.1586 24.9489 0.0633 3.5661
# 5 16.0497 10.0029 23.2264 0.0633 22.8491 -0.0159
# 6 0.0050 0.1144 0.0919 3.5661 -0.0159 27.0150
#
#
#
# Elastic Compliance Matrix: (Units=1/GPa)
#
#
# Indices 1 2 3 4 5 6 
#
# 1 0.014816 -0.000148 -0.002031 0.000036 -0.008278 -0.000005
# 2 -0.000148 0.012528 0.000272 0.000144 -0.005658 -0.000076
# 3 -0.002031 0.000272 0.020772 0.000197 -0.019808 -0.000109
# 4 0.000036 0.000144 0.000197 0.040857 -0.000405 -0.005395
# 5 -0.008278 -0.005658 -0.019808 -0.000405 0.072193 0.000189
# 6 -0.000005 -0.000076 -0.000109 -0.005395 0.000189 0.037729
#
#
# Mechanical properties :
#
#
# Convention : Reuss Voigt Hill
#
# Bulk Modulus (GPa) = 22.57186 35.12162 28.84674
# Shear Modulus (GPa) = 22.99093 28.06051 25.52572
#
# Velocity S-wave (km/s) = 3.43330 3.79298 3.61761
# Velocity P-wave (km/s) = 5.22392 6.09830 5.67797
#
# Compressibility (1/GPa) = 0.04430294
#
# Stress axis : x y z
#
# Youngs Moduli (GPa) = 67.49294 79.82173 48.14137
#
# Poissons Ratio (x) = 0.01179 0.09780
# Poissons Ratio (y) = 0.00997 -0.01311
# Poissons Ratio (z) = 0.13711 -0.02174
#
# Static dielectric constant tensor:
#      x y z
#    x 3.628010 -0.000140 0.027740 
#    y -0.000140 3.782390 0.000310 
#    z 0.027740 0.000310 3.983450 
# 
# 
# High freq. dielectric constant tensor:
#      x y z
#    x 1.738770 0.000000 0.004530 
#    y 0.000000 1.785510 -0.000010 
#    z 0.004530 -0.000010 1.743920 
# 
# From -- ./inp_files/278597.got.cif
#   From: 2010.06.25/outbox.cif.g09.slc.cpg/sg15_140_cif.got.tgz:278597.got - 2010.06.28 07:06:18.
