data_PCOD8137649
_publ_section_title
;
Structure prediction by ZEFSAII (Michael W. Deem and Ramdas Pophale) SiO2 
 PCOD8137649
Probable space group: C 2/C
;
_chemical_formula_sum "Si O2"
_cell_formula_units_Z 40
_cell_length_a 12.127816
_cell_length_b 10.634284
_cell_length_c 16.854941
_cell_angle_alpha 90.000000
_cell_angle_beta 60.030549
_cell_angle_gamma 90.000000
_cell_volume 1883.138791
_symmetry_space_group_name_H-M "C 2/C"
_symmetry_group_IT_number 15
_symmetry_cell_setting 'monoclinic'
loop_
_space_group_symop_operation_xyz
x,y,z
-x,y,1/2-z
-x,-y,-z
x,-y,1/2+z
1/2+x,1/2+y,z
1/2-x,1/2+y,1/2-z
1/2-x,1/2-y,-z
1/2+x,1/2-y,1/2+z
loop_
_atom_site_type_symbol
_atom_site_label
_atom_site_fract_x
_atom_site_fract_y
_atom_site_fract_z
Si Si1 0.831648 0.212906 0.395070
Si Si2 0.079104 0.129110 0.383944
Si Si3 0.475366 0.347718 0.422222
Si Si4 0.227951 0.226520 0.776488
Si Si5 0.146702 0.051010 0.673201
O O1 0.750000 0.250000 0.500000
O O2 0.806661 0.306556 0.329375
O O3 0.977906 0.208510 0.368510
O O4 0.785323 0.076567 0.379401
O O5 0.081371 0.186283 0.471857
O O6 0.212756 0.152741 0.290823
O O7 0.049221 0.982179 0.398184
O O8 0.581398 0.246303 0.355703
O O9 0.360845 0.353625 0.399575
O O10 0.229511 0.110061 0.714199
O O11 0.000000 0.021084 0.750000
#
# Coordination Sequence:
#
# PCOD8137649 Si02
#       5
#     8   8   8   8   8
#     4  11  20  36  59  84 111 151 196 234 280 348
#     4  10  20  36  61  83 110 151 196 235 283 346
#     4   9  19  37  58  84 109 149 196 233 282 351
#     4  11  19  33  59  84 113 145 190 239 281 331
#     4   9  20  37  57  83 113 147 193 233 282 350
#
# _framework density 21.241130999999999
#
# number of rings (size 3 to 8) (size 9 to 14) (size 15 to 20)
#    0.000    2.000    2.000    4.200    0.000    0.800 
#    0.000    1.000    0.000   19.200    0.000    0.000 
#    0.000    0.000    0.000    0.000    0.000    0.000 
#
# Total GULP energy -247779.112724 kJ/mol
# GULP energy per Si atom -12388.955636 kJ/mol
# Density = 2.119279 g / cm^3
# Si number density = 21.241131 Si / 1000 Ang^3
#
#
#
# Elastic Constant Matrix: (Units=GPa)
#
#
# Indices 1 2 3 4 5 6 
#
# 1 104.9835 36.4226 57.4213 0.0000 39.7473 0.0000
# 2 36.4226 41.9461 31.2564 0.0000 9.1135 0.0000
# 3 57.4213 31.2564 162.6796 0.0000 38.0654 0.0000
# 4 0.0000 0.0000 0.0000 39.0439 0.0000 6.0033
# 5 39.7473 9.1135 38.0654 0.0000 46.9118 0.0000
# 6 0.0000 0.0000 0.0000 6.0033 0.0000 27.5723
#
#
#
# Elastic Compliance Matrix: (Units=1/GPa)
#
#
# Indices 1 2 3 4 5 6 
#
# 1 0.019904 -0.013403 -0.001375 0.000000 -0.013145 0.000000
# 2 -0.013403 0.036915 -0.004124 0.000000 0.007531 0.000000
# 3 -0.001375 -0.004124 0.008597 0.000000 -0.005010 0.000000
# 4 0.000000 0.000000 0.000000 0.026499 0.000000 -0.005770
# 5 -0.013145 0.007531 -0.005010 0.000000 0.035056 0.000000
# 6 0.000000 0.000000 0.000000 -0.005770 0.000000 0.037525
#
#
# Mechanical properties :
#
#
# Convention : Reuss Voigt Hill
#
# Bulk Modulus (GPa) = 36.21474 62.20109 49.20791
# Shear Modulus (GPa) = 23.64046 35.00618 29.32332
#
# Velocity S-wave (km/s) = 3.33972 4.06401 3.71954
# Velocity P-wave (km/s) = 5.65314 7.16718 6.45470
#
# Compressibility (1/GPa) = 0.02761307
#
# Stress axis : x y z
#
# Youngs Moduli (GPa) = 50.24195 27.08950 116.32143
#
# Poissons Ratio (x) = 0.36307 0.15989
# Poissons Ratio (y) = 0.67337 0.47971
# Poissons Ratio (z) = 0.06906 0.11172
#
# Static dielectric constant tensor:
#      x y z
#    x 4.112450 0.000000 0.554880 
#    y 0.000000 3.447160 0.000000 
#    z 0.554880 0.000000 4.476760 
# 
# 
# High freq. dielectric constant tensor:
#      x y z
#    x 1.819190 0.000000 0.039050 
#    y 0.000000 1.779950 0.000000 
#    z 0.039050 0.000000 1.860780 
# 
# From -- ./inp_files/141899.got.cif
#   From: 2010.06.25/outbox.cif.g09.slc.cpg/sg15_71_cif.got.tgz:141899.got - 2010.06.28 07:06:18.
