data_PCOD8137341
_publ_section_title
;
Structure prediction by ZEFSAII (Michael W. Deem and Ramdas Pophale) SiO2 
 PCOD8137341
Probable space group: C 2/C
;
_chemical_formula_sum "Si O2"
_cell_formula_units_Z 40
_cell_length_a 23.447102
_cell_length_b 11.190041
_cell_length_c 14.405879
_cell_angle_alpha 90.000000
_cell_angle_beta 32.272138
_cell_angle_gamma 90.000000
_cell_volume 2018.152993
_symmetry_space_group_name_H-M "C 2/C"
_symmetry_group_IT_number 15
_symmetry_cell_setting 'monoclinic'
loop_
_space_group_symop_operation_xyz
x,y,z
-x,y,1/2-z
-x,-y,-z
x,-y,1/2+z
1/2+x,1/2+y,z
1/2-x,1/2+y,1/2-z
1/2-x,1/2-y,-z
1/2+x,1/2-y,1/2+z
loop_
_atom_site_type_symbol
_atom_site_label
_atom_site_fract_x
_atom_site_fract_y
_atom_site_fract_z
Si Si1 0.964375 0.770569 0.923968
Si Si2 0.500000 0.379130 0.250000
Si Si3 0.387535 0.279540 0.234975
Si Si4 0.297972 0.057902 0.451593
Si Si5 0.357644 0.408147 0.927892
Si Si6 0.000000 0.444250 0.250000
O O1 0.857713 0.816506 0.014862
O O2 0.061666 0.857804 0.761733
O O3 0.988367 0.635512 0.858842
O O4 0.949453 0.777805 0.053297
O O5 0.476182 0.297460 0.193173
O O6 0.603231 0.461895 0.089770
O O7 0.331843 0.151696 0.325748
O O8 0.298725 0.384606 0.355560
O O9 0.258449 0.933307 0.457216
O O10 0.395995 0.027625 0.384114
#
# Coordination Sequence:
#
# PCOD8137341 Si02
#       6
#     8   4   8   8   8   4
#     4   9  20  36  58  82 106 138 184 222 264 319
#     4   8  16  32  54  76 108 138 172 218 264 308
#     4  10  20  36  57  83 107 140 181 222 265 320
#     4  10  21  36  54  77 114 145 175 219 270 316
#     4   8  18  36  55  81 110 140 177 222 266 320
#     4  10  22  40  54  78 114 144 174 224 270 316
#
# _framework density 19.820103
#
# number of rings (size 3 to 8) (size 9 to 14) (size 15 to 20)
#    0.000    3.200    0.000    0.600    0.000   12.800 
#    0.000   12.000    0.000    0.000    0.000    0.000 
#    0.000    0.000    0.000    0.000    0.000    0.000 
#
# Total GULP energy -247874.060875 kJ/mol
# GULP energy per Si atom -12393.703044 kJ/mol
# Density = 1.977499 g / cm^3
# Si number density = 19.820103 Si / 1000 Ang^3
#
#
#
# Elastic Constant Matrix: (Units=GPa)
#
#
# Indices 1 2 3 4 5 6 
#
# 1 129.5854 37.1853 71.2805 0.0000 4.4308 0.0000
# 2 37.1853 71.6779 32.8195 0.0000 -1.0301 0.0000
# 3 71.2805 32.8195 74.4730 0.0000 12.4081 0.0000
# 4 0.0000 0.0000 0.0000 12.8461 0.0000 -1.2643
# 5 4.4308 -1.0301 12.4081 0.0000 48.8348 0.0000
# 6 0.0000 0.0000 0.0000 -1.2643 0.0000 21.6309
#
#
#
# Elastic Compliance Matrix: (Units=1/GPa)
#
#
# Indices 1 2 3 4 5 6 
#
# 1 0.016729 -0.001408 -0.015803 0.000000 0.002468 0.000000
# 2 -0.001408 0.017877 -0.006907 0.000000 0.002260 0.000000
# 3 -0.015803 -0.006907 0.032770 0.000000 -0.007038 0.000000
# 4 0.000000 0.000000 0.000000 0.078295 0.000000 0.004576
# 5 0.002468 0.002260 -0.007038 0.000000 0.022089 0.000000
# 6 0.000000 0.000000 0.000000 0.004576 0.000000 0.046498
#
#
# Mechanical properties :
#
#
# Convention : Reuss Voigt Hill
#
# Bulk Modulus (GPa) = 52.24653 62.03408 57.14031
# Shear Modulus (GPa) = 18.59619 25.62577 22.11098
#
# Velocity S-wave (km/s) = 3.06641 3.59962 3.34366
# Velocity P-wave (km/s) = 6.24137 6.97444 6.61807
#
# Compressibility (1/GPa) = 0.01914003
#
# Stress axis : x y z
#
# Youngs Moduli (GPa) = 59.77661 55.93866 30.51617
#
# Poissons Ratio (x) = 0.07874 0.48224
# Poissons Ratio (y) = 0.08414 0.21079
# Poissons Ratio (z) = 0.94463 0.38639
#
# Static dielectric constant tensor:
#      x y z
#    x 3.576920 0.000000 -0.248570 
#    y 0.000000 3.694250 0.000000 
#    z -0.248570 0.000000 3.268730 
# 
# 
# High freq. dielectric constant tensor:
#      x y z
#    x 1.768030 0.000000 -0.016790 
#    y 0.000000 1.780770 0.000000 
#    z -0.016790 0.000000 1.734860 
# 
# From -- ./inp_files/151242.got.cif
#   From: 2010.06.25/outbox.cif.g09.slc.cpg/sg15_76_cif.got.tgz:151242.got - 2010.06.28 07:06:18.
