data_PCOD8137797
_publ_section_title
;
Structure prediction by ZEFSAII (Michael W. Deem and Ramdas Pophale) SiO2 
 PCOD8137797
Probable space group: C 2/C
;
_chemical_formula_sum "Si O2"
_cell_formula_units_Z 48
_cell_length_a 7.195471
_cell_length_b 31.654184
_cell_length_c 9.722211
_cell_angle_alpha 90.000000
_cell_angle_beta 81.859021
_cell_angle_gamma 90.000000
_cell_volume 2192.081234
_symmetry_space_group_name_H-M "C 2/C"
_symmetry_group_IT_number 15
_symmetry_cell_setting 'monoclinic'
loop_
_space_group_symop_operation_xyz
x,y,z
-x,y,1/2-z
-x,-y,-z
x,-y,1/2+z
1/2+x,1/2+y,z
1/2-x,1/2+y,1/2-z
1/2-x,1/2-y,-z
1/2+x,1/2-y,1/2+z
loop_
_atom_site_type_symbol
_atom_site_label
_atom_site_fract_x
_atom_site_fract_y
_atom_site_fract_z
Si Si1 0.022920 0.458336 0.409200
Si Si2 0.221124 0.350311 0.739627
Si Si3 0.680924 0.397108 0.027614
Si Si4 0.210641 0.259479 0.664367
Si Si5 0.734537 0.614511 0.972340
Si Si6 0.724622 0.670902 0.731844
O O1 0.227917 0.439999 0.423879
O O2 0.000000 0.468057 0.250000
O O3 0.000000 0.500000 0.500000
O O4 0.871240 0.424713 0.477664
O O5 0.288994 0.388736 0.636633
O O6 0.308401 0.304377 0.689773
O O7 0.000000 0.348190 0.750000
O O8 0.296916 0.361357 0.882010
O O9 0.458906 0.402077 0.074964
O O10 0.779818 0.357322 0.093713
O O11 0.250000 0.250000 0.500000
O O12 0.308282 0.218385 0.723614
O O13 0.000000 0.261884 0.750000
O O14 0.814682 0.648779 0.856343
O O15 0.500000 0.673823 0.750000
#
# Coordination Sequence:
#
# PCOD8137797 Si02
#       6
#     8   8   8   8   8   8
#     4  12  28  47  73 104 137 173 227 290 354 428
#     4  11  22  38  67  99 139 184 239 286 348 407
#     4  11  22  44  71  94 135 185 225 285 344 427
#     4  10  20  36  62  98 141 188 241 301 346 413
#     4  11  24  43  70  99 131 188 232 281 355 421
#     4   9  19  38  65  92 133 182 236 278 344 409
#
# _framework density 21.897000999999999
#
# number of rings (size 3 to 8) (size 9 to 14) (size 15 to 20)
#    0.000    1.333    5.000    0.500    2.333    1.333 
#    0.000    0.000    7.333    0.000    0.000    0.000 
#    0.000    0.000    0.000    0.000    0.000    0.000 
#
# Total GULP energy -297425.514236 kJ/mol
# GULP energy per Si atom -12392.729760 kJ/mol
# Density = 2.184716 g / cm^3
# Si number density = 21.897001 Si / 1000 Ang^3
#
#
#
# Elastic Constant Matrix: (Units=GPa)
#
#
# Indices 1 2 3 4 5 6 
#
# 1 58.5032 25.2488 20.0898 0.0000 14.3445 0.0000
# 2 25.2488 153.3724 64.0999 0.0000 12.7067 0.0000
# 3 20.0898 64.0999 164.6579 0.0000 5.7294 0.0000
# 4 0.0000 0.0000 0.0000 42.7934 0.0000 -0.3857
# 5 14.3445 12.7067 5.7294 0.0000 33.2253 0.0000
# 6 0.0000 0.0000 0.0000 -0.3857 0.0000 19.1028
#
#
#
# Elastic Compliance Matrix: (Units=1/GPa)
#
#
# Indices 1 2 3 4 5 6 
#
# 1 0.020391 -0.002135 -0.001387 0.000000 -0.007748 0.000000
# 2 -0.002135 0.008217 -0.002878 0.000000 -0.001724 0.000000
# 3 -0.001387 -0.002878 0.007348 0.000000 0.000433 0.000000
# 4 0.000000 0.000000 0.000000 0.023372 0.000000 0.000472
# 5 -0.007748 -0.001724 0.000433 0.000000 0.034027 0.000000
# 6 0.000000 0.000000 0.000000 0.000472 0.000000 0.052358
#
#
# Mechanical properties :
#
#
# Convention : Reuss Voigt Hill
#
# Bulk Modulus (GPa) = 43.18808 66.15671 54.67239
# Shear Modulus (GPa) = 30.07825 36.83064 33.45445
#
# Velocity S-wave (km/s) = 3.71026 4.10566 3.91296
# Velocity P-wave (km/s) = 6.17421 7.26316 6.74071
#
# Compressibility (1/GPa) = 0.02315454
#
# Stress axis : x y z
#
# Youngs Moduli (GPa) = 49.04232 121.69190 136.09252
#
# Poissons Ratio (x) = 0.25984 0.18877
# Poissons Ratio (y) = 0.10472 0.39174
# Poissons Ratio (z) = 0.06802 0.35029
#
# Static dielectric constant tensor:
#      x y z
#    x 3.811300 0.000000 -0.108400 
#    y 0.000000 4.141930 0.000000 
#    z -0.108400 0.000000 4.215930 
# 
# 
# High freq. dielectric constant tensor:
#      x y z
#    x 1.851380 0.000000 -0.004380 
#    y 0.000000 1.855790 0.000000 
#    z -0.004380 0.000000 1.872260 
# 
# From -- ./inp_files/26070.got.cif
#   From: 2010.06.25/outbox.cif.g09.slc.cpg/sg15_14_cif.got.tgz:26070.got - 2010.06.28 07:06:18.
