data_PCOD8137736
_publ_section_title
;
Structure prediction by ZEFSAII (Michael W. Deem and Ramdas Pophale) SiO2 
 PCOD8137736
Probable space group: C 2/C
;
_chemical_formula_sum "Si O2"
_cell_formula_units_Z 44
_cell_length_a 9.794134
_cell_length_b 16.140772
_cell_length_c 16.992090
_cell_angle_alpha 90.000000
_cell_angle_beta 46.284391
_cell_angle_gamma 90.000000
_cell_volume 1941.523322
_symmetry_space_group_name_H-M "C 2/C"
_symmetry_group_IT_number 15
_symmetry_cell_setting 'monoclinic'
loop_
_space_group_symop_operation_xyz
x,y,z
-x,y,1/2-z
-x,-y,-z
x,-y,1/2+z
1/2+x,1/2+y,z
1/2-x,1/2+y,1/2-z
1/2-x,1/2-y,-z
1/2+x,1/2-y,1/2+z
loop_
_atom_site_type_symbol
_atom_site_label
_atom_site_fract_x
_atom_site_fract_y
_atom_site_fract_z
Si Si1 0.123675 0.527298 0.834824
Si Si2 0.500000 0.082412 0.250000
Si Si3 0.926770 0.851557 0.956645
Si Si4 0.496930 0.804020 0.342512
Si Si5 0.703107 0.338952 0.982280
Si Si6 0.783994 0.997315 0.430090
O O1 0.138353 0.475229 0.747915
O O2 0.280513 0.496836 0.835725
O O3 0.148309 0.625089 0.805860
O O4 0.918770 0.517029 0.953583
O O5 0.624873 0.138884 0.143919
O O6 0.050797 0.783756 0.859868
O O7 0.008107 0.848333 0.012195
O O8 0.939655 0.940651 0.906531
O O9 0.708330 0.829245 0.045395
O O10 0.500000 0.789009 0.250000
O O11 0.750000 0.250000 0.000000
O O12 0.672320 0.402443 0.065964
#
# Coordination Sequence:
#
# PCOD8137736 Si02
#       6
#     8   4   8   8   8   8
#     4   9  17  36  61  88 112 156 207 241 300 370
#     4  10  22  38  66  86 116 164 206 248 306 376
#     4  10  22  37  59  90 122 157 204 251 311 362
#     4  10  20  36  62  87 118 160 200 253 301 370
#     4  11  23  40  62  88 124 167 207 260 312 370
#     4   9  19  36  59  84 121 157 197 252 305 363
#
# _framework density 22.662614999999999
#
# number of rings (size 3 to 8) (size 9 to 14) (size 15 to 20)
#    0.000    2.182    0.909    1.636    0.000    7.273 
#    0.000    0.000    2.000    0.000    0.000    0.000 
#    0.000    0.000    0.000    0.000    0.000    0.000 
#
# Total GULP energy -272693.863909 kJ/mol
# GULP energy per Si atom -12395.175632 kJ/mol
# Density = 2.261103 g / cm^3
# Si number density = 22.662615 Si / 1000 Ang^3
#
#
#
# Elastic Constant Matrix: (Units=GPa)
#
#
# Indices 1 2 3 4 5 6 
#
# 1 126.3624 63.2267 16.0993 -0.0006 42.6057 -0.0015
# 2 63.2267 192.9154 40.8633 -0.0003 31.2159 -0.0005
# 3 16.0993 40.8633 56.2886 -0.0031 35.5620 0.0017
# 4 -0.0006 -0.0003 -0.0031 12.1657 0.0021 9.1238
# 5 42.6057 31.2159 35.5620 0.0021 42.9729 0.0000
# 6 -0.0015 -0.0005 0.0017 9.1238 0.0000 30.3033
#
#
#
# Elastic Compliance Matrix: (Units=1/GPa)
#
#
# Indices 1 2 3 4 5 6 
#
# 1 0.016941 -0.004501 0.014603 0.000011 -0.025611 -0.000003
# 2 -0.004501 0.007375 -0.007338 -0.000004 0.005178 0.000001
# 3 0.014603 -0.007338 0.051754 0.000031 -0.051976 -0.000012
# 4 0.000011 -0.000004 0.000031 0.106172 -0.000039 -0.031966
# 5 -0.025611 0.005178 -0.051976 -0.000039 0.087914 0.000014
# 6 -0.000003 0.000001 -0.000012 -0.031966 0.000014 0.042624
#
#
# Mechanical properties :
#
#
# Convention : Reuss Voigt Hill
#
# Bulk Modulus (GPa) = 12.25544 68.43835 40.34689
# Shear Modulus (GPa) = 14.94987 34.11353 24.53170
#
# Velocity S-wave (km/s) = 2.57119 3.88400 3.29367
# Velocity P-wave (km/s) = 3.77283 7.09777 5.68386
#
# Compressibility (1/GPa) = 0.08159642
#
# Stress axis : x y z
#
# Youngs Moduli (GPa) = 59.02956 135.58596 19.32235
#
# Poissons Ratio (x) = 0.61031 -0.28216
# Poissons Ratio (y) = 0.26571 0.14179
# Poissons Ratio (z) = -0.86199 0.99494
#
# Static dielectric constant tensor:
#      x y z
#    x 4.161250 0.000000 0.306030 
#    y 0.000000 4.502950 0.000000 
#    z 0.306030 0.000000 3.876900 
# 
# 
# High freq. dielectric constant tensor:
#      x y z
#    x 1.886760 0.000000 0.023020 
#    y 0.000000 1.903570 0.000000 
#    z 0.023020 0.000000 1.880250 
# 
# From -- ./inp_files/134456.got.cif
#   From: 2010.06.25/outbox.cif.g09.slc.cpg/sg15_68_cif.got.tgz:134456.got - 2010.06.28 07:06:18.
