data_PCOD8137911
_publ_section_title
;
Structure prediction by ZEFSAII (Michael W. Deem and Ramdas Pophale) SiO2 
 PCOD8137911
Probable space group: C 2/C
;
_chemical_formula_sum "Si O2"
_cell_formula_units_Z 44
_cell_length_a 12.199546
_cell_length_b 27.511187
_cell_length_c 8.745991
_cell_angle_alpha 90.000000
_cell_angle_beta 130.730356
_cell_angle_gamma 90.000000
_cell_volume 2224.386096
_symmetry_space_group_name_H-M "C 2/C"
_symmetry_group_IT_number 15
_symmetry_cell_setting 'monoclinic'
loop_
_space_group_symop_operation_xyz
x,y,z
-x,y,1/2-z
-x,-y,-z
x,-y,1/2+z
1/2+x,1/2+y,z
1/2-x,1/2+y,1/2-z
1/2-x,1/2-y,-z
1/2+x,1/2-y,1/2+z
loop_
_atom_site_type_symbol
_atom_site_label
_atom_site_fract_x
_atom_site_fract_y
_atom_site_fract_z
Si Si1 0.225619 0.648631 0.120053
Si Si2 0.546637 0.726565 0.127216
Si Si3 0.081359 0.068405 0.078172
Si Si4 0.500000 0.496485 0.250000
Si Si5 0.326831 0.359367 0.374106
Si Si6 0.447602 0.825526 0.529826
O O1 0.296997 0.701140 0.216614
O O2 0.297339 0.608960 0.296300
O O3 0.058240 0.650478 0.010755
O O4 0.247907 0.634261 0.964682
O O5 0.500000 0.748433 0.250000
O O6 0.429182 0.687565 0.966368
O O7 0.565215 0.768472 0.019556
O O8 0.105245 0.038326 0.944592
O O9 0.920980 0.092570 0.929725
O O10 0.097515 0.030476 0.231610
O O11 0.206649 0.352093 0.133129
O O12 0.500000 0.832682 0.750000
#
# Coordination Sequence:
#
# PCOD8137911 Si02
#       6
#     8   8   8   4   8   8
#     4  10  20  38  59  82 114 150 192 226 273 335
#     4   9  19  37  59  80 106 153 202 230 260 325
#     4  10  20  38  64  93 108 140 179 237 279 338
#     4  10  20  36  66  92 112 130 184 232 288 338
#     4  10  20  38  59  82 114 150 192 226 273 335
#     4  12  25  34  50  83 121 156 186 229 280 323
#
# _framework density 19.780739000000001
#
# number of rings (size 3 to 8) (size 9 to 14) (size 15 to 20)
#    0.000    1.818    1.818    3.818    2.545    5.818 
#    3.273    0.000    0.000    6.545    0.000    0.000 
#    0.000    0.000    0.000    0.000    0.000    0.000 
#
# Total GULP energy -272810.190719 kJ/mol
# GULP energy per Si atom -12400.463214 kJ/mol
# Density = 1.973572 g / cm^3
# Si number density = 19.780739 Si / 1000 Ang^3
#
#
#
# Elastic Constant Matrix: (Units=GPa)
#
#
# Indices 1 2 3 4 5 6 
#
# 1 53.0625 23.2153 26.9921 0.0000 5.1714 0.0000
# 2 23.2153 88.9082 32.6984 0.0000 -7.1253 0.0000
# 3 26.9921 32.6984 112.2147 0.0000 -3.7132 0.0000
# 4 0.0000 0.0000 0.0000 20.4717 0.0000 -7.7711
# 5 5.1714 -7.1253 -3.7132 0.0000 29.3999 0.0000
# 6 0.0000 0.0000 0.0000 -7.7711 0.0000 7.4676
#
#
#
# Elastic Compliance Matrix: (Units=1/GPa)
#
#
# Indices 1 2 3 4 5 6 
#
# 1 0.023931 -0.005085 -0.004474 0.000000 -0.006007 0.000000
# 2 -0.005085 0.013879 -0.002691 0.000000 0.003918 0.000000
# 3 -0.004474 -0.002691 0.010821 0.000000 0.001501 0.000000
# 4 0.000000 0.000000 0.000000 0.080744 0.000000 0.084026
# 5 -0.006007 0.003918 0.001501 0.000000 0.036210 0.000000
# 6 0.000000 0.000000 0.000000 0.084026 0.000000 0.221353
#
#
# Mechanical properties :
#
#
# Convention : Reuss Voigt Hill
#
# Bulk Modulus (GPa) = 41.43848 46.66633 44.05240
# Shear Modulus (GPa) = 11.91942 22.88647 17.40294
#
# Velocity S-wave (km/s) = 2.45741 3.40517 2.96935
# Velocity P-wave (km/s) = 5.38945 6.25326 5.83736
#
# Compressibility (1/GPa) = 0.02413216
#
# Stress axis : x y z
#
# Youngs Moduli (GPa) = 41.78599 72.05015 92.40867
#
# Poissons Ratio (x) = 0.36638 0.41339
# Poissons Ratio (y) = 0.21248 0.24872
# Poissons Ratio (z) = 0.18693 0.19392
#
# Static dielectric constant tensor:
#      x y z
#    x 3.422080 0.000000 -0.044700 
#    y 0.000000 3.608530 0.000000 
#    z -0.044700 0.000000 3.661360 
# 
# 
# High freq. dielectric constant tensor:
#      x y z
#    x 1.751260 0.000000 -0.009090 
#    y 0.000000 1.767470 0.000000 
#    z -0.009090 0.000000 1.772670 
# 
# From -- ./inp_files/33992.got.cif
#   From: 2010.06.25/outbox.cif.g09.slc.cpg/sg15_17_cif.got.tgz:33992.got - 2010.06.28 07:06:18.
