data_PCOD8137194
_publ_section_title
;
Structure prediction by ZEFSAII (Michael W. Deem and Ramdas Pophale) SiO2 
 PCOD8137194
Probable space group: C 2/C
;
_chemical_formula_sum "Si O2"
_cell_formula_units_Z 56
_cell_length_a 13.763942
_cell_length_b 12.647939
_cell_length_c 17.619196
_cell_angle_alpha 90.000000
_cell_angle_beta 58.694824
_cell_angle_gamma 90.000000
_cell_volume 2620.691913
_symmetry_space_group_name_H-M "C 2/C"
_symmetry_group_IT_number 15
_symmetry_cell_setting 'monoclinic'
loop_
_space_group_symop_operation_xyz
x,y,z
-x,y,1/2-z
-x,-y,-z
x,-y,1/2+z
1/2+x,1/2+y,z
1/2-x,1/2+y,1/2-z
1/2-x,1/2-y,-z
1/2+x,1/2-y,1/2+z
loop_
_atom_site_type_symbol
_atom_site_label
_atom_site_fract_x
_atom_site_fract_y
_atom_site_fract_z
Si Si1 0.107059 0.685606 0.488108
Si Si2 0.263080 0.719622 0.879042
Si Si3 0.500000 0.241044 0.250000
Si Si4 0.500000 0.703667 0.250000
Si Si5 0.722851 0.081866 0.034217
Si Si6 0.399826 0.146180 0.678402
Si Si7 0.034531 0.579050 0.360204
Si Si8 0.649611 0.616262 0.056516
O O1 0.062860 0.637736 0.427527
O O2 0.230527 0.641436 0.454121
O O3 0.117392 0.813431 0.495224
O O4 0.018831 0.651246 0.587252
O O5 0.397049 0.687954 0.823253
O O6 0.247737 0.843156 0.906461
O O7 0.205641 0.696919 0.822422
O O8 0.204316 0.649332 0.965941
O O9 0.558811 0.169013 0.289584
O O10 0.593806 0.784545 0.247192
O O11 0.555516 0.629325 0.161913
O O12 0.595500 0.034569 0.094188
O O13 0.829611 0.001903 0.983573
O O14 0.381784 0.019285 0.694860
#
# Coordination Sequence:
#
# PCOD8137194 Si02
#       8
#     8   8   4   4   8   8   8   8
#     4  10  20  35  64  91 116 152 210 254 295 363
#     4  10  22  39  62  90 125 160 209 255 312 366
#     4  10  25  39  56  90 134 160 197 261 314 366
#     4  10  25  37  56  94 144 152 197 257 326 368
#     4  10  20  40  67  86 117 162 211 256 295 374
#     4  11  20  39  64  94 118 162 205 267 297 363
#     4  11  20  39  66  92 115 160 219 254 298 359
#     4  10  21  39  60  92 125 161 198 256 310 364
#
# _framework density 21.368403000000001
#
# number of rings (size 3 to 8) (size 9 to 14) (size 15 to 20)
#    0.000    1.714    2.857    1.714    2.000    0.571 
#    0.000    2.857    0.000    0.000    0.000    0.000 
#    0.000    0.000    0.000    0.000    0.000    0.000 
#
# Total GULP energy -346870.163122 kJ/mol
# GULP energy per Si atom -12388.220112 kJ/mol
# Density = 2.131977 g / cm^3
# Si number density = 21.368403 Si / 1000 Ang^3
#
#
#
# Elastic Constant Matrix: (Units=GPa)
#
#
# Indices 1 2 3 4 5 6 
#
# 1 76.6426 38.5985 2.1438 0.0000 8.1949 0.0000
# 2 38.5985 84.8662 5.2628 0.0000 -0.5479 0.0000
# 3 2.1438 5.2628 35.2272 0.0000 -7.8008 0.0000
# 4 0.0000 0.0000 0.0000 6.0699 0.0000 -2.4800
# 5 8.1949 -0.5479 -7.8008 0.0000 32.6638 0.0000
# 6 0.0000 0.0000 0.0000 -2.4800 0.0000 30.7627
#
#
#
# Elastic Compliance Matrix: (Units=1/GPa)
#
#
# Indices 1 2 3 4 5 6 
#
# 1 0.017602 -0.007979 -0.000936 0.000000 -0.004774 0.000000
# 2 -0.007979 0.015512 -0.001405 0.000000 0.001926 0.000000
# 3 -0.000936 -0.001405 0.030303 0.000000 0.007448 0.000000
# 4 0.000000 0.000000 0.000000 0.170359 0.000000 0.013734
# 5 -0.004774 0.001926 0.007448 0.000000 0.033624 0.000000
# 6 0.000000 0.000000 0.000000 0.013734 0.000000 0.033614
#
#
# Mechanical properties :
#
#
# Convention : Reuss Voigt Hill
#
# Bulk Modulus (GPa) = 23.37700 32.08289 27.72994
# Shear Modulus (GPa) = 14.88478 23.94802 19.41640
#
# Velocity S-wave (km/s) = 2.64214 3.35135 3.01765
# Velocity P-wave (km/s) = 4.50240 5.47925 5.01467
#
# Compressibility (1/GPa) = 0.04277710
#
# Stress axis : x y z
#
# Youngs Moduli (GPa) = 56.81076 64.46786 32.99953
#
# Poissons Ratio (x) = 0.51436 0.03090
# Poissons Ratio (y) = 0.45327 0.04637
# Poissons Ratio (z) = 0.05319 0.09059
#
# Static dielectric constant tensor:
#      x y z
#    x 3.748800 0.000000 0.052900 
#    y 0.000000 4.237270 0.000000 
#    z 0.052900 0.000000 4.125070 
# 
# 
# High freq. dielectric constant tensor:
#      x y z
#    x 1.827900 0.000000 -0.000190 
#    y 0.000000 1.833130 0.000000 
#    z -0.000190 0.000000 1.834260 
# 
# From -- ./inp_files/197811.got.cif
#   From: 2010.06.25/outbox.cif.g09.slc.cpg/sg15_99_cif.got.tgz:197811.got - 2010.06.28 07:06:18.
