data_PCOD8137693
_publ_section_title
;
Structure prediction by ZEFSAII (Michael W. Deem and Ramdas Pophale) SiO2 
 PCOD8137693
Probable space group: C 2/C
;
_chemical_formula_sum "Si O2"
_cell_formula_units_Z 52
_cell_length_a 8.869310
_cell_length_b 20.626488
_cell_length_c 17.197965
_cell_angle_alpha 90.000000
_cell_angle_beta 124.219876
_cell_angle_gamma 90.000000
_cell_volume 2601.582362
_symmetry_space_group_name_H-M "C 2/C"
_symmetry_group_IT_number 15
_symmetry_cell_setting 'monoclinic'
loop_
_space_group_symop_operation_xyz
x,y,z
-x,y,1/2-z
-x,-y,-z
x,-y,1/2+z
1/2+x,1/2+y,z
1/2-x,1/2+y,1/2-z
1/2-x,1/2-y,-z
1/2+x,1/2-y,1/2+z
loop_
_atom_site_type_symbol
_atom_site_label
_atom_site_fract_x
_atom_site_fract_y
_atom_site_fract_z
Si Si1 0.137986 0.315690 0.451888
Si Si2 0.774812 0.684020 0.290306
Si Si3 0.000000 0.607841 0.250000
Si Si4 0.738833 0.566732 0.050096
Si Si5 0.500000 0.417779 0.750000
Si Si6 0.626347 0.809014 0.990401
Si Si7 0.500000 0.211808 0.750000
Si Si8 0.388636 0.437359 0.553564
O O1 0.250000 0.250000 0.500000
O O2 0.099471 0.328068 0.347997
O O3 0.258078 0.374924 0.518965
O O4 0.943058 0.310998 0.440304
O O5 0.678602 0.626069 0.307790
O O6 0.642773 0.744998 0.242522
O O7 0.832699 0.655568 0.223628
O O8 0.950064 0.703777 0.388175
O O9 0.081924 0.563658 0.342344
O O10 0.549064 0.577547 0.039453
O O11 0.767015 0.624372 0.996553
O O12 0.734984 0.498322 0.005348
O O13 0.484442 0.456800 0.664290
O O14 0.750000 0.750000 0.000000
#
# Coordination Sequence:
#
# PCOD8137693 Si02
#       8
#     8   8   4   8   4   8   4   8
#     4  12  23  41  63  94 129 167 210 262 313 381
#     4  10  20  36  61  91 123 165 210 252 305 376
#     4  10  20  37  62  94 124 161 214 256 308 385
#     4  10  24  41  65  94 123 172 205 267 318 374
#     4  11  18  40  64  92 114 171 220 252 294 393
#     4  11  23  39  65  94 128 163 210 267 316 370
#     4  11  24  37  60  98 124 170 208 256 324 366
#     4  11  23  43  66  88 131 167 216 258 319 377
#
# _framework density 19.987836999999999
#
# number of rings (size 3 to 8) (size 9 to 14) (size 15 to 20)
#    0.000    1.231    4.615    1.846    4.308    1.231 
#    0.000    3.077    0.000    0.000    0.000    0.000 
#    0.000    0.000    0.000    0.000    0.000    0.000 
#
# Total GULP energy -322200.592402 kJ/mol
# GULP energy per Si atom -12392.330477 kJ/mol
# Density = 1.994234 g / cm^3
# Si number density = 19.987837 Si / 1000 Ang^3
#
#
#
# Elastic Constant Matrix: (Units=GPa)
#
#
# Indices 1 2 3 4 5 6 
#
# 1 116.6509 54.5972 30.2691 0.0000 -2.2364 0.0000
# 2 54.5972 119.6218 48.7003 0.0000 -0.2447 0.0000
# 3 30.2691 48.7003 126.5107 0.0000 -13.2443 0.0000
# 4 0.0000 0.0000 0.0000 34.0515 0.0000 -1.0548
# 5 -2.2364 -0.2447 -13.2443 0.0000 35.6442 0.0000
# 6 0.0000 0.0000 0.0000 -1.0548 0.0000 19.6116
#
#
#
# Elastic Compliance Matrix: (Units=1/GPa)
#
#
# Indices 1 2 3 4 5 6 
#
# 1 0.010978 -0.004691 -0.000782 0.000000 0.000366 0.000000
# 2 -0.004691 0.011986 -0.003656 0.000000 -0.001571 0.000000
# 3 -0.000782 -0.003656 0.009875 0.000000 0.003595 0.000000
# 4 0.000000 0.000000 0.000000 0.029416 0.000000 0.001582
# 5 0.000366 -0.001571 0.003595 0.000000 0.029403 0.000000
# 6 0.000000 0.000000 0.000000 0.001582 0.000000 0.051075
#
#
# Mechanical properties :
#
#
# Convention : Reuss Voigt Hill
#
# Bulk Modulus (GPa) = 68.58592 69.99070 69.28831
# Shear Modulus (GPa) = 30.14692 33.14258 31.64475
#
# Velocity S-wave (km/s) = 3.88785 4.07644 3.98326
# Velocity P-wave (km/s) = 7.38527 7.56632 7.47634
#
# Compressibility (1/GPa) = 0.01458025
#
# Stress axis : x y z
#
# Youngs Moduli (GPa) = 91.08795 83.42978 101.26132
#
# Poissons Ratio (x) = 0.39140 0.07923
# Poissons Ratio (y) = 0.42733 0.37021
# Poissons Ratio (z) = 0.07127 0.30502
#
# Static dielectric constant tensor:
#      x y z
#    x 4.277160 0.000000 -0.152700 
#    y 0.000000 3.460780 0.000000 
#    z -0.152700 0.000000 3.627860 
# 
# 
# High freq. dielectric constant tensor:
#      x y z
#    x 1.799260 0.000000 -0.000170 
#    y 0.000000 1.752090 0.000000 
#    z -0.000170 0.000000 1.781770 
# 
# From -- ./inp_files/136085.got.cif
#   From: 2010.06.25/outbox.cif.g09.slc.cpg/sg15_69_cif.got.tgz:136085.got - 2010.06.28 07:06:18.
