data_PCOD8137358
_publ_section_title
;
Structure prediction by ZEFSAII (Michael W. Deem and Ramdas Pophale) SiO2 
 PCOD8137358
Probable space group: C 2/C
;
_chemical_formula_sum "Si O2"
_cell_formula_units_Z 56
_cell_length_a 20.802175
_cell_length_b 12.347064
_cell_length_c 9.832289
_cell_angle_alpha 90.000000
_cell_angle_beta 105.463171
_cell_angle_gamma 90.000000
_cell_volume 2433.968299
_symmetry_space_group_name_H-M "C 2/C"
_symmetry_group_IT_number 15
_symmetry_cell_setting 'monoclinic'
loop_
_space_group_symop_operation_xyz
x,y,z
-x,y,1/2-z
-x,-y,-z
x,-y,1/2+z
1/2+x,1/2+y,z
1/2-x,1/2+y,1/2-z
1/2-x,1/2-y,-z
1/2+x,1/2-y,1/2+z
loop_
_atom_site_type_symbol
_atom_site_label
_atom_site_fract_x
_atom_site_fract_y
_atom_site_fract_z
Si Si1 0.000000 0.243159 0.250000
Si Si2 0.721770 0.368518 0.464985
Si Si3 0.781011 0.090494 0.941567
Si Si4 0.112902 0.111853 0.708181
Si Si5 0.000000 0.744074 0.250000
Si Si6 0.464891 0.886059 0.472657
Si Si7 0.867233 0.127401 0.244146
Si Si8 0.676663 0.846248 0.195393
O O1 0.005449 0.312555 0.390341
O O2 0.932052 0.174584 0.205193
O O3 0.750000 0.250000 0.500000
O O4 0.726858 0.458750 0.587750
O O5 0.645291 0.366604 0.374103
O O6 0.769021 0.406786 0.366621
O O7 0.837022 0.150964 0.881685
O O8 0.707876 0.142088 0.866578
O O9 0.804538 0.105084 0.109667
O O10 0.044850 0.179267 0.677369
O O11 0.104522 0.983131 0.674146
O O12 0.039859 0.668544 0.379644
O O13 0.392025 0.908771 0.367688
O O14 0.500000 0.000000 0.500000
O O15 0.839205 0.216221 0.339056
#
# Coordination Sequence:
#
# PCOD8137358 Si02
#       8
#     4   8   8   8   4   8   8   8
#     4  10  22  40  64  92 124 166 210 262 320 378
#     4  10  20  36  57  85 120 158 203 255 309 375
#     4  10  21  38  61  89 123 165 209 260 321 382
#     4  10  22  37  59  91 122 159 206 256 312 378
#     4  12  24  42  66  94 126 170 210 260 324 382
#     4  11  25  43  63  92 128 168 216 266 315 380
#     4  10  20  38  60  89 124 160 205 262 319 384
#     4  10  22  38  60  88 119 163 211 262 319 377
#
# _framework density 23.007694000000001
#
# number of rings (size 3 to 8) (size 9 to 14) (size 15 to 20)
#    0.000    1.714    0.000    3.857    0.000    8.000 
#    0.000   11.429    0.000    0.000    0.000    0.000 
#    0.000    0.000    0.000    0.000    0.000    0.000 
#
# Total GULP energy -346876.318269 kJ/mol
# GULP energy per Si atom -12388.439938 kJ/mol
# Density = 2.295533 g / cm^3
# Si number density = 23.007694 Si / 1000 Ang^3
#
#
#
# Elastic Constant Matrix: (Units=GPa)
#
#
# Indices 1 2 3 4 5 6 
#
# 1 96.3053 27.8857 21.0248 0.0000 19.3455 0.0000
# 2 27.8857 111.9394 18.3015 0.0000 13.4978 0.0000
# 3 21.0248 18.3015 72.9854 0.0000 11.9445 0.0000
# 4 0.0000 0.0000 0.0000 33.0091 0.0000 0.6701
# 5 19.3455 13.4978 11.9445 0.0000 37.4782 0.0000
# 6 0.0000 0.0000 0.0000 0.6701 0.0000 35.0311
#
#
#
# Elastic Compliance Matrix: (Units=1/GPa)
#
#
# Indices 1 2 3 4 5 6 
#
# 1 0.012492 -0.002146 -0.002249 0.000000 -0.004958 0.000000
# 2 -0.002146 0.009962 -0.001555 0.000000 -0.001984 0.000000
# 3 -0.002249 -0.001555 0.015253 0.000000 -0.003140 0.000000
# 4 0.000000 0.000000 0.000000 0.030306 0.000000 -0.000580
# 5 -0.004958 -0.001984 -0.003140 0.000000 0.030957 0.000000
# 6 0.000000 0.000000 0.000000 -0.000580 0.000000 0.028557
#
#
# Mechanical properties :
#
#
# Convention : Reuss Voigt Hill
#
# Bulk Modulus (GPa) = 38.75006 46.18379 42.46693
# Shear Modulus (GPa) = 33.77694 35.37154 34.57424
#
# Velocity S-wave (km/s) = 3.83570 3.92520 3.88071
# Velocity P-wave (km/s) = 6.04116 6.37649 6.21109
#
# Compressibility (1/GPa) = 0.02580641
#
# Stress axis : x y z
#
# Youngs Moduli (GPa) = 80.05033 100.38573 65.56063
#
# Poissons Ratio (x) = 0.21547 0.14744
# Poissons Ratio (y) = 0.17182 0.10194
# Poissons Ratio (z) = 0.18002 0.15609
#
# Static dielectric constant tensor:
#      x y z
#    x 4.801340 0.000000 -0.669330 
#    y 0.000000 4.215130 0.000000 
#    z -0.669330 0.000000 4.788410 
# 
# 
# High freq. dielectric constant tensor:
#      x y z
#    x 1.905990 0.000000 0.002510 
#    y 0.000000 1.910940 0.000000 
#    z 0.002510 0.000000 1.902880 
# 
# From -- ./inp_files/111702.got.cif
#   From: 2010.06.25/outbox.cif.g09.slc.cpg/sg15_56_cif.got.tgz:111702.got - 2010.06.28 07:06:18.
