data_PCOD8137842
_publ_section_title
;
Structure prediction by ZEFSAII (Michael W. Deem and Ramdas Pophale) SiO2 
 PCOD8137842
Probable space group: C 2/C
;
_chemical_formula_sum "Si O2"
_cell_formula_units_Z 48
_cell_length_a 11.038390
_cell_length_b 14.548916
_cell_length_c 19.432584
_cell_angle_alpha 90.000000
_cell_angle_beta 132.450116
_cell_angle_gamma 90.000000
_cell_volume 2302.735115
_symmetry_space_group_name_H-M "C 2/C"
_symmetry_group_IT_number 15
_symmetry_cell_setting 'monoclinic'
loop_
_space_group_symop_operation_xyz
x,y,z
-x,y,1/2-z
-x,-y,-z
x,-y,1/2+z
1/2+x,1/2+y,z
1/2-x,1/2+y,1/2-z
1/2-x,1/2-y,-z
1/2+x,1/2-y,1/2+z
loop_
_atom_site_type_symbol
_atom_site_label
_atom_site_fract_x
_atom_site_fract_y
_atom_site_fract_z
Si Si1 0.638716 0.798227 0.361570
Si Si2 0.405164 0.684922 0.859519
Si Si3 0.680187 0.554575 0.794817
Si Si4 0.224005 0.617938 0.028832
Si Si5 0.774915 0.080824 0.539990
Si Si6 0.583026 0.893083 0.618019
O O1 0.500000 0.804758 0.250000
O O2 0.809005 0.833384 0.393483
O O3 0.649214 0.696099 0.397702
O O4 0.614121 0.862375 0.418687
O O5 0.324891 0.631026 0.765814
O O6 0.592826 0.650897 0.942337
O O7 0.381956 0.793432 0.835389
O O8 0.500000 0.519411 0.750000
O O9 0.756388 0.604248 0.891348
O O10 0.786718 0.469063 0.805548
O O11 0.332842 0.526005 0.058395
O O12 0.091594 0.604598 0.038342
O O13 0.604411 0.085786 0.432917
#
# Coordination Sequence:
#
# PCOD8137842 Si02
#       6
#     8   8   8   8   8   8
#     4  10  22  36  60  85 125 152 200 251 301 348
#     4  10  22  36  57  91 120 148 197 249 302 344
#     4   9  19  36  62  90 116 155 204 248 287 356
#     4   9  20  38  58  90 112 160 202 242 294 351
#     4  10  20  36  64  80 120 153 201 235 298 364
#     4  10  20  36  64  87 113 158 197 242 295 357
#
# _framework density 20.844776
#
# number of rings (size 3 to 8) (size 9 to 14) (size 15 to 20)
#    0.000    2.333    0.000    2.500    4.667   10.667 
#    0.000    0.000   14.667    0.000    0.000    0.000 
#    0.000    0.000    0.000    0.000    0.000    0.000 
#
# Total GULP energy -297319.089393 kJ/mol
# GULP energy per Si atom -12388.295391 kJ/mol
# Density = 2.079733 g / cm^3
# Si number density = 20.844776 Si / 1000 Ang^3
#
#
#
# Elastic Constant Matrix: (Units=GPa)
#
#
# Indices 1 2 3 4 5 6 
#
# 1 69.2976 59.8773 24.6065 0.0000 10.0984 0.0000
# 2 59.8773 130.4379 44.4692 0.0000 -0.4261 0.0000
# 3 24.6065 44.4692 102.3409 0.0000 -2.1542 0.0000
# 4 0.0000 0.0000 0.0000 30.1570 0.0000 -0.1231
# 5 10.0984 -0.4261 -2.1542 0.0000 33.9219 0.0000
# 6 0.0000 0.0000 0.0000 -0.1231 0.0000 33.8454
#
#
#
# Elastic Compliance Matrix: (Units=1/GPa)
#
#
# Indices 1 2 3 4 5 6 
#
# 1 0.026027 -0.011484 -0.001436 0.000000 -0.007983 0.000000
# 2 -0.011484 0.014068 -0.003280 0.000000 0.003387 0.000000
# 3 -0.001436 -0.003280 0.011565 0.000000 0.001121 0.000000
# 4 0.000000 0.000000 0.000000 0.033160 0.000000 0.000121
# 5 -0.007983 0.003387 0.001121 0.000000 0.031970 0.000000
# 6 0.000000 0.000000 0.000000 0.000121 0.000000 0.029547
#
#
# Mechanical properties :
#
#
# Convention : Reuss Voigt Hill
#
# Bulk Modulus (GPa) = 51.92212 62.22026 57.07119
# Shear Modulus (GPa) = 27.00424 31.12641 29.06532
#
# Velocity S-wave (km/s) = 3.60320 3.86845 3.73818
# Velocity P-wave (km/s) = 6.50183 7.06168 6.78753
#
# Compressibility (1/GPa) = 0.01925962
#
# Stress axis : x y z
#
# Youngs Moduli (GPa) = 38.42220 71.08537 86.46514
#
# Poissons Ratio (x) = 0.81635 0.12414
# Poissons Ratio (y) = 0.44124 0.28362
# Poissons Ratio (z) = 0.05516 0.23317
#
# Static dielectric constant tensor:
#      x y z
#    x 3.723750 0.000000 0.001180 
#    y 0.000000 3.876380 0.000000 
#    z 0.001180 0.000000 3.691880 
# 
# 
# High freq. dielectric constant tensor:
#      x y z
#    x 1.799630 0.000000 0.009700 
#    y 0.000000 1.819960 0.000000 
#    z 0.009700 0.000000 1.804250 
# 
# From -- ./inp_files/238486.got.cif
#   From: 2010.06.25/outbox.cif.g09.slc.cpg/sg15_120_cif.got.tgz:238486.got - 2010.06.28 07:06:18.
