data_PCOD8137593
_publ_section_title
;
Structure prediction by ZEFSAII (Michael W. Deem and Ramdas Pophale) SiO2 
 PCOD8137593
Probable space group: C 2/C
;
_chemical_formula_sum "Si O2"
_cell_formula_units_Z 48
_cell_length_a 9.419784
_cell_length_b 29.722607
_cell_length_c 16.558945
_cell_angle_alpha 90.000000
_cell_angle_beta 31.739977
_cell_angle_gamma 90.000000
_cell_volume 2438.933997
_symmetry_space_group_name_H-M "C 2/C"
_symmetry_group_IT_number 15
_symmetry_cell_setting 'monoclinic'
loop_
_space_group_symop_operation_xyz
x,y,z
-x,y,1/2-z
-x,-y,-z
x,-y,1/2+z
1/2+x,1/2+y,z
1/2-x,1/2+y,1/2-z
1/2-x,1/2-y,-z
1/2+x,1/2-y,1/2+z
loop_
_atom_site_type_symbol
_atom_site_label
_atom_site_fract_x
_atom_site_fract_y
_atom_site_fract_z
Si Si1 0.719949 0.617134 0.711795
Si Si2 0.700841 0.221432 0.370625
Si Si3 0.053788 0.543464 0.316532
Si Si4 0.295500 0.882975 0.634632
Si Si5 0.491590 0.525955 0.657582
Si Si6 0.713145 0.283932 0.218525
O O1 0.500000 0.623729 0.750000
O O2 0.625400 0.575222 0.812966
O O3 0.736339 0.665847 0.747575
O O4 0.008085 0.604502 0.534078
O O5 0.690127 0.169420 0.350140
O O6 0.613002 0.250242 0.335733
O O7 0.502518 0.230675 0.541759
O O8 0.000000 0.236628 0.250000
O O9 0.794023 0.519256 0.480242
O O10 0.000000 0.554210 0.250000
O O11 0.113848 0.590870 0.329577
O O12 0.309085 0.511234 0.203825
O O13 0.000000 0.898335 0.750000
O O14 0.500000 0.520833 0.750000
O O15 0.500000 0.282704 0.250000
#
# Coordination Sequence:
#
# PCOD8137593 Si02
#       6
#     8   8   8   8   8   8
#     4   9  18  37  61  83 113 153 202 233 273 345
#     4  10  21  38  59  86 120 153 194 241 287 342
#     4  12  25  40  59  91 123 146 186 253 298 332
#     4  10  21  38  61  86 114 158 201 232 279 353
#     4  11  22  41  65  85 113 160 199 228 282 359
#     4  10  20  36  60  87 117 153 194 239 288 340
#
# _framework density 19.680731000000002
#
# number of rings (size 3 to 8) (size 9 to 14) (size 15 to 20)
#    0.000    1.667    3.333    2.500    2.333    0.667 
#    3.000    0.833    0.000    0.000    0.000    0.000 
#    0.000    0.000    0.000    0.000    0.000    0.000 
#
# Total GULP energy -297591.457955 kJ/mol
# GULP energy per Si atom -12399.644081 kJ/mol
# Density = 1.963594 g / cm^3
# Si number density = 19.680731 Si / 1000 Ang^3
#
#
#
# Elastic Constant Matrix: (Units=GPa)
#
#
# Indices 1 2 3 4 5 6 
#
# 1 67.6870 28.9403 9.0644 0.0000 -0.9889 0.0000
# 2 28.9403 83.0504 0.8497 0.0000 1.4486 0.0000
# 3 9.0644 0.8497 89.0304 0.0000 -19.1629 0.0000
# 4 0.0000 0.0000 0.0000 20.9530 0.0000 -14.4898
# 5 -0.9889 1.4486 -19.1629 0.0000 26.0865 0.0000
# 6 0.0000 0.0000 0.0000 -14.4898 0.0000 -22.6369
#
#
#
# Elastic Compliance Matrix: (Units=1/GPa)
#
#
# Indices 1 2 3 4 5 6 
#
# 1 0.017627 -0.006118 -0.001805 0.000000 -0.000318 0.000000
# 2 -0.006118 0.014183 0.000318 0.000000 -0.000786 0.000000
# 3 -0.001805 0.000318 0.013534 0.000000 0.009856 0.000000
# 4 0.000000 0.000000 0.000000 0.033082 0.000000 -0.021176
# 5 -0.000318 -0.000786 0.009856 0.000000 0.045606 0.000000
# 6 0.000000 0.000000 0.000000 -0.021176 0.000000 -0.030621
#
#
# Mechanical properties :
#
#
# Convention : Reuss Voigt Hill
#
# Bulk Modulus (GPa) = 33.18355 35.27518 34.22936
# Shear Modulus (GPa) = 42.13527 18.27474 30.20501
#
# Velocity S-wave (km/s) = 4.63205 3.05053 3.92184
# Velocity P-wave (km/s) = 6.74577 5.51093 6.15937
#
# Compressibility (1/GPa) = 0.03013542
#
# Stress axis : x y z
#
# Youngs Moduli (GPa) = 56.73148 70.50501 73.88678
#
# Poissons Ratio (x) = 0.43138 0.13334
# Poissons Ratio (y) = 0.34711 -0.02353
# Poissons Ratio (z) = 0.10238 -0.02245
#
# Static dielectric constant tensor:
#      x y z
#    x 3.221800 0.000000 -0.193180 
#    y 0.000000 3.922380 0.000000 
#    z -0.193180 0.000000 3.881810 
# 
# 
# High freq. dielectric constant tensor:
#      x y z
#    x 1.732590 0.000000 -0.021470 
#    y 0.000000 1.777800 0.000000 
#    z -0.021470 0.000000 1.784200 
# 
# From -- ./inp_files/52736.got.cif
#   From: 2010.06.25/outbox.cif.g09.slc.cpg/sg15_27_cif.got.tgz:52736.got - 2010.06.28 07:06:18.
