data_PCOD8137772
_publ_section_title
;
Structure prediction by ZEFSAII (Michael W. Deem and Ramdas Pophale) SiO2 
 PCOD8137772
Probable space group: C 2/C
;
_chemical_formula_sum "Si O2"
_cell_formula_units_Z 64
_cell_length_a 12.423578
_cell_length_b 15.267128
_cell_length_c 29.523838
_cell_angle_alpha 90.000000
_cell_angle_beta 37.245877
_cell_angle_gamma 90.000000
_cell_volume 3389.238339
_symmetry_space_group_name_H-M "C 2/C"
_symmetry_group_IT_number 15
_symmetry_cell_setting 'monoclinic'
loop_
_space_group_symop_operation_xyz
x,y,z
-x,y,1/2-z
-x,-y,-z
x,-y,1/2+z
1/2+x,1/2+y,z
1/2-x,1/2+y,1/2-z
1/2-x,1/2-y,-z
1/2+x,1/2-y,1/2+z
loop_
_atom_site_type_symbol
_atom_site_label
_atom_site_fract_x
_atom_site_fract_y
_atom_site_fract_z
Si Si1 0.735740 0.513797 0.072616
Si Si2 0.952291 0.577495 0.081125
Si Si3 0.454840 0.272368 0.440051
Si Si4 0.227536 0.649921 0.513629
Si Si5 0.467950 0.600848 0.021197
Si Si6 0.546665 0.053683 0.840863
Si Si7 0.165796 0.524069 0.167460
Si Si8 0.620141 0.579821 0.829041
O O1 0.797252 0.532578 0.103260
O O2 0.535655 0.479255 0.139749
O O3 0.750440 0.605948 0.042381
O O4 0.857489 0.442838 0.005710
O O5 0.935814 0.537260 0.137041
O O6 0.934286 0.682670 0.090245
O O7 0.250000 0.250000 0.500000
O O8 0.470602 0.333927 0.478445
O O9 0.543441 0.324896 0.368493
O O10 0.250000 0.750000 0.500000
O O11 0.381811 0.621156 0.494264
O O12 0.033971 0.627384 0.599020
O O13 0.273438 0.605628 0.110008
O O14 0.500000 0.500000 0.000000
O O15 0.734066 0.089123 0.759467
O O16 0.408709 0.040459 0.846121
O O17 0.294809 0.466726 0.155842
O O18 0.000000 0.565371 0.250000
#
# Coordination Sequence:
#
# PCOD8137772 Si02
#       8
#     8   8   8   8   8   8   8   8
#     4  10  20  39  62  85 119 169 205 243 308 377
#     4  10  22  39  61  88 123 163 208 252 303 372
#     4  12  22  36  63  98 122 156 216 265 296 369
#     4  11  21  37  60  91 119 155 209 256 298 362
#     4  12  20  37  65  88 119 164 205 247 309 365
#     4  10  22  40  61  85 127 166 200 253 322 369
#     4  10  20  36  62  92 118 156 204 252 302 365
#     4  11  21  39  63  90 122 162 204 255 318 364
#
# _framework density 18.883299000000001
#
# number of rings (size 3 to 8) (size 9 to 14) (size 15 to 20)
#    0.000    1.250    5.000    1.500    0.000    0.500 
#    2.250    1.250    2.750    0.000    0.000    0.000 
#    0.000    0.000    0.000    0.000    0.000    0.000 
#
# Total GULP energy -396759.511282 kJ/mol
# GULP energy per Si atom -12398.734728 kJ/mol
# Density = 1.884032 g / cm^3
# Si number density = 18.883299 Si / 1000 Ang^3
#
#
#
# Elastic Constant Matrix: (Units=GPa)
#
#
# Indices 1 2 3 4 5 6 
#
# 1 91.7302 19.5632 28.0352 0.0000 -11.5644 -0.0001
# 2 19.5632 119.9615 51.4488 0.0001 0.1265 -0.0001
# 3 28.0352 51.4488 129.6223 -0.0016 -11.4235 0.0000
# 4 0.0000 0.0001 -0.0016 23.3846 0.0000 -0.0361
# 5 -11.5644 0.1265 -11.4235 0.0000 26.7010 0.0002
# 6 -0.0001 -0.0001 0.0000 -0.0361 0.0002 24.1183
#
#
#
# Elastic Compliance Matrix: (Units=1/GPa)
#
#
# Indices 1 2 3 4 5 6 
#
# 1 0.012282 -0.001255 -0.001755 0.000000 0.004575 0.000000
# 2 -0.001255 0.010260 -0.004004 0.000000 -0.002305 0.000000
# 3 -0.001755 -0.004004 0.009995 0.000001 0.003535 0.000000
# 4 0.000000 0.000000 0.000001 0.042763 0.000000 0.000064
# 5 0.004575 -0.002305 0.003535 0.000000 0.040956 0.000000
# 6 0.000000 0.000000 0.000000 0.000064 0.000000 0.041462
#
#
# Mechanical properties :
#
#
# Convention : Reuss Voigt Hill
#
# Bulk Modulus (GPa) = 54.02753 59.93427 56.98090
# Shear Modulus (GPa) = 28.10274 30.99191 29.54732
#
# Velocity S-wave (km/s) = 3.86195 4.05561 3.95996
# Velocity P-wave (km/s) = 6.96847 7.33068 7.15187
#
# Compressibility (1/GPa) = 0.01850908
#
# Stress axis : x y z
#
# Youngs Moduli (GPa) = 81.41773 97.46183 100.04800
#
# Poissons Ratio (x) = 0.12232 0.17560
# Poissons Ratio (y) = 0.10219 0.40061
# Poissons Ratio (z) = 0.14290 0.39026
#
# Static dielectric constant tensor:
#      x y z
#    x 3.624430 0.000000 -0.006680 
#    y 0.000000 3.349400 0.000000 
#    z -0.006680 0.000000 3.763120 
# 
# 
# High freq. dielectric constant tensor:
#      x y z
#    x 1.748430 0.000000 -0.003330 
#    y 0.000000 1.718020 0.000000 
#    z -0.003330 0.000000 1.734520 
# 
# From -- ./inp_files/311183.got.cif
#   From: 2010.06.25/outbox.cif.g09.slc.cpg/sg15_156_cif.got.tgz:311183.got - 2010.06.28 07:06:18.
