data_PCOD8137870
_publ_section_title
;
Structure prediction by ZEFSAII (Michael W. Deem and Ramdas Pophale) SiO2 
 PCOD8137870
Probable space group: C 2/C
;
_chemical_formula_sum "Si O2"
_cell_formula_units_Z 52
_cell_length_a 12.634220
_cell_length_b 32.337211
_cell_length_c 8.484383
_cell_angle_alpha 90.000000
_cell_angle_beta 45.956432
_cell_angle_gamma 90.000000
_cell_volume 2491.645191
_symmetry_space_group_name_H-M "C 2/C"
_symmetry_group_IT_number 15
_symmetry_cell_setting 'monoclinic'
loop_
_space_group_symop_operation_xyz
x,y,z
-x,y,1/2-z
-x,-y,-z
x,-y,1/2+z
1/2+x,1/2+y,z
1/2-x,1/2+y,1/2-z
1/2-x,1/2-y,-z
1/2+x,1/2-y,1/2+z
loop_
_atom_site_type_symbol
_atom_site_label
_atom_site_fract_x
_atom_site_fract_y
_atom_site_fract_z
Si Si1 0.038685 0.229426 0.880606
Si Si2 0.184873 0.277708 0.203975
Si Si3 0.256278 0.363167 0.014352
Si Si4 0.667797 0.953317 0.094521
Si Si5 0.975724 0.141298 0.033047
Si Si6 0.500000 0.424409 0.250000
Si Si7 0.660579 0.484131 0.884068
O O1 0.210104 0.224009 0.748914
O O2 0.000000 0.248922 0.750000
O O3 0.971830 0.259570 0.082796
O O4 0.961864 0.184526 0.956754
O O5 0.156010 0.323779 0.164142
O O6 0.250000 0.250000 0.000000
O O7 0.168837 0.405114 0.142799
O O8 0.404446 0.356228 0.956574
O O9 0.312151 0.365848 0.774792
O O10 0.500000 0.968143 0.250000
O O11 0.738817 0.977965 0.166118
O O12 0.761714 0.960402 0.839371
O O13 0.034513 0.104264 0.862919
O O14 0.360769 0.453180 0.444149
O O15 0.500000 0.500000 0.000000
#
# Coordination Sequence:
#
# PCOD8137870 Si02
#       7
#     8   8   8   8   8   4   8
#     4  11  22  39  61  92 131 168 208 273 328 384
#     4  11  22  39  64  93 123 168 221 261 321 395
#     4  10  22  39  62  89 124 167 212 266 318 390
#     4  12  26  43  64  95 137 169 209 271 340 389
#     4  10  20  36  64  95 121 159 221 270 312 375
#     4  12  20  36  68  96 118 158 226 270 312 372
#     4  12  24  42  68  97 122 171 224 267 317 396
#
# _framework density 20.869745999999999
#
# number of rings (size 3 to 8) (size 9 to 14) (size 15 to 20)
#    0.000    0.923    5.385    2.308    2.154    1.231 
#    0.000    0.000    0.000    0.000    0.000    0.000 
#    0.000    0.000    0.000    0.000    0.000    0.000 
#
# Total GULP energy -322318.958433 kJ/mol
# GULP energy per Si atom -12396.883017 kJ/mol
# Density = 2.082225 g / cm^3
# Si number density = 20.869746 Si / 1000 Ang^3
#
#
#
# Elastic Constant Matrix: (Units=GPa)
#
#
# Indices 1 2 3 4 5 6 
#
# 1 70.9810 25.1288 19.1167 0.0000 -6.2968 0.0000
# 2 25.1288 151.2331 36.0911 0.0000 -1.0251 0.0000
# 3 19.1167 36.0911 90.2405 0.0000 -0.1831 0.0000
# 4 0.0000 0.0000 0.0000 19.2588 0.0000 12.5339
# 5 -6.2968 -1.0251 -0.1831 0.0000 33.3249 0.0000
# 6 0.0000 0.0000 0.0000 12.5339 0.0000 26.9053
#
#
#
# Elastic Compliance Matrix: (Units=1/GPa)
#
#
# Indices 1 2 3 4 5 6 
#
# 1 0.015732 -0.001990 -0.002531 0.000000 0.002897 0.000000
# 2 -0.001990 0.007563 -0.002604 0.000000 -0.000158 0.000000
# 3 -0.002531 -0.002604 0.012658 0.000000 -0.000489 0.000000
# 4 0.000000 0.000000 0.000000 0.074517 0.000000 -0.034714
# 5 0.002897 -0.000158 -0.000489 0.000000 0.030548 0.000000
# 6 0.000000 0.000000 0.000000 -0.034714 0.000000 0.053339
#
#
# Mechanical properties :
#
#
# Convention : Reuss Voigt Hill
#
# Bulk Modulus (GPa) = 46.07560 52.56978 49.32269
# Shear Modulus (GPa) = 23.16536 31.37232 27.26884
#
# Velocity S-wave (km/s) = 3.33528 3.88138 3.61864
# Velocity P-wave (km/s) = 6.07929 6.73282 6.41438
#
# Compressibility (1/GPa) = 0.02170346
#
# Stress axis : x y z
#
# Youngs Moduli (GPa) = 63.56667 132.21758 79.00207
#
# Poissons Ratio (x) = 0.26316 0.19993
# Poissons Ratio (y) = 0.12652 0.20569
# Poissons Ratio (z) = 0.16087 0.34424
#
# Static dielectric constant tensor:
#      x y z
#    x 3.530780 0.000000 0.176920 
#    y 0.000000 4.004020 0.000000 
#    z 0.176920 0.000000 4.390170 
# 
# 
# High freq. dielectric constant tensor:
#      x y z
#    x 1.797640 0.000000 0.014280 
#    y 0.000000 1.829510 0.000000 
#    z 0.014280 0.000000 1.814320 
# 
# From -- ./inp_files/44749.got.cif
#   From: 2010.06.25/outbox.cif.g09.slc.cpg/sg15_23_cif.got.tgz:44749.got - 2010.06.28 07:06:18.
