data_PCOD8137972
_publ_section_title
;
Structure prediction by ZEFSAII (Michael W. Deem and Ramdas Pophale) SiO2 
 PCOD8137972
Probable space group: C 2/C
;
_chemical_formula_sum "Si O2"
_cell_formula_units_Z 48
_cell_length_a 5.026323
_cell_length_b 23.441674
_cell_length_c 25.767008
_cell_angle_alpha 90.000000
_cell_angle_beta 58.244810
_cell_angle_gamma 90.000000
_cell_volume 2581.532006
_symmetry_space_group_name_H-M "C 2/C"
_symmetry_group_IT_number 15
_symmetry_cell_setting 'monoclinic'
loop_
_space_group_symop_operation_xyz
x,y,z
-x,y,1/2-z
-x,-y,-z
x,-y,1/2+z
1/2+x,1/2+y,z
1/2-x,1/2+y,1/2-z
1/2-x,1/2-y,-z
1/2+x,1/2-y,1/2+z
loop_
_atom_site_type_symbol
_atom_site_label
_atom_site_fract_x
_atom_site_fract_y
_atom_site_fract_z
Si Si1 0.637751 0.230937 0.290741
Si Si2 0.129889 0.143470 0.792053
Si Si3 0.086296 0.067157 0.382948
Si Si4 0.741454 0.115605 0.321289
Si Si5 0.116396 0.937303 0.093913
Si Si6 0.356623 0.562453 0.514870
O O1 0.500000 0.209752 0.250000
O O2 0.498256 0.292886 0.320672
O O3 0.588440 0.179574 0.336969
O O4 0.000000 0.243426 0.250000
O O5 0.500000 0.139169 0.750000
O O6 0.000000 0.124653 0.750000
O O7 0.993671 0.100413 0.847446
O O8 0.460934 0.071733 0.338947
O O9 0.903484 0.104360 0.359430
O O10 0.980623 0.092744 0.449785
O O11 0.008794 0.000910 0.384387
O O12 0.000000 0.109674 0.250000
O O13 0.486308 0.939620 0.052225
O O14 0.979767 0.908385 0.055199
O O15 0.500000 0.500000 0.500000
#
# Coordination Sequence:
#
# PCOD8137972 Si02
#       6
#     8   8   8   8   8   8
#     4   9  18  35  54  73 102 142 181 206 244 317
#     4  10  21  36  56  81 107 138 174 216 265 312
#     4  11  21  34  54  79 107 139 174 216 261 310
#     4  11  21  34  53  80 109 138 170 213 267 314
#     4  11  21  36  56  79 107 139 176 218 261 308
#     4  10  20  37  55  74 103 145 187 209 244 313
#
# _framework density 18.593610999999999
#
# number of rings (size 3 to 8) (size 9 to 14) (size 15 to 20)
#    0.000    1.667    0.000    8.500    0.000    2.000 
#    0.000    0.000    0.000    6.000    0.000    0.000 
#    0.000    0.000    0.000    0.000    0.000    0.000 
#
# Total GULP energy -297471.277743 kJ/mol
# GULP energy per Si atom -12394.636573 kJ/mol
# Density = 1.855129 g / cm^3
# Si number density = 18.593611 Si / 1000 Ang^3
#
#
#
# Elastic Constant Matrix: (Units=GPa)
#
#
# Indices 1 2 3 4 5 6 
#
# 1 145.6804 39.7100 66.7225 0.0000 10.0876 0.0000
# 2 39.7100 77.0207 69.9253 0.0000 11.9426 0.0000
# 3 66.7225 69.9253 122.8324 0.0000 14.1251 0.0000
# 4 0.0000 0.0000 0.0000 -9.1047 0.0000 -11.3696
# 5 10.0876 11.9426 14.1251 0.0000 48.4882 0.0000
# 6 0.0000 0.0000 0.0000 -11.3696 0.0000 -6.8178
#
#
#
# Elastic Compliance Matrix: (Units=1/GPa)
#
#
# Indices 1 2 3 4 5 6 
#
# 1 0.009153 -0.000379 -0.004706 0.000000 -0.000440 0.000000
# 2 -0.000379 0.027124 -0.014978 0.000000 -0.002239 0.000000
# 3 -0.004706 -0.014978 0.019335 0.000000 -0.000964 0.000000
# 4 0.000000 0.000000 0.000000 0.101466 0.000000 -0.169207
# 5 -0.000440 -0.002239 -0.000964 0.000000 0.021547 0.000000
# 6 0.000000 0.000000 0.000000 -0.169207 0.000000 0.135500
#
#
# Mechanical properties :
#
#
# Convention : Reuss Voigt Hill
#
# Bulk Modulus (GPa) = 64.56897 77.58321 71.07609
# Shear Modulus (GPa) = 13.91158 17.79151 15.85155
#
# Velocity S-wave (km/s) = 2.73828 3.09667 2.92297
# Velocity P-wave (km/s) = 6.69323 7.38933 7.04988
#
# Compressibility (1/GPa) = 0.01548731
#
# Stress axis : x y z
#
# Youngs Moduli (GPa) = 109.24925 36.86796 51.72007
#
# Poissons Ratio (x) = 0.01396 0.24339
# Poissons Ratio (y) = 0.04136 0.77465
# Poissons Ratio (z) = 0.51413 0.55220
#
# Static dielectric constant tensor:
#      x y z
#    x 3.619970 0.000000 0.035400 
#    y 0.000000 3.546010 0.000000 
#    z 0.035400 0.000000 3.588740 
# 
# 
# High freq. dielectric constant tensor:
#      x y z
#    x 1.755960 0.000000 0.005590 
#    y 0.000000 1.702530 0.000000 
#    z 0.005590 0.000000 1.706400 
# 
# From -- ./inp_files/286575.got.cif
#   From: 2010.06.25/outbox.cif.g09.slc.cpg/sg15_144_cif.got.tgz:286575.got - 2010.06.28 07:06:18.
