data_PCOD8137079
_publ_section_title
;
Structure prediction by ZEFSAII (Michael W. Deem and Ramdas Pophale) SiO2 
 PCOD8137079
Probable space group: C 2/C
;
_chemical_formula_sum "Si O2"
_cell_formula_units_Z 40
_cell_length_a 8.962916
_cell_length_b 19.347024
_cell_length_c 15.989015
_cell_angle_alpha 90.000000
_cell_angle_beta 46.284886
_cell_angle_gamma 90.000000
_cell_volume 2003.984055
_symmetry_space_group_name_H-M "C 2/C"
_symmetry_group_IT_number 15
_symmetry_cell_setting 'monoclinic'
loop_
_space_group_symop_operation_xyz
x,y,z
-x,y,1/2-z
-x,-y,-z
x,-y,1/2+z
1/2+x,1/2+y,z
1/2-x,1/2+y,1/2-z
1/2-x,1/2-y,-z
1/2+x,1/2-y,1/2+z
loop_
_atom_site_type_symbol
_atom_site_label
_atom_site_fract_x
_atom_site_fract_y
_atom_site_fract_z
Si Si1 0.085508 0.445863 0.124466
Si Si2 0.295992 0.378958 0.287893
Si Si3 0.099595 0.291393 0.498419
Si Si4 0.089275 0.155821 0.944447
Si Si5 0.361590 0.099431 0.385988
O O1 0.255338 0.383962 0.052461
O O2 0.175836 0.520966 0.067489
O O3 0.000000 0.448347 0.250000
O O4 0.896526 0.431585 0.134371
O O5 0.500000 0.413565 0.250000
O O6 0.230628 0.311773 0.366045
O O7 0.343050 0.357159 0.176109
O O8 0.250000 0.250000 0.500000
O O9 0.029093 0.358452 0.579937
O O10 0.912794 0.239766 0.542541
O O11 0.861918 0.127955 0.051014
O O12 0.500000 0.103933 0.250000
#
# Coordination Sequence:
#
# PCOD8137079 Si02
#       5
#     8   8   8   8   8
#     4   9  21  38  58  85 114 152 190 233 285 342
#     4  11  20  38  60  83 112 150 191 232 282 347
#     4  10  21  32  58  86 110 148 189 233 282 332
#     4  10  21  37  61  84 114 151 190 235 285 338
#     4  10  20  35  60  85 116 151 193 228 282 349
#
# _framework density 19.960239999999999
#
# number of rings (size 3 to 8) (size 9 to 14) (size 15 to 20)
#    0.000    2.000    4.000    0.600    5.600    1.600 
#    0.000    0.000    0.000    0.000    0.000    0.000 
#    0.000    0.000    0.000    0.000    0.000    0.000 
#
# Total GULP energy -247822.630393 kJ/mol
# GULP energy per Si atom -12391.131520 kJ/mol
# Density = 1.991481 g / cm^3
# Si number density = 19.960240 Si / 1000 Ang^3
#
#
#
# Elastic Constant Matrix: (Units=GPa)
#
#
# Indices 1 2 3 4 5 6 
#
# 1 107.5796 63.3079 24.9214 -0.0016 -18.2663 0.0034
# 2 63.3079 136.0021 25.8050 0.0006 -14.2177 -0.0014
# 3 24.9214 25.8050 89.9361 -0.0022 -3.7404 0.0045
# 4 -0.0016 0.0006 -0.0022 -27.9557 0.0014 120.5033
# 5 -18.2663 -14.2177 -3.7404 0.0014 22.5672 -0.0029
# 6 0.0034 -0.0014 0.0045 120.5033 -0.0029 -244.4086
#
#
#
# Elastic Compliance Matrix: (Units=1/GPa)
#
#
# Indices 1 2 3 4 5 6 
#
# 1 0.014309 -0.005451 -0.002077 0.000000 0.007804 0.000000
# 2 -0.005451 0.010349 -0.001381 0.000000 0.001879 0.000000
# 3 -0.002077 -0.001381 0.012068 0.000000 -0.000550 0.000000
# 4 0.000000 0.000000 0.000000 0.031789 0.000000 0.015673
# 5 0.007804 0.001879 -0.000550 0.000000 0.051721 0.000000
# 6 0.000000 0.000000 0.000000 0.015673 0.000000 0.003636
#
#
# Mechanical properties :
#
#
# Convention : Reuss Voigt Hill
#
# Bulk Modulus (GPa) = 52.88449 62.39847 57.64148
# Shear Modulus (GPa) = 33.78575 -35.32717 -0.77071
#
# Velocity S-wave (km/s) = 4.11865 -4.21155 -0.62206
# Velocity P-wave (km/s) = 7.01214 2.77122 5.33150
#
# Compressibility (1/GPa) = 0.01890914
#
# Stress axis : x y z
#
# Youngs Moduli (GPa) = 69.88450 96.63119 82.86612
#
# Poissons Ratio (x) = 0.52674 0.17207
# Poissons Ratio (y) = 0.38094 0.11441
# Poissons Ratio (z) = 0.14512 0.13341
#
# Static dielectric constant tensor:
#      x y z
#    x 3.950630 0.000000 -0.273980 
#    y 0.000000 4.556820 0.000000 
#    z -0.273980 0.000000 3.897830 
# 
# 
# High freq. dielectric constant tensor:
#      x y z
#    x 1.758750 0.000000 -0.002270 
#    y 0.000000 1.782720 0.000000 
#    z -0.002270 0.000000 1.774090 
# 
# From -- ./inp_files/76818.got.cif
#   From: 2010.06.25/outbox.cif.g09.slc.cpg/sg15_39_cif.got.tgz:76818.got - 2010.06.28 07:06:18.
