data_PCOD8137465
_publ_section_title
;
Structure prediction by ZEFSAII (Michael W. Deem and Ramdas Pophale) SiO2 
 PCOD8137465
Probable space group: C 2/C
;
_chemical_formula_sum "Si O2"
_cell_formula_units_Z 64
_cell_length_a 28.618702
_cell_length_b 8.389494
_cell_length_c 13.861994
_cell_angle_alpha 90.000000
_cell_angle_beta 63.452204
_cell_angle_gamma 90.000000
_cell_volume 2977.294339
_symmetry_space_group_name_H-M "C 2/C"
_symmetry_group_IT_number 15
_symmetry_cell_setting 'monoclinic'
loop_
_space_group_symop_operation_xyz
x,y,z
-x,y,1/2-z
-x,-y,-z
x,-y,1/2+z
1/2+x,1/2+y,z
1/2-x,1/2+y,1/2-z
1/2-x,1/2-y,-z
1/2+x,1/2-y,1/2+z
loop_
_atom_site_type_symbol
_atom_site_label
_atom_site_fract_x
_atom_site_fract_y
_atom_site_fract_z
Si Si1 0.548777 0.761376 0.323595
Si Si2 0.251336 0.602659 0.113750
Si Si3 0.601653 0.029092 0.387044
Si Si4 0.067553 0.260458 0.094889
Si Si5 0.140893 0.071781 0.299681
Si Si6 0.861140 0.046011 0.973031
Si Si7 0.795058 0.653569 0.716285
Si Si8 0.854735 0.753217 0.307602
O O1 0.561750 0.837861 0.206418
O O2 0.489497 0.697378 0.385439
O O3 0.584365 0.604744 0.305399
O O4 0.560377 0.892956 0.394884
O O5 0.298786 0.544365 0.000168
O O6 0.247056 0.455549 0.191430
O O7 0.267207 0.766089 0.151617
O O8 0.195964 0.645276 0.114690
O O9 0.584021 0.109858 0.502041
O O10 0.605336 0.150043 0.293077
O O11 0.657920 0.959283 0.361515
O O12 0.109956 0.120714 0.065789
O O13 0.134762 0.095940 0.420307
O O14 0.181926 0.210664 0.231673
O O15 0.161640 0.901658 0.246215
O O16 0.883603 0.179685 0.877673
#
# Coordination Sequence:
#
# PCOD8137465 Si02
#       8
#     8   8   8   8   8   8   8   8
#     4  10  23  41  66  91 126 161 210 263 317 377
#     4  10  20  36  58  91 126 166 207 261 308 372
#     4  10  22  40  64  91 123 168 203 264 315 373
#     4  11  22  41  66  91 125 165 210 260 316 378
#     4  10  20  40  61  90 121 166 203 265 313 374
#     4  11  22  37  62  91 126 168 211 255 312 373
#     4   9  20  34  61  87 122 160 211 252 316 372
#     4  11  21  39  62  90 130 160 212 258 309 376
#
# _framework density 21.496027999999999
#
# number of rings (size 3 to 8) (size 9 to 14) (size 15 to 20)
#    0.000    1.750    2.500    2.250    1.750    3.500 
#    0.000    1.875    0.000    0.000    0.000    0.000 
#    0.000    0.000    0.000    0.000    0.000    0.000 
#
# Total GULP energy -396493.912575 kJ/mol
# GULP energy per Si atom -12390.434768 kJ/mol
# Density = 2.144710 g / cm^3
# Si number density = 21.496028 Si / 1000 Ang^3
#
#
#
# Elastic Constant Matrix: (Units=GPa)
#
#
# Indices 1 2 3 4 5 6 
#
# 1 48.8363 14.5473 18.4394 0.0000 -0.4990 0.0000
# 2 14.5473 83.0101 34.2049 0.0000 -3.2113 0.0000
# 3 18.4394 34.2049 72.2885 0.0000 1.0407 0.0000
# 4 0.0000 0.0000 0.0000 26.0094 0.0000 1.4825
# 5 -0.4990 -3.2113 1.0407 0.0000 29.2064 0.0000
# 6 0.0000 0.0000 0.0000 1.4825 0.0000 26.8541
#
#
#
# Elastic Compliance Matrix: (Units=1/GPa)
#
#
# Indices 1 2 3 4 5 6 
#
# 1 0.022926 -0.001978 -0.004917 0.000000 0.000349 0.000000
# 2 -0.001978 0.015241 -0.006734 0.000000 0.001882 0.000000
# 3 -0.004917 -0.006734 0.018295 0.000000 -0.001476 0.000000
# 4 0.000000 0.000000 0.000000 0.038569 0.000000 -0.002129
# 5 0.000349 0.001882 -0.001476 0.000000 0.034505 0.000000
# 6 0.000000 0.000000 0.000000 -0.002129 0.000000 0.037356
#
#
# Mechanical properties :
#
#
# Convention : Reuss Voigt Hill
#
# Bulk Modulus (GPa) = 34.24213 37.61312 35.92762
# Shear Modulus (GPa) = 24.52365 25.54353 25.03359
#
# Velocity S-wave (km/s) = 3.38130 3.45090 3.41628
# Velocity P-wave (km/s) = 5.58645 5.78048 5.68429
#
# Compressibility (1/GPa) = 0.02920379
#
# Stress axis : x y z
#
# Youngs Moduli (GPa) = 43.61875 65.61230 54.65866
#
# Poissons Ratio (x) = 0.12979 0.26876
# Poissons Ratio (y) = 0.08628 0.36808
# Poissons Ratio (z) = 0.21447 0.44184
#
# Static dielectric constant tensor:
#      x y z
#    x 3.952500 0.000000 -0.128230 
#    y 0.000000 3.905660 0.000000 
#    z -0.128230 0.000000 3.949170 
# 
# 
# High freq. dielectric constant tensor:
#      x y z
#    x 1.837970 0.000000 -0.001180 
#    y 0.000000 1.839740 0.000000 
#    z -0.001180 0.000000 1.838700 
# 
# From -- ./inp_files/180804.got.cif
#   From: 2010.06.25/outbox.cif.g09.slc.cpg/sg15_91_cif.got.tgz:180804.got - 2010.06.28 07:06:18.
