data_PCOD8137271
_publ_section_title
;
Structure prediction by ZEFSAII (Michael W. Deem and Ramdas Pophale) SiO2 
 PCOD8137271
Probable space group: C 2/C
;
_chemical_formula_sum "Si O2"
_cell_formula_units_Z 60
_cell_length_a 21.347504
_cell_length_b 26.428034
_cell_length_c 8.507102
_cell_angle_alpha 90.000000
_cell_angle_beta 36.889004
_cell_angle_gamma 90.000000
_cell_volume 2880.964335
_symmetry_space_group_name_H-M "C 2/C"
_symmetry_group_IT_number 15
_symmetry_cell_setting 'monoclinic'
loop_
_space_group_symop_operation_xyz
x,y,z
-x,y,1/2-z
-x,-y,-z
x,-y,1/2+z
1/2+x,1/2+y,z
1/2-x,1/2+y,1/2-z
1/2-x,1/2-y,-z
1/2+x,1/2-y,1/2+z
loop_
_atom_site_type_symbol
_atom_site_label
_atom_site_fract_x
_atom_site_fract_y
_atom_site_fract_z
Si Si1 0.500000 0.187763 0.750000
Si Si2 0.568148 0.612590 0.889672
Si Si3 0.618996 0.530922 0.544159
Si Si4 0.596120 0.283902 0.171388
Si Si5 0.065459 0.329058 0.783638
Si Si6 0.763543 0.859563 0.232275
Si Si7 0.661259 0.431861 0.632485
Si Si8 0.788539 0.745071 0.100193
O O1 0.519564 0.154371 0.548406
O O2 0.597739 0.221774 0.607059
O O3 0.622681 0.578844 0.649431
O O4 0.581822 0.671875 0.824760
O O5 0.638106 0.607007 0.904346
O O6 0.450953 0.595712 0.151895
O O7 0.500000 0.514840 0.750000
O O8 0.674097 0.481658 0.501078
O O9 0.682235 0.549128 0.265544
O O10 0.500000 0.289239 0.250000
O O11 0.594418 0.229496 0.260109
O O12 0.705363 0.289597 0.859959
O O13 0.165238 0.364123 0.546659
O O14 0.000000 0.332201 0.750000
O O15 0.790832 0.801315 0.162171
O O16 0.749884 0.889827 0.093558
O O17 0.750000 0.750000 0.000000
#
# Coordination Sequence:
#
# PCOD8137271 Si02
#       8
#     4   8   8   8   8   8   8   8
#     4  12  22  40  64  84 120 180 210 262 332 366
#     4  11  21  33  56  89 122 161 205 239 306 389
#     4  10  20  36  55  85 127 163 194 243 307 381
#     4  10  20  37  55  83 127 164 203 264 305 369
#     4  10  23  43  59  85 124 164 216 268 315 364
#     4  11  23  37  56  87 117 159 205 260 305 370
#     4  11  22  36  59  87 124 165 196 249 309 379
#     4  11  25  37  60  90 127 169 225 271 318 376
#
# _framework density 20.826359
#
# number of rings (size 3 to 8) (size 9 to 14) (size 15 to 20)
#    0.000    1.333    0.000    8.800    7.467    2.133 
#    2.400    0.000    0.000    0.000    0.000    3.733 
#    0.000    0.000    0.000    0.000    0.000    0.000 
#
# Total GULP energy -371663.066876 kJ/mol
# GULP energy per Si atom -12388.768896 kJ/mol
# Density = 2.077896 g / cm^3
# Si number density = 20.826359 Si / 1000 Ang^3
#
#
#
# Elastic Constant Matrix: (Units=GPa)
#
#
# Indices 1 2 3 4 5 6 
#
# 1 85.9289 18.4078 48.6806 0.0000 14.0458 0.0000
# 2 18.4078 76.9231 45.4919 0.0000 12.2919 0.0000
# 3 48.6806 45.4919 140.4258 0.0000 24.6490 0.0000
# 4 0.0000 0.0000 0.0000 26.7095 0.0000 9.6213
# 5 14.0458 12.2919 24.6490 0.0000 37.7825 0.0000
# 6 0.0000 0.0000 0.0000 9.6213 0.0000 11.2562
#
#
#
# Elastic Compliance Matrix: (Units=1/GPa)
#
#
# Indices 1 2 3 4 5 6 
#
# 1 0.014687 -0.000460 -0.004529 0.000000 -0.002356 0.000000
# 2 -0.000460 0.016240 -0.004748 0.000000 -0.002015 0.000000
# 3 -0.004529 -0.004748 0.010912 0.000000 -0.003891 0.000000
# 4 0.000000 0.000000 0.000000 0.054096 0.000000 -0.046239
# 5 -0.002356 -0.002015 -0.003891 0.000000 0.030537 0.000000
# 6 0.000000 0.000000 0.000000 -0.046239 0.000000 0.128362
#
#
# Mechanical properties :
#
#
# Convention : Reuss Voigt Hill
#
# Bulk Modulus (GPa) = 44.71135 58.71536 51.71335
# Shear Modulus (GPa) = 17.74542 27.86282 22.80412
#
# Velocity S-wave (km/s) = 2.92218 3.66165 3.31261
# Velocity P-wave (km/s) = 5.73592 6.79197 6.28616
#
# Compressibility (1/GPa) = 0.02236569
#
# Stress axis : x y z
#
# Youngs Moduli (GPa) = 68.08823 61.57671 91.63955
#
# Poissons Ratio (x) = 0.02831 0.41503
# Poissons Ratio (y) = 0.03130 0.43510
# Poissons Ratio (z) = 0.30837 0.29236
#
# Static dielectric constant tensor:
#      x y z
#    x 3.953800 0.000000 0.317780 
#    y 0.000000 3.687800 0.000000 
#    z 0.317780 0.000000 4.015770 
# 
# 
# High freq. dielectric constant tensor:
#      x y z
#    x 1.816240 0.000000 0.032150 
#    y 0.000000 1.793760 0.000000 
#    z 0.032150 0.000000 1.813540 
# 
# From -- ./inp_files/59124.got.cif
#   From: 2010.06.25/outbox.cif.g09.slc.cpg/sg15_30_cif.got.tgz:59124.got - 2010.06.28 07:06:18.
