data_PCOD8137158
_publ_section_title
;
Structure prediction by ZEFSAII (Michael W. Deem and Ramdas Pophale) SiO2 
 PCOD8137158
Probable space group: C 2/C
;
_chemical_formula_sum "Si O2"
_cell_formula_units_Z 44
_cell_length_a 24.794713
_cell_length_b 17.447912
_cell_length_c 15.135819
_cell_angle_alpha 90.000000
_cell_angle_beta 160.830483
_cell_angle_gamma 90.000000
_cell_volume 2150.127575
_symmetry_space_group_name_H-M "C 2/C"
_symmetry_group_IT_number 15
_symmetry_cell_setting 'monoclinic'
loop_
_space_group_symop_operation_xyz
x,y,z
-x,y,1/2-z
-x,-y,-z
x,-y,1/2+z
1/2+x,1/2+y,z
1/2-x,1/2+y,1/2-z
1/2-x,1/2-y,-z
1/2+x,1/2-y,1/2+z
loop_
_atom_site_type_symbol
_atom_site_label
_atom_site_fract_x
_atom_site_fract_y
_atom_site_fract_z
Si Si1 0.229115 0.282499 0.371325
Si Si2 0.313144 0.648408 0.658080
Si Si3 0.143975 0.317323 0.729861
Si Si4 0.809289 0.141255 0.309221
Si Si5 0.500000 0.406793 0.750000
Si Si6 0.866412 0.979842 0.365249
O O1 0.250000 0.250000 0.500000
O O2 0.267772 0.211240 0.365832
O O3 0.350115 0.352607 0.544146
O O4 0.049689 0.318268 0.084076
O O5 0.181930 0.634021 0.377186
O O6 0.285755 0.732048 0.654913
O O7 0.271943 0.592728 0.676953
O O8 0.494026 0.642068 0.895242
O O9 0.247485 0.354598 0.812602
O O10 0.750339 0.055310 0.190271
O O11 0.448164 0.459406 0.586588
O O12 0.000000 0.000000 0.500000
#
# Coordination Sequence:
#
# PCOD8137158 Si02
#       6
#     8   8   8   8   4   8
#     4  11  22  40  64  92 123 164 219 262 303 384
#     4   9  19  36  58  91 125 158 202 260 304 379
#     4  10  20  35  62  91 121 157 211 261 304 369
#     4  10  20  36  63  90 120 165 203 255 321 365
#     4  12  24  42  70  88 126 178 214 254 330 384
#     4  10  22  38  64  91 125 165 211 254 313 393
#
# _framework density 20.463902999999998
#
# number of rings (size 3 to 8) (size 9 to 14) (size 15 to 20)
#    0.000    1.818    0.000    6.000    5.091    0.000 
#    0.000    3.636   12.000    0.000    0.000    0.000 
#    0.000    0.000    0.000    0.000    0.000    0.000 
#
# Total GULP energy -272651.827422 kJ/mol
# GULP energy per Si atom -12393.264883 kJ/mol
# Density = 2.041733 g / cm^3
# Si number density = 20.463903 Si / 1000 Ang^3
#
#
#
# Elastic Constant Matrix: (Units=GPa)
#
#
# Indices 1 2 3 4 5 6 
#
# 1 119.1848 45.9028 26.2502 0.0000 -16.8122 0.0000
# 2 45.9028 105.0202 7.2135 0.0000 -6.5450 0.0000
# 3 26.2502 7.2135 62.3674 0.0000 -14.6859 0.0000
# 4 0.0000 0.0000 0.0000 15.1456 0.0000 -1.7138
# 5 -16.8122 -6.5450 -14.6859 0.0000 31.8395 0.0000
# 6 0.0000 0.0000 0.0000 -1.7138 0.0000 42.5318
#
#
#
# Elastic Compliance Matrix: (Units=1/GPa)
#
#
# Indices 1 2 3 4 5 6 
#
# 1 0.011383 -0.004521 -0.003446 0.000000 0.003492 0.000000
# 2 -0.004521 0.011471 0.000639 0.000000 0.000265 0.000000
# 3 -0.003446 0.000639 0.019086 0.000000 0.007115 0.000000
# 4 0.000000 0.000000 0.000000 0.066328 0.000000 0.002673
# 5 0.003492 0.000265 0.007115 0.000000 0.036588 0.000000
# 6 0.000000 0.000000 0.000000 0.002673 0.000000 0.023619
#
#
# Mechanical properties :
#
#
# Convention : Reuss Voigt Hill
#
# Bulk Modulus (GPa) = 36.65288 49.47838 43.06563
# Shear Modulus (GPa) = 26.01101 31.71710 28.86406
#
# Velocity S-wave (km/s) = 3.56907 3.94115 3.75972
# Velocity P-wave (km/s) = 5.91052 6.70381 6.31963
#
# Compressibility (1/GPa) = 0.02728298
#
# Stress axis : x y z
#
# Youngs Moduli (GPa) = 87.84946 87.17826 52.39455
#
# Poissons Ratio (x) = 0.39414 0.18055
# Poissons Ratio (y) = 0.39718 -0.03346
# Poissons Ratio (z) = 0.30273 -0.05568
#
# Static dielectric constant tensor:
#      x y z
#    x 3.900370 0.000000 -0.263730 
#    y 0.000000 5.052030 0.000000 
#    z -0.263730 0.000000 3.733510 
# 
# 
# High freq. dielectric constant tensor:
#      x y z
#    x 1.814350 0.000000 -0.014240 
#    y 0.000000 1.812380 0.000000 
#    z -0.014240 0.000000 1.775540 
# 
# From -- ./inp_files/145426.got.cif
#   From: 2010.06.25/outbox.cif.g09.slc.cpg/sg15_73_cif.got.tgz:145426.got - 2010.06.28 07:06:18.
