data_PCOD8137114
_publ_section_title
;
Structure prediction by ZEFSAII (Michael W. Deem and Ramdas Pophale) SiO2 
 PCOD8137114
Probable space group: C 2/C
;
_chemical_formula_sum "Si O2"
_cell_formula_units_Z 40
_cell_length_a 11.541717
_cell_length_b 14.651347
_cell_length_c 15.004189
_cell_angle_alpha 90.000000
_cell_angle_beta 122.048423
_cell_angle_gamma 90.000000
_cell_volume 2150.559275
_symmetry_space_group_name_H-M "C 2/C"
_symmetry_group_IT_number 15
_symmetry_cell_setting 'monoclinic'
loop_
_space_group_symop_operation_xyz
x,y,z
-x,y,1/2-z
-x,-y,-z
x,-y,1/2+z
1/2+x,1/2+y,z
1/2-x,1/2+y,1/2-z
1/2-x,1/2-y,-z
1/2+x,1/2-y,1/2+z
loop_
_atom_site_type_symbol
_atom_site_label
_atom_site_fract_x
_atom_site_fract_y
_atom_site_fract_z
Si Si1 0.183135 0.510245 0.986338
Si Si2 0.159143 0.236916 0.212542
Si Si3 0.398769 0.354688 0.641301
Si Si4 0.121273 0.439423 0.151981
Si Si5 0.841799 0.404756 0.696054
O O1 0.219589 0.441496 0.921724
O O2 0.042828 0.562774 0.907520
O O3 0.304828 0.583548 0.041318
O O4 0.170363 0.452926 0.071313
O O5 0.191353 0.210603 0.329457
O O6 0.180226 0.344509 0.211077
O O7 0.263209 0.187181 0.188678
O O8 0.001724 0.207883 0.123566
O O9 0.500000 0.413096 0.750000
O O10 0.182221 0.520363 0.236786
O O11 0.000000 0.379696 0.750000
#
# Coordination Sequence:
#
# PCOD8137114 Si02
#       5
#     8   8   8   8   8
#     4  10  20  35  61  80 114 155 183 227 285 336
#     4   9  20  37  55  80 120 140 185 241 272 324
#     4   8  19  36  56  80 115 142 184 238 270 326
#     4  10  20  38  57  85 115 147 191 231 274 336
#     4  10  21  37  59  85 113 151 192 227 277 339
#
# _framework density 18.599813000000001
#
# number of rings (size 3 to 8) (size 9 to 14) (size 15 to 20)
#    1.200    1.200    2.000    0.000    8.400    2.400 
#    0.000    3.000    0.000    0.000    0.000    0.000 
#    0.000    0.000    0.000    0.000    0.000    0.000 
#
# Total GULP energy -247837.692156 kJ/mol
# GULP energy per Si atom -12391.884608 kJ/mol
# Density = 1.855748 g / cm^3
# Si number density = 18.599813 Si / 1000 Ang^3
#
#
#
# Elastic Constant Matrix: (Units=GPa)
#
#
# Indices 1 2 3 4 5 6 
#
# 1 56.2001 42.5628 22.1837 0.0000 -14.1924 0.0000
# 2 42.5628 91.6774 11.5283 0.0000 -4.1245 0.0000
# 3 22.1837 11.5283 56.3988 0.0000 -13.9769 0.0000
# 4 0.0000 0.0000 0.0000 10.9236 0.0000 6.7192
# 5 -14.1924 -4.1245 -13.9769 0.0000 22.8578 0.0000
# 6 0.0000 0.0000 0.0000 6.7192 0.0000 15.0652
#
#
#
# Elastic Compliance Matrix: (Units=1/GPa)
#
#
# Indices 1 2 3 4 5 6 
#
# 1 0.035905 -0.015072 -0.007297 0.000000 0.015112 0.000000
# 2 -0.015072 0.017533 0.000954 0.000000 -0.005611 0.000000
# 3 -0.007297 0.000954 0.022777 0.000000 0.009569 0.000000
# 4 0.000000 0.000000 0.000000 0.126154 0.000000 -0.056265
# 5 0.015112 -0.005611 0.009569 0.000000 0.057970 0.000000
# 6 0.000000 0.000000 0.000000 -0.056265 0.000000 0.091473
#
#
# Mechanical properties :
#
#
# Convention : Reuss Voigt Hill
#
# Bulk Modulus (GPa) = 29.95320 39.64733 34.80027
# Shear Modulus (GPa) = 12.32225 18.30277 15.31251
#
# Velocity S-wave (km/s) = 2.57669 3.14033 2.87237
# Velocity P-wave (km/s) = 4.99914 5.87462 5.45447
#
# Compressibility (1/GPa) = 0.03338541
#
# Stress axis : x y z
#
# Youngs Moduli (GPa) = 27.85152 57.03591 43.90307
#
# Poissons Ratio (x) = 0.85964 0.32035
# Poissons Ratio (y) = 0.41978 -0.04188
# Poissons Ratio (z) = 0.20323 -0.05441
#
# Static dielectric constant tensor:
#      x y z
#    x 3.343890 0.000000 -0.110900 
#    y 0.000000 3.046390 0.000000 
#    z -0.110900 0.000000 3.311800 
# 
# 
# High freq. dielectric constant tensor:
#      x y z
#    x 1.716910 0.000000 -0.011590 
#    y 0.000000 1.701270 0.000000 
#    z -0.011590 0.000000 1.710380 
# 
# From -- ./inp_files/143092.got.cif
#   From: 2010.06.25/outbox.cif.g09.slc.cpg/sg15_72_cif.got.tgz:143092.got - 2010.06.28 07:06:18.
