data_PCOD8137457
_publ_section_title
;
Structure prediction by ZEFSAII (Michael W. Deem and Ramdas Pophale) SiO2 
 PCOD8137457
Probable space group: C 2/C
;
_chemical_formula_sum "Si O2"
_cell_formula_units_Z 56
_cell_length_a 16.879025
_cell_length_b 30.200564
_cell_length_c 5.062798
_cell_angle_alpha 90.000000
_cell_angle_beta 110.940510
_cell_angle_gamma 90.000000
_cell_volume 2410.335923
_symmetry_space_group_name_H-M "C 2/C"
_symmetry_group_IT_number 15
_symmetry_cell_setting 'monoclinic'
loop_
_space_group_symop_operation_xyz
x,y,z
-x,y,1/2-z
-x,-y,-z
x,-y,1/2+z
1/2+x,1/2+y,z
1/2-x,1/2+y,1/2-z
1/2-x,1/2-y,-z
1/2+x,1/2-y,1/2+z
loop_
_atom_site_type_symbol
_atom_site_label
_atom_site_fract_x
_atom_site_fract_y
_atom_site_fract_z
Si Si1 0.182729 0.768574 0.713233
Si Si2 0.669705 0.645641 0.436934
Si Si3 0.099375 0.471563 0.355138
Si Si4 0.556363 0.575892 0.562816
Si Si5 0.803314 0.682597 0.968899
Si Si6 0.204661 0.599551 0.257847
Si Si7 0.223336 0.027620 0.804052
O O1 0.126893 0.808095 0.779728
O O2 0.133963 0.723247 0.552557
O O3 0.226378 0.792622 0.520513
O O4 0.250000 0.750000 0.000000
O O5 0.602305 0.622055 0.543868
O O6 0.760187 0.656776 0.676008
O O7 0.701588 0.611387 0.247214
O O8 0.124687 0.511130 0.591027
O O9 0.144326 0.425374 0.478366
O O10 0.000000 0.462418 0.250000
O O11 0.500000 0.585937 0.750000
O O12 0.623372 0.537262 0.705608
O O13 0.500000 0.559626 0.250000
O O14 0.844521 0.644754 0.205952
O O15 0.223771 0.570290 0.541537
O O16 0.244757 0.014652 0.522007
#
# Coordination Sequence:
#
# PCOD8137457 Si02
#       7
#     8   8   8   8   8   8   8
#     4   8  16  31  54  90 124 150 187 253 318 365
#     4  10  20  36  58  90 124 158 212 264 306 375
#     4  10  23  41  61  90 131 168 208 254 316 387
#     4  12  26  42  60  85 124 172 221 266 322 374
#     4   9  17  31  58  90 122 152 196 257 305 369
#     4  11  21  35  62  92 125 161 213 262 314 369
#     4  12  25  40  59  83 117 165 215 273 319 360
#
# _framework density 23.233274999999999
#
# number of rings (size 3 to 8) (size 9 to 14) (size 15 to 20)
#    0.000    1.714    1.429    3.429    4.000    1.714 
#    0.000    0.000    0.000    0.000    0.000   46.000 
#    0.000    0.000    0.000    0.000    0.000    0.000 
#
# Total GULP energy -346872.515925 kJ/mol
# GULP energy per Si atom -12388.304140 kJ/mol
# Density = 2.318039 g / cm^3
# Si number density = 23.233275 Si / 1000 Ang^3
#
#
#
# Elastic Constant Matrix: (Units=GPa)
#
#
# Indices 1 2 3 4 5 6 
#
# 1 72.4581 41.9802 37.9128 0.0000 -19.9108 0.0000
# 2 41.9802 168.3654 54.8905 0.0000 -7.4010 0.0000
# 3 37.9128 54.8905 96.4294 0.0000 -10.9764 0.0000
# 4 0.0000 0.0000 0.0000 42.1340 0.0000 -11.7658
# 5 -19.9108 -7.4010 -10.9764 0.0000 42.2534 0.0000
# 6 0.0000 0.0000 0.0000 -11.7658 0.0000 13.2674
#
#
#
# Elastic Compliance Matrix: (Units=1/GPa)
#
#
# Indices 1 2 3 4 5 6 
#
# 1 0.020528 -0.002989 -0.005490 0.000000 0.007723 0.000000
# 2 -0.002989 0.007730 -0.003330 0.000000 -0.000919 0.000000
# 3 -0.005490 -0.003330 0.014492 0.000000 0.000594 0.000000
# 4 0.000000 0.000000 0.000000 0.031546 0.000000 0.027976
# 5 0.007723 -0.000919 0.000594 0.000000 0.027300 0.000000
# 6 0.000000 0.000000 0.000000 0.027976 0.000000 0.100182
#
#
# Mechanical properties :
#
#
# Convention : Reuss Voigt Hill
#
# Bulk Modulus (GPa) = 52.26885 67.42445 59.84665
# Shear Modulus (GPa) = 21.57289 33.02890 27.30090
#
# Velocity S-wave (km/s) = 3.05049 3.77453 3.43166
# Velocity P-wave (km/s) = 5.91216 6.93396 6.44334
#
# Compressibility (1/GPa) = 0.01913185
#
# Stress axis : x y z
#
# Youngs Moduli (GPa) = 48.71420 129.36933 69.00450
#
# Poissons Ratio (x) = 0.38668 0.37886
# Poissons Ratio (y) = 0.14560 0.22975
# Poissons Ratio (z) = 0.26746 0.43074
#
# Static dielectric constant tensor:
#      x y z
#    x 4.005580 0.000000 -0.334640 
#    y 0.000000 5.216850 0.000000 
#    z -0.334640 0.000000 4.632250 
# 
# 
# High freq. dielectric constant tensor:
#      x y z
#    x 1.871550 0.000000 -0.040880 
#    y 0.000000 1.946600 0.000000 
#    z -0.040880 0.000000 1.926740 
# 
# From -- ./inp_files/12210.got.cif
#   From: 2010.06.25/outbox.cif.g09.slc.cpg/sg15_7_cif.got.tgz:12210.got - 2010.06.28 07:06:18.
