data_PCOD8137282
_publ_section_title
;
Structure prediction by ZEFSAII (Michael W. Deem and Ramdas Pophale) SiO2 
 PCOD8137282
Probable space group: C 2/C
;
_chemical_formula_sum "Si O2"
_cell_formula_units_Z 48
_cell_length_a 17.835170
_cell_length_b 23.507551
_cell_length_c 13.102593
_cell_angle_alpha 90.000000
_cell_angle_beta 151.385819
_cell_angle_gamma 90.000000
_cell_volume 2630.843563
_symmetry_space_group_name_H-M "C 2/C"
_symmetry_group_IT_number 15
_symmetry_cell_setting 'monoclinic'
loop_
_space_group_symop_operation_xyz
x,y,z
-x,y,1/2-z
-x,-y,-z
x,-y,1/2+z
1/2+x,1/2+y,z
1/2-x,1/2+y,1/2-z
1/2-x,1/2-y,-z
1/2+x,1/2-y,1/2+z
loop_
_atom_site_type_symbol
_atom_site_label
_atom_site_fract_x
_atom_site_fract_y
_atom_site_fract_z
Si Si1 0.419372 0.982157 0.750129
Si Si2 0.094833 0.016979 0.772094
Si Si3 0.990343 0.078716 0.464433
Si Si4 0.113880 0.692277 0.977968
Si Si5 0.033211 0.807627 0.671742
Si Si6 0.364271 0.923554 0.891294
O O1 0.500000 0.950866 0.750000
O O2 0.257056 0.005863 0.511187
O O3 0.393951 0.935719 0.807692
O O4 0.522335 0.036016 0.907870
O O5 0.000000 0.047276 0.750000
O O6 0.112681 0.062322 0.700366
O O7 0.991173 0.963116 0.610057
O O8 0.029001 0.142363 0.475836
O O9 0.815519 0.065653 0.295985
O O10 0.000000 0.676559 0.750000
O O11 0.060430 0.750457 0.969390
O O12 0.283741 0.700535 0.130973
O O13 0.100299 0.642509 0.044966
O O14 0.000000 0.822916 0.750000
#
# Coordination Sequence:
#
# PCOD8137282 Si02
#       6
#     8   8   8   8   8   8
#     4  11  21  37  54  81 110 143 180 221 271 324
#     4  11  21  36  55  80 112 142 180 218 269 324
#     4  10  21  35  55  83 108 146 180 218 269 324
#     4  10  20  36  56  79 109 141 177 222 272 316
#     4  10  20  37  55  81 109 139 179 222 270 318
#     4  10  21  35  57  79 111 144 179 221 271 321
#
# _framework density 18.245097999999999
#
# number of rings (size 3 to 8) (size 9 to 14) (size 15 to 20)
#    0.000    1.667    3.333    3.000    2.333    0.000 
#    9.000    0.000    0.000    2.000    0.000    0.000 
#    0.000    0.000    0.000    0.000    0.000    0.000 
#
# Total GULP energy -297473.019000 kJ/mol
# GULP energy per Si atom -12394.709125 kJ/mol
# Density = 1.820357 g / cm^3
# Si number density = 18.245098 Si / 1000 Ang^3
#
#
#
# Elastic Constant Matrix: (Units=GPa)
#
#
# Indices 1 2 3 4 5 6 
#
# 1 117.1786 57.8167 39.6442 0.0000 -10.7815 0.0000
# 2 57.8167 128.9077 40.5564 0.0000 -12.2768 0.0000
# 3 39.6442 40.5564 85.5747 0.0000 -10.5116 0.0000
# 4 0.0000 0.0000 0.0000 19.5680 0.0000 1.9946
# 5 -10.7815 -12.2768 -10.5116 0.0000 28.5014 0.0000
# 6 0.0000 0.0000 0.0000 1.9946 0.0000 28.4509
#
#
#
# Elastic Compliance Matrix: (Units=1/GPa)
#
#
# Indices 1 2 3 4 5 6 
#
# 1 0.011832 -0.004112 -0.003352 0.000000 0.001468 0.000000
# 2 -0.004112 0.010712 -0.002928 0.000000 0.001978 0.000000
# 3 -0.003352 -0.002928 0.014995 0.000000 0.003001 0.000000
# 4 0.000000 0.000000 0.000000 0.051472 0.000000 -0.003608
# 5 0.001468 0.001978 0.003001 0.000000 0.037600 0.000000
# 6 0.000000 0.000000 0.000000 -0.003608 0.000000 0.035401
#
#
# Mechanical properties :
#
#
# Convention : Reuss Voigt Hill
#
# Bulk Modulus (GPa) = 59.69068 67.52174 63.60621
# Shear Modulus (GPa) = 26.54167 28.21362 27.37765
#
# Velocity S-wave (km/s) = 3.81823 3.93665 3.87789
# Velocity P-wave (km/s) = 7.22672 7.59944 7.41542
#
# Compressibility (1/GPa) = 0.01675303
#
# Stress axis : x y z
#
# Youngs Moduli (GPa) = 84.51438 93.35577 66.68818
#
# Poissons Ratio (x) = 0.38392 0.22355
# Poissons Ratio (y) = 0.34756 0.19529
# Poissons Ratio (z) = 0.28331 0.27338
#
# Static dielectric constant tensor:
#      x y z
#    x 3.573360 0.000000 0.038900 
#    y 0.000000 3.277640 0.000000 
#    z 0.038900 0.000000 3.415440 
# 
# 
# High freq. dielectric constant tensor:
#      x y z
#    x 1.717950 0.000000 0.005980 
#    y 0.000000 1.686700 0.000000 
#    z 0.005980 0.000000 1.704990 
# 
# From -- ./inp_files/108124.got.cif
#   From: 2010.06.25/outbox.cif.g09.slc.cpg/sg15_55_cif.got.tgz:108124.got - 2010.06.28 07:06:18.
