data_PCOD8137409
_publ_section_title
;
Structure prediction by ZEFSAII (Michael W. Deem and Ramdas Pophale) SiO2 
 PCOD8137409
Probable space group: C 2/C
;
_chemical_formula_sum "Si O2"
_cell_formula_units_Z 48
_cell_length_a 21.842145
_cell_length_b 13.148307
_cell_length_c 8.754367
_cell_angle_alpha 90.000000
_cell_angle_beta 62.762654
_cell_angle_gamma 90.000000
_cell_volume 2235.369866
_symmetry_space_group_name_H-M "C 2/C"
_symmetry_group_IT_number 15
_symmetry_cell_setting 'monoclinic'
loop_
_space_group_symop_operation_xyz
x,y,z
-x,y,1/2-z
-x,-y,-z
x,-y,1/2+z
1/2+x,1/2+y,z
1/2-x,1/2+y,1/2-z
1/2-x,1/2-y,-z
1/2+x,1/2-y,1/2+z
loop_
_atom_site_type_symbol
_atom_site_label
_atom_site_fract_x
_atom_site_fract_y
_atom_site_fract_z
Si Si1 0.709768 0.470036 0.144873
Si Si2 0.078492 0.279309 0.644833
Si Si3 0.156303 0.593798 0.543702
Si Si4 0.576611 0.961886 0.433050
Si Si5 0.189677 0.247049 0.780768
Si Si6 0.673467 0.365191 0.903577
O O1 0.712574 0.372658 0.259173
O O2 0.671660 0.567808 0.255768
O O3 0.783780 0.510190 0.001693
O O4 0.662318 0.440690 0.057947
O O5 0.079981 0.394505 0.583453
O O6 0.122948 0.263692 0.748314
O O7 0.110897 0.213539 0.469563
O O8 0.000000 0.242599 0.750000
O O9 0.118868 0.561838 0.428546
O O10 0.107694 0.595116 0.748725
O O11 0.178165 0.709592 0.468614
O O12 0.500000 0.000000 0.500000
O O13 0.254471 0.309149 0.640569
#
# Coordination Sequence:
#
# PCOD8137409 Si02
#       6
#     8   8   8   8   8   8
#     4  10  20  36  58  83 112 145 189 236 280 328
#     4  11  22  39  59  81 112 151 188 227 283 343
#     4  11  21  35  56  83 112 146 184 230 280 332
#     4  12  23  35  54  83 116 147 182 226 280 342
#     4  10  21  38  59  83 114 150 188 233 280 332
#     4  10  21  37  59  83 112 149 188 234 282 331
#
# _framework density 21.472957000000001
#
# number of rings (size 3 to 8) (size 9 to 14) (size 15 to 20)
#    0.000    1.333    0.000    9.500    0.000    1.333 
#    0.000    7.500    0.000    2.000    0.000    0.000 
#    0.000    0.000    0.000    0.000    0.000    0.000 
#
# Total GULP energy -297357.650991 kJ/mol
# GULP energy per Si atom -12389.902125 kJ/mol
# Density = 2.142408 g / cm^3
# Si number density = 21.472957 Si / 1000 Ang^3
#
#
#
# Elastic Constant Matrix: (Units=GPa)
#
#
# Indices 1 2 3 4 5 6 
#
# 1 80.2946 26.5676 20.6664 0.0000 -20.4426 0.0000
# 2 26.5676 71.3212 14.4578 0.0000 -15.2970 0.0000
# 3 20.6664 14.4578 86.1517 0.0000 -22.1291 0.0000
# 4 0.0000 0.0000 0.0000 41.9093 0.0000 0.3462
# 5 -20.4426 -15.2970 -22.1291 0.0000 25.6798 0.0000
# 6 0.0000 0.0000 0.0000 0.3462 0.0000 24.7322
#
#
#
# Elastic Compliance Matrix: (Units=1/GPa)
#
#
# Indices 1 2 3 4 5 6 
#
# 1 0.016507 -0.003805 -0.000678 0.000000 0.010290 0.000000
# 2 -0.003805 0.016958 -0.000150 0.000000 0.006944 0.000000
# 3 -0.000678 -0.000150 0.014941 0.000000 0.012246 0.000000
# 4 0.000000 0.000000 0.000000 0.023864 0.000000 -0.000334
# 5 0.010290 0.006944 0.012246 0.000000 0.061822 0.000000
# 6 0.000000 0.000000 0.000000 -0.000334 0.000000 0.040438
#
#
# Mechanical properties :
#
#
# Convention : Reuss Voigt Hill
#
# Bulk Modulus (GPa) = 25.54846 40.12791 32.83818
# Shear Modulus (GPa) = 25.40120 30.20265 27.80193
#
# Velocity S-wave (km/s) = 3.44312 3.75446 3.60216
# Velocity P-wave (km/s) = 5.26598 6.12559 5.71198
#
# Compressibility (1/GPa) = 0.03914130
#
# Stress axis : x y z
#
# Youngs Moduli (GPa) = 60.57909 58.96927 66.93109
#
# Poissons Ratio (x) = 0.22435 0.04540
# Poissons Ratio (y) = 0.23048 0.01001
# Poissons Ratio (z) = 0.04109 0.00882
#
# Static dielectric constant tensor:
#      x y z
#    x 3.689980 0.000000 -0.207960 
#    y 0.000000 4.138210 0.000000 
#    z -0.207960 0.000000 3.885340 
# 
# 
# High freq. dielectric constant tensor:
#      x y z
#    x 1.818790 0.000000 -0.001540 
#    y 0.000000 1.850340 0.000000 
#    z -0.001540 0.000000 1.845630 
# 
# From -- ./inp_files/55234.got.cif
#   From: 2010.06.25/outbox.cif.g09.slc.cpg/sg15_28_cif.got.tgz:55234.got - 2010.06.28 07:06:18.
