data_PCOD8137357
_publ_section_title
;
Structure prediction by ZEFSAII (Michael W. Deem and Ramdas Pophale) SiO2 
 PCOD8137357
Probable space group: C 2/C
;
_chemical_formula_sum "Si O2"
_cell_formula_units_Z 64
_cell_length_a 8.559858
_cell_length_b 17.648859
_cell_length_c 23.378138
_cell_angle_alpha 90.000000
_cell_angle_beta 109.861416
_cell_angle_gamma 90.000000
_cell_volume 3321.695531
_symmetry_space_group_name_H-M "C 2/C"
_symmetry_group_IT_number 15
_symmetry_cell_setting 'monoclinic'
loop_
_space_group_symop_operation_xyz
x,y,z
-x,y,1/2-z
-x,-y,-z
x,-y,1/2+z
1/2+x,1/2+y,z
1/2-x,1/2+y,1/2-z
1/2-x,1/2-y,-z
1/2+x,1/2-y,1/2+z
loop_
_atom_site_type_symbol
_atom_site_label
_atom_site_fract_x
_atom_site_fract_y
_atom_site_fract_z
Si Si1 0.501371 0.748368 0.817425
Si Si2 0.811664 0.656356 0.890003
Si Si3 0.496990 0.072622 0.818029
Si Si4 0.439049 0.089809 0.177673
Si Si5 0.106089 0.236160 0.437662
Si Si6 0.705622 0.329190 0.122992
Si Si7 0.592911 0.576795 0.951284
Si Si8 0.085724 0.079381 0.080755
O O1 0.500000 0.747689 0.750000
O O2 0.674945 0.718410 0.861034
O O3 0.489420 0.833682 0.841932
O O4 0.350607 0.697010 0.820895
O O5 0.854076 0.617509 0.834051
O O6 0.747583 0.595830 0.928916
O O7 0.965785 0.701943 0.935403
O O8 0.500000 0.083778 0.750000
O O9 0.678495 0.097812 0.860664
O O10 0.478362 0.986020 0.837127
O O11 0.500000 0.092717 0.250000
O O12 0.238306 0.086285 0.144426
O O13 0.250000 0.250000 0.500000
O O14 0.192865 0.257399 0.388450
O O15 0.036605 0.151077 0.426464
O O16 0.544350 0.355689 0.067093
O O17 0.519283 0.496830 0.920178
O O18 0.656307 0.573916 0.024580
#
# Coordination Sequence:
#
# PCOD8137357 Si02
#       8
#     8   8   8   8   8   8   8   8
#     4  10  20  36  58  84 116 150 194 241 293 344
#     4  10  22  37  58  90 116 147 202 241 280 355
#     4  10  20  37  60  81 117 155 192 235 288 342
#     4  10  21  37  60  84 116 154 197 233 293 349
#     4  11  22  37  58  85 117 150 191 239 290 344
#     4  10  20  36  57  85 115 149 196 237 287 352
#     4  10  22  37  61  87 116 154 195 238 297 347
#     4  11  21  40  61  83 120 159 187 244 299 342
#
# _framework density 19.267268999999999
#
# number of rings (size 3 to 8) (size 9 to 14) (size 15 to 20)
#    0.000    1.750    3.750    0.750    0.000    2.500 
#    0.000    1.250    0.000    3.000    0.000    0.000 
#    0.000    0.000    0.000    0.000    0.000    0.000 
#
# Total GULP energy -396521.795921 kJ/mol
# GULP energy per Si atom -12391.306123 kJ/mol
# Density = 1.922342 g / cm^3
# Si number density = 19.267269 Si / 1000 Ang^3
#
#
#
# Elastic Constant Matrix: (Units=GPa)
#
#
# Indices 1 2 3 4 5 6 
#
# 1 95.6858 42.5340 44.7438 0.0000 -7.9424 0.0000
# 2 42.5340 128.3073 32.3664 0.0000 -8.0562 0.0000
# 3 44.7438 32.3664 93.8287 0.0000 7.6883 0.0000
# 4 0.0000 0.0000 0.0000 24.4716 0.0000 9.1042
# 5 -7.9424 -8.0562 7.6883 0.0000 31.5596 0.0000
# 6 0.0000 0.0000 0.0000 9.1042 0.0000 -19.0081
#
#
#
# Elastic Compliance Matrix: (Units=1/GPa)
#
#
# Indices 1 2 3 4 5 6 
#
# 1 0.015315 -0.003116 -0.006611 0.000000 0.004669 0.000000
# 2 -0.003116 0.009450 -0.001946 0.000000 0.002102 0.000000
# 3 -0.006611 -0.001946 0.014957 0.000000 -0.005804 0.000000
# 4 0.000000 0.000000 0.000000 0.034683 0.000000 0.016612
# 5 0.004669 0.002102 -0.005804 0.000000 0.034812 0.000000
# 6 0.000000 0.000000 0.000000 0.016612 0.000000 -0.044653
#
#
# Mechanical properties :
#
#
# Convention : Reuss Voigt Hill
#
# Bulk Modulus (GPa) = 61.06572 61.90113 61.48343
# Shear Modulus (GPa) = 53.55112 20.61646 37.08379
#
# Velocity S-wave (km/s) = 5.27770 3.27467 4.39190
# Velocity P-wave (km/s) = 8.30071 6.81875 7.59595
#
# Compressibility (1/GPa) = 0.01637580
#
# Stress axis : x y z
#
# Youngs Moduli (GPa) = 65.29581 105.82407 66.85798
#
# Poissons Ratio (x) = 0.32976 0.44199
# Poissons Ratio (y) = 0.20347 0.13010
# Poissons Ratio (z) = 0.43166 0.20593
#
# Static dielectric constant tensor:
#      x y z
#    x 3.630980 0.000000 -0.135110 
#    y 0.000000 4.045530 0.000000 
#    z -0.135110 0.000000 3.664100 
# 
# 
# High freq. dielectric constant tensor:
#      x y z
#    x 1.737790 0.000000 0.010260 
#    y 0.000000 1.768040 0.000000 
#    z 0.010260 0.000000 1.744190 
# 
# From -- ./inp_files/288812.got.cif
#   From: 2010.06.25/outbox.cif.g09.slc.cpg/sg15_145_cif.got.tgz:288812.got - 2010.06.28 07:06:18.
