data_PCOD8137067
_publ_section_title
;
Structure prediction by ZEFSAII (Michael W. Deem and Ramdas Pophale) SiO2 
 PCOD8137067
Probable space group: C 2/C
;
_chemical_formula_sum "Si O2"
_cell_formula_units_Z 44
_cell_length_a 11.329114
_cell_length_b 35.668817
_cell_length_c 5.157240
_cell_angle_alpha 90.000000
_cell_angle_beta 90.064224
_cell_angle_gamma 90.000000
_cell_volume 2084.019231
_symmetry_space_group_name_H-M "C 2/C"
_symmetry_group_IT_number 15
_symmetry_cell_setting 'monoclinic'
loop_
_space_group_symop_operation_xyz
x,y,z
-x,y,1/2-z
-x,-y,-z
x,-y,1/2+z
1/2+x,1/2+y,z
1/2-x,1/2+y,1/2-z
1/2-x,1/2-y,-z
1/2+x,1/2-y,1/2+z
loop_
_atom_site_type_symbol
_atom_site_label
_atom_site_fract_x
_atom_site_fract_y
_atom_site_fract_z
Si Si1 0.260562 0.724675 0.750173
Si Si2 0.260597 0.107553 0.231346
Si Si3 0.861412 0.352423 0.231603
Si Si4 0.500000 0.318326 0.250000
Si Si5 0.000000 0.868725 0.750000
Si Si6 0.741733 0.025584 0.246779
Si Si7 0.500000 0.475939 0.750000
O O1 0.250000 0.750000 0.500000
O O2 0.162485 0.691945 0.746300
O O3 0.388645 0.707751 0.754477
O O4 0.250000 0.750000 0.000000
O O5 0.313773 0.133264 0.456392
O O6 0.117546 0.105790 0.254964
O O7 0.323570 0.065922 0.249244
O O8 0.293395 0.125323 0.955889
O O9 0.000000 0.359888 0.250000
O O10 0.502593 0.343557 0.499819
O O11 0.873608 0.044049 0.250381
O O12 0.712533 0.999316 0.493602
O O13 0.500000 0.500000 0.500000
#
# Coordination Sequence:
#
# PCOD8137067 Si02
#       7
#     8   8   8   4   4   8   4
#     4  12  26  44  68  99 131 175 217 272 329 382
#     4  12  23  43  69  97 133 177 220 272 335 397
#     4  12  27  47  67  96 132 177 227 268 328 398
#     4  12  24  44  65  99 144 168 226 276 322 401
#     4  12  21  42  66 101 136 176 216 272 334 399
#     4  10  20  35  59  92 128 165 212 270 327 390
#     4   8  15  28  47  82 126 158 192 244 320 388
#
# _framework density 21.113050000000001
#
# number of rings (size 3 to 8) (size 9 to 14) (size 15 to 20)
#    0.000    0.727    3.636    4.364    2.545    0.000 
#    0.000    5.455    0.000   10.909    0.000    0.000 
#    0.000    0.000    0.000    0.000    0.000    0.000 
#
# Total GULP energy -272573.990920 kJ/mol
# GULP energy per Si atom -12389.726860 kJ/mol
# Density = 2.106500 g / cm^3
# Si number density = 21.113050 Si / 1000 Ang^3
#
#
#
# Elastic Constant Matrix: (Units=GPa)
#
#
# Indices 1 2 3 4 5 6 
#
# 1 95.0141 17.0265 10.6027 0.0000 3.5298 0.0000
# 2 17.0265 166.4343 64.7729 0.0000 -7.5880 0.0000
# 3 10.6027 64.7729 155.8066 0.0000 -9.3269 0.0000
# 4 0.0000 0.0000 0.0000 22.3098 0.0000 -1.7575
# 5 3.5298 -7.5880 -9.3269 0.0000 30.2377 0.0000
# 6 0.0000 0.0000 0.0000 -1.7575 0.0000 9.7104
#
#
#
# Elastic Compliance Matrix: (Units=1/GPa)
#
#
# Indices 1 2 3 4 5 6 
#
# 1 0.010815 -0.001022 -0.000410 0.000000 -0.001645 0.000000
# 2 -0.001022 0.007289 -0.002897 0.000000 0.001055 0.000000
# 3 -0.000410 -0.002897 0.007753 0.000000 0.001712 0.000000
# 4 0.000000 0.000000 0.000000 0.045472 0.000000 0.008230
# 5 -0.001645 0.001055 0.001712 0.000000 0.034056 0.000000
# 6 0.000000 0.000000 0.000000 0.008230 0.000000 0.104472
#
#
# Mechanical properties :
#
#
# Convention : Reuss Voigt Hill
#
# Bulk Modulus (GPa) = 58.14439 66.89545 62.51992
# Shear Modulus (GPa) = 22.29683 34.10844 28.20263
#
# Velocity S-wave (km/s) = 3.25325 4.02371 3.65881
# Velocity P-wave (km/s) = 6.45839 7.30343 6.89387
#
# Compressibility (1/GPa) = 0.01719856
#
# Stress axis : x y z
#
# Youngs Moduli (GPa) = 92.46657 137.20030 128.98065
#
# Poissons Ratio (x) = 0.14022 0.05283
# Poissons Ratio (y) = 0.09450 0.37371
# Poissons Ratio (z) = 0.03787 0.39752
#
# Static dielectric constant tensor:
#      x y z
#    x 4.151960 0.000000 -0.051950 
#    y 0.000000 3.944360 0.000000 
#    z -0.051950 0.000000 3.957310 
# 
# 
# High freq. dielectric constant tensor:
#      x y z
#    x 1.818590 0.000000 -0.003490 
#    y 0.000000 1.846590 0.000000 
#    z -0.003490 0.000000 1.848100 
# 
# From -- ./inp_files/5897.got.cif
#   From: 2010.06.25/outbox.cif.g09.slc.cpg/sg15_3_cif.got.tgz:5897.got - 2010.06.28 07:06:18.
