data_PCOD8137874
_publ_section_title
;
Structure prediction by ZEFSAII (Michael W. Deem and Ramdas Pophale) SiO2 
 PCOD8137874
Probable space group: C 2/C
;
_chemical_formula_sum "Si O2"
_cell_formula_units_Z 44
_cell_length_a 16.753756
_cell_length_b 7.978097
_cell_length_c 26.354132
_cell_angle_alpha 90.000000
_cell_angle_beta 33.147206
_cell_angle_gamma 90.000000
_cell_volume 1926.115584
_symmetry_space_group_name_H-M "C 2/C"
_symmetry_group_IT_number 15
_symmetry_cell_setting 'monoclinic'
loop_
_space_group_symop_operation_xyz
x,y,z
-x,y,1/2-z
-x,-y,-z
x,-y,1/2+z
1/2+x,1/2+y,z
1/2-x,1/2+y,1/2-z
1/2-x,1/2-y,-z
1/2+x,1/2-y,1/2+z
loop_
_atom_site_type_symbol
_atom_site_label
_atom_site_fract_x
_atom_site_fract_y
_atom_site_fract_z
Si Si1 0.500000 0.620490 0.250000
Si Si2 0.177146 0.904151 0.512037
Si Si3 0.325365 0.047647 0.344512
Si Si4 0.100182 0.752790 0.800402
Si Si5 0.635363 0.117226 0.283124
Si Si6 0.370556 0.658821 0.887153
O O1 0.415146 0.736479 0.253291
O O2 0.603573 0.504076 0.161481
O O3 0.250000 0.750000 0.500000
O O4 0.237752 0.902911 0.422015
O O5 0.003624 0.877708 0.611935
O O6 0.220543 0.083234 0.516327
O O7 0.500000 0.017849 0.250000
O O8 0.266144 0.069481 0.319031
O O9 0.283001 0.215564 0.397985
O O10 0.265072 0.806123 0.725829
O O11 0.065010 0.561715 0.837129
O O12 0.518400 0.255983 0.329251
#
# Coordination Sequence:
#
# PCOD8137874 Si02
#       6
#     4   8   8   8   8   8
#     4  10  20  36  64  96 122 168 218 258 324 396
#     4  11  23  38  63  99 134 167 222 270 318 393
#     4  10  21  38  65  92 127 177 218 269 332 384
#     4  11  25  39  66  96 132 173 220 268 330 382
#     4  11  23  43  68  96 133 176 217 271 326 394
#     4  10  20  39  68  93 129 169 216 263 326 387
#
# _framework density 22.843904999999999
#
# number of rings (size 3 to 8) (size 9 to 14) (size 15 to 20)
#    0.000    1.455    2.727    4.909    8.909    0.727 
#    0.000    0.000    0.000    3.273    0.000    0.000 
#    0.000    0.000    0.000    0.000    0.000    0.000 
#
# Total GULP energy -272599.968479 kJ/mol
# GULP energy per Si atom -12390.907658 kJ/mol
# Density = 2.279191 g / cm^3
# Si number density = 22.843905 Si / 1000 Ang^3
#
#
#
# Elastic Constant Matrix: (Units=GPa)
#
#
# Indices 1 2 3 4 5 6 
#
# 1 123.0008 32.6056 24.7491 0.0084 7.3098 0.0519
# 2 32.6056 104.1586 11.5699 0.0067 -0.5081 0.0176
# 3 24.7491 11.5699 71.0815 -0.0020 27.6694 -0.0154
# 4 0.0084 0.0067 -0.0020 24.6582 -0.0039 0.9463
# 5 7.3098 -0.5081 27.6694 -0.0039 31.6186 -0.0110
# 6 0.0519 0.0176 -0.0154 0.9463 -0.0110 35.7347
#
#
#
# Elastic Compliance Matrix: (Units=1/GPa)
#
#
# Indices 1 2 3 4 5 6 
#
# 1 0.009402 -0.002606 -0.003014 -0.000002 0.000422 -0.000013
# 2 -0.002606 0.010617 -0.001701 -0.000002 0.002262 -0.000001
# 3 -0.003014 -0.001701 0.022953 0.000000 -0.019416 0.000009
# 4 -0.000002 -0.000002 0.000000 0.040596 0.000005 -0.001075
# 5 0.000422 0.002262 -0.019416 0.000005 0.048557 0.000005
# 6 -0.000013 -0.000001 0.000009 -0.001075 0.000005 0.028013
#
#
# Mechanical properties :
#
#
# Convention : Reuss Voigt Hill
#
# Bulk Modulus (GPa) = 35.29875 48.45447 41.87661
# Shear Modulus (GPa) = 27.14119 33.69004 30.41561
#
# Velocity S-wave (km/s) = 3.45064 3.84447 3.65287
# Velocity P-wave (km/s) = 5.60014 6.40029 6.01354
#
# Compressibility (1/GPa) = 0.02832961
#
# Stress axis : x y z
#
# Youngs Moduli (GPa) = 106.35736 94.19174 43.56818
#
# Poissons Ratio (x) = 0.24551 0.13129
# Poissons Ratio (y) = 0.27722 0.07411
# Poissons Ratio (z) = 0.32051 0.16021
#
# Static dielectric constant tensor:
#      x y z
#    x 4.159440 -0.000110 0.448890 
#    y -0.000110 4.624100 -0.000070 
#    z 0.448890 -0.000070 4.644470 
# 
# 
# High freq. dielectric constant tensor:
#      x y z
#    x 1.878630 0.000000 0.032910 
#    y 0.000000 1.938560 0.000000 
#    z 0.032910 0.000000 1.878940 
# 
# From -- ./inp_files/315476.got.cif
#   From: 2010.06.25/outbox.cif.g09.slc.cpg/sg15_158_cif.got.tgz:315476.got - 2010.06.28 07:06:18.
