data_PCOD8137860
_publ_section_title
;
Structure prediction by ZEFSAII (Michael W. Deem and Ramdas Pophale) SiO2 
 PCOD8137860
Probable space group: C 2/C
;
_chemical_formula_sum "Si O2"
_cell_formula_units_Z 52
_cell_length_a 15.512553
_cell_length_b 14.189581
_cell_length_c 12.868843
_cell_angle_alpha 90.000000
_cell_angle_beta 66.529257
_cell_angle_gamma 90.000000
_cell_volume 2598.283270
_symmetry_space_group_name_H-M "C 2/C"
_symmetry_group_IT_number 15
_symmetry_cell_setting 'monoclinic'
loop_
_space_group_symop_operation_xyz
x,y,z
-x,y,1/2-z
-x,-y,-z
x,-y,1/2+z
1/2+x,1/2+y,z
1/2-x,1/2+y,1/2-z
1/2-x,1/2-y,-z
1/2+x,1/2-y,1/2+z
loop_
_atom_site_type_symbol
_atom_site_label
_atom_site_fract_x
_atom_site_fract_y
_atom_site_fract_z
Si Si1 0.724501 0.289673 0.856478
Si Si2 0.500000 0.938964 0.750000
Si Si3 0.589213 0.021843 0.523335
Si Si4 0.985932 0.157708 0.020788
Si Si5 0.243296 0.100385 0.547019
Si Si6 0.060494 0.001399 0.121220
Si Si7 0.112326 0.680891 0.368353
O O1 0.610360 0.288337 0.895792
O O2 0.771495 0.195664 0.881510
O O3 0.780782 0.301773 0.721564
O O4 0.749128 0.375673 0.921717
O O5 0.444765 0.873582 0.694671
O O6 0.569319 0.010947 0.655884
O O7 0.624084 0.124741 0.471569
O O8 0.500000 0.000000 0.500000
O O9 0.661312 0.941688 0.455573
O O10 0.040017 0.108269 0.091671
O O11 0.055909 0.225434 0.924935
O O12 0.959975 0.074990 0.956094
O O13 0.167685 0.017529 0.603401
O O14 0.000000 0.978981 0.250000
#
# Coordination Sequence:
#
# PCOD8137860 Si02
#       7
#     8   4   8   8   8   8   8
#     4  10  20  36  64  91 120 155 209 262 294 365
#     4  10  20  38  60  88 122 156 208 258 306 354
#     4  10  21  37  58  91 123 156 201 260 308 361
#     4  10  23  40  59  98 122 159 209 254 310 373
#     4  10  20  37  62  92 115 160 210 248 304 369
#     4  10  22  40  64  85 130 161 197 256 316 369
#     4  11  22  37  63  88 122 162 204 257 303 373
#
# _framework density 20.013214999999999
#
# number of rings (size 3 to 8) (size 9 to 14) (size 15 to 20)
#    0.000    1.846    1.538    2.769    7.538    0.000 
#    4.154    2.308    0.000    0.000    0.000    0.000 
#    0.000    0.000    0.000    0.000    0.000    0.000 
#
# Total GULP energy -322147.206303 kJ/mol
# GULP energy per Si atom -12390.277166 kJ/mol
# Density = 1.996766 g / cm^3
# Si number density = 20.013215 Si / 1000 Ang^3
#
#
#
# Elastic Constant Matrix: (Units=GPa)
#
#
# Indices 1 2 3 4 5 6 
#
# 1 95.4410 43.7324 47.1757 0.0000 -22.3840 0.0000
# 2 43.7324 75.8834 46.7132 0.0000 -9.5823 0.0000
# 3 47.1757 46.7132 117.7256 0.0000 -34.1426 0.0000
# 4 0.0000 0.0000 0.0000 25.8110 0.0000 -11.9362
# 5 -22.3840 -9.5823 -34.1426 0.0000 27.3395 0.0000
# 6 0.0000 0.0000 0.0000 -11.9362 0.0000 22.8931
#
#
#
# Elastic Compliance Matrix: (Units=1/GPa)
#
#
# Indices 1 2 3 4 5 6 
#
# 1 0.016867 -0.008066 -0.000585 0.000000 0.010252 0.000000
# 2 -0.008066 0.021573 -0.007918 0.000000 -0.008931 0.000000
# 3 -0.000585 -0.007918 0.017132 0.000000 0.018140 0.000000
# 4 0.000000 0.000000 0.000000 0.051053 0.000000 0.026618
# 5 0.010252 -0.008931 0.018140 0.000000 0.064495 0.000000
# 6 0.000000 0.000000 0.000000 0.026618 0.000000 0.057560
#
#
# Mechanical properties :
#
#
# Convention : Reuss Voigt Hill
#
# Bulk Modulus (GPa) = 44.57633 62.69917 53.63775
# Shear Modulus (GPa) = 18.56692 25.30397 21.93545
#
# Velocity S-wave (km/s) = 3.04918 3.55965 3.31425
# Velocity P-wave (km/s) = 5.89223 6.94922 6.44244
#
# Compressibility (1/GPa) = 0.02243343
#
# Stress axis : x y z
#
# Youngs Moduli (GPa) = 59.28617 46.35398 58.37075
#
# Poissons Ratio (x) = 0.37389 0.03417
# Poissons Ratio (y) = 0.47819 0.46219
# Poissons Ratio (z) = 0.03471 0.36704
#
# Static dielectric constant tensor:
#      x y z
#    x 3.798640 0.000000 -0.066020 
#    y 0.000000 4.006090 0.000000 
#    z -0.066020 0.000000 4.205620 
# 
# 
# High freq. dielectric constant tensor:
#      x y z
#    x 1.769930 0.000000 -0.018880 
#    y 0.000000 1.771360 0.000000 
#    z -0.018880 0.000000 1.784040 
# 
# From -- ./inp_files/160760.got.cif
#   From: 2010.06.25/outbox.cif.g09.slc.cpg/sg15_81_cif.got.tgz:160760.got - 2010.06.28 07:06:18.
