data_PCOD8137780
_publ_section_title
;
Structure prediction by ZEFSAII (Michael W. Deem and Ramdas Pophale) SiO2 
 PCOD8137780
Probable space group: C 2/C
;
_chemical_formula_sum "Si O2"
_cell_formula_units_Z 64
_cell_length_a 14.164664
_cell_length_b 16.180702
_cell_length_c 24.867898
_cell_angle_alpha 90.000000
_cell_angle_beta 29.946740
_cell_angle_gamma 90.000000
_cell_volume 2845.199551
_symmetry_space_group_name_H-M "C 2/C"
_symmetry_group_IT_number 15
_symmetry_cell_setting 'monoclinic'
loop_
_space_group_symop_operation_xyz
x,y,z
-x,y,1/2-z
-x,-y,-z
x,-y,1/2+z
1/2+x,1/2+y,z
1/2-x,1/2+y,1/2-z
1/2-x,1/2-y,-z
1/2+x,1/2-y,1/2+z
loop_
_atom_site_type_symbol
_atom_site_label
_atom_site_fract_x
_atom_site_fract_y
_atom_site_fract_z
Si Si1 0.167167 0.064859 0.420468
Si Si2 0.214149 0.511429 0.532360
Si Si3 0.253920 0.815216 0.272285
Si Si4 0.519398 0.262919 0.479752
Si Si5 0.812030 0.694543 0.921284
Si Si6 0.184374 0.173665 0.688222
Si Si7 0.470246 0.504774 0.207641
Si Si8 0.205066 0.502353 0.250622
O O1 0.105044 0.158140 0.443922
O O2 0.263825 0.054911 0.430818
O O3 0.307110 0.047396 0.300934
O O4 0.000000 0.000000 0.500000
O O5 0.264027 0.601715 0.531369
O O6 0.332151 0.488484 0.420657
O O7 0.996882 0.509004 0.621824
O O8 0.093850 0.762811 0.382089
O O9 0.461193 0.802202 0.195748
O O10 0.234321 0.784119 0.220722
O O11 0.199847 0.912053 0.305232
O O12 0.712265 0.264849 0.419098
O O13 0.378120 0.184959 0.557930
O O14 0.750000 0.750000 0.000000
O O15 0.139017 0.077837 0.719780
O O16 0.000000 0.214823 0.750000
O O17 0.500000 0.554436 0.250000
O O18 0.336256 0.550978 0.229858
#
# Coordination Sequence:
#
# PCOD8137780 Si02
#       8
#     8   8   8   8   8   8   8   8
#     4  12  19  36  62  97 130 154 202 269 325 389
#     4  11  22  38  67  95 125 166 207 266 326 381
#     4  10  20  38  62  88 121 163 206 255 325 387
#     4  12  22  37  64  93 128 169 205 262 328 380
#     4  11  21  38  65  95 130 158 200 263 332 393
#     4  10  23  41  60  85 122 172 218 259 309 375
#     4  10  21  42  63  83 122 171 219 260 302 373
#     4  10  20  36  62  94 119 158 207 260 325 381
#
# _framework density 22.494029000000001
#
# number of rings (size 3 to 8) (size 9 to 14) (size 15 to 20)
#    0.000    1.250    5.000    1.500    0.000    4.000 
#    0.000    3.750    0.000    0.000    0.000    0.000 
#    0.000    0.000    0.000    0.000    0.000    0.000 
#
# Total GULP energy -396599.381676 kJ/mol
# GULP energy per Si atom -12393.730677 kJ/mol
# Density = 2.244283 g / cm^3
# Si number density = 22.494029 Si / 1000 Ang^3
#
#
#
# Elastic Constant Matrix: (Units=GPa)
#
#
# Indices 1 2 3 4 5 6 
#
# 1 132.5721 -7.7296 41.0951 -0.0036 8.5611 -0.0096
# 2 -7.7296 29.9450 17.8824 -0.0043 -2.4514 -0.0036
# 3 41.0951 17.8824 126.2754 -0.0035 9.0226 -0.0409
# 4 -0.0036 -0.0043 -0.0035 34.8848 -0.0043 1.2890
# 5 8.5611 -2.4514 9.0226 -0.0043 39.5340 0.0215
# 6 -0.0096 -0.0036 -0.0409 1.2890 0.0215 11.4866
#
#
#
# Elastic Compliance Matrix: (Units=1/GPa)
#
#
# Indices 1 2 3 4 5 6 
#
# 1 0.008918 0.004289 -0.003447 0.000001 -0.000879 -0.000002
# 2 0.004289 0.039024 -0.007145 0.000005 0.003122 -0.000016
# 3 -0.003447 -0.007145 0.010197 -0.000002 -0.002024 0.000035
# 4 0.000001 0.000005 -0.000002 0.028785 0.000005 -0.003230
# 5 -0.000879 0.003122 -0.002024 0.000005 0.026140 -0.000056
# 6 -0.000002 -0.000016 0.000035 -0.003230 -0.000056 0.087420
#
#
# Mechanical properties :
#
#
# Convention : Reuss Voigt Hill
#
# Bulk Modulus (GPa) = 21.96219 43.47649 32.71934
# Shear Modulus (GPa) = 21.90386 33.01740 27.46063
#
# Velocity S-wave (km/s) = 3.12390 3.83538 3.49778
# Velocity P-wave (km/s) = 4.77456 6.24368 5.55788
#
# Compressibility (1/GPa) = 0.04553279
#
# Stress axis : x y z
#
# Youngs Moduli (GPa) = 112.12860 25.62528 98.06388
#
# Poissons Ratio (x) = -0.10989 0.33802
# Poissons Ratio (y) = -0.48087 0.70067
# Poissons Ratio (z) = 0.38650 0.18309
#
# Static dielectric constant tensor:
#      x y z
#    x 4.022910 0.000060 0.213410 
#    y 0.000060 3.630840 0.000030 
#    z 0.213410 0.000030 3.997580 
# 
# 
# High freq. dielectric constant tensor:
#      x y z
#    x 1.900990 0.000000 0.000070 
#    y 0.000000 1.839720 0.000000 
#    z 0.000070 0.000000 1.894980 
# 
# From -- ./inp_files/274817.got.cif
#   From: 2010.06.25/outbox.cif.g09.slc.cpg/sg15_138_cif.got.tgz:274817.got - 2010.06.28 07:06:18.
