data_PCOD8137356
_publ_section_title
;
Structure prediction by ZEFSAII (Michael W. Deem and Ramdas Pophale) SiO2 
 PCOD8137356
Probable space group: C 2/C
;
_chemical_formula_sum "Si O2"
_cell_formula_units_Z 48
_cell_length_a 11.315277
_cell_length_b 13.179686
_cell_length_c 17.862223
_cell_angle_alpha 90.000000
_cell_angle_beta 67.656534
_cell_angle_gamma 90.000000
_cell_volume 2463.829645
_symmetry_space_group_name_H-M "C 2/C"
_symmetry_group_IT_number 15
_symmetry_cell_setting 'monoclinic'
loop_
_space_group_symop_operation_xyz
x,y,z
-x,y,1/2-z
-x,-y,-z
x,-y,1/2+z
1/2+x,1/2+y,z
1/2-x,1/2+y,1/2-z
1/2-x,1/2-y,-z
1/2+x,1/2-y,1/2+z
loop_
_atom_site_type_symbol
_atom_site_label
_atom_site_fract_x
_atom_site_fract_y
_atom_site_fract_z
Si Si1 0.328912 0.396038 0.535371
Si Si2 0.373435 0.256148 0.385093
Si Si3 0.138820 0.859561 0.680698
Si Si4 0.852160 0.074234 0.776858
Si Si5 0.103105 0.888545 0.521677
Si Si6 0.349323 0.705529 0.647202
O O1 0.359193 0.310092 0.468010
O O2 0.198564 0.353242 0.605163
O O3 0.450052 0.408089 0.561909
O O4 0.313457 0.507489 0.503241
O O5 0.311753 0.330159 0.337636
O O6 0.526939 0.242303 0.342017
O O7 0.137144 0.838279 0.592172
O O8 0.230250 0.776019 0.693922
O O9 0.000000 0.845798 0.750000
O O10 0.208093 0.967633 0.682377
O O11 0.821633 0.099169 0.697218
O O12 0.000000 0.051705 0.750000
O O13 0.136332 0.814864 0.444607
#
# Coordination Sequence:
#
# PCOD8137356 Si02
#       6
#     8   8   8   8   8   8
#     4   9  18  31  61  86 106 146 188 224 270 330
#     4   9  17  35  56  84 110 141 189 229 269 321
#     4  11  23  38  57  82 113 151 185 225 284 336
#     4   9  19  35  56  81 108 144 190 227 267 328
#     4  10  20  36  57  85 115 144 187 231 274 333
#     4  10  22  37  57  83 113 146 184 236 280 324
#
# _framework density 19.481866
#
# number of rings (size 3 to 8) (size 9 to 14) (size 15 to 20)
#    0.000    2.333    1.667    0.500    9.333    0.000 
#    0.000    2.500    0.000    0.000    0.000    0.000 
#    0.000    0.000    0.000    0.000    0.000    0.000 
#
# Total GULP energy -297365.887663 kJ/mol
# GULP energy per Si atom -12390.245319 kJ/mol
# Density = 1.943752 g / cm^3
# Si number density = 19.481866 Si / 1000 Ang^3
#
#
#
# Elastic Constant Matrix: (Units=GPa)
#
#
# Indices 1 2 3 4 5 6 
#
# 1 72.6642 54.7693 32.8960 0.0000 -7.0186 0.0000
# 2 54.7693 92.5706 29.2366 0.0000 -9.1380 0.0000
# 3 32.8960 29.2366 81.3923 0.0000 14.3331 0.0000
# 4 0.0000 0.0000 0.0000 28.6356 0.0000 -8.6536
# 5 -7.0186 -9.1380 14.3331 0.0000 24.2387 0.0000
# 6 0.0000 0.0000 0.0000 -8.6536 0.0000 25.1378
#
#
#
# Elastic Compliance Matrix: (Units=1/GPa)
#
#
# Indices 1 2 3 4 5 6 
#
# 1 0.028242 -0.013417 -0.007975 0.000000 0.007835 0.000000
# 2 -0.013417 0.020135 -0.002749 0.000000 0.005331 0.000000
# 3 -0.007975 -0.002749 0.019072 0.000000 -0.014623 0.000000
# 4 0.000000 0.000000 0.000000 0.038976 0.000000 0.013417
# 5 0.007835 0.005331 -0.014623 0.000000 0.054182 0.000000
# 6 0.000000 0.000000 0.000000 0.013417 0.000000 0.044400
#
#
# Mechanical properties :
#
#
# Convention : Reuss Voigt Hill
#
# Bulk Modulus (GPa) = 52.17115 53.38121 52.77618
# Shear Modulus (GPa) = 19.25466 24.25077 21.75271
#
# Velocity S-wave (km/s) = 3.14719 3.53198 3.34512
# Velocity P-wave (km/s) = 6.32803 6.64027 6.48603
#
# Compressibility (1/GPa) = 0.01916768
#
# Stress axis : x y z
#
# Youngs Moduli (GPa) = 35.40832 49.66404 52.43368
#
# Poissons Ratio (x) = 0.66636 0.41814
# Poissons Ratio (y) = 0.47508 0.14413
# Poissons Ratio (z) = 0.28237 0.13651
#
# Static dielectric constant tensor:
#      x y z
#    x 3.542120 0.000000 -0.031210 
#    y 0.000000 3.553180 0.000000 
#    z -0.031210 0.000000 3.615580 
# 
# 
# High freq. dielectric constant tensor:
#      x y z
#    x 1.730950 0.000000 0.013490 
#    y 0.000000 1.745530 0.000000 
#    z 0.013490 0.000000 1.761870 
# 
# From -- ./inp_files/195997.got.cif
#   From: 2010.06.25/outbox.cif.g09.slc.cpg/sg15_98_cif.got.tgz:195997.got - 2010.06.28 07:06:18.
