data_PCOD8137183
_publ_section_title
;
Structure prediction by ZEFSAII (Michael W. Deem and Ramdas Pophale) SiO2 
 PCOD8137183
Probable space group: C 2/C
;
_chemical_formula_sum "Si O2"
_cell_formula_units_Z 48
_cell_length_a 25.949009
_cell_length_b 9.843957
_cell_length_c 19.004946
_cell_angle_alpha 90.000000
_cell_angle_beta 150.775624
_cell_angle_gamma 90.000000
_cell_volume 2370.186221
_symmetry_space_group_name_H-M "C 2/C"
_symmetry_group_IT_number 15
_symmetry_cell_setting 'monoclinic'
loop_
_space_group_symop_operation_xyz
x,y,z
-x,y,1/2-z
-x,-y,-z
x,-y,1/2+z
1/2+x,1/2+y,z
1/2-x,1/2+y,1/2-z
1/2-x,1/2-y,-z
1/2+x,1/2-y,1/2+z
loop_
_atom_site_type_symbol
_atom_site_label
_atom_site_fract_x
_atom_site_fract_y
_atom_site_fract_z
Si Si1 0.464710 0.266466 0.130711
Si Si2 0.258142 0.349564 0.672603
Si Si3 0.641107 0.922781 0.204839
Si Si4 0.918786 0.931856 0.349600
Si Si5 0.059259 0.497670 0.462071
Si Si6 0.239187 0.304306 0.809524
O O1 0.500000 0.309580 0.250000
O O2 0.518744 0.372150 0.142159
O O3 0.497183 0.109863 0.154164
O O4 0.337712 0.265243 0.975295
O O5 0.279761 0.194918 0.674135
O O6 0.339684 0.449214 0.730229
O O7 0.138754 0.398931 0.513779
O O8 0.278879 0.354087 0.780913
O O9 0.526879 0.900044 0.104551
O O10 0.684754 0.067164 0.282433
O O11 0.625193 0.918981 0.100881
O O12 0.847510 0.815101 0.301165
O O13 0.000000 0.000000 0.500000
#
# Coordination Sequence:
#
# PCOD8137183 Si02
#       6
#     8   8   8   8   8   8
#     4  12  25  42  63  93 134 178 216 256 318 397
#     4  11  21  34  64  96 125 156 210 281 321 369
#     4  10  20  35  63  93 125 156 210 269 329 366
#     4  12  23  39  66 100 128 159 223 274 318 368
#     4  10  20  38  57  90 129 161 210 261 327 371
#     4  11  21  39  62 100 126 167 210 267 322 381
#
# _framework density 20.251573
#
# number of rings (size 3 to 8) (size 9 to 14) (size 15 to 20)
#    0.000    1.000    6.667    1.000    4.667    0.667 
#    0.000    0.000    0.000    6.000    0.000    0.000 
#    0.000    0.000    0.000    0.000    0.000    0.000 
#
# Total GULP energy -297543.305133 kJ/mol
# GULP energy per Si atom -12397.637714 kJ/mol
# Density = 2.020548 g / cm^3
# Si number density = 20.251573 Si / 1000 Ang^3
#
#
#
# Elastic Constant Matrix: (Units=GPa)
#
#
# Indices 1 2 3 4 5 6 
#
# 1 82.0426 43.8695 52.2337 0.0000 10.8480 0.0000
# 2 43.8695 142.8847 37.2830 0.0000 17.6641 0.0000
# 3 52.2337 37.2830 79.7884 0.0000 9.6585 0.0000
# 4 0.0000 0.0000 0.0000 31.6711 0.0000 12.6749
# 5 10.8480 17.6641 9.6585 0.0000 31.9354 0.0000
# 6 0.0000 0.0000 0.0000 12.6749 0.0000 27.5696
#
#
#
# Elastic Compliance Matrix: (Units=1/GPa)
#
#
# Indices 1 2 3 4 5 6 
#
# 1 0.022412 -0.003278 -0.012911 0.000000 -0.001895 0.000000
# 2 -0.003278 0.008824 -0.001579 0.000000 -0.003290 0.000000
# 3 -0.012911 -0.001579 0.021888 0.000000 -0.001361 0.000000
# 4 0.000000 0.000000 0.000000 0.038694 0.000000 -0.017789
# 5 -0.001895 -0.003290 -0.001361 0.000000 0.034188 0.000000
# 6 0.000000 0.000000 0.000000 -0.017789 0.000000 0.044450
#
#
# Mechanical properties :
#
#
# Convention : Reuss Voigt Hill
#
# Bulk Modulus (GPa) = 56.85739 63.49867 60.17803
# Shear Modulus (GPa) = 23.60108 29.65718 26.62913
#
# Velocity S-wave (km/s) = 3.41749 3.83095 3.63011
# Velocity P-wave (km/s) = 6.61126 7.14082 6.88114
#
# Compressibility (1/GPa) = 0.01758786
#
# Stress axis : x y z
#
# Youngs Moduli (GPa) = 44.61853 113.33057 45.68726
#
# Poissons Ratio (x) = 0.37149 0.58987
# Poissons Ratio (y) = 0.14626 0.07214
# Poissons Ratio (z) = 0.57607 0.17894
#
# Static dielectric constant tensor:
#      x y z
#    x 3.519450 0.000000 0.477150 
#    y 0.000000 3.846020 0.000000 
#    z 0.477150 0.000000 3.446770 
# 
# 
# High freq. dielectric constant tensor:
#      x y z
#    x 1.769700 0.000000 0.051990 
#    y 0.000000 1.804610 0.000000 
#    z 0.051990 0.000000 1.756630 
# 
# From -- ./inp_files/258752.got.cif
#   From: 2010.06.25/outbox.cif.g09.slc.cpg/sg15_130_cif.got.tgz:258752.got - 2010.06.28 07:06:18.
