data_PCOD8137755
_publ_section_title
;
Structure prediction by ZEFSAII (Michael W. Deem and Ramdas Pophale) SiO2 
 PCOD8137755
Probable space group: C 2/C
;
_chemical_formula_sum "Si O2"
_cell_formula_units_Z 52
_cell_length_a 16.307392
_cell_length_b 18.984469
_cell_length_c 8.163558
_cell_angle_alpha 90.000000
_cell_angle_beta 78.678494
_cell_angle_gamma 90.000000
_cell_volume 2478.153616
_symmetry_space_group_name_H-M "C 2/C"
_symmetry_group_IT_number 15
_symmetry_cell_setting 'monoclinic'
loop_
_space_group_symop_operation_xyz
x,y,z
-x,y,1/2-z
-x,-y,-z
x,-y,1/2+z
1/2+x,1/2+y,z
1/2-x,1/2+y,1/2-z
1/2-x,1/2-y,-z
1/2+x,1/2-y,1/2+z
loop_
_atom_site_type_symbol
_atom_site_label
_atom_site_fract_x
_atom_site_fract_y
_atom_site_fract_z
Si Si1 0.634188 0.427016 0.408327
Si Si2 0.835062 0.078723 0.980237
Si Si3 0.500000 0.105702 0.250000
Si Si4 0.541941 0.185945 0.566603
Si Si5 0.199417 0.398174 0.034035
Si Si6 0.013491 0.827302 0.057054
Si Si7 0.670454 0.037344 0.203516
O O1 0.624367 0.507063 0.468783
O O2 0.668074 0.424267 0.212178
O O3 0.701316 0.381597 0.491698
O O4 0.543308 0.394349 0.460065
O O5 0.891131 0.146743 0.012451
O O6 0.740553 0.084913 0.083512
O O7 0.513172 0.150166 0.409759
O O8 0.579264 0.058119 0.175470
O O9 0.500000 0.156156 0.750000
O O10 0.641913 0.172078 0.553873
O O11 0.515491 0.267098 0.557494
O O12 0.180759 0.453055 0.188529
O O13 0.179132 0.447146 0.889626
O O14 0.000000 0.801815 0.250000
#
# Coordination Sequence:
#
# PCOD8137755 Si02
#       7
#     8   8   4   8   8   8   8
#     4  10  20  36  62  90 124 156 203 260 304 366
#     4  10  20  36  63  91 121 158 202 257 312 365
#     4  10  24  42  62  88 128 156 202 262 300 370
#     4  11  25  39  63  87 124 168 209 248 302 377
#     4  10  22  37  59  93 123 154 203 257 304 373
#     4  10  22  42  59  84 125 169 207 253 306 363
#     4  10  21  37  61  89 121 158 192 261 314 351
#
# _framework density 20.983364000000002
#
# number of rings (size 3 to 8) (size 9 to 14) (size 15 to 20)
#    0.000    1.846    0.769    4.154    5.385    4.308 
#    0.000    2.308    0.000    0.000    0.000    0.000 
#    0.000    0.000    0.000    0.000    0.000    0.000 
#
# Total GULP energy -322191.846453 kJ/mol
# GULP energy per Si atom -12391.994094 kJ/mol
# Density = 2.093561 g / cm^3
# Si number density = 20.983364 Si / 1000 Ang^3
#
#
#
# Elastic Constant Matrix: (Units=GPa)
#
#
# Indices 1 2 3 4 5 6 
#
# 1 123.5924 40.6417 30.2869 0.0000 -9.5978 0.0000
# 2 40.6417 69.0189 15.9445 0.0000 0.4666 0.0000
# 3 30.2869 15.9445 55.1414 0.0000 6.5620 0.0000
# 4 0.0000 0.0000 0.0000 17.1437 0.0000 4.5704
# 5 -9.5978 0.4666 6.5620 0.0000 29.1639 0.0000
# 6 0.0000 0.0000 0.0000 4.5704 0.0000 41.0370
#
#
#
# Elastic Compliance Matrix: (Units=1/GPa)
#
#
# Indices 1 2 3 4 5 6 
#
# 1 0.011673 -0.005664 -0.005386 0.000000 0.005144 0.000000
# 2 -0.005664 0.018292 -0.001974 0.000000 -0.001713 0.000000
# 3 -0.005386 -0.001974 0.022473 0.000000 -0.006797 0.000000
# 4 0.000000 0.000000 0.000000 0.060115 0.000000 -0.006695
# 5 0.005144 -0.001713 -0.006797 0.000000 0.037539 0.000000
# 6 0.000000 0.000000 0.000000 -0.006695 0.000000 0.025114
#
#
# Mechanical properties :
#
#
# Convention : Reuss Voigt Hill
#
# Bulk Modulus (GPa) = 37.89403 46.83323 42.36363
# Shear Modulus (GPa) = 23.80375 28.19423 25.99899
#
# Velocity S-wave (km/s) = 3.37176 3.66956 3.52380
# Velocity P-wave (km/s) = 5.76685 6.34995 6.06541
#
# Compressibility (1/GPa) = 0.02638938
#
# Stress axis : x y z
#
# Youngs Moduli (GPa) = 85.66787 54.66923 44.49752
#
# Poissons Ratio (x) = 0.30966 0.23965
# Poissons Ratio (y) = 0.48524 0.08785
# Poissons Ratio (z) = 0.46139 0.10793
#
# Static dielectric constant tensor:
#      x y z
#    x 4.182130 0.000000 0.134830 
#    y 0.000000 3.381550 0.000000 
#    z 0.134830 0.000000 3.878660 
# 
# 
# High freq. dielectric constant tensor:
#      x y z
#    x 1.837300 0.000000 0.013000 
#    y 0.000000 1.790180 0.000000 
#    z 0.013000 0.000000 1.829420 
# 
# From -- ./inp_files/40774.got.cif
#   From: 2010.06.25/outbox.cif.g09.slc.cpg/sg15_21_cif.got.tgz:40774.got - 2010.06.28 07:06:18.
