data_PCOD8137615
_publ_section_title
;
Structure prediction by ZEFSAII (Michael W. Deem and Ramdas Pophale) SiO2 
 PCOD8137615
Probable space group: C 2/C
;
_chemical_formula_sum "Si O2"
_cell_formula_units_Z 56
_cell_length_a 18.508260
_cell_length_b 17.410971
_cell_length_c 15.139443
_cell_angle_alpha 90.000000
_cell_angle_beta 142.562803
_cell_angle_gamma 90.000000
_cell_volume 2965.681573
_symmetry_space_group_name_H-M "C 2/C"
_symmetry_group_IT_number 15
_symmetry_cell_setting 'monoclinic'
loop_
_space_group_symop_operation_xyz
x,y,z
-x,y,1/2-z
-x,-y,-z
x,-y,1/2+z
1/2+x,1/2+y,z
1/2-x,1/2+y,1/2-z
1/2-x,1/2-y,-z
1/2+x,1/2-y,1/2+z
loop_
_atom_site_type_symbol
_atom_site_label
_atom_site_fract_x
_atom_site_fract_y
_atom_site_fract_z
Si Si1 0.505880 0.596252 0.659434
Si Si2 0.170530 0.599369 0.083317
Si Si3 0.772119 0.662608 0.547548
Si Si4 0.918928 0.664709 0.865318
Si Si5 0.736672 0.563640 0.780548
Si Si6 0.085849 0.065540 0.465073
Si Si7 0.101452 0.837962 0.613848
O O1 0.500000 0.636335 0.750000
O O2 0.641855 0.594919 0.758853
O O3 0.454154 0.510874 0.623199
O O4 0.423281 0.644077 0.512501
O O5 0.193007 0.509259 0.115067
O O6 0.260333 0.651735 0.228082
O O7 0.177513 0.617802 0.986946
O O8 0.040064 0.617740 0.992195
O O9 0.750000 0.750000 0.500000
O O10 0.868981 0.656346 0.718221
O O11 0.648447 0.623845 0.457959
O O12 0.827711 0.632430 0.849418
O O13 0.943729 0.752915 0.910644
O O14 0.671680 0.539104 0.627398
O O15 0.968793 0.104266 0.390977
#
# Coordination Sequence:
#
# PCOD8137615 Si02
#       7
#     8   8   8   8   8   8   8
#     4  11  21  38  63  88 111 151 207 259 287 343
#     4  12  21  38  60  85 125 159 194 234 300 360
#     4  11  22  36  58  94 125 154 190 245 295 356
#     4  11  25  38  60  86 124 161 194 239 302 362
#     4  10  21  41  59  85 117 161 198 241 295 361
#     4  10  20  36  60  89 120 152 203 239 301 353
#     4  11  22  38  60  88 117 158 198 247 302 351
#
# _framework density 18.882674999999999
#
# number of rings (size 3 to 8) (size 9 to 14) (size 15 to 20)
#    0.000    1.143    4.286    3.429    4.000    0.000 
#    0.000    0.714    0.000    0.000    0.000    0.000 
#    0.000    0.000    0.000    0.000    0.000    0.000 
#
# Total GULP energy -347347.193482 kJ/mol
# GULP energy per Si atom -12405.256910 kJ/mol
# Density = 1.883970 g / cm^3
# Si number density = 18.882675 Si / 1000 Ang^3
#
#
#
# Elastic Constant Matrix: (Units=GPa)
#
#
# Indices 1 2 3 4 5 6 
#
# 1 108.5475 19.1480 59.3991 0.0000 -8.0175 0.0000
# 2 19.1480 70.4864 39.7995 0.0000 -11.6236 0.0000
# 3 59.3991 39.7995 104.0457 0.0000 4.4187 0.0000
# 4 0.0000 0.0000 0.0000 26.9316 0.0000 -1.1475
# 5 -8.0175 -11.6236 4.4187 0.0000 34.0086 0.0000
# 6 0.0000 0.0000 0.0000 -1.1475 0.0000 27.7010
#
#
#
# Elastic Compliance Matrix: (Units=1/GPa)
#
#
# Indices 1 2 3 4 5 6 
#
# 1 0.014253 0.002200 -0.009204 0.000000 0.005308 0.000000
# 2 0.002200 0.020331 -0.009402 0.000000 0.008689 0.000000
# 3 -0.009204 -0.009402 0.018795 0.000000 -0.007825 0.000000
# 4 0.000000 0.000000 0.000000 0.037197 0.000000 0.001541
# 5 0.005308 0.008689 -0.007825 0.000000 0.034642 0.000000
# 6 0.000000 0.000000 0.000000 0.001541 0.000000 0.036164
#
#
# Mechanical properties :
#
#
# Convention : Reuss Voigt Hill
#
# Bulk Modulus (GPa) = 48.62177 57.75255 53.18716
# Shear Modulus (GPa) = 24.86949 28.71043 26.78996
#
# Velocity S-wave (km/s) = 3.63306 3.90354 3.77073
# Velocity P-wave (km/s) = 6.58818 7.13920 6.86922
#
# Compressibility (1/GPa) = 0.02056692
#
# Stress axis : x y z
#
# Youngs Moduli (GPa) = 70.15989 49.18546 53.20651
#
# Poissons Ratio (x) = -0.10823 0.48972
# Poissons Ratio (y) = -0.15438 0.50027
# Poissons Ratio (z) = 0.64577 0.46246
#
# Static dielectric constant tensor:
#      x y z
#    x 3.531180 0.000000 -0.002760 
#    y 0.000000 3.473570 0.000000 
#    z -0.002760 0.000000 3.552760 
# 
# 
# High freq. dielectric constant tensor:
#      x y z
#    x 1.732940 0.000000 0.003600 
#    y 0.000000 1.729710 0.000000 
#    z 0.003600 0.000000 1.737980 
# 
# From -- ./inp_files/105808.got.cif
#   From: 2010.06.25/outbox.cif.g09.slc.cpg/sg15_53_cif.got.tgz:105808.got - 2010.06.28 07:06:18.
