data_PCOD8137314
_publ_section_title
;
Structure prediction by ZEFSAII (Michael W. Deem and Ramdas Pophale) SiO2 
 PCOD8137314
Probable space group: C 2/C
;
_chemical_formula_sum "Si O2"
_cell_formula_units_Z 44
_cell_length_a 15.670662
_cell_length_b 10.935005
_cell_length_c 12.890155
_cell_angle_alpha 90.000000
_cell_angle_beta 56.846779
_cell_angle_gamma 90.000000
_cell_volume 1849.266244
_symmetry_space_group_name_H-M "C 2/C"
_symmetry_group_IT_number 15
_symmetry_cell_setting 'monoclinic'
loop_
_space_group_symop_operation_xyz
x,y,z
-x,y,1/2-z
-x,-y,-z
x,-y,1/2+z
1/2+x,1/2+y,z
1/2-x,1/2+y,1/2-z
1/2-x,1/2-y,-z
1/2+x,1/2-y,1/2+z
loop_
_atom_site_type_symbol
_atom_site_label
_atom_site_fract_x
_atom_site_fract_y
_atom_site_fract_z
Si Si1 0.736984 0.759256 0.809588
Si Si2 0.470789 0.631555 0.558235
Si Si3 0.638405 0.034352 0.506539
Si Si4 0.930688 0.646926 0.625010
Si Si5 0.000000 0.779505 0.250000
Si Si6 0.794713 0.656529 0.388151
O O1 0.650670 0.655065 0.852862
O O2 0.706938 0.853328 0.920031
O O3 0.843433 0.688994 0.765706
O O4 0.761673 0.834970 0.685620
O O5 0.500000 0.500000 0.500000
O O6 0.519525 0.733538 0.455192
O O7 0.523671 0.635595 0.635988
O O8 0.523579 0.073462 0.617011
O O9 0.625873 0.932779 0.425280
O O10 0.700426 0.978393 0.563200
O O11 0.909083 0.690073 0.281511
O O12 0.750000 0.750000 0.500000
#
# Coordination Sequence:
#
# PCOD8137314 Si02
#       6
#     8   8   8   8   4   8
#     4  10  22  36  65  95 121 174 214 253 341 381
#     4  10  21  36  59  87 124 158 210 266 310 384
#     4  10  21  38  63  92 130 159 213 280 313 381
#     4  10  20  38  57  95 124 164 211 262 333 379
#     4  10  20  36  56  88 114 158 216 252 316 362
#     4  11  20  38  62  97 118 159 224 266 301 396
#
# _framework density 23.793220000000002
#
# number of rings (size 3 to 8) (size 9 to 14) (size 15 to 20)
#    0.000    1.818    3.636    0.000    5.091    0.000 
#    0.000    0.000    8.000    1.091    0.000    0.000 
#    0.000    0.000    0.000    0.000    0.000    0.000 
#
# Total GULP energy -272689.090817 kJ/mol
# GULP energy per Si atom -12394.958673 kJ/mol
# Density = 2.373907 g / cm^3
# Si number density = 23.793220 Si / 1000 Ang^3
#
#
#
# Elastic Constant Matrix: (Units=GPa)
#
#
# Indices 1 2 3 4 5 6 
#
# 1 47.9547 21.2110 23.5056 0.0000 -18.7027 0.0000
# 2 21.2110 118.8301 41.9826 0.0000 -5.6353 0.0000
# 3 23.5056 41.9826 86.8894 0.0000 -21.2902 0.0000
# 4 0.0000 0.0000 0.0000 93.0754 0.0000 -2.6393
# 5 -18.7027 -5.6353 -21.2902 0.0000 39.8053 0.0000
# 6 0.0000 0.0000 0.0000 -2.6393 0.0000 32.3948
#
#
#
# Elastic Compliance Matrix: (Units=1/GPa)
#
#
# Indices 1 2 3 4 5 6 
#
# 1 0.028265 -0.003347 -0.003327 0.000000 0.011027 0.000000
# 2 -0.003347 0.010609 -0.004877 0.000000 -0.002679 0.000000
# 3 -0.003327 -0.004877 0.016357 0.000000 0.006495 0.000000
# 4 0.000000 0.000000 0.000000 0.010769 0.000000 0.000877
# 5 0.011027 -0.002679 0.006495 0.000000 0.033398 0.000000
# 6 0.000000 0.000000 0.000000 0.000877 0.000000 0.030941
#
#
# Mechanical properties :
#
#
# Convention : Reuss Voigt Hill
#
# Bulk Modulus (GPa) = 31.12525 47.45252 39.28888
# Shear Modulus (GPa) = 30.46013 44.18678 37.32346
#
# Velocity S-wave (km/s) = 3.58187 4.31410 3.96493
# Velocity P-wave (km/s) = 5.49694 6.69345 6.12449
#
# Compressibility (1/GPa) = 0.03212825
#
# Stress axis : x y z
#
# Youngs Moduli (GPa) = 35.37971 94.26196 61.13667
#
# Poissons Ratio (x) = 0.31547 0.20342
# Poissons Ratio (y) = 0.11841 0.29816
# Poissons Ratio (z) = 0.11772 0.45971
#
# Static dielectric constant tensor:
#      x y z
#    x 4.157610 0.000000 -0.326050 
#    y 0.000000 4.139900 0.000000 
#    z -0.326050 0.000000 4.423200 
# 
# 
# High freq. dielectric constant tensor:
#      x y z
#    x 1.924150 0.000000 -0.019630 
#    y 0.000000 1.937410 0.000000 
#    z -0.019630 0.000000 1.950460 
# 
# From -- ./inp_files/160724.got.cif
#   From: 2010.06.25/outbox.cif.g09.slc.cpg/sg15_81_cif.got.tgz:160724.got - 2010.06.28 07:06:18.
