data_PCOD8137432
_publ_section_title
;
Structure prediction by ZEFSAII (Michael W. Deem and Ramdas Pophale) SiO2 
 PCOD8137432
Probable space group: C 2/C
;
_chemical_formula_sum "Si O2"
_cell_formula_units_Z 64
_cell_length_a 20.072695
_cell_length_b 23.929006
_cell_length_c 18.558515
_cell_angle_alpha 90.000000
_cell_angle_beta 157.603062
_cell_angle_gamma 90.000000
_cell_volume 3396.428219
_symmetry_space_group_name_H-M "C 2/C"
_symmetry_group_IT_number 15
_symmetry_cell_setting 'monoclinic'
loop_
_space_group_symop_operation_xyz
x,y,z
-x,y,1/2-z
-x,-y,-z
x,-y,1/2+z
1/2+x,1/2+y,z
1/2-x,1/2+y,1/2-z
1/2-x,1/2-y,-z
1/2+x,1/2-y,1/2+z
loop_
_atom_site_type_symbol
_atom_site_label
_atom_site_fract_x
_atom_site_fract_y
_atom_site_fract_z
Si Si1 0.696776 0.588817 0.863742
Si Si2 0.704914 0.811828 0.138636
Si Si3 0.499999 0.008932 0.164627
Si Si4 0.000001 0.616679 0.664485
Si Si5 0.295084 0.188173 0.228805
Si Si6 0.802608 0.813036 0.707355
Si Si7 0.196778 0.911183 0.529811
Si Si8 0.197390 0.813037 0.102137
O O1 0.718985 0.646127 0.843486
O O2 0.499998 0.565986 0.657625
O O3 0.827730 0.541502 0.964543
O O4 0.739850 0.602193 0.989849
O O5 0.749999 0.750001 0.155727
O O6 0.795496 0.823361 0.305492
O O7 0.499999 0.819998 0.943727
O O8 0.500000 0.005475 0.250000
O O9 0.672265 0.041503 0.309077
O O10 0.500001 0.946415 0.133309
O O11 0.824821 0.645588 0.461578
O O12 0.000000 0.618284 0.750000
O O13 0.175184 0.645589 0.811943
O O14 0.204502 0.176640 0.214497
O O15 0.218983 0.146128 0.094480
O O16 0.749997 0.750000 0.635708
O O17 0.999998 0.824361 0.878131
#
# Coordination Sequence:
#
# PCOD8137432 Si02
#       8
#     8   8   8   8   8   8   8   8
#     4  10  20  36  58  85 118 156 197 242 286 331
#     4  11  20  35  59  85 118 157 196 235 288 349
#     4   9  20  39  59  81 117 157 192 239 294 343
#     4  11  24  41  63  91 114 147 199 241 290 357
#     4  11  20  35  59  85 118 157 196 235 288 349
#     4  11  21  40  61  85 120 155 186 232 298 352
#     4  10  20  36  58  85 118 156 197 242 286 331
#     4  11  21  40  61  85 120 155 186 232 298 352
#
# _framework density 18.843325
#
# number of rings (size 3 to 8) (size 9 to 14) (size 15 to 20)
#    0.000    1.500    3.750    3.750    0.000    2.500 
#    0.000    5.000    0.000    3.000    0.000    0.000 
#    0.000    0.000    0.000    0.000    0.000    0.000 
#
# Total GULP energy -396896.591938 kJ/mol
# GULP energy per Si atom -12403.018498 kJ/mol
# Density = 1.880044 g / cm^3
# Si number density = 18.843325 Si / 1000 Ang^3
#
#
#
# Elastic Constant Matrix: (Units=GPa)
#
#
# Indices 1 2 3 4 5 6 
#
# 1 66.6716 66.1978 49.0504 -0.0035 14.3867 0.0070
# 2 66.1978 155.6957 71.6498 0.0062 3.6929 -0.0124
# 3 49.0504 71.6498 137.4352 0.0052 33.5106 -0.0105
# 4 -0.0035 0.0062 0.0052 769.4638 -0.0027-1441.6507
# 5 14.3867 3.6929 33.5106 -0.0027 32.3797 0.0052
# 6 0.0070 -0.0124 -0.0105-1441.6507 0.0052 2901.2863
#
#
#
# Elastic Compliance Matrix: (Units=1/GPa)
#
#
# Indices 1 2 3 4 5 6 
#
# 1 0.030346 -0.011536 -0.002474 0.000000 -0.009607 0.000000
# 2 -0.011536 0.013435 -0.005033 0.000000 0.008802 0.000000
# 3 -0.002474 -0.005033 0.013877 0.000000 -0.012688 0.000000
# 4 0.000000 0.000000 0.000000 0.018830 0.000000 0.009357
# 5 -0.009607 0.008802 -0.012688 0.000000 0.047280 0.000000
# 6 0.000000 0.000000 0.000000 0.009357 0.000000 0.004994
#
#
# Mechanical properties :
#
#
# Convention : Reuss Voigt Hill
#
# Bulk Modulus (GPa) = 51.09401 81.51096 66.30249
# Shear Modulus (GPa) = 28.83978 752.15293 390.49636
#
# Velocity S-wave (km/s) = 3.91641 20.00070 14.41122
# Velocity P-wave (km/s) = 6.90109 24.01503 17.66843
#
# Compressibility (1/GPa) = 0.01957176
#
# Stress axis : x y z
#
# Youngs Moduli (GPa) = 32.95326 74.43200 72.06271
#
# Poissons Ratio (x) = 0.85865 0.17827
# Poissons Ratio (y) = 0.38015 0.36271
# Poissons Ratio (z) = 0.08152 0.37463
#
# Static dielectric constant tensor:
#      x y z
#    x 3.371300 0.000000 0.201770 
#    y 0.000000 3.619620 0.000000 
#    z 0.201770 0.000000 3.669430 
# 
# 
# High freq. dielectric constant tensor:
#      x y z
#    x 1.721820 0.000000 0.017230 
#    y 0.000000 1.727960 0.000000 
#    z 0.017230 0.000000 1.747280 
# 
# From -- ./inp_files/217130.got.cif
#   From: 2010.06.25/outbox.cif.g09.slc.cpg/sg15_109_cif.got.tgz:217130.got - 2010.06.28 07:06:18.
