data_PCOD8137855
_publ_section_title
;
Structure prediction by ZEFSAII (Michael W. Deem and Ramdas Pophale) SiO2 
 PCOD8137855
Probable space group: C 2/C
;
_chemical_formula_sum "Si O2"
_cell_formula_units_Z 60
_cell_length_a 20.789002
_cell_length_b 18.635012
_cell_length_c 8.520119
_cell_angle_alpha 90.000000
_cell_angle_beta 113.700557
_cell_angle_gamma 90.000000
_cell_volume 3022.334981
_symmetry_space_group_name_H-M "C 2/C"
_symmetry_group_IT_number 15
_symmetry_cell_setting 'monoclinic'
loop_
_space_group_symop_operation_xyz
x,y,z
-x,y,1/2-z
-x,-y,-z
x,-y,1/2+z
1/2+x,1/2+y,z
1/2-x,1/2+y,1/2-z
1/2-x,1/2-y,-z
1/2+x,1/2-y,1/2+z
loop_
_atom_site_type_symbol
_atom_site_label
_atom_site_fract_x
_atom_site_fract_y
_atom_site_fract_z
Si Si1 0.000000 0.993814 0.250000
Si Si2 0.202730 0.813878 0.748536
Si Si3 0.902593 0.938177 0.901392
Si Si4 0.571526 0.091037 0.760179
Si Si5 0.733873 0.471180 0.280108
Si Si6 0.571122 0.933788 0.889753
Si Si7 0.209793 0.412798 0.859110
Si Si8 0.288146 0.160828 0.640403
O O1 0.056409 0.942778 0.392966
O O2 0.959868 0.048049 0.324816
O O3 0.130817 0.858943 0.654251
O O4 0.257462 0.837990 0.667240
O O5 0.192851 0.728334 0.727727
O O6 0.231474 0.825562 0.951334
O O7 0.843194 0.999854 0.835787
O O8 0.500000 0.130314 0.750000
O O9 0.572714 0.078399 0.575736
O O10 0.639129 0.137661 0.871322
O O11 0.575671 0.017833 0.861147
O O12 0.739162 0.455523 0.470329
O O13 0.792337 0.531822 0.290985
O O14 0.752261 0.397939 0.213041
O O15 0.500000 0.900110 0.750000
O O16 0.635494 0.894807 0.865212
#
# Coordination Sequence:
#
# PCOD8137855 Si02
#       8
#     4   8   8   8   8   8   8   8
#     4  10  20  36  64  88 116 146 192 252 308 368
#     4  10  24  38  61  85 121 156 203 250 302 362
#     4  10  20  37  60  92 115 148 196 250 306 361
#     4  11  23  36  57  87 121 156 198 242 294 356
#     4  11  20  35  62  88 116 148 198 253 307 353
#     4  11  21  34  57  88 117 153 195 240 295 344
#     4  11  20  35  58  89 117 156 196 256 297 350
#     4  11  22  40  58  87 118 163 204 245 301 360
#
# _framework density 19.852201000000001
#
# number of rings (size 3 to 8) (size 9 to 14) (size 15 to 20)
#    0.000    1.333    2.667    5.600    3.733    0.533 
#    1.200    0.000    1.467    0.000    0.000    0.000 
#    0.000    0.000    0.000    0.000    0.000    0.000 
#
# Total GULP energy -371916.281753 kJ/mol
# GULP energy per Si atom -12397.209392 kJ/mol
# Density = 1.980702 g / cm^3
# Si number density = 19.852201 Si / 1000 Ang^3
#
#
#
# Elastic Constant Matrix: (Units=GPa)
#
#
# Indices 1 2 3 4 5 6 
#
# 1 113.3607 47.5263 24.6899 0.0000 2.6446 0.0000
# 2 47.5263 71.3303 11.7703 0.0000 2.3103 0.0000
# 3 24.6899 11.7703 65.9376 0.0000 10.8024 0.0000
# 4 0.0000 0.0000 0.0000 25.3092 0.0000 -3.2225
# 5 2.6446 2.3103 10.8024 0.0000 38.6230 0.0000
# 6 0.0000 0.0000 0.0000 -3.2225 0.0000 23.5529
#
#
#
# Elastic Compliance Matrix: (Units=1/GPa)
#
#
# Indices 1 2 3 4 5 6 
#
# 1 0.012956 -0.008073 -0.003504 0.000000 0.000576 0.000000
# 2 -0.008073 0.019475 -0.000370 0.000000 -0.000509 0.000000
# 3 -0.003504 -0.000370 0.017294 0.000000 -0.004575 0.000000
# 4 0.000000 0.000000 0.000000 0.040212 0.000000 0.005502
# 5 0.000576 -0.000509 -0.004575 0.000000 0.027162 0.000000
# 6 0.000000 0.000000 0.000000 0.005502 0.000000 0.043210
#
#
# Mechanical properties :
#
#
# Convention : Reuss Voigt Hill
#
# Bulk Modulus (GPa) = 38.71499 46.51131 42.61315
# Shear Modulus (GPa) = 25.93175 28.60648 27.26912
#
# Velocity S-wave (km/s) = 3.61812 3.80013 3.71024
# Velocity P-wave (km/s) = 6.08262 6.53715 6.31398
#
# Compressibility (1/GPa) = 0.02582979
#
# Stress axis : x y z
#
# Youngs Moduli (GPa) = 77.18655 51.34661 57.82455
#
# Poissons Ratio (x) = 0.41450 0.20265
# Poissons Ratio (y) = 0.62309 0.02142
# Poissons Ratio (z) = 0.27050 0.01902
#
# Static dielectric constant tensor:
#      x y z
#    x 4.041110 0.000000 0.049730 
#    y 0.000000 3.519000 0.000000 
#    z 0.049730 0.000000 3.811820 
# 
# 
# High freq. dielectric constant tensor:
#      x y z
#    x 1.788290 0.000000 -0.005480 
#    y 0.000000 1.736910 0.000000 
#    z -0.005480 0.000000 1.787730 
# 
# From -- ./inp_files/56675.got.cif
#   From: 2010.06.25/outbox.cif.g09.slc.cpg/sg15_29_cif.got.tgz:56675.got - 2010.06.28 07:06:18.
