data_PCOD8137003
_publ_section_title
;
Structure prediction by ZEFSAII (Michael W. Deem and Ramdas Pophale) SiO2 
 PCOD8137003
Probable space group: C 2/C
;
_chemical_formula_sum "Si O2"
_cell_formula_units_Z 64
_cell_length_a 5.268051
_cell_length_b 22.081270
_cell_length_c 26.039454
_cell_angle_alpha 90.000000
_cell_angle_beta 95.889396
_cell_angle_gamma 90.000000
_cell_volume 3013.058328
_symmetry_space_group_name_H-M "C 2/C"
_symmetry_group_IT_number 15
_symmetry_cell_setting 'monoclinic'
loop_
_space_group_symop_operation_xyz
x,y,z
-x,y,1/2-z
-x,-y,-z
x,-y,1/2+z
1/2+x,1/2+y,z
1/2-x,1/2+y,1/2-z
1/2-x,1/2-y,-z
1/2+x,1/2-y,1/2+z
loop_
_atom_site_type_symbol
_atom_site_label
_atom_site_fract_x
_atom_site_fract_y
_atom_site_fract_z
Si Si1 0.294113 0.184318 0.939006
Si Si2 0.232565 0.050518 0.718838
Si Si3 0.998251 0.911517 0.110575
Si Si4 0.212094 0.401215 0.890054
Si Si5 0.298769 0.899890 0.011678
Si Si6 0.559991 0.307347 0.538179
Si Si7 0.236008 0.906911 0.720526
Si Si8 0.268897 0.468325 0.583975
O O1 0.433793 0.125340 0.964175
O O2 0.472446 0.243258 0.930675
O O3 0.133240 0.155850 0.888052
O O4 0.105957 0.208589 0.979385
O O5 0.500000 0.071653 0.750000
O O6 0.194245 0.081079 0.661955
O O7 0.000000 0.071998 0.750000
O O8 0.225991 0.978800 0.711463
O O9 0.132497 0.915456 0.057861
O O10 0.775487 0.962766 0.104918
O O11 0.212566 0.345286 0.929906
O O12 0.273944 0.374912 0.834961
O O13 0.437248 0.447931 0.907511
O O14 0.934429 0.433485 0.883911
O O15 0.328312 0.960420 0.977223
O O16 0.189631 0.849487 0.968705
O O17 0.500000 0.885778 0.750000
O O18 0.000000 0.884410 0.750000
#
# Coordination Sequence:
#
# PCOD8137003 Si02
#       8
#     8   8   8   8   8   8   8   8
#     4  10  20  37  60  83 125 159 212 244 296 363
#     4  10  23  39  59  84 117 155 199 250 298 357
#     4  11  24  36  59  90 123 163 200 248 310 370
#     4  11  21  38  61  87 121 159 196 251 302 359
#     4  10  21  37  56  90 125 165 198 250 301 364
#     4   9  20  38  57  88 115 165 210 249 291 359
#     4  10  20  35  58  85 114 148 194 249 306 356
#     4  11  23  36  58  90 130 162 190 236 306 376
#
# _framework density 21.240877999999999
#
# number of rings (size 3 to 8) (size 9 to 14) (size 15 to 20)
#    0.000    1.750    2.500    1.500    7.000    0.500 
#    0.000    0.000    0.000    0.750    0.000    0.000 
#    0.000    0.000    0.000    0.000    0.000    0.000 
#
# Total GULP energy -396424.863778 kJ/mol
# GULP energy per Si atom -12388.276993 kJ/mol
# Density = 2.119253 g / cm^3
# Si number density = 21.240878 Si / 1000 Ang^3
#
#
#
# Elastic Constant Matrix: (Units=GPa)
#
#
# Indices 1 2 3 4 5 6 
#
# 1 94.0802 14.4135 31.1562 0.0000 3.8932 0.0000
# 2 14.4135 66.5257 34.6156 0.0000 19.6055 0.0000
# 3 31.1562 34.6156 104.7373 0.0000 3.8199 0.0000
# 4 0.0000 0.0000 0.0000 13.1324 0.0000 0.8419
# 5 3.8932 19.6055 3.8199 0.0000 34.7067 0.0000
# 6 0.0000 0.0000 0.0000 0.8419 0.0000 15.5579
#
#
#
# Elastic Compliance Matrix: (Units=1/GPa)
#
#
# Indices 1 2 3 4 5 6 
#
# 1 0.011843 -0.000693 -0.003273 0.000000 -0.000577 0.000000
# 2 -0.000693 0.022090 -0.006669 0.000000 -0.011667 0.000000
# 3 -0.003273 -0.006669 0.012625 0.000000 0.002745 0.000000
# 4 0.000000 0.000000 0.000000 0.076413 0.000000 -0.004135
# 5 -0.000577 -0.011667 0.002745 0.000000 0.035166 0.000000
# 6 0.000000 0.000000 0.000000 -0.004135 0.000000 0.064500
#
#
# Mechanical properties :
#
#
# Convention : Reuss Voigt Hill
#
# Bulk Modulus (GPa) = 39.54323 47.30153 43.42238
# Shear Modulus (GPa) = 19.81477 25.02327 22.41902
#
# Velocity S-wave (km/s) = 3.05759 3.43603 3.25232
# Velocity P-wave (km/s) = 5.57872 6.16921 5.88138
#
# Compressibility (1/GPa) = 0.02528878
#
# Stress axis : x y z
#
# Youngs Moduli (GPa) = 84.43704 45.26840 79.20573
#
# Poissons Ratio (x) = 0.03137 0.25923
# Poissons Ratio (y) = 0.05851 0.52824
# Poissons Ratio (z) = 0.27636 0.30191
#
# Static dielectric constant tensor:
#      x y z
#    x 3.856190 0.000000 0.139940 
#    y 0.000000 3.914900 0.000000 
#    z 0.139940 0.000000 3.924840 
# 
# 
# High freq. dielectric constant tensor:
#      x y z
#    x 1.836240 0.000000 0.012280 
#    y 0.000000 1.799210 0.000000 
#    z 0.012280 0.000000 1.818170 
# 
# From -- ./inp_files/261721.got.cif
#   From: 2010.06.25/outbox.cif.g09.slc.cpg/sg15_131_cif.got.tgz:261721.got - 2010.06.28 07:06:18.
