data_PCOD8137182
_publ_section_title
;
Structure prediction by ZEFSAII (Michael W. Deem and Ramdas Pophale) SiO2 
 PCOD8137182
Probable space group: C 2/C
;
_chemical_formula_sum "Si O2"
_cell_formula_units_Z 44
_cell_length_a 10.441180
_cell_length_b 24.776784
_cell_length_c 15.932623
_cell_angle_alpha 90.000000
_cell_angle_beta 30.407669
_cell_angle_gamma 90.000000
_cell_volume 2086.221216
_symmetry_space_group_name_H-M "C 2/C"
_symmetry_group_IT_number 15
_symmetry_cell_setting 'monoclinic'
loop_
_space_group_symop_operation_xyz
x,y,z
-x,y,1/2-z
-x,-y,-z
x,-y,1/2+z
1/2+x,1/2+y,z
1/2-x,1/2+y,1/2-z
1/2-x,1/2-y,-z
1/2+x,1/2-y,1/2+z
loop_
_atom_site_type_symbol
_atom_site_label
_atom_site_fract_x
_atom_site_fract_y
_atom_site_fract_z
Si Si1 0.500000 0.622483 0.250000
Si Si2 0.268528 0.223500 0.635813
Si Si3 0.895785 0.638006 0.436814
Si Si4 0.519320 0.062026 0.966185
Si Si5 0.355525 0.370207 0.169213
Si Si6 0.432525 0.664691 0.107205
O O1 0.492740 0.660448 0.172009
O O2 0.258821 0.584238 0.394890
O O3 0.411287 0.195714 0.476754
O O4 0.258677 0.180300 0.716347
O O5 0.427478 0.273413 0.580176
O O6 0.000000 0.242785 0.750000
O O7 0.854228 0.590058 0.525834
O O8 0.657961 0.631346 0.511322
O O9 0.164900 0.634662 0.237894
O O10 0.708196 0.075227 0.780678
O O11 0.500000 0.000000 0.000000
O O12 0.343603 0.363673 0.074475
#
# Coordination Sequence:
#
# PCOD8137182 Si02
#       6
#     4   8   8   8   8   8
#     4  10  26  42  56  86 122 162 204 244 304 376
#     4   9  17  32  58  92 126 166 199 242 297 347
#     4   9  19  35  57  95 123 150 205 245 294 354
#     4  10  22  41  65  82 113 155 196 250 313 358
#     4  10  20  35  63  93 118 157 210 249 290 357
#     4  11  20  36  57  86 134 160 192 250 293 356
#
# _framework density 21.090765000000001
#
# number of rings (size 3 to 8) (size 9 to 14) (size 15 to 20)
#    0.000    2.182    0.000    4.364    2.545    3.636 
#    0.000   18.182    8.000    0.000    0.000    0.000 
#    0.000    0.000    0.000    0.000    0.000    0.000 
#
# Total GULP energy -272651.438467 kJ/mol
# GULP energy per Si atom -12393.247203 kJ/mol
# Density = 2.104276 g / cm^3
# Si number density = 21.090765 Si / 1000 Ang^3
#
#
#
# Elastic Constant Matrix: (Units=GPa)
#
#
# Indices 1 2 3 4 5 6 
#
# 1 71.4509 43.2566 39.4838 -0.0097 14.6226 -0.0136
# 2 43.2566 128.8531 41.8837 -0.0101 14.8560 0.0102
# 3 39.4838 41.8837 121.7239 0.0675 29.1684 0.0711
# 4 -0.0097 -0.0101 0.0675 22.4096 -0.0054 -5.1768
# 5 14.6226 14.8560 29.1684 -0.0054 31.6412 -0.0316
# 6 -0.0136 0.0102 0.0711 -5.1768 -0.0316 15.5442
#
#
#
# Elastic Compliance Matrix: (Units=1/GPa)
#
#
# Indices 1 2 3 4 5 6 
#
# 1 0.019871 -0.005018 -0.003957 0.000027 -0.003179 0.000041
# 2 -0.005018 0.010078 -0.001620 0.000006 -0.000920 -0.000003
# 3 -0.003957 -0.001620 0.012111 -0.000063 -0.008576 -0.000096
# 4 0.000027 0.000006 -0.000063 0.048343 0.000067 0.016101
# 5 -0.003179 -0.000920 -0.008576 0.000067 0.041411 0.000144
# 6 0.000041 -0.000003 -0.000096 0.016101 0.000144 0.069696
#
#
# Mechanical properties :
#
#
# Convention : Reuss Voigt Hill
#
# Bulk Modulus (GPa) = 47.91448 63.47512 55.69480
# Shear Modulus (GPa) = 21.77168 27.07924 24.42546
#
# Velocity S-wave (km/s) = 3.21640 3.58710 3.40680
# Velocity P-wave (km/s) = 6.04659 6.87880 6.47607
#
# Compressibility (1/GPa) = 0.02087052
#
# Stress axis : x y z
#
# Youngs Moduli (GPa) = 50.32499 99.22803 82.56788
#
# Poissons Ratio (x) = 0.49792 0.32674
# Poissons Ratio (y) = 0.25253 0.13373
# Poissons Ratio (z) = 0.19914 0.16071
#
# Static dielectric constant tensor:
#      x y z
#    x 3.744390 -0.000010 0.085680 
#    y -0.000010 3.540310 0.000000 
#    z 0.085680 0.000000 4.094440 
# 
# 
# High freq. dielectric constant tensor:
#      x y z
#    x 1.815360 0.000000 0.012530 
#    y 0.000000 1.794320 0.000000 
#    z 0.012530 0.000000 1.844510 
# 
# From -- ./inp_files/200730.got.cif
#   From: 2010.06.25/outbox.cif.g09.slc.cpg/sg15_101_cif.got.tgz:200730.got - 2010.06.28 07:06:18.
