data_PCOD8137378
_publ_section_title
;
Structure prediction by ZEFSAII (Michael W. Deem and Ramdas Pophale) SiO2 
 PCOD8137378
Probable space group: C 2/C
;
_chemical_formula_sum "Si O2"
_cell_formula_units_Z 52
_cell_length_a 9.435897
_cell_length_b 21.272295
_cell_length_c 21.029248
_cell_angle_alpha 90.000000
_cell_angle_beta 142.580527
_cell_angle_gamma 90.000000
_cell_volume 2564.907942
_symmetry_space_group_name_H-M "C 2/C"
_symmetry_group_IT_number 15
_symmetry_cell_setting 'monoclinic'
loop_
_space_group_symop_operation_xyz
x,y,z
-x,y,1/2-z
-x,-y,-z
x,-y,1/2+z
1/2+x,1/2+y,z
1/2-x,1/2+y,1/2-z
1/2-x,1/2-y,-z
1/2+x,1/2-y,1/2+z
loop_
_atom_site_type_symbol
_atom_site_label
_atom_site_fract_x
_atom_site_fract_y
_atom_site_fract_z
Si Si1 0.500000 0.798912 0.750000
Si Si2 0.041969 0.468871 0.607668
Si Si3 0.832751 0.821366 0.135939
Si Si4 0.615437 0.097974 0.006506
Si Si5 0.415205 0.389786 0.040711
Si Si6 0.745995 0.003244 0.807394
Si Si7 0.934899 0.122225 0.407242
O O1 0.632733 0.754509 0.848677
O O2 0.291784 0.842462 0.703748
O O3 0.965899 0.540266 0.566074
O O4 0.822905 0.428366 0.552816
O O5 0.165791 0.433060 0.593258
O O6 0.229216 0.474700 0.730492
O O7 0.573997 0.846434 0.058510
O O8 0.000000 0.852454 0.250000
O O9 0.896139 0.835765 0.086230
O O10 0.843687 0.132337 0.059494
O O11 0.613340 0.432973 0.141245
O O12 0.485192 0.357580 0.998422
O O13 0.500000 0.018836 0.750000
O O14 0.884089 0.951664 0.897024
#
# Coordination Sequence:
#
# PCOD8137378 Si02
#       7
#     4   8   8   8   8   8   8
#     4  10  24  44  64  86 128 174 226 254 310 368
#     4  10  20  36  57  93 128 164 196 256 324 387
#     4   9  22  43  61  87 117 167 218 262 305 369
#     4  10  21  37  61  90 126 160 209 256 320 373
#     4  11  21  38  64  91 126 163 211 260 330 376
#     4  12  21  34  61  95 132 165 206 260 321 387
#     4  12  22  39  61  93 125 168 210 265 311 378
#
# _framework density 20.273631999999999
#
# number of rings (size 3 to 8) (size 9 to 14) (size 15 to 20)
#    0.462    0.923    3.846    2.308    0.000    1.846 
#    0.000    0.000    0.000    5.538    0.000    0.000 
#    0.000    0.000    0.000    0.000    0.000    0.000 
#
# Total GULP energy -322241.425605 kJ/mol
# GULP energy per Si atom -12393.900985 kJ/mol
# Density = 2.022749 g / cm^3
# Si number density = 20.273632 Si / 1000 Ang^3
#
#
#
# Elastic Constant Matrix: (Units=GPa)
#
#
# Indices 1 2 3 4 5 6 
#
# 1 145.7348 37.8957 55.4562 -0.0002 10.2980 0.0009
# 2 37.8957 69.1282 21.4714 0.0007 13.7720 0.0003
# 3 55.4562 21.4714 84.5191 -0.0003 2.5751 0.0015
# 4 -0.0002 0.0007 -0.0003 31.7092 0.0002 2.3276
# 5 10.2980 13.7720 2.5751 0.0002 36.9239 0.0013
# 6 0.0009 0.0003 0.0015 2.3276 0.0013 12.5894
#
#
#
# Elastic Compliance Matrix: (Units=1/GPa)
#
#
# Indices 1 2 3 4 5 6 
#
# 1 0.009996 -0.003514 -0.005633 0.000000 -0.001084 0.000000
# 2 -0.003514 0.018184 -0.002142 0.000000 -0.005653 0.000001
# 3 -0.005633 -0.002142 0.016033 0.000000 0.001252 -0.000002
# 4 0.000000 0.000000 0.000000 0.031970 0.000000 -0.005911
# 5 -0.001084 -0.005653 0.001252 0.000000 0.029406 -0.000003
# 6 0.000000 0.000001 -0.000002 -0.005911 -0.000003 0.080525
#
#
# Mechanical properties :
#
#
# Convention : Reuss Voigt Hill
#
# Bulk Modulus (GPa) = 46.21907 58.78094 52.50000
# Shear Modulus (GPa) = 23.15862 28.54842 25.85352
#
# Velocity S-wave (km/s) = 3.38346 3.75661 3.57491
# Velocity P-wave (km/s) = 6.17340 6.91902 6.55682
#
# Compressibility (1/GPa) = 0.02163609
#
# Stress axis : x y z
#
# Youngs Moduli (GPa) = 100.04450 54.99478 62.36979
#
# Poissons Ratio (x) = 0.19325 0.35131
# Poissons Ratio (y) = 0.35155 0.13357
# Poissons Ratio (z) = 0.56352 0.11777
#
# Static dielectric constant tensor:
#      x y z
#    x 3.756350 0.000000 -0.071430 
#    y 0.000000 3.450360 0.000000 
#    z -0.071430 0.000000 3.680200 
# 
# 
# High freq. dielectric constant tensor:
#      x y z
#    x 1.794170 0.000000 -0.004860 
#    y 0.000000 1.773300 0.000000 
#    z -0.004860 0.000000 1.792520 
# 
# From -- ./inp_files/234496.got.cif
#   From: 2010.06.25/outbox.cif.g09.slc.cpg/sg15_118_cif.got.tgz:234496.got - 2010.06.28 07:06:18.
