data_PCOD8137487
_publ_section_title
;
Structure prediction by ZEFSAII (Michael W. Deem and Ramdas Pophale) SiO2 
 PCOD8137487
Probable space group: C 2/C
;
_chemical_formula_sum "Si O2"
_cell_formula_units_Z 40
_cell_length_a 26.013794
_cell_length_b 12.841029
_cell_length_c 15.238287
_cell_angle_alpha 90.000000
_cell_angle_beta 157.819394
_cell_angle_gamma 90.000000
_cell_volume 1921.711162
_symmetry_space_group_name_H-M "C 2/C"
_symmetry_group_IT_number 15
_symmetry_cell_setting 'monoclinic'
loop_
_space_group_symop_operation_xyz
x,y,z
-x,y,1/2-z
-x,-y,-z
x,-y,1/2+z
1/2+x,1/2+y,z
1/2-x,1/2+y,1/2-z
1/2-x,1/2-y,-z
1/2+x,1/2-y,1/2+z
loop_
_atom_site_type_symbol
_atom_site_label
_atom_site_fract_x
_atom_site_fract_y
_atom_site_fract_z
Si Si1 0.859856 0.906267 0.568382
Si Si2 0.742415 0.126468 0.385001
Si Si3 0.503812 0.385783 0.969087
Si Si4 0.756756 0.210126 0.748261
Si Si5 0.465670 0.761417 0.829262
O O1 0.803753 0.808294 0.423284
O O2 0.000000 0.949932 0.750000
O O3 0.754765 0.002357 0.398825
O O4 0.889320 0.868096 0.713508
O O5 0.707284 0.173880 0.232648
O O6 0.626952 0.148151 0.275357
O O7 0.880759 0.184068 0.633320
O O8 0.658867 0.369236 0.180010
O O9 0.465686 0.305975 0.984965
O O10 0.500000 0.500000 0.000000
O O11 0.594443 0.188186 0.481554
#
# Coordination Sequence:
#
# PCOD8137487 Si02
#       5
#     8   8   8   8   8
#     4  10  20  36  59  83 115 156 198 236 291 357
#     4  10  20  36  59  83 116 154 195 242 293 349
#     4  10  20  37  61  87 111 154 200 238 290 356
#     4  10  22  34  56  89 116 149 195 244 288 349
#     4  10  20  36  59  85 116 148 193 249 296 343
#
# _framework density 20.814782999999998
#
# number of rings (size 3 to 8) (size 9 to 14) (size 15 to 20)
#    0.000    2.000    2.000    1.800    2.800    1.600 
#    0.000    0.000    0.000    7.200    0.000    0.000 
#    0.000    0.000    0.000    0.000    0.000    0.000 
#
# Total GULP energy -247884.278092 kJ/mol
# GULP energy per Si atom -12394.213905 kJ/mol
# Density = 2.076741 g / cm^3
# Si number density = 20.814783 Si / 1000 Ang^3
#
#
#
# Elastic Constant Matrix: (Units=GPa)
#
#
# Indices 1 2 3 4 5 6 
#
# 1 62.8031 25.6241 32.7628 0.0000 -1.2508 0.0000
# 2 25.6241 68.6220 35.3045 0.0000 -9.2881 0.0000
# 3 32.7628 35.3045 76.5026 0.0000 1.2630 0.0000
# 4 0.0000 0.0000 0.0000 34.7035 0.0000 -1.5606
# 5 -1.2508 -9.2881 1.2630 0.0000 51.7190 0.0000
# 6 0.0000 0.0000 0.0000 -1.5606 0.0000 26.3016
#
#
#
# Elastic Compliance Matrix: (Units=1/GPa)
#
#
# Indices 1 2 3 4 5 6 
#
# 1 0.021430 -0.004317 -0.007184 0.000000 -0.000082 0.000000
# 2 -0.004317 0.020693 -0.007763 0.000000 0.003801 0.000000
# 3 -0.007184 -0.007763 0.019765 0.000000 -0.002051 0.000000
# 4 0.000000 0.000000 0.000000 0.028893 0.000000 0.001714
# 5 -0.000082 0.003801 -0.002051 0.000000 0.020066 0.000000
# 6 0.000000 0.000000 0.000000 0.001714 0.000000 0.038122
#
#
# Mechanical properties :
#
#
# Convention : Reuss Voigt Hill
#
# Bulk Modulus (GPa) = 42.81042 43.92339 43.36691
# Shear Modulus (GPa) = 25.60361 30.16057 27.88209
#
# Velocity S-wave (km/s) = 3.51104 3.81070 3.66393
# Velocity P-wave (km/s) = 6.08675 6.36473 6.22729
#
# Compressibility (1/GPa) = 0.02335880
#
# Stress axis : x y z
#
# Youngs Moduli (GPa) = 46.66278 48.32468 50.59557
#
# Poissons Ratio (x) = 0.20863 0.36348
# Poissons Ratio (y) = 0.20146 0.39280
# Poissons Ratio (z) = 0.33523 0.37517
#
# Static dielectric constant tensor:
#      x y z
#    x 4.080010 0.000000 -0.173710 
#    y 0.000000 3.435610 0.000000 
#    z -0.173710 0.000000 3.900710 
# 
# 
# High freq. dielectric constant tensor:
#      x y z
#    x 1.832040 0.000000 -0.004410 
#    y 0.000000 1.778490 0.000000 
#    z -0.004410 0.000000 1.806740 
# 
# From -- ./inp_files/118675.got.cif
#   From: 2010.06.25/outbox.cif.g09.slc.cpg/sg15_60_cif.got.tgz:118675.got - 2010.06.28 07:06:18.
