data_PCOD8137844
_publ_section_title
;
Structure prediction by ZEFSAII (Michael W. Deem and Ramdas Pophale) SiO2 
 PCOD8137844
Probable space group: C 2/C
;
_chemical_formula_sum "Si O2"
_cell_formula_units_Z 48
_cell_length_a 14.025291
_cell_length_b 21.414842
_cell_length_c 11.688345
_cell_angle_alpha 90.000000
_cell_angle_beta 136.988893
_cell_angle_gamma 90.000000
_cell_volume 2394.712452
_symmetry_space_group_name_H-M "C 2/C"
_symmetry_group_IT_number 15
_symmetry_cell_setting 'monoclinic'
loop_
_space_group_symop_operation_xyz
x,y,z
-x,y,1/2-z
-x,-y,-z
x,-y,1/2+z
1/2+x,1/2+y,z
1/2-x,1/2+y,1/2-z
1/2-x,1/2-y,-z
1/2+x,1/2-y,1/2+z
loop_
_atom_site_type_symbol
_atom_site_label
_atom_site_fract_x
_atom_site_fract_y
_atom_site_fract_z
Si Si1 0.854255 0.175628 0.686822
Si Si2 0.656008 0.112847 0.350840
Si Si3 0.153723 0.709613 0.166927
Si Si4 0.435982 0.400557 0.463093
Si Si5 0.048861 0.224426 0.166780
Si Si6 0.889997 0.981225 0.048870
O O1 0.724029 0.166614 0.489007
O O2 0.850206 0.246192 0.725532
O O3 0.836285 0.127779 0.777747
O O4 0.000000 0.160503 0.750000
O O5 0.500000 0.097823 0.250000
O O6 0.658447 0.139142 0.221833
O O7 0.741631 0.049276 0.449942
O O8 0.284235 0.725479 0.199442
O O9 0.013960 0.722319 0.971583
O O10 0.496862 0.344279 0.590158
O O11 0.559482 0.439988 0.513708
O O12 0.357394 0.447771 0.480698
O O13 0.000000 0.242128 0.250000
O O14 0.000000 0.980143 0.250000
#
# Coordination Sequence:
#
# PCOD8137844 Si02
#       6
#     8   8   8   8   8   8
#     4  11  19  38  59  87 118 155 197 239 288 349
#     4  12  21  35  56  91 122 152 185 243 301 347
#     4  11  22  36  57  87 119 156 194 240 292 350
#     4  10  20  36  64  84 108 152 206 246 279 335
#     4  11  22  39  58  86 117 157 198 242 291 350
#     4  11  20  38  62  85 115 151 202 246 283 340
#
# _framework density 20.044160999999999
#
# number of rings (size 3 to 8) (size 9 to 14) (size 15 to 20)
#    0.000    1.000    5.000    4.000    0.000    0.000 
#    0.000    0.833    0.000    8.000    0.000    0.000 
#    0.000    0.000    0.000    0.000    0.000    0.000 
#
# Total GULP energy -297549.902246 kJ/mol
# GULP energy per Si atom -12397.912594 kJ/mol
# Density = 1.999854 g / cm^3
# Si number density = 20.044161 Si / 1000 Ang^3
#
#
#
# Elastic Constant Matrix: (Units=GPa)
#
#
# Indices 1 2 3 4 5 6 
#
# 1 94.8636 18.0536 41.5843 0.0000 9.0825 0.0000
# 2 18.0536 79.5415 34.8088 0.0000 -8.0090 0.0000
# 3 41.5843 34.8088 73.2377 0.0000 7.2779 0.0000
# 4 0.0000 0.0000 0.0000 25.5931 0.0000 -7.1221
# 5 9.0825 -8.0090 7.2779 0.0000 34.8607 0.0000
# 6 0.0000 0.0000 0.0000 -7.1221 0.0000 108.9731
#
#
#
# Elastic Compliance Matrix: (Units=1/GPa)
#
#
# Indices 1 2 3 4 5 6 
#
# 1 0.014178 0.000011 -0.007852 0.000000 -0.002052 0.000000
# 2 0.000011 0.016908 -0.008607 0.000000 0.005678 0.000000
# 3 -0.007852 -0.008607 0.022666 0.000000 -0.004664 0.000000
# 4 0.000000 0.000000 0.000000 0.039797 0.000000 0.002601
# 5 -0.002052 0.005678 -0.004664 0.000000 0.031498 0.000000
# 6 0.000000 0.000000 0.000000 0.002601 0.000000 0.009347
#
#
# Mechanical properties :
#
#
# Convention : Reuss Voigt Hill
#
# Bulk Modulus (GPa) = 47.94333 48.50402 48.22367
# Shear Modulus (GPa) = 28.69612 44.09846 36.39729
#
# Velocity S-wave (km/s) = 3.78781 4.69557 4.26591
# Velocity P-wave (km/s) = 6.56512 7.32455 6.95521
#
# Compressibility (1/GPa) = 0.02085796
#
# Stress axis : x y z
#
# Youngs Moduli (GPa) = 70.53428 59.14472 44.11820
#
# Poissons Ratio (x) = -0.00068 0.34639
# Poissons Ratio (y) = -0.00081 0.37971
# Poissons Ratio (z) = 0.55380 0.50904
#
# Static dielectric constant tensor:
#      x y z
#    x 3.587930 0.000000 -0.123080 
#    y 0.000000 3.738240 0.000000 
#    z -0.123080 0.000000 3.588650 
# 
# 
# High freq. dielectric constant tensor:
#      x y z
#    x 1.769120 0.000000 -0.011530 
#    y 0.000000 1.775670 0.000000 
#    z -0.011530 0.000000 1.778550 
# 
# From -- ./inp_files/100050.got.cif
#   From: 2010.06.25/outbox.cif.g09.slc.cpg/sg15_51_cif.got.tgz:100050.got - 2010.06.28 07:06:18.
