data_PCOD8137159
_publ_section_title
;
Structure prediction by ZEFSAII (Michael W. Deem and Ramdas Pophale) SiO2 
 PCOD8137159
Probable space group: C 2/C
;
_chemical_formula_sum "Si O2"
_cell_formula_units_Z 48
_cell_length_a 28.417626
_cell_length_b 12.375886
_cell_length_c 23.190018
_cell_angle_alpha 90.000000
_cell_angle_beta 162.270411
_cell_angle_gamma 90.000000
_cell_volume 2483.637055
_symmetry_space_group_name_H-M "C 2/C"
_symmetry_group_IT_number 15
_symmetry_cell_setting 'monoclinic'
loop_
_space_group_symop_operation_xyz
x,y,z
-x,y,1/2-z
-x,-y,-z
x,-y,1/2+z
1/2+x,1/2+y,z
1/2-x,1/2+y,1/2-z
1/2-x,1/2-y,-z
1/2+x,1/2-y,1/2+z
loop_
_atom_site_type_symbol
_atom_site_label
_atom_site_fract_x
_atom_site_fract_y
_atom_site_fract_z
Si Si1 0.020109 0.656920 0.445497
Si Si2 0.043461 0.565600 0.677405
Si Si3 0.330723 0.656896 0.756117
Si Si4 0.829415 0.136339 0.079413
Si Si5 0.952663 0.749991 0.905339
Si Si6 0.775567 0.934383 0.641619
O O1 0.148542 0.674431 0.547055
O O2 0.096185 0.673096 0.597925
O O3 0.951060 0.536966 0.359075
O O4 0.892493 0.750024 0.284947
O O5 0.997433 0.673098 0.588717
O O6 0.911023 0.552536 0.572045
O O7 0.215320 0.572036 0.903892
O O8 0.364991 0.536927 0.773020
O O9 0.407346 0.673091 0.909090
O O10 0.838156 0.072028 0.149575
O O11 0.000000 0.149079 0.250000
O O12 0.750000 0.250000 0.000000
O O13 0.814839 0.826861 0.723531
#
# Coordination Sequence:
#
# PCOD8137159 Si02
#       6
#     8   8   8   8   8   8
#     4   9  21  37  58  90 124 161 197 242 296 352
#     4  11  22  40  63  89 123 158 200 249 297 350
#     4   9  21  37  58  90 124 161 197 242 296 352
#     4  12  26  42  63  88 117 156 201 249 299 353
#     4  10  20  35  62  91 122 162 194 242 304 356
#     4  11  22  40  63  89 123 158 200 249 297 350
#
# _framework density 19.326497
#
# number of rings (size 3 to 8) (size 9 to 14) (size 15 to 20)
#    1.000    0.667    1.667    3.500    0.000    2.667 
#    0.000    0.833    0.000    0.000    0.000    0.000 
#    0.000    0.000    0.000    0.000    0.000    0.000 
#
# Total GULP energy -297355.584876 kJ/mol
# GULP energy per Si atom -12389.816036 kJ/mol
# Density = 1.928251 g / cm^3
# Si number density = 19.326497 Si / 1000 Ang^3
#
#
#
# Elastic Constant Matrix: (Units=GPa)
#
#
# Indices 1 2 3 4 5 6 
#
# 1 105.6362 60.1760 53.0591 -0.0003 2.5628 0.0003
# 2 60.1760 131.9432 57.6444 0.0011 -3.7982 0.0028
# 3 53.0591 57.6444 111.6650 0.0020 6.6452 0.0012
# 4 -0.0003 0.0011 0.0020 28.7223 -0.0007 4.4680
# 5 2.5628 -3.7982 6.6452 -0.0007 33.3108 0.0007
# 6 0.0003 0.0028 0.0012 4.4680 0.0007 25.7738
#
#
#
# Elastic Compliance Matrix: (Units=1/GPa)
#
#
# Indices 1 2 3 4 5 6 
#
# 1 0.014324 -0.004650 -0.004361 0.000001 -0.000762 0.000000
# 2 -0.004650 0.011450 -0.003846 0.000000 0.002430 -0.000001
# 3 -0.004361 -0.003846 0.013175 -0.000001 -0.002731 0.000000
# 4 0.000001 0.000000 -0.000001 0.035781 0.000001 -0.006203
# 5 -0.000762 0.002430 -0.002731 0.000001 0.030901 -0.000001
# 6 0.000000 -0.000001 0.000000 -0.006203 -0.000001 0.039874
#
#
# Mechanical properties :
#
#
# Convention : Reuss Voigt Hill
#
# Bulk Modulus (GPa) = 75.54807 76.77815 76.16311
# Shear Modulus (GPa) = 28.46894 29.45236 28.96065
#
# Velocity S-wave (km/s) = 3.84220 3.90800 3.87524
# Velocity P-wave (km/s) = 7.67194 7.75734 7.71476
#
# Compressibility (1/GPa) = 0.01323661
#
# Stress axis : x y z
#
# Youngs Moduli (GPa) = 69.81374 87.33753 75.89969
#
# Poissons Ratio (x) = 0.40609 0.33096
# Poissons Ratio (y) = 0.32461 0.29191
# Poissons Ratio (z) = 0.30443 0.33590
#
# Static dielectric constant tensor:
#      x y z
#    x 3.405120 0.000000 -0.016160 
#    y 0.000000 3.581760 0.000000 
#    z -0.016160 0.000000 3.394350 
# 
# 
# High freq. dielectric constant tensor:
#      x y z
#    x 1.737420 0.000000 0.007850 
#    y 0.000000 1.756510 0.000000 
#    z 0.007850 0.000000 1.742600 
# 
# From -- ./inp_files/283562.got.cif
#   From: 2010.06.25/outbox.cif.g09.slc.cpg/sg15_142_cif.got.tgz:283562.got - 2010.06.28 07:06:18.
