data_PCOD8137135
_publ_section_title
;
Structure prediction by ZEFSAII (Michael W. Deem and Ramdas Pophale) SiO2 
 PCOD8137135
Probable space group: C 2/C
;
_chemical_formula_sum "Si O2"
_cell_formula_units_Z 40
_cell_length_a 13.876707
_cell_length_b 13.709484
_cell_length_c 7.903071
_cell_angle_alpha 90.000000
_cell_angle_beta 77.005265
_cell_angle_gamma 90.000000
_cell_volume 1464.996393
_symmetry_space_group_name_H-M "C 2/C"
_symmetry_group_IT_number 15
_symmetry_cell_setting 'monoclinic'
loop_
_space_group_symop_operation_xyz
x,y,z
-x,y,1/2-z
-x,-y,-z
x,-y,1/2+z
1/2+x,1/2+y,z
1/2-x,1/2+y,1/2-z
1/2-x,1/2-y,-z
1/2+x,1/2-y,1/2+z
loop_
_atom_site_type_symbol
_atom_site_label
_atom_site_fract_x
_atom_site_fract_y
_atom_site_fract_z
Si Si1 0.797119 0.505941 0.699326
Si Si2 0.639818 0.179664 0.489531
Si Si3 0.363795 0.406626 0.534699
Si Si4 0.500000 0.483491 0.750000
Si Si5 0.737655 0.778349 0.300663
Si Si6 0.500000 0.079684 0.750000
O O1 0.796293 0.420110 0.561521
O O2 0.721611 0.480593 0.877425
O O3 0.763766 0.610418 0.627914
O O4 0.906865 0.513959 0.735580
O O5 0.676777 0.230363 0.648424
O O6 0.653189 0.243608 0.311737
O O7 0.526856 0.147582 0.575119
O O8 0.458016 0.410544 0.623763
O O9 0.407972 0.447391 0.341409
O O10 0.317021 0.294857 0.541164
#
# Coordination Sequence:
#
# PCOD8137135 Si02
#       6
#     8   8   8   4   8   4
#     4  10  21  38  64  94 134 173 217 275 321 398
#     4   9  19  36  60  91 125 168 226 261 318 391
#     4  10  23  43  72  96 136 172 222 276 332 392
#     4  10  24  45  67 104 132 170 224 283 331 382
#     4   9  20  39  66  93 123 177 217 267 333 393
#     4  10  20  35  61  92 130 174 216 255 335 394
#
# _framework density 27.303822
#
# number of rings (size 3 to 8) (size 9 to 14) (size 15 to 20)
#    0.000    2.400    0.000    0.600   14.000    3.200 
#    7.200    2.000    0.000    0.000    0.000    0.000 
#    0.000    0.000    0.000    0.000    0.000    0.000 
#
# Total GULP energy -247818.211681 kJ/mol
# GULP energy per Si atom -12390.910584 kJ/mol
# Density = 2.724168 g / cm^3
# Si number density = 27.303822 Si / 1000 Ang^3
#
#
#
# Elastic Constant Matrix: (Units=GPa)
#
#
# Indices 1 2 3 4 5 6 
#
# 1 103.0571 38.8990 13.4062 0.0000 -18.5995 0.0000
# 2 38.8990 177.4927 46.2858 0.0000 -9.3022 0.0000
# 3 13.4062 46.2858 115.3121 0.0000 -40.0253 0.0000
# 4 0.0000 0.0000 0.0000 51.0586 0.0000 8.3093
# 5 -18.5995 -9.3022 -40.0253 0.0000 49.0707 0.0000
# 6 0.0000 0.0000 0.0000 8.3093 0.0000 39.0108
#
#
#
# Elastic Compliance Matrix: (Units=1/GPa)
#
#
# Indices 1 2 3 4 5 6 
#
# 1 0.011408 -0.002620 0.001470 0.000000 0.005027 0.000000
# 2 -0.002620 0.006946 -0.003308 0.000000 -0.002374 0.000000
# 3 0.001470 -0.003308 0.013677 0.000000 0.011086 0.000000
# 4 0.000000 0.000000 0.000000 0.020289 0.000000 -0.004321
# 5 0.005027 -0.002374 0.011086 0.000000 0.030876 0.000000
# 6 0.000000 0.000000 0.000000 -0.004321 0.000000 0.026554
#
#
# Mechanical properties :
#
#
# Convention : Reuss Voigt Hill
#
# Bulk Modulus (GPa) = 43.26009 65.89376 54.57693
# Shear Modulus (GPa) = 39.56573 47.64608 43.60590
#
# Velocity S-wave (km/s) = 3.81082 4.18189 4.00066
# Velocity P-wave (km/s) = 5.93646 6.89228 6.43215
#
# Compressibility (1/GPa) = 0.02311599
#
# Stress axis : x y z
#
# Youngs Moduli (GPa) = 87.65558 143.95905 73.11583
#
# Poissons Ratio (x) = 0.37720 -0.10749
# Poissons Ratio (y) = 0.22967 0.24185
# Poissons Ratio (z) = -0.12887 0.47619
#
# Static dielectric constant tensor:
#      x y z
#    x 4.904430 0.000000 -0.308880 
#    y 0.000000 5.055880 0.000000 
#    z -0.308880 0.000000 5.554280 
# 
# 
# High freq. dielectric constant tensor:
#      x y z
#    x 2.100260 0.000000 0.002710 
#    y 0.000000 2.096720 0.000000 
#    z 0.002710 0.000000 2.126430 
# 
# From -- ./inp_files/46962.got.cif
#   From: 2010.06.25/outbox.cif.g09.slc.cpg/sg15_24_cif.got.tgz:46962.got - 2010.06.28 07:06:18.
