data_PCOD8137651
_publ_section_title
;
Structure prediction by ZEFSAII (Michael W. Deem and Ramdas Pophale) SiO2 
 PCOD8137651
Probable space group: C 2/C
;
_chemical_formula_sum "Si O2"
_cell_formula_units_Z 56
_cell_length_a 11.821543
_cell_length_b 15.666699
_cell_length_c 28.982859
_cell_angle_alpha 90.000000
_cell_angle_beta 33.129767
_cell_angle_gamma 90.000000
_cell_volume 2933.678683
_symmetry_space_group_name_H-M "C 2/C"
_symmetry_group_IT_number 15
_symmetry_cell_setting 'monoclinic'
loop_
_space_group_symop_operation_xyz
x,y,z
-x,y,1/2-z
-x,-y,-z
x,-y,1/2+z
1/2+x,1/2+y,z
1/2-x,1/2+y,1/2-z
1/2-x,1/2-y,-z
1/2+x,1/2-y,1/2+z
loop_
_atom_site_type_symbol
_atom_site_label
_atom_site_fract_x
_atom_site_fract_y
_atom_site_fract_z
Si Si1 0.698930 0.686800 0.746326
Si Si2 0.827233 0.524253 0.023464
Si Si3 0.770439 0.250064 0.913494
Si Si4 0.864223 0.362311 0.960054
Si Si5 0.456577 0.207086 0.947265
Si Si6 0.203032 0.179615 0.210910
Si Si7 0.429669 0.498945 0.720938
O O1 0.467926 0.723782 0.814122
O O2 0.782199 0.735909 0.763009
O O3 0.693329 0.583552 0.753775
O O4 0.860073 0.709464 0.651858
O O5 0.613597 0.517728 0.122903
O O6 0.838986 0.463169 0.974825
O O7 0.877512 0.615040 0.986602
O O8 0.000000 0.500000 0.000000
O O9 0.797024 0.341023 0.930218
O O10 0.556765 0.252090 0.958053
O O11 0.776371 0.180612 0.952621
O O12 0.096371 0.327062 0.890274
O O13 0.250000 0.250000 0.000000
O O14 0.000000 0.189170 0.250000
O O15 0.203558 0.088347 0.237963
O O16 0.500000 0.513611 0.750000
#
# Coordination Sequence:
#
# PCOD8137651 Si02
#       7
#     8   8   8   8   8   8   8
#     4  11  21  39  60  89 119 162 195 244 301 362
#     4  12  20  36  59  88 117 153 202 251 293 350
#     4  10  21  38  60  86 116 159 200 237 293 362
#     4  10  20  36  61  84 112 156 203 240 285 355
#     4  12  25  37  60  92 126 152 193 253 309 347
#     4  10  22  36  60  89 119 149 199 252 298 347
#     4  11  21  35  57  87 116 151 199 248 296 348
#
# _framework density 19.088660999999998
#
# number of rings (size 3 to 8) (size 9 to 14) (size 15 to 20)
#    0.000    1.143    2.857    5.571    2.000    0.000 
#    0.000    0.714    0.000    9.429    0.000    0.000 
#    0.000    0.000    0.000    0.000    0.000    0.000 
#
# Total GULP energy -346990.715136 kJ/mol
# GULP energy per Si atom -12392.525541 kJ/mol
# Density = 1.904521 g / cm^3
# Si number density = 19.088661 Si / 1000 Ang^3
#
#
#
# Elastic Constant Matrix: (Units=GPa)
#
#
# Indices 1 2 3 4 5 6 
#
# 1 91.9556 66.0445 48.3213 -0.0042 -15.5814 -0.0014
# 2 66.0445 138.9354 45.4479 -0.0049 -3.7637 -0.0003
# 3 48.3213 45.4479 129.5090 -0.0277 5.0759 0.0104
# 4 -0.0042 -0.0049 -0.0277 33.7261 0.0108 1.0452
# 5 -15.5814 -3.7637 5.0759 0.0108 28.2636 -0.0003
# 6 -0.0014 -0.0003 0.0104 1.0452 -0.0003 34.6317
#
#
#
# Elastic Compliance Matrix: (Units=1/GPa)
#
#
# Indices 1 2 3 4 5 6 
#
# 1 0.021758 -0.008146 -0.005727 -0.000007 0.011939 0.000003
# 2 -0.008146 0.011254 -0.000798 0.000001 -0.002849 0.000000
# 3 -0.005727 -0.000798 0.010339 0.000009 -0.005121 -0.000004
# 4 -0.000007 0.000001 0.000009 0.029678 -0.000017 -0.000896
# 5 0.011939 -0.002849 -0.005121 -0.000017 0.042503 0.000003
# 6 0.000003 0.000000 -0.000004 -0.000896 0.000003 0.028902
#
#
# Mechanical properties :
#
#
# Convention : Reuss Voigt Hill
#
# Bulk Modulus (GPa) = 71.38889 75.55862 73.47375
# Shear Modulus (GPa) = 28.01942 32.69671 30.35806
#
# Velocity S-wave (km/s) = 3.83542 4.14319 3.99227
# Velocity P-wave (km/s) = 7.55604 7.90930 7.73468
#
# Compressibility (1/GPa) = 0.01400778
#
# Stress axis : x y z
#
# Youngs Moduli (GPa) = 45.95990 88.85876 96.71860
#
# Poissons Ratio (x) = 0.72384 0.55395
# Poissons Ratio (y) = 0.37439 0.07720
# Poissons Ratio (z) = 0.26323 0.07093
#
# Static dielectric constant tensor:
#      x y z
#    x 3.214720 -0.000040 -0.029020 
#    y -0.000040 4.676330 -0.000150 
#    z -0.029020 -0.000150 3.824910 
# 
# 
# High freq. dielectric constant tensor:
#      x y z
#    x 1.709600 0.000000 0.003530 
#    y 0.000000 1.743460 0.000000 
#    z 0.003530 0.000000 1.772110 
# 
# From -- ./inp_files/311318.got.cif
#   From: 2010.06.25/outbox.cif.g09.slc.cpg/sg15_156_cif.got.tgz:311318.got - 2010.06.28 07:06:18.
