data_PCOD8137354
_publ_section_title
;
Structure prediction by ZEFSAII (Michael W. Deem and Ramdas Pophale) SiO2 
 PCOD8137354
Probable space group: C 2/C
;
_chemical_formula_sum "Si O2"
_cell_formula_units_Z 56
_cell_length_a 17.821270
_cell_length_b 13.316708
_cell_length_c 15.874285
_cell_angle_alpha 90.000000
_cell_angle_beta 48.069092
_cell_angle_gamma 90.000000
_cell_volume 2802.684011
_symmetry_space_group_name_H-M "C 2/C"
_symmetry_group_IT_number 15
_symmetry_cell_setting 'monoclinic'
loop_
_space_group_symop_operation_xyz
x,y,z
-x,y,1/2-z
-x,-y,-z
x,-y,1/2+z
1/2+x,1/2+y,z
1/2-x,1/2+y,1/2-z
1/2-x,1/2-y,-z
1/2+x,1/2-y,1/2+z
loop_
_atom_site_type_symbol
_atom_site_label
_atom_site_fract_x
_atom_site_fract_y
_atom_site_fract_z
Si Si1 0.386664 0.233553 0.313455
Si Si2 0.877788 0.105111 0.060396
Si Si3 0.290289 0.113985 0.045960
Si Si4 0.400789 0.622545 0.558489
Si Si5 0.900531 0.783620 0.879350
Si Si6 0.700642 0.804997 0.788337
Si Si7 0.740875 0.605679 0.521721
O O1 0.500000 0.261731 0.250000
O O2 0.378108 0.178259 0.229383
O O3 0.317873 0.334864 0.360021
O O4 0.343378 0.162720 0.419685
O O5 0.813376 0.179166 0.168255
O O6 0.869354 0.991496 0.101156
O O7 0.837883 0.105103 0.995679
O O8 0.992430 0.144763 0.976060
O O9 0.187331 0.176773 0.115395
O O10 0.321865 0.114558 0.120797
O O11 0.275260 0.002288 0.025824
O O12 0.376594 0.169725 0.926759
O O13 0.411855 0.641727 0.450293
O O14 0.313925 0.693432 0.662178
O O15 0.000000 0.782445 0.750000
#
# Coordination Sequence:
#
# PCOD8137354 Si02
#       7
#     8   8   8   8   8   8   8
#     4  10  22  40  62  85 115 158 200 243 295 353
#     4  10  20  37  60  88 120 158 198 250 298 348
#     4  10  21  37  56  88 120 151 201 240 297 365
#     4  10  20  36  59  91 121 154 207 246 287 365
#     4  10  20  36  57  84 121 163 191 243 298 352
#     4  10  22  37  60  86 120 156 193 251 305 345
#     4  10  21  39  60  85 119 154 196 250 293 350
#
# _framework density 19.980846
#
# number of rings (size 3 to 8) (size 9 to 14) (size 15 to 20)
#    0.000    2.000    1.429    1.714    2.000    1.143 
#    0.000    0.714    3.143    0.000    0.000    0.000 
#    0.000    0.000    0.000    0.000    0.000    0.000 
#
# Total GULP energy -347173.491866 kJ/mol
# GULP energy per Si atom -12399.053281 kJ/mol
# Density = 1.993537 g / cm^3
# Si number density = 19.980846 Si / 1000 Ang^3
#
#
#
# Elastic Constant Matrix: (Units=GPa)
#
#
# Indices 1 2 3 4 5 6 
#
# 1 56.2102 31.1777 41.2111 0.0000 2.1544 0.0000
# 2 31.1777 114.2663 49.7363 0.0000 -5.4408 0.0000
# 3 41.2111 49.7363 113.0389 0.0000 -3.2629 0.0000
# 4 0.0000 0.0000 0.0000 21.6922 0.0000 -0.2705
# 5 2.1544 -5.4408 -3.2629 0.0000 29.0289 0.0000
# 6 0.0000 0.0000 0.0000 -0.2705 0.0000 30.3941
#
#
#
# Elastic Compliance Matrix: (Units=1/GPa)
#
#
# Indices 1 2 3 4 5 6 
#
# 1 0.025765 -0.003790 -0.007827 0.000000 -0.003502 0.000000
# 2 -0.003790 0.011447 -0.003597 0.000000 0.002023 0.000000
# 3 -0.007827 -0.003597 0.013323 0.000000 0.001404 0.000000
# 4 0.000000 0.000000 0.000000 0.046105 0.000000 0.000410
# 5 -0.003502 0.002023 0.001404 0.000000 0.035245 0.000000
# 6 0.000000 0.000000 0.000000 0.000410 0.000000 0.032905
#
#
# Mechanical properties :
#
#
# Convention : Reuss Voigt Hill
#
# Bulk Modulus (GPa) = 49.73016 58.64062 54.18539
# Shear Modulus (GPa) = 24.76228 26.98239 25.87234
#
# Velocity S-wave (km/s) = 3.52419 3.67878 3.60232
# Velocity P-wave (km/s) = 6.44227 6.88888 6.66932
#
# Compressibility (1/GPa) = 0.02010852
#
# Stress axis : x y z
#
# Youngs Moduli (GPa) = 38.81220 87.35594 75.05827
#
# Poissons Ratio (x) = 0.33108 0.58746
# Poissons Ratio (y) = 0.14710 0.26996
# Poissons Ratio (z) = 0.30377 0.31419
#
# Static dielectric constant tensor:
#      x y z
#    x 3.760480 0.000000 0.156120 
#    y 0.000000 3.597260 0.000000 
#    z 0.156120 0.000000 3.591820 
# 
# 
# High freq. dielectric constant tensor:
#      x y z
#    x 1.782330 0.000000 0.011050 
#    y 0.000000 1.770290 0.000000 
#    z 0.011050 0.000000 1.778640 
# 
# From -- ./inp_files/162206.got.cif
#   From: 2010.06.25/outbox.cif.g09.slc.cpg/sg15_82_cif.got.tgz:162206.got - 2010.06.28 07:06:18.
