data_PCOD8137437
_publ_section_title
;
Structure prediction by ZEFSAII (Michael W. Deem and Ramdas Pophale) SiO2 
 PCOD8137437
Probable space group: C 2/C
;
_chemical_formula_sum "Si O2"
_cell_formula_units_Z 60
_cell_length_a 17.851596
_cell_length_b 22.011490
_cell_length_c 7.299326
_cell_angle_alpha 90.000000
_cell_angle_beta 68.889479
_cell_angle_gamma 90.000000
_cell_volume 2675.706575
_symmetry_space_group_name_H-M "C 2/C"
_symmetry_group_IT_number 15
_symmetry_cell_setting 'monoclinic'
loop_
_space_group_symop_operation_xyz
x,y,z
-x,y,1/2-z
-x,-y,-z
x,-y,1/2+z
1/2+x,1/2+y,z
1/2-x,1/2+y,1/2-z
1/2-x,1/2-y,-z
1/2+x,1/2-y,1/2+z
loop_
_atom_site_type_symbol
_atom_site_label
_atom_site_fract_x
_atom_site_fract_y
_atom_site_fract_z
Si Si1 0.171262 0.445002 0.006521
Si Si2 0.367461 0.919723 0.049462
Si Si3 0.508002 0.257223 0.033540
Si Si4 0.228539 0.836138 0.146307
Si Si5 0.500000 0.356587 0.750000
Si Si6 0.528505 0.874039 0.018641
Si Si7 0.683155 0.721159 0.330842
Si Si8 0.673411 0.381358 0.568073
O O1 0.151240 0.418051 0.220276
O O2 0.112790 0.410244 0.911967
O O3 0.153414 0.516027 0.022296
O O4 0.266532 0.431520 0.894086
O O5 0.310474 0.869117 0.008726
O O6 0.461074 0.901746 0.939436
O O7 0.500000 0.276260 0.250000
O O8 0.477351 0.314285 0.943098
O O9 0.456258 0.196880 0.036744
O O10 0.599353 0.242386 0.895323
O O11 0.245567 0.769199 0.213284
O O12 0.182466 0.876455 0.339326
O O13 0.176754 0.825947 0.008441
O O14 0.580554 0.397463 0.705177
O O15 0.500000 0.884564 0.250000
O O16 0.696991 0.683636 0.133438
#
# Coordination Sequence:
#
# PCOD8137437 Si02
#       8
#     8   8   8   8   4   8   8   8
#     4  10  23  36  60  83 116 159 200 242 286 347
#     4  10  21  38  57  84 120 158 199 236 290 339
#     4  11  21  34  57  89 120 162 193 233 296 356
#     4  10  20  36  58  86 119 147 194 244 289 353
#     4  10  22  40  60  80 126 144 194 252 298 360
#     4  10  20  37  55  82 123 160 195 235 283 342
#     4  10  21  35  57  86 119 152 193 241 296 350
#     4  10  22  38  59  86 110 156 192 243 300 348
#
# _framework density 22.423983
#
# number of rings (size 3 to 8) (size 9 to 14) (size 15 to 20)
#    0.000    1.867    2.000    1.600    1.867    4.267 
#    0.000    0.000    0.000    3.200    1.733    0.000 
#    0.000    0.000    0.000    0.000    0.000    0.000 
#
# Total GULP energy -371936.779819 kJ/mol
# GULP energy per Si atom -12397.892661 kJ/mol
# Density = 2.237294 g / cm^3
# Si number density = 22.423983 Si / 1000 Ang^3
#
#
#
# Elastic Constant Matrix: (Units=GPa)
#
#
# Indices 1 2 3 4 5 6 
#
# 1 129.2584 40.1619 10.6842 0.0000 -18.6338 0.0000
# 2 40.1619 62.8148 12.2696 0.0000 -4.2434 0.0000
# 3 10.6842 12.2696 46.3272 0.0000 -4.5612 0.0000
# 4 0.0000 0.0000 0.0000 17.9637 0.0000 2.3092
# 5 -18.6338 -4.2434 -4.5612 0.0000 20.7462 0.0000
# 6 0.0000 0.0000 0.0000 2.3092 0.0000 33.9238
#
#
#
# Elastic Compliance Matrix: (Units=1/GPa)
#
#
# Indices 1 2 3 4 5 6 
#
# 1 0.010966 -0.006438 0.000016 0.000000 0.008536 0.000000
# 2 -0.006438 0.020697 -0.004241 0.000000 -0.002482 0.000000
# 3 0.000016 -0.004241 0.023122 0.000000 0.004231 0.000000
# 4 0.000000 0.000000 0.000000 0.056159 0.000000 -0.003823
# 5 0.008536 -0.002482 0.004231 0.000000 0.056291 0.000000
# 6 0.000000 0.000000 0.000000 -0.003823 0.000000 0.029738
#
#
# Mechanical properties :
#
#
# Convention : Reuss Voigt Hill
#
# Bulk Modulus (GPa) = 29.88697 40.51464 35.20080
# Shear Modulus (GPa) = 21.79116 26.21239 24.00177
#
# Velocity S-wave (km/s) = 3.12072 3.42269 3.27519
# Velocity P-wave (km/s) = 5.13247 5.80746 5.48036
#
# Compressibility (1/GPa) = 0.03345940
#
# Stress axis : x y z
#
# Youngs Moduli (GPa) = 91.19121 48.31671 43.24963
#
# Poissons Ratio (x) = 0.31106 -0.00071
# Poissons Ratio (y) = 0.58708 0.18342
# Poissons Ratio (z) = -0.00150 0.20491
#
# Static dielectric constant tensor:
#      x y z
#    x 4.449940 0.000000 0.073890 
#    y 0.000000 3.626150 0.000000 
#    z 0.073890 0.000000 3.843550 
# 
# 
# High freq. dielectric constant tensor:
#      x y z
#    x 1.890680 0.000000 0.010160 
#    y 0.000000 1.845910 0.000000 
#    z 0.010160 0.000000 1.878690 
# 
# From -- ./inp_files/51206.got.cif
#   From: 2010.06.25/outbox.cif.g09.slc.cpg/sg15_26_cif.got.tgz:51206.got - 2010.06.28 07:06:18.
