data_PCOD8137256
_publ_section_title
;
Structure prediction by ZEFSAII (Michael W. Deem and Ramdas Pophale) SiO2 
 PCOD8137256
Probable space group: C 2/C
;
_chemical_formula_sum "Si O2"
_cell_formula_units_Z 52
_cell_length_a 21.441632
_cell_length_b 18.858666
_cell_length_c 9.170463
_cell_angle_alpha 90.000000
_cell_angle_beta 44.356446
_cell_angle_gamma 90.000000
_cell_volume 2592.458491
_symmetry_space_group_name_H-M "C 2/C"
_symmetry_group_IT_number 15
_symmetry_cell_setting 'monoclinic'
loop_
_space_group_symop_operation_xyz
x,y,z
-x,y,1/2-z
-x,-y,-z
x,-y,1/2+z
1/2+x,1/2+y,z
1/2-x,1/2+y,1/2-z
1/2-x,1/2-y,-z
1/2+x,1/2-y,1/2+z
loop_
_atom_site_type_symbol
_atom_site_label
_atom_site_fract_x
_atom_site_fract_y
_atom_site_fract_z
Si Si1 0.134581 0.278007 0.333491
Si Si2 0.688106 0.490305 0.721557
Si Si3 0.000000 0.791102 0.250000
Si Si4 0.729491 0.791404 0.679936
Si Si5 0.395652 0.283430 0.925545
Si Si6 0.857151 0.094602 0.939901
Si Si7 0.252966 0.404733 0.144703
O O1 0.208140 0.231326 0.290772
O O2 0.135042 0.257294 0.165926
O O3 0.161384 0.360364 0.306015
O O4 0.038186 0.261175 0.562899
O O5 0.628354 0.541198 0.718847
O O6 0.743926 0.439350 0.521361
O O7 0.752499 0.535619 0.720331
O O8 0.624416 0.444025 0.935421
O O9 0.075336 0.840528 0.196452
O O10 0.750000 0.750000 0.500000
O O11 0.754398 0.874395 0.610832
O O12 0.629100 0.770982 0.899497
O O13 0.500000 0.301413 0.750000
O O14 0.340944 0.356950 0.028627
#
# Coordination Sequence:
#
# PCOD8137256 Si02
#       7
#     8   8   4   8   8   8   8
#     4  10  21  37  61  83 123 155 198 256 306 343
#     4  10  21  36  58  82 114 166 195 234 281 361
#     4  10  22  34  60  88 120 152 194 256 306 340
#     4  10  20  37  61  84 116 158 203 254 295 348
#     4  11  23  36  59  92 126 155 194 253 310 352
#     4  10  20  36  54  85 118 153 201 230 294 359
#     4  10  20  40  58  86 113 161 202 239 292 361
#
# _framework density 20.05818
#
# number of rings (size 3 to 8) (size 9 to 14) (size 15 to 20)
#    0.000    1.846    0.000    6.462    6.462    0.615 
#    5.538    0.000    0.000    0.923    8.000    0.000 
#    0.000    0.000    0.000    0.000    0.000    0.000 
#
# Total GULP energy -322221.634664 kJ/mol
# GULP energy per Si atom -12393.139795 kJ/mol
# Density = 2.001253 g / cm^3
# Si number density = 20.058180 Si / 1000 Ang^3
#
#
#
# Elastic Constant Matrix: (Units=GPa)
#
#
# Indices 1 2 3 4 5 6 
#
# 1 65.2043 43.1630 47.4828 0.0000 14.1146 0.0000
# 2 43.1630 87.9071 52.6206 0.0000 -18.4962 0.0000
# 3 47.4828 52.6206 133.4346 0.0000 4.0976 0.0000
# 4 0.0000 0.0000 0.0000 36.0323 0.0000 3.0009
# 5 14.1146 -18.4962 4.0976 0.0000 27.0624 0.0000
# 6 0.0000 0.0000 0.0000 3.0009 0.0000 31.0735
#
#
#
# Elastic Compliance Matrix: (Units=1/GPa)
#
#
# Indices 1 2 3 4 5 6 
#
# 1 0.049176 -0.031962 -0.003453 0.000000 -0.046970 0.000000
# 2 -0.031962 0.039953 -0.005759 0.000000 0.044848 0.000000
# 3 -0.003453 -0.005759 0.011111 0.000000 -0.003818 0.000000
# 4 0.000000 0.000000 0.000000 0.027978 0.000000 -0.002702
# 5 -0.046970 0.044848 -0.003818 0.000000 0.092679 0.000000
# 6 0.000000 0.000000 0.000000 -0.002702 0.000000 0.032443
#
#
# Mechanical properties :
#
#
# Convention : Reuss Voigt Hill
#
# Bulk Modulus (GPa) = 55.88820 63.67542 59.78181
# Shear Modulus (GPa) = 14.63482 28.38560 21.51021
#
# Velocity S-wave (km/s) = 2.70408 3.76595 3.27829
# Velocity P-wave (km/s) = 6.13783 7.12208 6.64819
#
# Compressibility (1/GPa) = 0.01789286
#
# Stress axis : x y z
#
# Youngs Moduli (GPa) = 20.33531 25.02951 89.99821
#
# Poissons Ratio (x) = 0.79998 0.31072
# Poissons Ratio (y) = 0.64995 0.51832
# Poissons Ratio (z) = 0.07021 0.14415
#
# Static dielectric constant tensor:
#      x y z
#    x 3.401550 0.000000 0.209770 
#    y 0.000000 4.312220 0.000000 
#    z 0.209770 0.000000 4.028610 
# 
# 
# High freq. dielectric constant tensor:
#      x y z
#    x 1.760600 0.000000 0.035240 
#    y 0.000000 1.781890 0.000000 
#    z 0.035240 0.000000 1.787330 
# 
# From -- ./inp_files/40819.got.cif
#   From: 2010.06.25/outbox.cif.g09.slc.cpg/sg15_21_cif.got.tgz:40819.got - 2010.06.28 07:06:18.
