data_PCOD8137716
_publ_section_title
;
Structure prediction by ZEFSAII (Michael W. Deem and Ramdas Pophale) SiO2 
 PCOD8137716
Probable space group: C 2/C
;
_chemical_formula_sum "Si O2"
_cell_formula_units_Z 64
_cell_length_a 25.173195
_cell_length_b 11.925569
_cell_length_c 19.282775
_cell_angle_alpha 90.000000
_cell_angle_beta 33.180643
_cell_angle_gamma 90.000000
_cell_volume 3168.085947
_symmetry_space_group_name_H-M "C 2/C"
_symmetry_group_IT_number 15
_symmetry_cell_setting 'monoclinic'
loop_
_space_group_symop_operation_xyz
x,y,z
-x,y,1/2-z
-x,-y,-z
x,-y,1/2+z
1/2+x,1/2+y,z
1/2-x,1/2+y,1/2-z
1/2-x,1/2-y,-z
1/2+x,1/2-y,1/2+z
loop_
_atom_site_type_symbol
_atom_site_label
_atom_site_fract_x
_atom_site_fract_y
_atom_site_fract_z
Si Si1 0.495522 0.251390 0.336787
Si Si2 0.297392 0.017604 0.116964
Si Si3 0.179978 0.867604 0.139280
Si Si4 0.478816 0.997990 0.153670
Si Si5 0.796005 0.541703 0.772946
Si Si6 0.402745 0.806511 0.328376
Si Si7 0.758327 0.231022 0.381474
Si Si8 0.204044 0.848900 0.960768
O O1 0.500000 0.236921 0.250000
O O2 0.567303 0.350967 0.285094
O O3 0.524315 0.131725 0.337037
O O4 0.387381 0.288048 0.475859
O O5 0.242202 0.137622 0.178306
O O6 0.245004 0.947643 0.114343
O O7 0.281623 0.954847 0.206382
O O8 0.410705 0.040358 0.977955
O O9 0.216737 0.741112 0.104383
O O10 0.179877 0.912544 0.059735
O O11 0.411585 0.961251 0.161987
O O12 0.431782 0.933347 0.271680
O O13 0.740671 0.648785 0.865649
O O14 0.746120 0.433180 0.859072
O O15 0.500000 0.745819 0.250000
O O16 0.324456 0.809121 0.474809
O O17 0.361117 0.734275 0.309630
#
# Coordination Sequence:
#
# PCOD8137716 Si02
#       8
#     8   8   8   8   8   8   8   8
#     4  10  20  36  62 102 129 157 210 267 325 371
#     4  12  25  42  65  95 129 172 217 266 322 390
#     4  10  22  37  64  96 125 161 211 270 318 368
#     4  11  21  37  69  97 121 163 220 274 320 371
#     4  11  26  43  63  91 137 175 211 262 329 401
#     4  10  20  40  66  97 125 160 215 279 319 376
#     4  10  25  40  63  98 127 171 218 264 333 384
#     4  10  21  40  64  93 128 167 208 266 318 381
#
# _framework density 20.201471999999999
#
# number of rings (size 3 to 8) (size 9 to 14) (size 15 to 20)
#    0.000    1.500    3.750    0.750    7.000    0.000 
#    2.250    0.625    0.000    0.000    0.000    0.000 
#    0.000    0.000    0.000    0.000    0.000    0.000 
#
# Total GULP energy -396604.826709 kJ/mol
# GULP energy per Si atom -12393.900835 kJ/mol
# Density = 2.015549 g / cm^3
# Si number density = 20.201472 Si / 1000 Ang^3
#
#
#
# Elastic Constant Matrix: (Units=GPa)
#
#
# Indices 1 2 3 4 5 6 
#
# 1 98.8406 35.8547 43.2445 0.0000 -11.3556 0.0000
# 2 35.8547 87.4125 34.4486 -0.0001 -0.7316 0.0000
# 3 43.2445 34.4486 76.1612 0.0000 -8.3599 0.0000
# 4 0.0000 -0.0001 0.0000 27.4708 0.0000 -2.7250
# 5 -11.3556 -0.7316 -8.3599 0.0000 29.4477 0.0000
# 6 0.0000 0.0000 0.0000 -2.7250 0.0000 29.7324
#
#
#
# Elastic Compliance Matrix: (Units=1/GPa)
#
#
# Indices 1 2 3 4 5 6 
#
# 1 0.014553 -0.003460 -0.006288 0.000000 0.003741 0.000000
# 2 -0.003460 0.014808 -0.004995 0.000000 -0.002384 0.000000
# 3 -0.006288 -0.004995 0.019280 0.000000 0.002925 0.000000
# 4 0.000000 0.000000 0.000000 0.036736 0.000000 0.003367
# 5 0.003741 -0.002384 0.002925 0.000000 0.036172 0.000000
# 6 0.000000 0.000000 0.000000 0.003367 0.000000 0.033942
#
#
# Mechanical properties :
#
#
# Convention : Reuss Voigt Hill
#
# Bulk Modulus (GPa) = 52.20229 54.38999 53.29614
# Shear Modulus (GPa) = 26.12844 27.25461 26.69152
#
# Velocity S-wave (km/s) = 3.60028 3.67705 3.63887
# Velocity P-wave (km/s) = 6.57112 6.70893 6.64038
#
# Compressibility (1/GPa) = 0.01915625
#
# Stress axis : x y z
#
# Youngs Moduli (GPa) = 68.71309 67.53226 51.86617
#
# Poissons Ratio (x) = 0.23368 0.32612
# Poissons Ratio (y) = 0.23776 0.25906
# Poissons Ratio (z) = 0.43204 0.33730
#
# Static dielectric constant tensor:
#      x y z
#    x 3.970990 0.000000 -0.312410 
#    y 0.000000 3.541530 0.000000 
#    z -0.312410 0.000000 3.689360 
# 
# 
# High freq. dielectric constant tensor:
#      x y z
#    x 1.797030 0.000000 -0.020560 
#    y 0.000000 1.777930 0.000000 
#    z -0.020560 0.000000 1.774740 
# 
# From -- ./inp_files/257492.got.cif
#   From: 2010.06.25/outbox.cif.g09.slc.cpg/sg15_129_cif.got.tgz:257492.got - 2010.06.28 07:06:18.
