data_PCOD8137332
_publ_section_title
;
Structure prediction by ZEFSAII (Michael W. Deem and Ramdas Pophale) SiO2 
 PCOD8137332
Probable space group: C 2/C
;
_chemical_formula_sum "Si O2"
_cell_formula_units_Z 64
_cell_length_a 15.721849
_cell_length_b 9.244262
_cell_length_c 27.723097
_cell_angle_alpha 90.000000
_cell_angle_beta 122.450650
_cell_angle_gamma 90.000000
_cell_volume 3400.046707
_symmetry_space_group_name_H-M "C 2/C"
_symmetry_group_IT_number 15
_symmetry_cell_setting 'monoclinic'
loop_
_space_group_symop_operation_xyz
x,y,z
-x,y,1/2-z
-x,-y,-z
x,-y,1/2+z
1/2+x,1/2+y,z
1/2-x,1/2+y,1/2-z
1/2-x,1/2-y,-z
1/2+x,1/2-y,1/2+z
loop_
_atom_site_type_symbol
_atom_site_label
_atom_site_fract_x
_atom_site_fract_y
_atom_site_fract_z
Si Si1 0.450905 0.931446 0.530575
Si Si2 0.908282 0.430240 0.838611
Si Si3 0.059940 0.106645 0.655453
Si Si4 0.893336 0.925185 0.645924
Si Si5 0.960528 0.858666 0.460223
Si Si6 0.298520 0.167262 0.470006
Si Si7 0.544622 0.185049 0.713429
Si Si8 0.676051 0.434499 0.770593
O O1 0.525299 0.972516 0.595882
O O2 0.447123 0.755610 0.522402
O O3 0.500000 0.000000 0.500000
O O4 0.345598 0.016667 0.505225
O O5 0.932849 0.272071 0.826787
O O6 0.938492 0.534639 0.805825
O O7 0.792513 0.452386 0.817378
O O8 0.084284 0.090535 0.605375
O O9 0.141407 0.025504 0.713509
O O10 0.945776 0.053359 0.631402
O O11 0.784644 0.882840 0.593287
O O12 0.885638 0.976002 0.699504
O O13 0.966232 0.787419 0.661397
O O14 0.876135 0.774746 0.466090
O O15 0.000000 0.000000 0.500000
O O16 0.250000 0.250000 0.500000
O O17 0.500000 0.138129 0.750000
O O18 0.651608 0.267056 0.751547
#
# Coordination Sequence:
#
# PCOD8137332 Si02
#       8
#     8   8   8   8   8   8   8   8
#     4   9  20  36  55  80 109 144 183 223 274 335
#     4  11  20  35  56  81 109 138 180 235 276 320
#     4  10  21  36  56  83 113 144 181 232 285 331
#     4  10  20  38  57  78 111 150 187 224 275 343
#     4  10  21  39  59  82 114 147 186 238 284 333
#     4  11  21  37  62  85 111 152 194 232 286 348
#     4   9  20  35  54  78 108 144 183 225 275 334
#     4  10  20  36  57  79 107 149 188 221 274 342
#
# _framework density 18.823270999999998
#
# number of rings (size 3 to 8) (size 9 to 14) (size 15 to 20)
#    0.000    2.000    0.000    5.625    0.000    5.000 
#    0.000    8.125    0.000    0.000    0.000    0.000 
#    0.000    0.000    0.000    0.000    0.000    0.000 
#
# Total GULP energy -396563.255461 kJ/mol
# GULP energy per Si atom -12392.601733 kJ/mol
# Density = 1.878043 g / cm^3
# Si number density = 18.823271 Si / 1000 Ang^3
#
#
#
# Elastic Constant Matrix: (Units=GPa)
#
#
# Indices 1 2 3 4 5 6 
#
# 1 95.6656 57.6829 39.8922 0.0000 -0.6457 0.0000
# 2 57.6829 87.9735 33.2296 0.0000 -16.1313 0.0000
# 3 39.8922 33.2296 94.7972 0.0000 -6.8946 0.0000
# 4 0.0000 0.0000 0.0000 34.0422 0.0000 0.3867
# 5 -0.6457 -16.1313 -6.8946 0.0000 37.2798 0.0000
# 6 0.0000 0.0000 0.0000 0.3867 0.0000 14.7698
#
#
#
# Elastic Compliance Matrix: (Units=1/GPa)
#
#
# Indices 1 2 3 4 5 6 
#
# 1 0.019654 -0.012293 -0.004383 0.000000 -0.005789 0.000000
# 2 -0.012293 0.021731 -0.001800 0.000000 0.008857 0.000000
# 3 -0.004383 -0.001800 0.013139 0.000000 0.001575 0.000000
# 4 0.000000 0.000000 0.000000 0.029384 0.000000 -0.000769
# 5 -0.005789 0.008857 0.001575 0.000000 0.030848 0.000000
# 6 0.000000 0.000000 0.000000 -0.000769 0.000000 0.067726
#
#
# Mechanical properties :
#
#
# Convention : Reuss Voigt Hill
#
# Bulk Modulus (GPa) = 56.90769 60.00507 58.45638
# Shear Modulus (GPa) = 22.19357 27.06046 24.62702
#
# Velocity S-wave (km/s) = 3.43745 3.79569 3.62101
# Velocity P-wave (km/s) = 6.78624 7.15241 6.97173
#
# Compressibility (1/GPa) = 0.01757232
#
# Stress axis : x y z
#
# Youngs Moduli (GPa) = 50.88131 46.01633 76.11074
#
# Poissons Ratio (x) = 0.56567 0.33356
# Poissons Ratio (y) = 0.62547 0.13703
# Poissons Ratio (z) = 0.22299 0.08285
#
# Static dielectric constant tensor:
#      x y z
#    x 3.452080 0.000000 -0.125560 
#    y 0.000000 3.844320 0.000000 
#    z -0.125560 0.000000 2.987550 
# 
# 
# High freq. dielectric constant tensor:
#      x y z
#    x 1.726300 0.000000 -0.006600 
#    y 0.000000 1.731070 0.000000 
#    z -0.006600 0.000000 1.743900 
# 
# From -- ./inp_files/312926.got.cif
#   From: 2010.06.25/outbox.cif.g09.slc.cpg/sg15_157_cif.got.tgz:312926.got - 2010.06.28 07:06:18.
