data_PCOD8137538
_publ_section_title
;
Structure prediction by ZEFSAII (Michael W. Deem and Ramdas Pophale) SiO2 
 PCOD8137538
Probable space group: C 2/C
;
_chemical_formula_sum "Si O2"
_cell_formula_units_Z 48
_cell_length_a 11.474348
_cell_length_b 23.698045
_cell_length_c 9.040479
_cell_angle_alpha 90.000000
_cell_angle_beta 83.501132
_cell_angle_gamma 90.000000
_cell_volume 2442.486867
_symmetry_space_group_name_H-M "C 2/C"
_symmetry_group_IT_number 15
_symmetry_cell_setting 'monoclinic'
loop_
_space_group_symop_operation_xyz
x,y,z
-x,y,1/2-z
-x,-y,-z
x,-y,1/2+z
1/2+x,1/2+y,z
1/2-x,1/2+y,1/2-z
1/2-x,1/2-y,-z
1/2+x,1/2-y,1/2+z
loop_
_atom_site_type_symbol
_atom_site_label
_atom_site_fract_x
_atom_site_fract_y
_atom_site_fract_z
Si Si1 0.368181 0.021553 0.528558
Si Si2 0.638654 0.344795 0.226284
Si Si3 0.628370 0.779631 0.799014
Si Si4 0.971329 0.325183 0.407898
Si Si5 0.691126 0.074575 0.651184
Si Si6 0.193864 0.361160 0.552967
O O1 0.338243 0.038827 0.698470
O O2 0.344630 0.073878 0.419220
O O3 0.500000 0.000000 0.500000
O O4 0.285870 0.969776 0.484612
O O5 0.500000 0.351569 0.250000
O O6 0.681404 0.282156 0.265765
O O7 0.693462 0.388016 0.336963
O O8 0.683572 0.357341 0.053741
O O9 0.500000 0.783659 0.750000
O O10 0.706436 0.828263 0.707527
O O11 0.620481 0.791263 0.976169
O O12 0.919000 0.386337 0.375176
O O13 0.000000 0.292321 0.250000
O O14 0.095790 0.331059 0.468295
#
# Coordination Sequence:
#
# PCOD8137538 Si02
#       6
#     8   8   8   8   8   8
#     4  11  20  33  57  88 118 145 180 241 304 354
#     4  10  21  41  59  79 116 163 203 237 283 338
#     4   9  21  34  61  86 116 158 194 243 290 357
#     4  11  18  36  55  90 123 143 183 244 306 344
#     4  11  23  36  57  86 120 151 188 237 299 349
#     4  10  20  36  59  89 117 151 197 238 297 354
#
# _framework density 19.652103
#
# number of rings (size 3 to 8) (size 9 to 14) (size 15 to 20)
#    0.000    1.667    5.000    1.000    2.333    2.000 
#    0.000    3.333    0.000    0.000    0.000    0.000 
#    0.000    0.000    0.000    0.000    0.000    0.000 
#
# Total GULP energy -297489.406527 kJ/mol
# GULP energy per Si atom -12395.391939 kJ/mol
# Density = 1.960737 g / cm^3
# Si number density = 19.652103 Si / 1000 Ang^3
#
#
#
# Elastic Constant Matrix: (Units=GPa)
#
#
# Indices 1 2 3 4 5 6 
#
# 1 71.7631 37.5325 30.4968 0.0000 -16.2006 0.0000
# 2 37.5325 133.7660 59.8382 0.0000 -9.7986 0.0000
# 3 30.4968 59.8382 119.7483 0.0000 -9.8612 0.0000
# 4 0.0000 0.0000 0.0000 31.5504 0.0000 -2.0646
# 5 -16.2006 -9.7986 -9.8612 0.0000 22.1335 0.0000
# 6 0.0000 0.0000 0.0000 -2.0646 0.0000 30.5288
#
#
#
# Elastic Compliance Matrix: (Units=1/GPa)
#
#
# Indices 1 2 3 4 5 6 
#
# 1 0.019368 -0.003613 -0.002171 0.000000 0.011610 0.000000
# 2 -0.003613 0.010406 -0.004275 0.000000 0.000058 0.000000
# 3 -0.002171 -0.004275 0.011163 0.000000 0.001492 0.000000
# 4 0.000000 0.000000 0.000000 0.031836 0.000000 0.002153
# 5 0.011610 0.000058 0.001492 0.000000 0.054368 0.000000
# 6 0.000000 0.000000 0.000000 0.002153 0.000000 0.032902
#
#
# Mechanical properties :
#
#
# Convention : Reuss Voigt Hill
#
# Bulk Modulus (GPa) = 48.03335 64.55690 56.29513
# Shear Modulus (GPa) = 26.72369 30.00320 28.36345
#
# Velocity S-wave (km/s) = 3.69160 3.91156 3.80317
# Velocity P-wave (km/s) = 6.53188 7.30216 6.92774
#
# Compressibility (1/GPa) = 0.02081887
#
# Stress axis : x y z
#
# Youngs Moduli (GPa) = 51.63237 96.09840 89.58254
#
# Poissons Ratio (x) = 0.34716 0.19450
# Poissons Ratio (y) = 0.18653 0.38297
# Poissons Ratio (z) = 0.11211 0.41083
#
# Static dielectric constant tensor:
#      x y z
#    x 3.228070 0.000000 -0.015640 
#    y 0.000000 3.993740 0.000000 
#    z -0.015640 0.000000 3.970580 
# 
# 
# High freq. dielectric constant tensor:
#      x y z
#    x 1.730090 0.000000 -0.002190 
#    y 0.000000 1.769490 0.000000 
#    z -0.002190 0.000000 1.766980 
# 
# From -- ./inp_files/31914.got.cif
#   From: 2010.06.25/outbox.cif.g09.slc.cpg/sg15_16_cif.got.tgz:31914.got - 2010.06.28 07:06:18.
