data_PCOD8137739
_publ_section_title
;
Structure prediction by ZEFSAII (Michael W. Deem and Ramdas Pophale) SiO2 
 PCOD8137739
Probable space group: C 2/C
;
_chemical_formula_sum "Si O2"
_cell_formula_units_Z 48
_cell_length_a 11.606713
_cell_length_b 8.188346
_cell_length_c 25.137329
_cell_angle_alpha 90.000000
_cell_angle_beta 78.460494
_cell_angle_gamma 90.000000
_cell_volume 2340.756488
_symmetry_space_group_name_H-M "C 2/C"
_symmetry_group_IT_number 15
_symmetry_cell_setting 'monoclinic'
loop_
_space_group_symop_operation_xyz
x,y,z
-x,y,1/2-z
-x,-y,-z
x,-y,1/2+z
1/2+x,1/2+y,z
1/2-x,1/2+y,1/2-z
1/2-x,1/2-y,-z
1/2+x,1/2-y,1/2+z
loop_
_atom_site_type_symbol
_atom_site_label
_atom_site_fract_x
_atom_site_fract_y
_atom_site_fract_z
Si Si1 0.368656 0.292144 0.267068
Si Si2 0.915922 0.550089 0.357734
Si Si3 0.316805 0.055950 0.179222
Si Si4 0.781406 0.248085 0.405741
Si Si5 0.864258 0.647174 0.477761
Si Si6 0.596927 0.772847 0.004712
O O1 0.500000 0.371385 0.250000
O O2 0.375149 0.154228 0.311354
O O3 0.327716 0.213403 0.215574
O O4 0.269441 0.423813 0.287853
O O5 0.832132 0.393065 0.365141
O O6 0.899583 0.656940 0.412495
O O7 0.051136 0.487635 0.341478
O O8 0.259545 0.101716 0.127999
O O9 0.670896 0.313856 0.450926
O O10 0.880024 0.188839 0.439794
O O11 0.750000 0.750000 0.500000
O O12 0.855300 0.459982 0.496849
O O13 0.960857 0.739183 0.504483
#
# Coordination Sequence:
#
# PCOD8137739 Si02
#       6
#     8   8   8   8   8   8
#     4  10  24  41  63  90 117 154 207 251 303 366
#     4  10  22  39  59  90 122 161 199 249 305 357
#     4  11  22  42  64  86 123 157 197 258 305 360
#     4  10  20  38  63  86 124 163 197 246 303 356
#     4  10  20  36  62  87 124 165 203 246 300 355
#     4   9  20  38  55  88 126 159 203 246 292 360
#
# _framework density 20.50619
#
# number of rings (size 3 to 8) (size 9 to 14) (size 15 to 20)
#    0.000    2.000    1.667    1.000    2.333    1.333 
#    0.000   15.833    0.000    0.000    0.000    0.000 
#    0.000    0.000    0.000    0.000    0.000    0.000 
#
# Total GULP energy -297508.022697 kJ/mol
# GULP energy per Si atom -12396.167612 kJ/mol
# Density = 2.045952 g / cm^3
# Si number density = 20.506190 Si / 1000 Ang^3
#
#
#
# Elastic Constant Matrix: (Units=GPa)
#
#
# Indices 1 2 3 4 5 6 
#
# 1 149.1379 42.4285 41.4797 0.0000 -13.4607 0.0000
# 2 42.4285 34.8010 15.9403 0.0000 -14.2430 0.0000
# 3 41.4797 15.9403 93.9938 0.0000 -4.6804 0.0000
# 4 0.0000 0.0000 0.0000 27.5025 0.0000 -14.1988
# 5 -13.4607 -14.2430 -4.6804 0.0000 39.0834 0.0000
# 6 0.0000 0.0000 0.0000 -14.1988 0.0000 34.2887
#
#
#
# Elastic Compliance Matrix: (Units=1/GPa)
#
#
# Indices 1 2 3 4 5 6 
#
# 1 0.010935 -0.012532 -0.002757 0.000000 -0.001131 0.000000
# 2 -0.012532 0.050803 -0.002393 0.000000 0.013911 0.000000
# 3 -0.002757 -0.002393 0.012244 0.000000 -0.000355 0.000000
# 4 0.000000 0.000000 0.000000 0.046248 0.000000 0.019151
# 5 -0.001131 0.013911 -0.000355 0.000000 0.030224 0.000000
# 6 0.000000 0.000000 0.000000 0.019151 0.000000 0.037095
#
#
# Mechanical properties :
#
#
# Convention : Reuss Voigt Hill
#
# Bulk Modulus (GPa) = 25.89391 53.06996 39.48193
# Shear Modulus (GPa) = 21.20595 32.04719 26.62657
#
# Velocity S-wave (km/s) = 3.21927 3.95752 3.60733
# Velocity P-wave (km/s) = 5.14520 6.84243 6.05359
#
# Compressibility (1/GPa) = 0.03861913
#
# Stress axis : x y z
#
# Youngs Moduli (GPa) = 91.44872 19.68395 81.67532
#
# Poissons Ratio (x) = 0.24668 0.22516
# Poissons Ratio (y) = 1.14603 0.19541
# Poissons Ratio (z) = 0.25210 0.04709
#
# Static dielectric constant tensor:
#      x y z
#    x 3.964980 0.000000 0.066460 
#    y 0.000000 3.330190 0.000000 
#    z 0.066460 0.000000 3.969000 
# 
# 
# High freq. dielectric constant tensor:
#      x y z
#    x 1.819550 0.000000 0.006300 
#    y 0.000000 1.764890 0.000000 
#    z 0.006300 0.000000 1.818800 
# 
# From -- ./inp_files/267813.got.cif
#   From: 2010.06.25/outbox.cif.g09.slc.cpg/sg15_134_cif.got.tgz:267813.got - 2010.06.28 07:06:18.
