data_PCOD8137390
_publ_section_title
;
Structure prediction by ZEFSAII (Michael W. Deem and Ramdas Pophale) SiO2 
 PCOD8137390
Probable space group: C 2/C
;
_chemical_formula_sum "Si O2"
_cell_formula_units_Z 56
_cell_length_a 8.594649
_cell_length_b 12.036647
_cell_length_c 29.388004
_cell_angle_alpha 90.000000
_cell_angle_beta 62.724244
_cell_angle_gamma 90.000000
_cell_volume 2702.173871
_symmetry_space_group_name_H-M "C 2/C"
_symmetry_group_IT_number 15
_symmetry_cell_setting 'monoclinic'
loop_
_space_group_symop_operation_xyz
x,y,z
-x,y,1/2-z
-x,-y,-z
x,-y,1/2+z
1/2+x,1/2+y,z
1/2-x,1/2+y,1/2-z
1/2-x,1/2-y,-z
1/2+x,1/2-y,1/2+z
loop_
_atom_site_type_symbol
_atom_site_label
_atom_site_fract_x
_atom_site_fract_y
_atom_site_fract_z
Si Si1 0.004747 0.203575 0.071687
Si Si2 0.668660 0.576627 0.479110
Si Si3 0.355953 0.472400 0.420963
Si Si4 0.123753 0.960341 0.310644
Si Si5 0.500000 0.303883 0.250000
Si Si6 0.000000 0.634698 0.750000
Si Si7 0.369602 0.289774 0.689769
Si Si8 0.012047 0.444850 0.047979
O O1 0.854375 0.173449 0.054736
O O2 0.920427 0.234394 0.131210
O O3 0.085588 0.317939 0.040871
O O4 0.141407 0.101053 0.060194
O O5 0.500000 0.500000 0.500000
O O6 0.674047 0.611668 0.532050
O O7 0.850226 0.515536 0.440764
O O8 0.539475 0.443256 0.372151
O O9 0.191500 0.455458 0.407916
O O10 0.331428 0.940460 0.283296
O O11 0.021742 0.880115 0.290939
O O12 0.083799 0.085927 0.301074
O O13 0.336780 0.224085 0.278120
O O14 0.025606 0.707909 0.791429
O O15 0.000000 0.500000 0.000000
#
# Coordination Sequence:
#
# PCOD8137390 Si02
#       8
#     8   8   8   8   4   4   8   8
#     4  10  21  38  58  82 117 151 188 238 281 333
#     4   9  20  37  57  82 114 150 189 231 278 333
#     4   9  20  37  57  83 113 149 193 234 282 340
#     4  10  20  38  58  81 113 145 184 236 284 337
#     4  10  20  36  58  80 112 144 182 240 286 334
#     4  10  22  38  60  84 112 148 186 236 290 344
#     4  10  21  37  58  86 111 147 192 230 289 346
#     4  10  21  37  56  82 115 152 191 227 277 332
#
# _framework density 20.724056000000001
#
# number of rings (size 3 to 8) (size 9 to 14) (size 15 to 20)
#    0.000    2.286    0.000    1.714    0.000   10.857 
#    0.000   14.286    0.000    0.000    0.000    0.000 
#    0.000    0.000    0.000    0.000    0.000    0.000 
#
# Total GULP energy -346902.440048 kJ/mol
# GULP energy per Si atom -12389.372859 kJ/mol
# Density = 2.067689 g / cm^3
# Si number density = 20.724056 Si / 1000 Ang^3
#
#
#
# Elastic Constant Matrix: (Units=GPa)
#
#
# Indices 1 2 3 4 5 6 
#
# 1 89.6224 13.0051 25.2143 0.0000 -1.5159 0.0000
# 2 13.0051 66.5312 25.8049 0.0000 16.1990 0.0000
# 3 25.2143 25.8049 98.0516 0.0000 9.9953 0.0000
# 4 0.0000 0.0000 0.0000 17.6043 0.0000 17.9468
# 5 -1.5159 16.1990 9.9953 0.0000 24.4285 0.0000
# 6 0.0000 0.0000 0.0000 17.9468 0.0000 5.3258
#
#
#
# Elastic Compliance Matrix: (Units=1/GPa)
#
#
# Indices 1 2 3 4 5 6 
#
# 1 0.012353 -0.002081 -0.002972 0.000000 0.003362 0.000000
# 2 -0.002081 0.019627 -0.003434 0.000000 -0.011739 0.000000
# 3 -0.002972 -0.003434 0.012160 0.000000 -0.002883 0.000000
# 4 0.000000 0.000000 0.000000 -0.023325 0.000000 0.078600
# 5 0.003362 -0.011739 -0.002883 0.000000 0.050109 0.000000
# 6 0.000000 0.000000 0.000000 0.078600 0.000000 -0.077100
#
#
# Mechanical properties :
#
#
# Convention : Reuss Voigt Hill
#
# Bulk Modulus (GPa) = 36.80736 42.47262 39.63999
# Shear Modulus (GPa) = 251.85575 22.15045 137.00310
#
# Velocity S-wave (km/s) = 11.03594 3.27284 8.13952
# Velocity P-wave (km/s) = 13.42344 5.90092 10.36845
#
# Compressibility (1/GPa) = 0.02716848
#
# Stress axis : x y z
#
# Youngs Moduli (GPa) = 80.95345 50.94928 82.23368
#
# Poissons Ratio (x) = 0.10601 0.24438
# Poissons Ratio (y) = 0.16844 0.28237
# Poissons Ratio (z) = 0.24057 0.17494
#
# Static dielectric constant tensor:
#      x y z
#    x 4.390130 0.000000 -0.030280 
#    y 0.000000 3.732280 0.000000 
#    z -0.030280 0.000000 3.833960 
# 
# 
# High freq. dielectric constant tensor:
#      x y z
#    x 1.819880 0.000000 -0.004130 
#    y 0.000000 1.803740 0.000000 
#    z -0.004130 0.000000 1.804250 
# 
# From -- ./inp_files/287995.got.cif
#   From: 2010.06.25/outbox.cif.g09.slc.cpg/sg15_144_cif.got.tgz:287995.got - 2010.06.28 07:06:18.
