data_PCOD8137388
_publ_section_title
;
Structure prediction by ZEFSAII (Michael W. Deem and Ramdas Pophale) SiO2 
 PCOD8137388
Probable space group: C 2/C
;
_chemical_formula_sum "Si O2"
_cell_formula_units_Z 44
_cell_length_a 9.029392
_cell_length_b 11.799092
_cell_length_c 23.661585
_cell_angle_alpha 90.000000
_cell_angle_beta 56.107652
_cell_angle_gamma 90.000000
_cell_volume 2092.543131
_symmetry_space_group_name_H-M "C 2/C"
_symmetry_group_IT_number 15
_symmetry_cell_setting 'monoclinic'
loop_
_space_group_symop_operation_xyz
x,y,z
-x,y,1/2-z
-x,-y,-z
x,-y,1/2+z
1/2+x,1/2+y,z
1/2-x,1/2+y,1/2-z
1/2-x,1/2-y,-z
1/2+x,1/2-y,1/2+z
loop_
_atom_site_type_symbol
_atom_site_label
_atom_site_fract_x
_atom_site_fract_y
_atom_site_fract_z
Si Si1 0.384334 0.105893 0.935302
Si Si2 0.000000 0.669328 0.250000
Si Si3 0.225966 0.990674 0.865890
Si Si4 0.121910 0.872150 0.289254
Si Si5 0.877092 0.856249 0.909321
Si Si6 0.728763 0.479356 0.156265
O O1 0.424444 0.224485 0.895576
O O2 0.571767 0.045365 0.905775
O O3 0.255951 0.030289 0.923389
O O4 0.294252 0.123664 0.014751
O O5 0.112459 0.591460 0.184400
O O6 0.137081 0.745941 0.259354
O O7 0.041600 0.924241 0.900839
O O8 0.222066 0.104170 0.826840
O O9 0.203224 0.968929 0.229444
O O10 0.908629 0.889416 0.342643
O O11 0.826639 0.897605 0.856764
#
# Coordination Sequence:
#
# PCOD8137388 Si02
#       6
#     8   4   8   8   8   8
#     4  11  22  36  57  83 108 145 188 220 267 326
#     4  10  20  36  58  80 112 142 174 228 274 320
#     4  11  22  36  57  84 110 141 182 225 273 323
#     4   9  20  37  57  82 111 142 179 225 276 325
#     4  10  22  39  56  78 114 147 179 228 267 313
#     4   9  18  37  58  78 108 144 180 220 270 322
#
# _framework density 21.027045999999999
#
# number of rings (size 3 to 8) (size 9 to 14) (size 15 to 20)
#    0.000    2.182    0.000    4.364    0.000    2.909 
#    0.000    5.455    0.000   15.273    0.000    0.000 
#    0.000    0.000    0.000    0.000    0.000    0.000 
#
# Total GULP energy -272692.269813 kJ/mol
# GULP energy per Si atom -12395.103173 kJ/mol
# Density = 2.097919 g / cm^3
# Si number density = 21.027046 Si / 1000 Ang^3
#
#
#
# Elastic Constant Matrix: (Units=GPa)
#
#
# Indices 1 2 3 4 5 6 
#
# 1 61.5126 22.3874 18.6881 0.0000 -6.2403 0.0000
# 2 22.3874 73.0393 -2.5742 0.0000 -1.3985 0.0000
# 3 18.6881 -2.5742 43.5347 -0.0001 -8.1551 0.0000
# 4 0.0000 0.0000 -0.0001 20.4302 0.0000 -1.5237
# 5 -6.2403 -1.3985 -8.1551 0.0000 30.2540 0.0000
# 6 0.0000 0.0000 0.0000 -1.5237 0.0000 26.2870
#
#
#
# Elastic Compliance Matrix: (Units=1/GPa)
#
#
# Indices 1 2 3 4 5 6 
#
# 1 0.021853 -0.007002 -0.009490 0.000000 0.001626 0.000000
# 2 -0.007002 0.015986 0.004022 0.000000 0.000379 0.000000
# 3 -0.009490 0.004022 0.028383 0.000000 0.005879 0.000000
# 4 0.000000 0.000000 0.000000 0.049160 0.000000 0.002850
# 5 0.001626 0.000379 0.005879 0.000000 0.034991 0.000000
# 6 0.000000 0.000000 0.000000 0.002850 0.000000 0.038207
#
#
# Mechanical properties :
#
#
# Convention : Reuss Voigt Hill
#
# Bulk Modulus (GPa) = 24.22336 28.34324 26.28330
# Shear Modulus (GPa) = 21.99913 24.69992 23.34952
#
# Velocity S-wave (km/s) = 3.23806 3.43107 3.33596
# Velocity P-wave (km/s) = 5.05224 5.40417 5.23116
#
# Compressibility (1/GPa) = 0.04128246
#
# Stress axis : x y z
#
# Youngs Moduli (GPa) = 45.75974 62.55339 35.23203
#
# Poissons Ratio (x) = 0.43798 0.33437
# Poissons Ratio (y) = 0.32039 -0.14170
# Poissons Ratio (z) = 0.43428 -0.25158
#
# Static dielectric constant tensor:
#      x y z
#    x 3.748000 0.000000 -0.083180 
#    y 0.000000 3.819650 0.000000 
#    z -0.083180 0.000000 3.701280 
# 
# 
# High freq. dielectric constant tensor:
#      x y z
#    x 1.820590 0.000000 -0.010590 
#    y 0.000000 1.814380 0.000000 
#    z -0.010590 0.000000 1.819040 
# 
# From -- ./inp_files/230213.got.cif
#   From: 2010.06.25/outbox.cif.g09.slc.cpg/sg15_116_cif.got.tgz:230213.got - 2010.06.28 07:06:18.
