data_PCOD8137129
_publ_section_title
;
Structure prediction by ZEFSAII (Michael W. Deem and Ramdas Pophale) SiO2 
 PCOD8137129
Probable space group: C 2/C
;
_chemical_formula_sum "Si O2"
_cell_formula_units_Z 60
_cell_length_a 17.415074
_cell_length_b 21.390393
_cell_length_c 8.342591
_cell_angle_alpha 90.000000
_cell_angle_beta 69.650865
_cell_angle_gamma 90.000000
_cell_volume 2913.791704
_symmetry_space_group_name_H-M "C 2/C"
_symmetry_group_IT_number 15
_symmetry_cell_setting 'monoclinic'
loop_
_space_group_symop_operation_xyz
x,y,z
-x,y,1/2-z
-x,-y,-z
x,-y,1/2+z
1/2+x,1/2+y,z
1/2-x,1/2+y,1/2-z
1/2-x,1/2-y,-z
1/2+x,1/2-y,1/2+z
loop_
_atom_site_type_symbol
_atom_site_label
_atom_site_fract_x
_atom_site_fract_y
_atom_site_fract_z
Si Si1 0.404151 0.150727 0.118663
Si Si2 0.206696 0.332175 0.516963
Si Si3 0.000000 0.552567 0.250000
Si Si4 0.312313 0.917796 0.424413
Si Si5 0.193522 0.188800 0.034909
Si Si6 0.646361 0.289953 0.918654
Si Si7 0.151576 0.535248 0.942306
Si Si8 0.475339 0.731082 0.451128
O O1 0.333906 0.181670 0.280344
O O2 0.442670 0.092136 0.177057
O O3 0.371353 0.131321 0.968523
O O4 0.473182 0.201716 0.037300
O O5 0.304597 0.321655 0.469277
O O6 0.169767 0.284805 0.409298
O O7 0.192045 0.403413 0.485096
O O8 0.937528 0.516605 0.415647
O O9 0.234094 0.874988 0.434162
O O10 0.355797 0.951869 0.241751
O O11 0.290945 0.974734 0.563655
O O12 0.170645 0.177045 0.235336
O O13 0.113521 0.198022 0.979581
O O14 0.250000 0.250000 0.000000
O O15 0.548074 0.302068 0.000588
O O16 0.500000 0.740011 0.250000
#
# Coordination Sequence:
#
# PCOD8137129 Si02
#       8
#     8   8   4   8   8   8   8   8
#     4  11  21  36  58  86 128 162 197 247 298 372
#     4  10  20  38  60  88 127 165 199 246 305 370
#     4  10  24  40  58  90 128 158 202 244 302 362
#     4  12  25  40  64  84 122 164 208 248 301 375
#     4  11  20  38  60  90 122 158 206 256 307 361
#     4  10  20  35  61  90 124 162 198 253 308 359
#     4  11  25  41  60  89 116 165 204 242 303 364
#     4  10  21  33  58  94 121 156 202 255 310 353
#
# _framework density 20.591726000000001
#
# number of rings (size 3 to 8) (size 9 to 14) (size 15 to 20)
#    0.000    1.333    2.667    4.000    3.733    3.200 
#    0.000    0.000    0.000    0.800    0.000    0.000 
#    0.000    0.000    0.000    0.000    0.000    0.000 
#
# Total GULP energy -371690.601502 kJ/mol
# GULP energy per Si atom -12389.686717 kJ/mol
# Density = 2.054486 g / cm^3
# Si number density = 20.591726 Si / 1000 Ang^3
#
#
#
# Elastic Constant Matrix: (Units=GPa)
#
#
# Indices 1 2 3 4 5 6 
#
# 1 128.9492 12.2418 22.0032 0.0000 -4.5812 0.0000
# 2 12.2418 76.0899 25.5798 0.0000 -8.1898 0.0000
# 3 22.0032 25.5798 81.5172 0.0000 2.9254 0.0000
# 4 0.0000 0.0000 0.0000 11.8631 0.0000 -0.3840
# 5 -4.5812 -8.1898 2.9254 0.0000 22.4896 0.0000
# 6 0.0000 0.0000 0.0000 -0.3840 0.0000 22.7745
#
#
#
# Elastic Compliance Matrix: (Units=1/GPa)
#
#
# Indices 1 2 3 4 5 6 
#
# 1 0.008226 -0.000403 -0.002159 0.000000 0.001810 0.000000
# 2 -0.000403 0.015558 -0.004997 0.000000 0.006233 0.000000
# 3 -0.002159 -0.004997 0.014567 0.000000 -0.004154 0.000000
# 4 0.000000 0.000000 0.000000 0.084341 0.000000 0.001422
# 5 0.001810 0.006233 -0.004154 0.000000 0.047644 0.000000
# 6 0.000000 0.000000 0.000000 0.001422 0.000000 0.043933
#
#
# Mechanical properties :
#
#
# Convention : Reuss Voigt Hill
#
# Bulk Modulus (GPa) = 43.04110 45.13397 44.08753
# Shear Modulus (GPa) = 21.08538 26.54086 23.81312
#
# Velocity S-wave (km/s) = 3.20343 3.59403 3.40434
# Velocity P-wave (km/s) = 5.88474 6.26010 6.07532
#
# Compressibility (1/GPa) = 0.02323361
#
# Stress axis : x y z
#
# Youngs Moduli (GPa) = 121.56713 64.27567 68.64734
#
# Poissons Ratio (x) = 0.02590 0.14820
# Poissons Ratio (y) = 0.04898 0.34303
# Poissons Ratio (z) = 0.26245 0.32119
#
# Static dielectric constant tensor:
#      x y z
#    x 3.998730 0.000000 -0.032440 
#    y 0.000000 3.579150 0.000000 
#    z -0.032440 0.000000 3.978750 
# 
# 
# High freq. dielectric constant tensor:
#      x y z
#    x 1.807010 0.000000 0.016290 
#    y 0.000000 1.782290 0.000000 
#    z 0.016290 0.000000 1.804810 
# 
# From -- ./inp_files/51527.got.cif
#   From: 2010.06.25/outbox.cif.g09.slc.cpg/sg15_26_cif.got.tgz:51527.got - 2010.06.28 07:06:18.
