data_PCOD8137935
_publ_section_title
;
Structure prediction by ZEFSAII (Michael W. Deem and Ramdas Pophale) SiO2 
 PCOD8137935
Probable space group: C 2/C
;
_chemical_formula_sum "Si O2"
_cell_formula_units_Z 52
_cell_length_a 10.466472
_cell_length_b 17.225900
_cell_length_c 24.763483
_cell_angle_alpha 90.000000
_cell_angle_beta 144.203470
_cell_angle_gamma 90.000000
_cell_volume 2611.451344
_symmetry_space_group_name_H-M "C 2/C"
_symmetry_group_IT_number 15
_symmetry_cell_setting 'monoclinic'
loop_
_space_group_symop_operation_xyz
x,y,z
-x,y,1/2-z
-x,-y,-z
x,-y,1/2+z
1/2+x,1/2+y,z
1/2-x,1/2+y,1/2-z
1/2-x,1/2-y,-z
1/2+x,1/2-y,1/2+z
loop_
_atom_site_type_symbol
_atom_site_label
_atom_site_fract_x
_atom_site_fract_y
_atom_site_fract_z
Si Si1 0.500000 0.589840 0.250000
Si Si2 0.527772 0.869625 0.598768
Si Si3 0.520852 0.555729 0.457058
Si Si4 0.918477 0.972226 0.312900
Si Si5 0.235059 0.651710 0.591570
Si Si6 0.992443 0.452359 0.397263
Si Si7 0.661588 0.821846 0.851754
O O1 0.711339 0.644127 0.315061
O O2 0.533419 0.534130 0.312830
O O3 0.413482 0.824425 0.510588
O O4 0.443733 0.837951 0.626457
O O5 0.469578 0.959862 0.569773
O O6 0.500000 0.500000 0.500000
O O7 0.420346 0.508743 0.372551
O O8 0.389596 0.634237 0.423000
O O9 0.771884 0.582277 0.536578
O O10 0.668877 0.954720 0.209656
O O11 0.048198 0.891479 0.355089
O O12 0.105790 0.598115 0.588650
O O13 0.300509 0.730616 0.643687
O O14 0.500000 0.852273 0.750000
#
# Coordination Sequence:
#
# PCOD8137935 Si02
#       7
#     4   8   8   8   8   8   8
#     4  10  20  36  68 100 114 160 226 270 308 364
#     4  11  21  40  65  94 125 166 214 266 312 383
#     4  12  25  40  61  93 130 172 212 258 322 384
#     4  11  20  38  66  93 124 162 219 268 308 379
#     4  12  22  41  67  96 125 165 215 267 323 374
#     4  11  21  39  66  94 123 165 217 265 306 376
#     4  12  26  42  61  94 135 169 202 260 334 387
#
# _framework density 19.912299000000001
#
# number of rings (size 3 to 8) (size 9 to 14) (size 15 to 20)
#    0.000    0.615    6.154    4.615    0.000    0.615 
#    0.000    1.538    0.000    0.000    0.000    0.000 
#    0.000    0.000    0.000    0.000    0.000    0.000 
#
# Total GULP energy -322517.012766 kJ/mol
# GULP energy per Si atom -12404.500491 kJ/mol
# Density = 1.986698 g / cm^3
# Si number density = 19.912299 Si / 1000 Ang^3
#
#
#
# Elastic Constant Matrix: (Units=GPa)
#
#
# Indices 1 2 3 4 5 6 
#
# 1 97.9740 21.4188 58.9470 0.0000 -7.8779 0.0000
# 2 21.4188 73.6482 20.2532 0.0000 0.8248 0.0000
# 3 58.9470 20.2532 132.6413 -0.0004 3.4109 0.0000
# 4 0.0000 0.0000 -0.0004 22.9740 -0.0001 -0.2344
# 5 -7.8779 0.8248 3.4109 -0.0001 51.0267 0.0000
# 6 0.0000 0.0000 0.0000 -0.2344 0.0000 24.2021
#
#
#
# Elastic Compliance Matrix: (Units=1/GPa)
#
#
# Indices 1 2 3 4 5 6 
#
# 1 0.014741 -0.002606 -0.006223 0.000000 0.002734 0.000000
# 2 -0.002606 0.014634 -0.001062 0.000000 -0.000568 0.000000
# 3 -0.006223 -0.001062 0.010509 0.000000 -0.001646 0.000000
# 4 0.000000 0.000000 0.000000 0.043532 0.000000 0.000422
# 5 0.002734 -0.000568 -0.001646 0.000000 0.020139 0.000000
# 6 0.000000 0.000000 0.000000 0.000422 0.000000 0.041323
#
#
# Mechanical properties :
#
#
# Convention : Reuss Voigt Hill
#
# Bulk Modulus (GPa) = 49.74648 56.16685 52.95667
# Shear Modulus (GPa) = 29.17824 33.21687 31.19756
#
# Velocity S-wave (km/s) = 3.83213 4.08874 3.96251
# Velocity P-wave (km/s) = 6.67962 7.11047 6.89841
#
# Compressibility (1/GPa) = 0.02010192
#
# Stress axis : x y z
#
# Youngs Moduli (GPa) = 67.83969 68.33241 95.15442
#
# Poissons Ratio (x) = 0.17809 0.59217
# Poissons Ratio (y) = 0.17680 0.10103
# Poissons Ratio (z) = 0.42218 0.07255
#
# Static dielectric constant tensor:
#      x y z
#    x 3.568460 0.000000 0.159730 
#    y 0.000000 3.500970 0.000000 
#    z 0.159730 0.000000 4.117940 
# 
# 
# High freq. dielectric constant tensor:
#      x y z
#    x 1.781040 0.000000 -0.001680 
#    y 0.000000 1.753430 0.000000 
#    z -0.001680 0.000000 1.798880 
# 
# From -- ./inp_files/182844.got.cif
#   From: 2010.06.25/outbox.cif.g09.slc.cpg/sg15_92_cif.got.tgz:182844.got - 2010.06.28 07:06:18.
