data_PCOD8137231
_publ_section_title
;
Structure prediction by ZEFSAII (Michael W. Deem and Ramdas Pophale) SiO2 
 PCOD8137231
Probable space group: C 2/C
;
_chemical_formula_sum "Si O2"
_cell_formula_units_Z 56
_cell_length_a 31.452771
_cell_length_b 14.727372
_cell_length_c 9.237330
_cell_angle_alpha 90.000000
_cell_angle_beta 41.031970
_cell_angle_gamma 90.000000
_cell_volume 2809.002692
_symmetry_space_group_name_H-M "C 2/C"
_symmetry_group_IT_number 15
_symmetry_cell_setting 'monoclinic'
loop_
_space_group_symop_operation_xyz
x,y,z
-x,y,1/2-z
-x,-y,-z
x,-y,1/2+z
1/2+x,1/2+y,z
1/2-x,1/2+y,1/2-z
1/2-x,1/2-y,-z
1/2+x,1/2-y,1/2+z
loop_
_atom_site_type_symbol
_atom_site_label
_atom_site_fract_x
_atom_site_fract_y
_atom_site_fract_z
Si Si1 0.530052 0.364767 0.020390
Si Si2 0.702781 0.993025 0.345393
Si Si3 0.056537 0.064550 0.990285
Si Si4 0.174601 0.181745 0.771263
Si Si5 0.317706 0.874903 0.843496
Si Si6 0.343344 0.267853 0.859768
Si Si7 0.245557 0.386102 0.971405
O O1 0.500000 0.338703 0.250000
O O2 0.569582 0.460233 0.909855
O O3 0.467676 0.371249 0.077117
O O4 0.579628 0.284836 0.846378
O O5 0.661898 0.064058 0.350071
O O6 0.754593 0.043684 0.316595
O O7 0.660834 0.927796 0.563169
O O8 0.744226 0.932954 0.130536
O O9 0.000000 0.060767 0.250000
O O10 0.120863 0.104996 0.892597
O O11 0.240066 0.140719 0.536950
O O12 0.151247 0.274487 0.748743
O O13 0.185271 0.203648 0.911913
O O14 0.323731 0.163326 0.882421
O O15 0.307270 0.320248 0.819934
#
# Coordination Sequence:
#
# PCOD8137231 Si02
#       7
#     8   8   8   8   8   8   8
#     4  10  23  38  55  87 115 152 197 232 277 342
#     4  10  20  36  52  82 119 145 188 226 290 359
#     4  10  21  38  57  81 117 156 195 228 277 343
#     4  11  21  36  58  84 118 151 197 241 276 351
#     4  10  22  35  55  87 114 150 194 228 297 342
#     4  11  21  37  57  83 121 147 195 246 282 341
#     4  10  22  35  57  86 115 153 187 236 300 340
#
# _framework density 19.9359
#
# number of rings (size 3 to 8) (size 9 to 14) (size 15 to 20)
#    0.000    1.714    4.286    0.000    4.000    2.286 
#    0.000    0.000    0.000    0.000    0.000   20.000 
#    0.000    0.000    0.000    0.000    0.000    0.000 
#
# Total GULP energy -346988.907527 kJ/mol
# GULP energy per Si atom -12392.460983 kJ/mol
# Density = 1.989052 g / cm^3
# Si number density = 19.935900 Si / 1000 Ang^3
#
#
#
# Elastic Constant Matrix: (Units=GPa)
#
#
# Indices 1 2 3 4 5 6 
#
# 1 57.9580 26.0844 26.7280 0.0000 17.7718 0.0000
# 2 26.0844 77.3768 18.5021 0.0000 1.8075 0.0000
# 3 26.7280 18.5021 57.8670 0.0000 15.5650 0.0000
# 4 0.0000 0.0000 0.0000 28.4900 0.0000 8.2813
# 5 17.7718 1.8075 15.5650 0.0000 38.7412 0.0000
# 6 0.0000 0.0000 0.0000 8.2813 0.0000 31.9772
#
#
#
# Elastic Compliance Matrix: (Units=1/GPa)
#
#
# Indices 1 2 3 4 5 6 
#
# 1 0.026625 -0.006924 -0.007720 0.000000 -0.008789 0.000000
# 2 -0.006924 0.015852 -0.002831 0.000000 0.003574 0.000000
# 3 -0.007720 -0.002831 0.023280 0.000000 -0.005680 0.000000
# 4 0.000000 0.000000 0.000000 0.037957 0.000000 -0.009830
# 5 -0.008789 0.003574 -0.005680 0.000000 0.031959 0.000000
# 6 0.000000 0.000000 0.000000 -0.009830 0.000000 0.033818
#
#
# Mechanical properties :
#
#
# Convention : Reuss Voigt Hill
#
# Bulk Modulus (GPa) = 32.46190 37.31452 34.88821
# Shear Modulus (GPa) = 23.28708 27.96748 25.62728
#
# Velocity S-wave (km/s) = 3.42145 3.74955 3.58925
# Velocity P-wave (km/s) = 5.65039 6.12400 5.89196
#
# Compressibility (1/GPa) = 0.03080534
#
# Stress axis : x y z
#
# Youngs Moduli (GPa) = 37.55811 63.08512 42.95583
#
# Poissons Ratio (x) = 0.43683 0.33161
# Poissons Ratio (y) = 0.26007 0.12163
# Poissons Ratio (z) = 0.28994 0.17862
#
# Static dielectric constant tensor:
#      x y z
#    x 3.196940 0.000000 0.473590 
#    y 0.000000 3.956390 0.000000 
#    z 0.473590 0.000000 3.389720 
# 
# 
# High freq. dielectric constant tensor:
#      x y z
#    x 1.757870 0.000000 0.044440 
#    y 0.000000 1.785570 0.000000 
#    z 0.044440 0.000000 1.750970 
# 
# From -- ./inp_files/66292.got.cif
#   From: 2010.06.25/outbox.cif.g09.slc.cpg/sg15_34_cif.got.tgz:66292.got - 2010.06.28 07:06:18.
