data_PCOD8137053
_publ_section_title
;
Structure prediction by ZEFSAII (Michael W. Deem and Ramdas Pophale) SiO2 
 PCOD8137053
Probable space group: C 2/C
;
_chemical_formula_sum "Si O2"
_cell_formula_units_Z 60
_cell_length_a 30.714212
_cell_length_b 7.500817
_cell_length_c 22.421704
_cell_angle_alpha 90.000000
_cell_angle_beta 149.112142
_cell_angle_gamma 90.000000
_cell_volume 2651.783611
_symmetry_space_group_name_H-M "C 2/C"
_symmetry_group_IT_number 15
_symmetry_cell_setting 'monoclinic'
loop_
_space_group_symop_operation_xyz
x,y,z
-x,y,1/2-z
-x,-y,-z
x,-y,1/2+z
1/2+x,1/2+y,z
1/2-x,1/2+y,1/2-z
1/2-x,1/2-y,-z
1/2+x,1/2-y,1/2+z
loop_
_atom_site_type_symbol
_atom_site_label
_atom_site_fract_x
_atom_site_fract_y
_atom_site_fract_z
Si Si1 0.655243 0.684115 0.089945
Si Si2 0.000000 0.833506 0.750000
Si Si3 0.145663 0.389241 0.375320
Si Si4 0.993174 0.008970 0.867823
Si Si5 0.726213 0.147066 0.562529
Si Si6 0.326870 0.679854 0.198780
Si Si7 0.322255 0.030331 0.787829
Si Si8 0.610528 0.146323 0.239078
O O1 0.657502 0.759828 0.024855
O O2 0.637106 0.857584 0.110173
O O3 0.741791 0.588566 0.213069
O O4 0.582232 0.531358 0.007946
O O5 0.083790 0.711124 0.848005
O O6 0.991774 0.956610 0.682697
O O7 0.188946 0.554685 0.459782
O O8 0.200721 0.240527 0.401907
O O9 0.090006 0.471762 0.254736
O O10 0.927913 0.869723 0.821793
O O11 0.958248 0.208207 0.827167
O O12 0.795847 0.294749 0.627820
O O13 0.775308 0.994563 0.657323
O O14 0.294030 0.829309 0.204527
O O15 0.389301 0.901104 0.832038
#
# Coordination Sequence:
#
# PCOD8137053 Si02
#       8
#     8   4   8   8   8   8   8   8
#     4  11  24  39  65  92 120 161 205 261 313 347
#     4  10  24  36  56  92 134 156 200 258 302 364
#     4  10  20  35  59  88 121 167 199 251 300 362
#     4  10  23  41  60  92 124 168 197 255 314 356
#     4  10  20  35  60  90 118 163 202 249 305 368
#     4   9  20  41  60  85 127 159 206 250 302 373
#     4  10  22  43  61  89 120 159 209 260 297 369
#     4   9  21  39  61  85 125 158 210 246 301 373
#
# _framework density 22.626280000000001
#
# number of rings (size 3 to 8) (size 9 to 14) (size 15 to 20)
#    0.000    2.133    0.000    1.600    5.600    1.067 
#    4.800    0.000    0.000    0.000    0.000    0.000 
#    0.000    0.000    0.000    0.000    0.000    0.000 
#
# Total GULP energy -371690.091702 kJ/mol
# GULP energy per Si atom -12389.669723 kJ/mol
# Density = 2.257478 g / cm^3
# Si number density = 22.626280 Si / 1000 Ang^3
#
#
#
# Elastic Constant Matrix: (Units=GPa)
#
#
# Indices 1 2 3 4 5 6 
#
# 1 70.1709 23.1231 18.3083 -0.0001 -3.2853 0.0000
# 2 23.1231 88.8542 8.7367 -0.0001 -3.5007 -0.0003
# 3 18.3083 8.7367 50.8672 0.0000 -7.7262 0.0000
# 4 -0.0001 -0.0001 0.0000 21.4162 0.0000 -17.0274
# 5 -3.2853 -3.5007 -7.7262 0.0000 18.6475 -0.0001
# 6 0.0000 -0.0003 0.0000 -17.0274 -0.0001 43.3868
#
#
#
# Elastic Compliance Matrix: (Units=1/GPa)
#
#
# Indices 1 2 3 4 5 6 
#
# 1 0.016946 -0.003875 -0.005432 0.000000 0.000007 0.000000
# 2 -0.003875 0.012370 -0.000513 0.000000 0.001427 0.000000
# 3 -0.005432 -0.000513 0.022989 0.000000 0.008472 0.000000
# 4 0.000000 0.000000 0.000000 0.067872 0.000000 0.026637
# 5 0.000007 0.001427 0.008472 0.000000 0.057406 0.000000
# 6 0.000000 0.000000 0.000000 0.026637 0.000000 0.033502
#
#
# Mechanical properties :
#
#
# Convention : Reuss Voigt Hill
#
# Bulk Modulus (GPa) = 30.61592 34.46982 32.54287
# Shear Modulus (GPa) = 20.69424 27.33839 24.01632
#
# Velocity S-wave (km/s) = 3.02753 3.47977 3.26150
# Velocity P-wave (km/s) = 5.07758 5.60469 5.34763
#
# Compressibility (1/GPa) = 0.03266274
#
# Stress axis : x y z
#
# Youngs Moduli (GPa) = 59.01200 80.84351 43.49877
#
# Poissons Ratio (x) = 0.31331 0.23631
# Poissons Ratio (y) = 0.22870 0.02231
# Poissons Ratio (z) = 0.32058 0.04147
#
# Static dielectric constant tensor:
#      x y z
#    x 4.129670 0.000000 0.013850 
#    y 0.000000 4.288890 0.000000 
#    z 0.013850 0.000000 3.579500 
# 
# 
# High freq. dielectric constant tensor:
#      x y z
#    x 1.895950 0.000000 -0.004560 
#    y 0.000000 1.914820 0.000000 
#    z -0.004560 0.000000 1.849350 
# 
# From -- ./inp_files/258747.got.cif
#   From: 2010.06.25/outbox.cif.g09.slc.cpg/sg15_130_cif.got.tgz:258747.got - 2010.06.28 07:06:18.
