data_PCOD8137707
_publ_section_title
;
Structure prediction by ZEFSAII (Michael W. Deem and Ramdas Pophale) SiO2 
 PCOD8137707
Probable space group: C 2/C
;
_chemical_formula_sum "Si O2"
_cell_formula_units_Z 52
_cell_length_a 24.746135
_cell_length_b 8.103624
_cell_length_c 15.454570
_cell_angle_alpha 90.000000
_cell_angle_beta 130.943819
_cell_angle_gamma 90.000000
_cell_volume 2340.956068
_symmetry_space_group_name_H-M "C 2/C"
_symmetry_group_IT_number 15
_symmetry_cell_setting 'monoclinic'
loop_
_space_group_symop_operation_xyz
x,y,z
-x,y,1/2-z
-x,-y,-z
x,-y,1/2+z
1/2+x,1/2+y,z
1/2-x,1/2+y,1/2-z
1/2-x,1/2-y,-z
1/2+x,1/2-y,1/2+z
loop_
_atom_site_type_symbol
_atom_site_label
_atom_site_fract_x
_atom_site_fract_y
_atom_site_fract_z
Si Si1 0.121860 0.931104 0.779951
Si Si2 0.632801 0.956530 0.278794
Si Si3 0.657078 0.048772 0.125365
Si Si4 0.293165 0.573553 0.476630
Si Si5 0.500000 0.601699 0.750000
Si Si6 0.812243 0.925579 0.321350
Si Si7 0.610307 0.142123 0.416356
O O1 0.125003 0.737775 0.768503
O O2 0.043697 0.987534 0.729284
O O3 0.138733 0.025479 0.708416
O O4 0.179760 0.967737 0.914223
O O5 0.608317 0.022537 0.159534
O O6 0.711795 0.025836 0.378469
O O7 0.586639 0.038071 0.306675
O O8 0.676027 0.239000 0.135367
O O9 0.729289 0.941430 0.207880
O O10 0.610639 0.984960 0.995911
O O11 0.332972 0.533239 0.427105
O O12 0.311199 0.768278 0.512076
O O13 0.447420 0.711860 0.635338
#
# Coordination Sequence:
#
# PCOD8137707 Si02
#       7
#     8   8   8   8   4   8   8
#     4  11  22  41  60  86 124 164 203 250 296 355
#     4  11  21  36  64  95 120 153 197 251 314 367
#     4  11  21  36  61  95 125 154 194 250 313 372
#     4  10  20  36  61  95 123 152 191 247 315 370
#     4  10  26  44  60  82 120 170 216 248 288 352
#     4  11  21  37  62  95 127 155 193 248 313 372
#     4  11  22  41  61  87 125 163 202 251 296 353
#
# _framework density 22.213148
#
# number of rings (size 3 to 8) (size 9 to 14) (size 15 to 20)
#    0.000    1.231    0.000    9.231    0.000    0.615 
#    0.000   10.000    0.000    0.000    0.000    0.000 
#    0.000    0.000    0.000    0.000    0.000    0.000 
#
# Total GULP energy -322358.886675 kJ/mol
# GULP energy per Si atom -12398.418718 kJ/mol
# Density = 2.216259 g / cm^3
# Si number density = 22.213148 Si / 1000 Ang^3
#
#
#
# Elastic Constant Matrix: (Units=GPa)
#
#
# Indices 1 2 3 4 5 6 
#
# 1 77.5077 26.7332 35.7703 0.0000 -26.6944 0.0000
# 2 26.7332 106.5904 45.3777 0.0000 -15.8070 0.0000
# 3 35.7703 45.3777 46.3696 0.0000 -14.1039 0.0000
# 4 0.0000 0.0000 0.0000 36.0498 0.0000 -10.1289
# 5 -26.6944 -15.8070 -14.1039 0.0000 29.3803 0.0000
# 6 0.0000 0.0000 0.0000 -10.1289 0.0000 18.6800
#
#
#
# Elastic Compliance Matrix: (Units=1/GPa)
#
#
# Indices 1 2 3 4 5 6 
#
# 1 0.025987 0.003995 -0.018878 0.000000 0.016699 0.000000
# 2 0.003995 0.016737 -0.018289 0.000000 0.003856 0.000000
# 3 -0.018878 -0.018289 0.053650 0.000000 -0.001237 0.000000
# 4 0.000000 0.000000 0.000000 0.032725 0.000000 0.017744
# 5 0.016699 0.003856 -0.001237 0.000000 0.050689 0.000000
# 6 0.000000 0.000000 0.000000 0.017744 0.000000 0.063155
#
#
# Mechanical properties :
#
#
# Convention : Reuss Voigt Hill
#
# Bulk Modulus (GPa) = 33.29760 49.58113 41.43936
# Shear Modulus (GPa) = 15.65943 24.99444 20.32694
#
# Velocity S-wave (km/s) = 2.65799 3.35805 3.02832
# Velocity P-wave (km/s) = 4.94393 6.11592 5.56089
#
# Compressibility (1/GPa) = 0.03003220
#
# Stress axis : x y z
#
# Youngs Moduli (GPa) = 38.48014 59.74689 18.63947
#
# Poissons Ratio (x) = -0.23871 0.35187
# Poissons Ratio (y) = -0.15374 0.34089
# Poissons Ratio (z) = 0.72642 1.09269
#
# Static dielectric constant tensor:
#      x y z
#    x 4.165580 0.000000 -0.483610 
#    y 0.000000 4.086790 0.000000 
#    z -0.483610 0.000000 4.234060 
# 
# 
# High freq. dielectric constant tensor:
#      x y z
#    x 1.864330 0.000000 -0.030850 
#    y 0.000000 1.889390 0.000000 
#    z -0.030850 0.000000 1.869380 
# 
# From -- ./inp_files/176712.got.cif
#   From: 2010.06.25/outbox.cif.g09.slc.cpg/sg15_89_cif.got.tgz:176712.got - 2010.06.28 07:06:18.
