data_PCOD8137632
_publ_section_title
;
Structure prediction by ZEFSAII (Michael W. Deem and Ramdas Pophale) SiO2 
 PCOD8137632
Probable space group: C 2/C
;
_chemical_formula_sum "Si O2"
_cell_formula_units_Z 56
_cell_length_a 14.622453
_cell_length_b 22.924654
_cell_length_c 9.072108
_cell_angle_alpha 90.000000
_cell_angle_beta 61.449329
_cell_angle_gamma 90.000000
_cell_volume 2671.289656
_symmetry_space_group_name_H-M "C 2/C"
_symmetry_group_IT_number 15
_symmetry_cell_setting 'monoclinic'
loop_
_space_group_symop_operation_xyz
x,y,z
-x,y,1/2-z
-x,-y,-z
x,-y,1/2+z
1/2+x,1/2+y,z
1/2-x,1/2+y,1/2-z
1/2-x,1/2-y,-z
1/2+x,1/2-y,1/2+z
loop_
_atom_site_type_symbol
_atom_site_label
_atom_site_fract_x
_atom_site_fract_y
_atom_site_fract_z
Si Si1 0.786658 0.657880 0.951510
Si Si2 0.877588 0.118927 0.837637
Si Si3 0.283235 0.137033 0.295169
Si Si4 0.093177 0.229302 0.083499
Si Si5 0.116599 0.534303 0.147262
Si Si6 0.211844 0.559007 0.769431
Si Si7 0.099306 0.250195 0.760583
O O1 0.855760 0.715295 0.875392
O O2 0.829018 0.612906 0.797646
O O3 0.780766 0.630958 0.120398
O O4 0.669568 0.675166 0.001502
O O5 0.823536 0.075604 0.758790
O O6 0.859753 0.186216 0.810153
O O7 0.000000 0.102714 0.750000
O O8 0.822282 0.113892 0.041715
O O9 0.378628 0.097453 0.278581
O O10 0.305103 0.204266 0.324352
O O11 0.000000 0.203853 0.250000
O O12 0.051316 0.250411 0.960282
O O13 0.206647 0.494742 0.157156
O O14 0.000000 0.508038 0.250000
O O15 0.134483 0.541955 0.959649
O O16 0.000000 0.272441 0.750000
#
# Coordination Sequence:
#
# PCOD8137632 Si02
#       7
#     8   8   8   8   8   8   8
#     4  10  22  38  57  88 126 165 205 256 315 371
#     4  10  22  39  61  93 123 170 218 258 315 379
#     4  10  22  38  60  90 130 165 206 266 316 375
#     4  10  22  36  56  89 124 166 209 251 311 382
#     4  11  24  42  67  97 123 164 214 260 325 377
#     4  11  23  43  66  90 132 162 212 268 315 374
#     4  10  20  36  60  92 127 166 209 255 321 381
#
# _framework density 20.963657000000001
#
# number of rings (size 3 to 8) (size 9 to 14) (size 15 to 20)
#    0.000    1.714    1.429    2.143    4.000    5.143 
#    0.000    2.857    0.000    4.286    0.000    0.000 
#    0.000    0.000    0.000    0.000    0.000    0.000 
#
# Total GULP energy -346947.730027 kJ/mol
# GULP energy per Si atom -12390.990358 kJ/mol
# Density = 2.091594 g / cm^3
# Si number density = 20.963657 Si / 1000 Ang^3
#
#
#
# Elastic Constant Matrix: (Units=GPa)
#
#
# Indices 1 2 3 4 5 6 
#
# 1 104.0832 30.2927 55.6195 0.0000 6.0140 0.0000
# 2 30.2927 86.1636 38.1813 0.0000 11.3222 0.0000
# 3 55.6195 38.1813 119.7222 0.0000 9.7710 0.0000
# 4 0.0000 0.0000 0.0000 30.6322 0.0000 9.8331
# 5 6.0140 11.3222 9.7710 0.0000 29.0283 0.0000
# 6 0.0000 0.0000 0.0000 9.8331 0.0000 27.6082
#
#
#
# Elastic Compliance Matrix: (Units=1/GPa)
#
#
# Indices 1 2 3 4 5 6 
#
# 1 0.013138 -0.002225 -0.005391 0.000000 -0.000040 0.000000
# 2 -0.002225 0.014343 -0.003210 0.000000 -0.004053 0.000000
# 3 -0.005391 -0.003210 0.012018 0.000000 -0.001676 0.000000
# 4 0.000000 0.000000 0.000000 0.036860 0.000000 -0.013128
# 5 -0.000040 -0.004053 -0.001676 0.000000 0.036602 0.000000
# 6 0.000000 0.000000 0.000000 -0.013128 0.000000 0.040897
#
#
# Mechanical properties :
#
#
# Convention : Reuss Voigt Hill
#
# Bulk Modulus (GPa) = 56.03001 62.01735 59.02368
# Shear Modulus (GPa) = 27.55454 29.84544 28.69999
#
# Velocity S-wave (km/s) = 3.62939 3.77726 3.70406
# Velocity P-wave (km/s) = 6.65947 6.97646 6.81981
#
# Compressibility (1/GPa) = 0.01784758
#
# Stress axis : x y z
#
# Youngs Moduli (GPa) = 76.11334 69.72053 83.21159
#
# Poissons Ratio (x) = 0.15513 0.44858
# Poissons Ratio (y) = 0.16936 0.26709
# Poissons Ratio (z) = 0.41032 0.22378
#
# Static dielectric constant tensor:
#      x y z
#    x 3.748520 0.000000 0.260060 
#    y 0.000000 3.793350 0.000000 
#    z 0.260060 0.000000 3.790410 
# 
# 
# High freq. dielectric constant tensor:
#      x y z
#    x 1.813920 0.000000 0.020380 
#    y 0.000000 1.813470 0.000000 
#    z 0.020380 0.000000 1.825690 
# 
# From -- ./inp_files/42269.got.cif
#   From: 2010.06.25/outbox.cif.g09.slc.cpg/sg15_22_cif.got.tgz:42269.got - 2010.06.28 07:06:18.
