data_PCOD8137822
_publ_section_title
;
Structure prediction by ZEFSAII (Michael W. Deem and Ramdas Pophale) SiO2 
 PCOD8137822
Probable space group: C 2/C
;
_chemical_formula_sum "Si O2"
_cell_formula_units_Z 60
_cell_length_a 27.364625
_cell_length_b 21.230190
_cell_length_c 9.576872
_cell_angle_alpha 90.000000
_cell_angle_beta 148.177235
_cell_angle_gamma 90.000000
_cell_volume 2933.725195
_symmetry_space_group_name_H-M "C 2/C"
_symmetry_group_IT_number 15
_symmetry_cell_setting 'monoclinic'
loop_
_space_group_symop_operation_xyz
x,y,z
-x,y,1/2-z
-x,-y,-z
x,-y,1/2+z
1/2+x,1/2+y,z
1/2-x,1/2+y,1/2-z
1/2-x,1/2-y,-z
1/2+x,1/2-y,1/2+z
loop_
_atom_site_type_symbol
_atom_site_label
_atom_site_fract_x
_atom_site_fract_y
_atom_site_fract_z
Si Si1 0.106914 0.716805 0.503577
Si Si2 0.895454 0.335940 0.996805
Si Si3 0.000000 0.004223 0.750000
Si Si4 0.255449 0.625615 0.794708
Si Si5 0.611166 0.266740 0.806140
Si Si6 0.224098 0.898174 0.464614
Si Si7 0.599945 0.278004 0.202089
Si Si8 0.624013 0.525936 0.297074
O O1 0.156790 0.649386 0.610640
O O2 0.140109 0.757836 0.715961
O O3 0.130867 0.761442 0.432862
O O4 0.000000 0.698912 0.250000
O O5 0.881444 0.303064 0.111773
O O6 0.000000 0.364818 0.250000
O O7 0.817590 0.389509 0.783907
O O8 0.879087 0.282773 0.840279
O O9 0.935414 0.964692 0.702541
O O10 0.936012 0.044285 0.487289
O O11 0.245545 0.590799 0.621705
O O12 0.322402 0.686143 0.950916
O O13 0.292660 0.575270 0.997077
O O14 0.508248 0.295288 0.571838
O O15 0.159293 0.837410 0.302189
O O16 0.164328 0.955579 0.381258
#
# Coordination Sequence:
#
# PCOD8137822 Si02
#       8
#     8   8   4   8   8   8   8   8
#     4  10  22  41  61  94 128 160 197 259 322 366
#     4  10  20  38  64  93 121 155 204 259 306 366
#     4  10  24  46  60  88 134 162 204 256 298 354
#     4  12  23  41  65  88 127 166 208 257 303 369
#     4  10  22  35  60  98 125 156 200 250 320 371
#     4  12  23  40  66  90 122 168 212 254 301 367
#     4  10  20  36  63  93 124 157 202 248 313 379
#     4  11  26  42  66  92 127 166 214 245 308 365
#
# _framework density 20.451812
#
# number of rings (size 3 to 8) (size 9 to 14) (size 15 to 20)
#    0.000    1.333    4.000    1.600    3.733    2.133 
#    2.400    0.667    0.000    1.600    0.000    0.000 
#    0.000    0.000    0.000    0.000    0.000    0.000 
#
# Total GULP energy -371918.390667 kJ/mol
# GULP energy per Si atom -12397.279689 kJ/mol
# Density = 2.040526 g / cm^3
# Si number density = 20.451812 Si / 1000 Ang^3
#
#
#
# Elastic Constant Matrix: (Units=GPa)
#
#
# Indices 1 2 3 4 5 6 
#
# 1 84.2373 22.1192 28.9783 0.0000 -12.2158 0.0000
# 2 22.1192 58.7252 38.3327 0.0000 10.0266 0.0000
# 3 28.9783 38.3327 120.0825 0.0000 -0.2229 0.0000
# 4 0.0000 0.0000 0.0000 24.6709 0.0000 -0.6922
# 5 -12.2158 10.0266 -0.2229 0.0000 37.0457 0.0000
# 6 0.0000 0.0000 0.0000 -0.6922 0.0000 11.8619
#
#
#
# Elastic Compliance Matrix: (Units=1/GPa)
#
#
# Indices 1 2 3 4 5 6 
#
# 1 0.014867 -0.005501 -0.001820 0.000000 0.006380 0.000000
# 2 -0.005501 0.024900 -0.006637 0.000000 -0.008593 0.000000
# 3 -0.001820 -0.006637 0.010888 0.000000 0.001262 0.000000
# 4 0.000000 0.000000 0.000000 0.040600 0.000000 0.002369
# 5 0.006380 -0.008593 0.001262 0.000000 0.031431 0.000000
# 6 0.000000 0.000000 0.000000 0.002369 0.000000 0.084442
#
#
# Mechanical properties :
#
#
# Convention : Reuss Voigt Hill
#
# Bulk Modulus (GPa) = 43.97770 49.10059 46.53915
# Shear Modulus (GPa) = 20.60810 26.29003 23.44906
#
# Velocity S-wave (km/s) = 3.17778 3.58922 3.38975
# Velocity P-wave (km/s) = 5.91728 6.42159 6.17458
#
# Compressibility (1/GPa) = 0.02273880
#
# Stress axis : x y z
#
# Youngs Moduli (GPa) = 67.26288 40.16065 91.84641
#
# Poissons Ratio (x) = 0.22094 0.16714
# Poissons Ratio (y) = 0.37003 0.60958
# Poissons Ratio (z) = 0.12240 0.26654
#
# Static dielectric constant tensor:
#      x y z
#    x 3.245700 0.000000 0.306950 
#    y 0.000000 3.228180 0.000000 
#    z 0.306950 0.000000 3.852510 
# 
# 
# High freq. dielectric constant tensor:
#      x y z
#    x 1.806250 0.000000 -0.006520 
#    y 0.000000 1.751800 0.000000 
#    z -0.006520 0.000000 1.821620 
# 
# From -- ./inp_files/67735.got.cif
#   From: 2010.06.25/outbox.cif.g09.slc.cpg/sg15_34_cif.got.tgz:67735.got - 2010.06.28 07:06:18.
