data_PCOD8137304
_publ_section_title
;
Structure prediction by ZEFSAII (Michael W. Deem and Ramdas Pophale) SiO2 
 PCOD8137304
Probable space group: C 2/C
;
_chemical_formula_sum "Si O2"
_cell_formula_units_Z 60
_cell_length_a 22.606922
_cell_length_b 28.379645
_cell_length_c 13.362607
_cell_angle_alpha 90.000000
_cell_angle_beta 22.287606
_cell_angle_gamma 90.000000
_cell_volume 3251.412457
_symmetry_space_group_name_H-M "C 2/C"
_symmetry_group_IT_number 15
_symmetry_cell_setting 'monoclinic'
loop_
_space_group_symop_operation_xyz
x,y,z
-x,y,1/2-z
-x,-y,-z
x,-y,1/2+z
1/2+x,1/2+y,z
1/2-x,1/2+y,1/2-z
1/2-x,1/2-y,-z
1/2+x,1/2-y,1/2+z
loop_
_atom_site_type_symbol
_atom_site_label
_atom_site_fract_x
_atom_site_fract_y
_atom_site_fract_z
Si Si1 0.632014 0.714101 0.736465
Si Si2 0.647658 0.338432 0.901306
Si Si3 0.948433 0.697660 0.045834
Si Si4 0.688448 0.048230 0.164863
Si Si5 0.113005 0.642846 0.165706
Si Si6 0.500000 0.420554 0.250000
Si Si7 0.550260 0.042746 0.785079
Si Si8 0.142977 0.359518 0.100617
O O1 0.750000 0.750000 0.500000
O O2 0.554328 0.744986 0.947692
O O3 0.726604 0.667770 0.624495
O O4 0.496774 0.697906 0.871214
O O5 0.784987 0.320562 0.757404
O O6 0.702737 0.344146 0.700005
O O7 0.591883 0.388862 0.026396
O O8 0.968576 0.676776 0.125517
O O9 0.098949 0.681512 0.747614
O O10 0.647373 0.092807 0.161098
O O11 0.600448 0.050646 0.408990
O O12 0.649525 0.001319 0.165945
O O13 0.873747 0.046567 0.893423
O O14 0.000000 0.634918 0.250000
O O15 0.500000 0.033179 0.750000
O O16 0.660727 0.089106 0.624032
O O17 0.000000 0.366519 0.250000
#
# Coordination Sequence:
#
# PCOD8137304 Si02
#       8
#     8   8   8   8   8   4   8   8
#     4  10  22  33  55  87 112 149 194 239 286 335
#     4  11  20  36  62  82 116 151 190 240 289 337
#     4  10  20  36  56  85 114 149 194 237 279 347
#     4  11  21  36  62  88 117 146 194 239 284 340
#     4  11  21  35  55  84 116 150 184 239 295 335
#     4  12  18  36  58  90 116 146 188 244 282 332
#     4  10  20  38  61  88 112 153 193 232 283 354
#     4   9  18  36  60  83 112 154 192 231 288 344
#
# _framework density 18.453517999999999
#
# number of rings (size 3 to 8) (size 9 to 14) (size 15 to 20)
#    0.000    1.600    4.000    2.800    3.733    0.533 
#    0.000    2.667    2.933    0.000    0.000    0.000 
#    0.000    0.000    0.000    0.000    0.000    0.000 
#
# Total GULP energy -371889.630171 kJ/mol
# GULP energy per Si atom -12396.321006 kJ/mol
# Density = 1.841152 g / cm^3
# Si number density = 18.453518 Si / 1000 Ang^3
#
#
#
# Elastic Constant Matrix: (Units=GPa)
#
#
# Indices 1 2 3 4 5 6 
#
# 1 106.5816 46.6783 48.3974 0.0201 -3.2754 -0.0172
# 2 46.6783 109.8343 32.8932 0.0086 0.6002 -0.0264
# 3 48.3974 32.8932 72.8852 0.0204 -4.4258 -0.0602
# 4 0.0201 0.0086 0.0204 21.4541 -0.0187 -0.6547
# 5 -3.2754 0.6002 -4.4258 -0.0187 30.4043 0.0232
# 6 -0.0172 -0.0264 -0.0602 -0.6547 0.0232 26.6216
#
#
#
# Elastic Compliance Matrix: (Units=1/GPa)
#
#
# Indices 1 2 3 4 5 6 
#
# 1 0.014724 -0.003863 -0.008003 -0.000005 0.000497 -0.000013
# 2 -0.003863 0.011566 -0.002718 0.000001 -0.001040 0.000004
# 3 -0.008003 -0.002718 0.020392 -0.000008 0.002160 0.000036
# 4 -0.000005 0.000001 -0.000008 0.046646 0.000026 0.001147
# 5 0.000497 -0.001040 0.002160 0.000026 0.033279 -0.000024
# 6 -0.000013 0.000004 0.000036 0.001147 -0.000024 0.037592
#
#
# Mechanical properties :
#
#
# Convention : Reuss Voigt Hill
#
# Bulk Modulus (GPa) = 57.09803 60.58210 58.84007
# Shear Modulus (GPa) = 25.09973 26.45147 25.77560
#
# Velocity S-wave (km/s) = 3.69203 3.79015 3.74141
# Velocity P-wave (km/s) = 7.01310 7.21488 7.11470
#
# Compressibility (1/GPa) = 0.01751374
#
# Stress axis : x y z
#
# Youngs Moduli (GPa) = 67.91640 86.45984 49.03835
#
# Poissons Ratio (x) = 0.33403 0.39247
# Poissons Ratio (y) = 0.26239 0.13326
# Poissons Ratio (z) = 0.54356 0.23496
#
# Static dielectric constant tensor:
#      x y z
#    x 3.366810 0.000010 0.205200 
#    y 0.000010 3.773000 0.000150 
#    z 0.205200 0.000150 3.547100 
# 
# 
# High freq. dielectric constant tensor:
#      x y z
#    x 1.700610 0.000000 0.008390 
#    y 0.000000 1.723320 0.000010 
#    z 0.008390 0.000010 1.707250 
# 
# From -- ./inp_files/174911.got.cif
#   From: 2010.06.25/outbox.cif.g09.slc.cpg/sg15_88_cif.got.tgz:174911.got - 2010.06.28 07:06:18.
