data_PCOD8137602
_publ_section_title
;
Structure prediction by ZEFSAII (Michael W. Deem and Ramdas Pophale) SiO2 
 PCOD8137602
Probable space group: C 2/C
;
_chemical_formula_sum "Si O2"
_cell_formula_units_Z 64
_cell_length_a 9.364863
_cell_length_b 18.584507
_cell_length_c 22.329270
_cell_angle_alpha 90.000000
_cell_angle_beta 123.393155
_cell_angle_gamma 90.000000
_cell_volume 3244.655146
_symmetry_space_group_name_H-M "C 2/C"
_symmetry_group_IT_number 15
_symmetry_cell_setting 'monoclinic'
loop_
_space_group_symop_operation_xyz
x,y,z
-x,y,1/2-z
-x,-y,-z
x,-y,1/2+z
1/2+x,1/2+y,z
1/2-x,1/2+y,1/2-z
1/2-x,1/2-y,-z
1/2+x,1/2-y,1/2+z
loop_
_atom_site_type_symbol
_atom_site_label
_atom_site_fract_x
_atom_site_fract_y
_atom_site_fract_z
Si Si1 0.313572 0.183086 0.178725
Si Si2 0.304427 0.817138 0.974377
Si Si3 0.202329 0.286428 0.049487
Si Si4 0.031408 0.990500 0.692056
Si Si5 0.326965 0.984682 0.675070
Si Si6 0.282582 0.057337 0.931522
Si Si7 0.495327 0.674009 0.313921
Si Si8 0.886855 0.458776 0.057268
O O1 0.500000 0.197209 0.250000
O O2 0.282947 0.232631 0.115270
O O3 0.291642 0.099663 0.154530
O O4 0.160517 0.210056 0.186390
O O5 0.180284 0.820594 0.888097
O O6 0.250000 0.750000 0.000000
O O7 0.500240 0.804123 0.001749
O O8 0.280400 0.890411 0.007343
O O9 0.296236 0.363231 0.078421
O O10 0.250000 0.250000 0.000000
O O11 0.186074 0.020601 0.686682
O O12 0.066539 0.907197 0.710854
O O13 0.000000 0.028631 0.750000
O O14 0.862217 0.999747 0.614698
O O15 0.500000 0.995991 0.750000
O O16 0.333246 0.026815 0.613333
O O17 0.412574 0.058969 0.904859
O O18 0.363615 0.031316 0.012883
O O19 0.500000 0.712287 0.250000
#
# Coordination Sequence:
#
# PCOD8137602 Si02
#       8
#     8   8   8   8   8   8   8   8
#     4  10  22  40  59  89 124 159 203 254 301 362
#     4  11  22  41  64  88 125 156 201 259 297 362
#     4  11  24  38  59  90 124 161 199 248 309 364
#     4  10  20  36  60  88 116 149 200 251 298 361
#     4  10  21  38  62  89 117 159 202 252 298 361
#     4  10  21  37  58  85 118 160 193 246 303 357
#     4  10  21  39  64  89 114 160 208 244 303 359
#     4  10  21  38  60  88 120 155 202 245 305 361
#
# _framework density 19.724746
#
# number of rings (size 3 to 8) (size 9 to 14) (size 15 to 20)
#    0.000    1.750    2.500    1.500    1.750    3.000 
#    0.000    0.625    2.750    0.000    0.000    0.000 
#    0.000    0.000    0.000    0.000    0.000    0.000 
#
# Total GULP energy -396564.201938 kJ/mol
# GULP energy per Si atom -12392.631311 kJ/mol
# Density = 1.967985 g / cm^3
# Si number density = 19.724746 Si / 1000 Ang^3
#
#
#
# Elastic Constant Matrix: (Units=GPa)
#
#
# Indices 1 2 3 4 5 6 
#
# 1 126.9310 43.5329 61.3599 0.0000 -23.1328 0.0000
# 2 43.5329 83.7047 42.2550 0.0000 -17.4604 0.0000
# 3 61.3599 42.2550 124.7617 0.0000 -11.4966 0.0000
# 4 0.0000 0.0000 0.0000 11.9719 0.0000 -2.1358
# 5 -23.1328 -17.4604 -11.4966 0.0000 42.3830 0.0000
# 6 0.0000 0.0000 0.0000 -2.1358 0.0000 26.0946
#
#
#
# Elastic Compliance Matrix: (Units=1/GPa)
#
#
# Indices 1 2 3 4 5 6 
#
# 1 0.011778 -0.003086 -0.004382 0.000000 0.003969 0.000000
# 2 -0.003086 0.016207 -0.003602 0.000000 0.004016 0.000000
# 3 -0.004382 -0.003602 0.011316 0.000000 -0.000806 0.000000
# 4 0.000000 0.000000 0.000000 0.084766 0.000000 0.006938
# 5 0.003969 0.004016 -0.000806 0.000000 0.027196 0.000000
# 6 0.000000 0.000000 0.000000 0.006938 0.000000 0.038890
#
#
# Mechanical properties :
#
#
# Convention : Reuss Voigt Hill
#
# Bulk Modulus (GPa) = 58.26440 69.96586 64.11513
# Shear Modulus (GPa) = 22.93440 28.63991 25.78715
#
# Velocity S-wave (km/s) = 3.41357 3.81462 3.61965
# Velocity P-wave (km/s) = 6.71859 7.41282 7.07423
#
# Compressibility (1/GPa) = 0.01716314
#
# Stress axis : x y z
#
# Youngs Moduli (GPa) = 84.90325 61.70059 88.37123
#
# Poissons Ratio (x) = 0.19039 0.38723
# Poissons Ratio (y) = 0.26198 0.31827
# Poissons Ratio (z) = 0.37204 0.22222
#
# Static dielectric constant tensor:
#      x y z
#    x 3.839130 0.000000 -0.104960 
#    y 0.000000 3.573510 0.000000 
#    z -0.104960 0.000000 3.237160 
# 
# 
# High freq. dielectric constant tensor:
#      x y z
#    x 1.776650 0.000000 -0.000340 
#    y 0.000000 1.754690 0.000000 
#    z -0.000340 0.000000 1.770380 
# 
# From -- ./inp_files/266138.got.cif
#   From: 2010.06.25/outbox.cif.g09.slc.cpg/sg15_134_cif.got.tgz:266138.got - 2010.06.28 07:06:18.
