data_PCOD8137031
_publ_section_title
;
Structure prediction by ZEFSAII (Michael W. Deem and Ramdas Pophale) SiO2 
 PCOD8137031
Probable space group: C 2/C
;
_chemical_formula_sum "Si O2"
_cell_formula_units_Z 52
_cell_length_a 12.056332
_cell_length_b 15.156655
_cell_length_c 16.438304
_cell_angle_alpha 90.000000
_cell_angle_beta 123.770719
_cell_angle_gamma 90.000000
_cell_volume 2496.990998
_symmetry_space_group_name_H-M "C 2/C"
_symmetry_group_IT_number 15
_symmetry_cell_setting 'monoclinic'
loop_
_space_group_symop_operation_xyz
x,y,z
-x,y,1/2-z
-x,-y,-z
x,-y,1/2+z
1/2+x,1/2+y,z
1/2-x,1/2+y,1/2-z
1/2-x,1/2-y,-z
1/2+x,1/2-y,1/2+z
loop_
_atom_site_type_symbol
_atom_site_label
_atom_site_fract_x
_atom_site_fract_y
_atom_site_fract_z
Si Si1 0.000000 0.194341 0.750000
Si Si2 0.929214 0.097369 0.138221
Si Si3 0.283025 0.193987 0.092888
Si Si4 0.471201 0.124498 0.049934
Si Si5 0.488416 0.315657 0.508078
Si Si6 0.300329 0.996446 0.368581
Si Si7 0.411335 0.434552 0.341006
O O1 0.136823 0.250915 0.805568
O O2 0.992295 0.132216 0.668486
O O3 0.924501 0.180675 0.073649
O O4 0.000000 0.128608 0.250000
O O5 0.791415 0.049188 0.104226
O O6 0.017558 0.028242 0.123190
O O7 0.388278 0.123288 0.100576
O O8 0.146206 0.155547 0.074806
O O9 0.250000 0.250000 0.000000
O O10 0.599620 0.068343 0.126447
O O11 0.521970 0.219252 0.036763
O O12 0.380761 0.081754 0.943685
O O13 0.397389 0.387301 0.422373
O O14 0.226153 0.949052 0.263522
#
# Coordination Sequence:
#
# PCOD8137031 Si02
#       7
#     4   8   8   8   8   8   8
#     4  12  18  32  62  88 120 168 192 260 320 366
#     4  10  22  38  60  88 125 165 209 248 312 380
#     4  10  20  35  58  95 123 144 207 268 306 369
#     4  10  21  39  61  88 123 164 207 258 320 364
#     4  11  22  38  64  96 121 163 208 270 307 373
#     4  10  21  39  62  83 124 173 203 252 316 391
#     4  11  19  36  60  89 120 156 209 250 316 367
#
# _framework density 20.825066
#
# number of rings (size 3 to 8) (size 9 to 14) (size 15 to 20)
#    0.000    1.538    5.385    3.231    0.000    3.077 
#    5.538    0.000    0.000    1.846    0.000    0.000 
#    0.000    0.000    0.000    0.000    0.000    0.000 
#
# Total GULP energy -322165.781827 kJ/mol
# GULP energy per Si atom -12390.991609 kJ/mol
# Density = 2.077767 g / cm^3
# Si number density = 20.825066 Si / 1000 Ang^3
#
#
#
# Elastic Constant Matrix: (Units=GPa)
#
#
# Indices 1 2 3 4 5 6 
#
# 1 76.6483 31.0590 36.7638 0.0000 2.7189 0.0000
# 2 31.0590 65.0049 26.1293 0.0000 3.2506 0.0000
# 3 36.7638 26.1293 73.1659 0.0000 6.8671 0.0000
# 4 0.0000 0.0000 0.0000 21.8927 0.0000 0.8845
# 5 2.7189 3.2506 6.8671 0.0000 35.9184 0.0000
# 6 0.0000 0.0000 0.0000 0.8845 0.0000 24.1776
#
#
#
# Elastic Compliance Matrix: (Units=1/GPa)
#
#
# Indices 1 2 3 4 5 6 
#
# 1 0.019094 -0.006157 -0.007445 0.000000 0.000535 0.000000
# 2 -0.006157 0.019953 -0.003978 0.000000 -0.000579 0.000000
# 3 -0.007445 -0.003978 0.019085 0.000000 -0.002725 0.000000
# 4 0.000000 0.000000 0.000000 0.045745 0.000000 -0.001673
# 5 0.000535 -0.000579 -0.002725 0.000000 0.028374 0.000000
# 6 0.000000 0.000000 0.000000 -0.001673 0.000000 0.041422
#
#
# Mechanical properties :
#
#
# Convention : Reuss Voigt Hill
#
# Bulk Modulus (GPa) = 43.53201 44.74703 44.13952
# Shear Modulus (GPa) = 23.09581 24.45554 23.77567
#
# Velocity S-wave (km/s) = 3.33384 3.43057 3.38255
# Velocity P-wave (km/s) = 5.98066 6.10127 6.04127
#
# Compressibility (1/GPa) = 0.02297160
#
# Stress axis : x y z
#
# Youngs Moduli (GPa) = 52.37352 50.11779 52.39710
#
# Poissons Ratio (x) = 0.30857 0.39012
# Poissons Ratio (y) = 0.32245 0.20842
# Poissons Ratio (z) = 0.38995 0.19935
#
# Static dielectric constant tensor:
#      x y z
#    x 4.259770 0.000000 0.145830 
#    y 0.000000 3.759080 0.000000 
#    z 0.145830 0.000000 3.785640 
# 
# 
# High freq. dielectric constant tensor:
#      x y z
#    x 1.794710 0.000000 0.008520 
#    y 0.000000 1.805830 0.000000 
#    z 0.008520 0.000000 1.818770 
# 
# From -- ./inp_files/198022.got.cif
#   From: 2010.06.25/outbox.cif.g09.slc.cpg/sg15_100_cif.got.tgz:198022.got - 2010.06.28 07:06:18.
