data_PCOD8137363
_publ_section_title
;
Structure prediction by ZEFSAII (Michael W. Deem and Ramdas Pophale) SiO2 
 PCOD8137363
Probable space group: C 2/C
;
_chemical_formula_sum "Si O2"
_cell_formula_units_Z 56
_cell_length_a 8.845326
_cell_length_b 31.547363
_cell_length_c 14.777668
_cell_angle_alpha 90.000000
_cell_angle_beta 44.998883
_cell_angle_gamma 90.000000
_cell_volume 2915.810848
_symmetry_space_group_name_H-M "C 2/C"
_symmetry_group_IT_number 15
_symmetry_cell_setting 'monoclinic'
loop_
_space_group_symop_operation_xyz
x,y,z
-x,y,1/2-z
-x,-y,-z
x,-y,1/2+z
1/2+x,1/2+y,z
1/2-x,1/2+y,1/2-z
1/2-x,1/2-y,-z
1/2+x,1/2-y,1/2+z
loop_
_atom_site_type_symbol
_atom_site_label
_atom_site_fract_x
_atom_site_fract_y
_atom_site_fract_z
Si Si1 0.056821 0.138223 0.412111
Si Si2 0.739436 0.541441 0.675720
Si Si3 0.000000 0.395268 0.750000
Si Si4 0.587178 0.953177 0.882142
Si Si5 0.000000 0.908943 0.750000
Si Si6 0.049126 0.765411 0.529397
Si Si7 0.272560 0.882987 0.301773
Si Si8 0.195858 0.712475 0.737402
O O1 0.295334 0.134650 0.352225
O O2 0.035342 0.119652 0.321979
O O3 0.996316 0.186664 0.425261
O O4 0.901613 0.113130 0.545453
O O5 0.500000 0.528707 0.750000
O O6 0.861075 0.501492 0.670107
O O7 0.730131 0.581504 0.745454
O O8 0.871184 0.552360 0.530048
O O9 0.054189 0.425497 0.808922
O O10 0.789547 0.937328 0.855342
O O11 0.250000 0.750000 0.500000
O O12 0.102606 0.764224 0.398646
O O13 0.851715 0.735748 0.646414
O O14 0.500000 0.890809 0.250000
O O15 0.255002 0.836687 0.261923
O O16 0.000000 0.714734 0.750000
#
# Coordination Sequence:
#
# PCOD8137363 Si02
#       8
#     8   8   4   8   4   8   8   8
#     4  10  21  36  61  85 117 153 195 236 290 347
#     4  11  22  38  59  83 116 149 191 241 294 338
#     4  10  22  42  56  80 118 158 188 230 294 348
#     4  10  22  39  57  84 116 148 194 240 283 351
#     4  10  20  38  56  88 116 144 200 242 280 342
#     4   9  17  30  53  85 113 145 189 242 283 338
#     4  10  20  36  57  87 113 151 194 239 289 350
#     4   8  16  30  49  80 114 138 187 231 281 338
#
# _framework density 19.205635000000001
#
# number of rings (size 3 to 8) (size 9 to 14) (size 15 to 20)
#    0.000    2.286    0.714    2.571    4.000    0.000 
#    2.571    2.143    1.571    1.714    0.000    0.000 
#    0.000    0.000    0.000    0.000    0.000    0.000 
#
# Total GULP energy -347061.731530 kJ/mol
# GULP energy per Si atom -12395.061840 kJ/mol
# Density = 1.916192 g / cm^3
# Si number density = 19.205635 Si / 1000 Ang^3
#
#
#
# Elastic Constant Matrix: (Units=GPa)
#
#
# Indices 1 2 3 4 5 6 
#
# 1 69.3933 25.5149 38.7518 0.0000 -14.1061 0.0000
# 2 25.5149 102.4068 56.6861 0.0000 7.1765 0.0000
# 3 38.7518 56.6861 142.7950 0.0000 -15.8001 0.0000
# 4 0.0000 0.0000 0.0000 96.5090 0.0000 -43.5132
# 5 -14.1061 7.1765 -15.8001 0.0000 26.4269 0.0000
# 6 0.0000 0.0000 0.0000 -43.5132 0.0000 54.5813
#
#
#
# Elastic Compliance Matrix: (Units=1/GPa)
#
#
# Indices 1 2 3 4 5 6 
#
# 1 0.019354 -0.004129 -0.002512 0.000000 0.009950 0.000000
# 2 -0.004129 0.014660 -0.005765 0.000000 -0.009631 0.000000
# 3 -0.002512 -0.005765 0.010706 0.000000 0.006626 0.000000
# 4 0.000000 0.000000 0.000000 0.016176 0.000000 0.012896
# 5 0.009950 -0.009631 0.006626 0.000000 0.049728 0.000000
# 6 0.000000 0.000000 0.000000 0.012896 0.000000 0.028602
#
#
# Mechanical properties :
#
#
# Convention : Reuss Voigt Hill
#
# Bulk Modulus (GPa) = 50.22965 61.83343 56.03154
# Shear Modulus (GPa) = 29.29548 48.41293 38.85420
#
# Velocity S-wave (km/s) = 3.90982 5.02617 4.50273
# Velocity P-wave (km/s) = 6.82588 8.12087 7.50137
#
# Compressibility (1/GPa) = 0.01990856
#
# Stress axis : x y z
#
# Youngs Moduli (GPa) = 51.66800 68.21460 93.40169
#
# Poissons Ratio (x) = 0.28164 0.23467
# Poissons Ratio (y) = 0.21332 0.53844
# Poissons Ratio (z) = 0.12981 0.39324
#
# Static dielectric constant tensor:
#      x y z
#    x 3.309390 0.000000 -0.310670 
#    y 0.000000 3.646100 0.000000 
#    z -0.310670 0.000000 4.047390 
# 
# 
# High freq. dielectric constant tensor:
#      x y z
#    x 1.715310 0.000000 -0.014610 
#    y 0.000000 1.754820 0.000000 
#    z -0.014610 0.000000 1.766220 
# 
# From -- ./inp_files/139487.got.cif
#   From: 2010.06.25/outbox.cif.g09.slc.cpg/sg15_70_cif.got.tgz:139487.got - 2010.06.28 07:06:18.
