data_PCOD8137882
_publ_section_title
;
Structure prediction by ZEFSAII (Michael W. Deem and Ramdas Pophale) SiO2 
 PCOD8137882
Probable space group: C 2/C
;
_chemical_formula_sum "Si O2"
_cell_formula_units_Z 64
_cell_length_a 12.516156
_cell_length_b 13.227123
_cell_length_c 29.317797
_cell_angle_alpha 90.000000
_cell_angle_beta 142.897360
_cell_angle_gamma 90.000000
_cell_volume 2927.933675
_symmetry_space_group_name_H-M "C 2/C"
_symmetry_group_IT_number 15
_symmetry_cell_setting 'monoclinic'
loop_
_space_group_symop_operation_xyz
x,y,z
-x,y,1/2-z
-x,-y,-z
x,-y,1/2+z
1/2+x,1/2+y,z
1/2-x,1/2+y,1/2-z
1/2-x,1/2-y,-z
1/2+x,1/2-y,1/2+z
loop_
_atom_site_type_symbol
_atom_site_label
_atom_site_fract_x
_atom_site_fract_y
_atom_site_fract_z
Si Si1 0.813777 0.976617 0.687946
Si Si2 0.624753 0.324267 0.710580
Si Si3 0.192379 0.657664 0.794412
Si Si4 0.980760 0.731343 0.450704
Si Si5 0.841030 0.078384 0.450867
Si Si6 0.202029 0.435071 0.807909
Si Si7 0.254354 0.887278 0.932887
Si Si8 0.426613 0.025813 0.066666
O O1 0.871021 0.882566 0.739505
O O2 0.760171 0.951578 0.618213
O O3 0.626269 0.020584 0.643382
O O4 0.000000 0.043515 0.750000
O O5 0.671689 0.207408 0.737103
O O6 0.773462 0.362528 0.726665
O O7 0.434499 0.335337 0.620923
O O8 0.313837 0.729258 0.865977
O O9 0.279332 0.546247 0.821021
O O10 0.000000 0.651180 0.750000
O O11 0.907155 0.695504 0.475159
O O12 0.117289 0.821630 0.505707
O O13 0.068347 0.639242 0.452452
O O14 0.794893 0.110942 0.383962
O O15 0.673336 0.025968 0.418726
O O16 0.000000 0.000000 0.500000
O O17 0.000000 0.445955 0.750000
O O18 0.310934 0.956246 0.994101
#
# Coordination Sequence:
#
# PCOD8137882 Si02
#       8
#     8   8   8   8   8   8   8   8
#     4   9  17  33  62  92 123 158 213 272 324 376
#     4  11  19  40  66  95 126 172 222 276 325 395
#     4  11  20  41  70  96 120 169 226 270 332 401
#     4  11  21  40  68  95 129 172 221 275 333 402
#     4  12  25  44  61  96 141 180 221 269 332 402
#     4  11  26  42  64  94 133 174 222 273 330 397
#     4  10  20  36  65 101 130 163 219 281 330 391
#     4  11  22  39  66 100 133 177 221 272 337 396
#
# _framework density 21.858419000000001
#
# number of rings (size 3 to 8) (size 9 to 14) (size 15 to 20)
#    0.000    1.250    5.000    3.750    0.000    0.000 
#    0.000    7.500    0.000    4.500    0.000    0.000 
#    0.000    0.000    0.000    0.000    0.000    0.000 
#
# Total GULP energy -396509.148394 kJ/mol
# GULP energy per Si atom -12390.910887 kJ/mol
# Density = 2.180867 g / cm^3
# Si number density = 21.858419 Si / 1000 Ang^3
#
#
#
# Elastic Constant Matrix: (Units=GPa)
#
#
# Indices 1 2 3 4 5 6 
#
# 1 118.5855 40.3611 29.6995 0.0000 1.7081 0.0000
# 2 40.3611 69.1522 29.3465 0.0000 -0.0852 0.0000
# 3 29.6995 29.3465 101.1966 0.0000 7.5891 0.0000
# 4 0.0000 0.0000 0.0000 26.4311 0.0000 -0.6567
# 5 1.7081 -0.0852 7.5891 0.0000 31.4313 0.0000
# 6 0.0000 0.0000 0.0000 -0.6567 0.0000 39.0330
#
#
#
# Elastic Compliance Matrix: (Units=1/GPa)
#
#
# Indices 1 2 3 4 5 6 
#
# 1 0.010726 -0.005624 -0.001499 0.000000 -0.000236 0.000000
# 2 -0.005624 0.019486 -0.004101 0.000000 0.001349 0.000000
# 3 -0.001499 -0.004101 0.011718 0.000000 -0.002759 0.000000
# 4 0.000000 0.000000 0.000000 0.037850 0.000000 0.000637
# 5 -0.000236 0.001349 -0.002759 0.000000 0.032498 0.000000
# 6 0.000000 0.000000 0.000000 0.000637 0.000000 0.025630
#
#
# Mechanical properties :
#
#
# Convention : Reuss Voigt Hill
#
# Bulk Modulus (GPa) = 51.33442 54.19429 52.76435
# Shear Modulus (GPa) = 29.96699 32.01424 30.99061
#
# Velocity S-wave (km/s) = 3.70666 3.83118 3.76944
# Velocity P-wave (km/s) = 6.46955 6.66467 6.56783
#
# Compressibility (1/GPa) = 0.01948011
#
# Stress axis : x y z
#
# Youngs Moduli (GPa) = 93.23275 51.31987 85.33908
#
# Poissons Ratio (x) = 0.28864 0.12793
# Poissons Ratio (y) = 0.52437 0.35000
# Poissons Ratio (z) = 0.13977 0.21047
#
# Static dielectric constant tensor:
#      x y z
#    x 3.962980 0.000000 0.570280 
#    y 0.000000 3.955490 0.000000 
#    z 0.570280 0.000000 2.963900 
# 
# 
# High freq. dielectric constant tensor:
#      x y z
#    x 1.862800 0.000000 0.010540 
#    y 0.000000 1.824610 0.000000 
#    z 0.010540 0.000000 1.868510 
# 
# From -- ./inp_files/293109.got.cif
#   From: 2010.06.25/outbox.cif.g09.slc.cpg/sg15_147_cif.got.tgz:293109.got - 2010.06.28 07:06:18.
