data_PCOD8137398
_publ_section_title
;
Structure prediction by ZEFSAII (Michael W. Deem and Ramdas Pophale) SiO2 
 PCOD8137398
Probable space group: C 2/C
;
_chemical_formula_sum "Si O2"
_cell_formula_units_Z 56
_cell_length_a 15.651868
_cell_length_b 30.749495
_cell_length_c 13.877389
_cell_angle_alpha 90.000000
_cell_angle_beta 152.452681
_cell_angle_gamma 90.000000
_cell_volume 3088.914125
_symmetry_space_group_name_H-M "C 2/C"
_symmetry_group_IT_number 15
_symmetry_cell_setting 'monoclinic'
loop_
_space_group_symop_operation_xyz
x,y,z
-x,y,1/2-z
-x,-y,-z
x,-y,1/2+z
1/2+x,1/2+y,z
1/2-x,1/2+y,1/2-z
1/2-x,1/2-y,-z
1/2+x,1/2-y,1/2+z
loop_
_atom_site_type_symbol
_atom_site_label
_atom_site_fract_x
_atom_site_fract_y
_atom_site_fract_z
Si Si1 0.999999 0.641522 0.956548
Si Si2 1.000000 0.452821 0.364980
Si Si3 0.705997 0.479110 0.342300
Si Si4 0.213095 0.798725 0.072796
Si Si5 0.786904 0.798725 0.646605
Si Si6 0.294002 0.479110 0.930306
Si Si7 0.000000 0.407543 0.638801
O O1 0.999999 0.594917 0.906631
O O2 0.818451 0.667708 0.745576
O O3 0.181549 0.667708 0.108676
O O4 0.999998 0.635349 0.072125
O O5 0.817823 0.478710 0.220631
O O6 0.000000 0.450792 0.250000
O O7 0.182178 0.478710 0.584987
O O8 0.692027 0.483718 0.442027
O O9 0.818000 0.435310 0.430268
O O10 0.499999 0.477459 0.090516
O O11 0.286091 0.802920 0.036091
O O12 1.000000 0.810803 0.866613
O O13 0.250000 0.750000 0.147114
O O14 0.182002 0.435309 0.794270
O O15 0.000000 0.392806 0.750000
#
# Coordination Sequence:
#
# PCOD8137398 Si02
#       7
#     8   8   8   8   8   8   8
#     4  12  22  33  54  82 110 138 180 225 264 309
#     4   9  18  30  46  76 110 136 168 216 271 320
#     4   8  15  31  52  70 101 147 183 216 265 314
#     4  10  20  36  58  82 107 136 166 201 258 330
#     4  10  20  36  58  82 107 136 166 201 258 330
#     4   8  15  31  52  70 101 147 183 216 265 314
#     4   9  20  36  52  74 104 144 190 230 261 296
#
# _framework density 18.129348
#
# number of rings (size 3 to 8) (size 9 to 14) (size 15 to 20)
#    0.000    2.571    1.429    3.000    0.000    4.571 
#    0.000    4.286    0.000    0.857    0.000    0.000 
#    0.000    0.000    0.000    0.000    0.000    0.000 
#
# Total GULP energy -347154.369972 kJ/mol
# GULP energy per Si atom -12398.370356 kJ/mol
# Density = 1.808808 g / cm^3
# Si number density = 18.129348 Si / 1000 Ang^3
#
#
#
# Elastic Constant Matrix: (Units=GPa)
#
#
# Indices 1 2 3 4 5 6 
#
# 1 72.6663 61.0089 48.7544 -0.0001 -0.4148 0.0000
# 2 61.0089 122.5361 58.8706 0.0000 -1.0711 0.0000
# 3 48.7544 58.8706 125.2491 -0.0008 26.7588 -0.0002
# 4 -0.0001 0.0000 -0.0008 26.3316 -0.0003 -2.6331
# 5 -0.4148 -1.0711 26.7588 -0.0003 25.1559 -0.0001
# 6 0.0000 0.0000 -0.0002 -2.6331 -0.0001 31.5868
#
#
#
# Elastic Compliance Matrix: (Units=1/GPa)
#
#
# Indices 1 2 3 4 5 6 
#
# 1 0.027208 -0.009727 -0.007799 0.000000 0.008330 0.000000
# 2 -0.009727 0.015203 -0.004482 0.000000 0.005255 0.000000
# 3 -0.007799 -0.004482 0.017075 0.000000 -0.018483 0.000000
# 4 0.000000 0.000000 0.000000 0.038296 0.000000 0.003192
# 5 0.008330 0.005255 -0.018483 0.000000 0.059774 0.000000
# 6 0.000000 0.000000 0.000000 0.003192 0.000000 0.031925
#
#
# Mechanical properties :
#
#
# Convention : Reuss Voigt Hill
#
# Bulk Modulus (GPa) = 64.63837 73.07992 68.85915
# Shear Modulus (GPa) = 20.95078 26.73602 23.84340
#
# Velocity S-wave (km/s) = 3.40314 3.84440 3.63048
# Velocity P-wave (km/s) = 7.15355 7.75265 7.45912
#
# Compressibility (1/GPa) = 0.01547069
#
# Stress axis : x y z
#
# Youngs Moduli (GPa) = 36.75394 65.77608 58.56359
#
# Poissons Ratio (x) = 0.63979 0.45673
# Poissons Ratio (y) = 0.35750 0.26250
# Poissons Ratio (z) = 0.28664 0.29483
#
# Static dielectric constant tensor:
#      x y z
#    x 3.400560 0.000000 0.299240 
#    y 0.000000 3.189170 0.000000 
#    z 0.299240 0.000000 3.997820 
# 
# 
# High freq. dielectric constant tensor:
#      x y z
#    x 1.692450 0.000000 0.009850 
#    y 0.000000 1.681080 0.000000 
#    z 0.009850 0.000000 1.712120 
# 
# From -- ./inp_files/157476.got.cif
#   From: 2010.06.25/outbox.cif.g09.slc.cpg/sg15_79_cif.got.tgz:157476.got - 2010.06.28 07:06:18.
