data_PCOD8137202
_publ_section_title
;
Structure prediction by ZEFSAII (Michael W. Deem and Ramdas Pophale) SiO2 
 PCOD8137202
Probable space group: C 2/C
;
_chemical_formula_sum "Si O2"
_cell_formula_units_Z 48
_cell_length_a 8.690957
_cell_length_b 15.360469
_cell_length_c 18.173535
_cell_angle_alpha 90.000000
_cell_angle_beta 71.834578
_cell_angle_gamma 90.000000
_cell_volume 2305.198896
_symmetry_space_group_name_H-M "C 2/C"
_symmetry_group_IT_number 15
_symmetry_cell_setting 'monoclinic'
loop_
_space_group_symop_operation_xyz
x,y,z
-x,y,1/2-z
-x,-y,-z
x,-y,1/2+z
1/2+x,1/2+y,z
1/2-x,1/2+y,1/2-z
1/2-x,1/2-y,-z
1/2+x,1/2-y,1/2+z
loop_
_atom_site_type_symbol
_atom_site_label
_atom_site_fract_x
_atom_site_fract_y
_atom_site_fract_z
Si Si1 0.506662 0.605098 0.335960
Si Si2 0.862481 0.601166 0.089733
Si Si3 0.112221 0.959396 0.418815
Si Si4 0.473745 0.726121 0.920002
Si Si5 0.139188 0.263419 0.399325
Si Si6 0.525868 0.934479 0.086800
O O1 0.500000 0.607144 0.250000
O O2 0.327402 0.611386 0.397781
O O3 0.588763 0.515890 0.349181
O O4 0.618273 0.683384 0.347336
O O5 0.923187 0.689302 0.120621
O O6 0.903587 0.512855 0.128838
O O7 0.966736 0.585789 0.000946
O O8 0.299163 0.962267 0.411680
O O9 0.076763 0.861143 0.401246
O O10 0.000000 0.000000 0.500000
O O11 0.327144 0.714856 0.884632
O O12 0.429109 0.736347 0.011617
O O13 0.049221 0.344167 0.371857
#
# Coordination Sequence:
#
# PCOD8137202 Si02
#       6
#     8   8   8   8   8   8
#     4  12  25  41  59  89 130 165 198 250 319 379
#     4  10  20  37  60  93 122 157 200 256 306 357
#     4  12  21  37  61  91 121 162 207 253 299 358
#     4  10  20  35  65  92 119 148 209 260 292 347
#     4  10  20  37  60  93 119 155 199 252 306 356
#     4  10  20  35  65  92 119 151 209 262 297 348
#
# _framework density 20.822500000000002
#
# number of rings (size 3 to 8) (size 9 to 14) (size 15 to 20)
#    0.000    1.333    3.333    3.000    4.667    2.667 
#    0.000   10.000    0.000    0.000    0.000    0.000 
#    0.000    0.000    0.000    0.000    0.000    0.000 
#
# Total GULP energy -297508.294970 kJ/mol
# GULP energy per Si atom -12396.178957 kJ/mol
# Density = 2.077511 g / cm^3
# Si number density = 20.822500 Si / 1000 Ang^3
#
#
#
# Elastic Constant Matrix: (Units=GPa)
#
#
# Indices 1 2 3 4 5 6 
#
# 1 118.4931 47.6902 9.8733 0.0000 13.1645 0.0000
# 2 47.6902 168.0014 23.6194 0.0000 10.4734 0.0000
# 3 9.8733 23.6194 36.7740 0.0000 18.9721 0.0000
# 4 0.0000 0.0000 0.0000 14.2615 0.0000 6.4797
# 5 13.1645 10.4734 18.9721 0.0000 21.8067 0.0000
# 6 0.0000 0.0000 0.0000 6.4797 0.0000 51.0396
#
#
#
# Elastic Compliance Matrix: (Units=1/GPa)
#
#
# Indices 1 2 3 4 5 6 
#
# 1 0.010143 -0.002825 0.002813 0.000000 -0.007214 0.000000
# 2 -0.002825 0.007340 -0.005474 0.000000 0.002943 0.000000
# 3 0.002813 -0.005474 0.053476 0.000000 -0.045594 0.000000
# 4 0.000000 0.000000 0.000000 0.074411 0.000000 -0.009447
# 5 -0.007214 0.002943 -0.045594 0.000000 0.088466 0.000000
# 6 0.000000 0.000000 0.000000 -0.009447 0.000000 0.020792
#
#
# Mechanical properties :
#
#
# Convention : Reuss Voigt Hill
#
# Bulk Modulus (GPa) = 16.67028 53.95937 35.31483
# Shear Modulus (GPa) = 17.50711 33.56061 25.53386
#
# Velocity S-wave (km/s) = 2.90276 4.01901 3.50560
# Velocity P-wave (km/s) = 4.38839 6.89252 5.77775
#
# Compressibility (1/GPa) = 0.05998699
#
# Stress axis : x y z
#
# Youngs Moduli (GPa) = 98.58608 136.23071 18.69983
#
# Poissons Ratio (x) = 0.38487 -0.05260
# Poissons Ratio (y) = 0.27852 0.10237
# Poissons Ratio (z) = -0.27731 0.74578
#
# Static dielectric constant tensor:
#      x y z
#    x 3.824730 0.000000 0.048310 
#    y 0.000000 4.288370 0.000000 
#    z 0.048310 0.000000 3.196470 
# 
# 
# High freq. dielectric constant tensor:
#      x y z
#    x 1.829460 0.000000 0.004800 
#    y 0.000000 1.844390 0.000000 
#    z 0.004800 0.000000 1.749830 
# 
# From -- ./inp_files/231078.got.cif
#   From: 2010.06.25/outbox.cif.g09.slc.cpg/sg15_116_cif.got.tgz:231078.got - 2010.06.28 07:06:18.
