data_PCOD8137692
_publ_section_title
;
Structure prediction by ZEFSAII (Michael W. Deem and Ramdas Pophale) SiO2 
 PCOD8137692
Probable space group: C 2/C
;
_chemical_formula_sum "Si O2"
_cell_formula_units_Z 52
_cell_length_a 17.886034
_cell_length_b 8.469527
_cell_length_c 18.743211
_cell_angle_alpha 90.000000
_cell_angle_beta 51.434788
_cell_angle_gamma 90.000000
_cell_volume 2220.076455
_symmetry_space_group_name_H-M "C 2/C"
_symmetry_group_IT_number 15
_symmetry_cell_setting 'monoclinic'
loop_
_space_group_symop_operation_xyz
x,y,z
-x,y,1/2-z
-x,-y,-z
x,-y,1/2+z
1/2+x,1/2+y,z
1/2-x,1/2+y,1/2-z
1/2-x,1/2-y,-z
1/2+x,1/2-y,1/2+z
loop_
_atom_site_type_symbol
_atom_site_label
_atom_site_fract_x
_atom_site_fract_y
_atom_site_fract_z
Si Si1 0.178201 0.008766 0.652327
Si Si2 0.500000 0.983196 0.750000
Si Si3 0.468904 0.701382 0.677698
Si Si4 0.895033 0.279573 0.228074
Si Si5 0.933195 0.266144 0.551540
Si Si6 0.417739 0.590080 0.423779
Si Si7 0.369894 0.888519 0.089580
O O1 0.177485 0.862212 0.708778
O O2 0.170691 0.923399 0.579392
O O3 0.085929 0.121408 0.722278
O O4 0.268892 0.124232 0.607946
O O5 0.519117 0.866474 0.671049
O O6 0.591833 0.091623 0.715979
O O7 0.396409 0.730906 0.653791
O O8 0.544944 0.587263 0.595935
O O9 0.852773 0.367695 0.184339
O O10 0.001918 0.212151 0.151523
O O11 0.887426 0.143087 0.521739
O O12 0.903355 0.439002 0.545655
O O13 0.050604 0.260858 0.481846
#
# Coordination Sequence:
#
# PCOD8137692 Si02
#       7
#     8   4   8   8   8   8   8
#     4  11  22  39  64  93 126 159 223 266 305 367
#     4  12  18  34  66  92 116 160 214 256 310 380
#     4  11  21  38  66  91 119 163 208 264 309 375
#     4  10  20  36  61  91 123 164 209 263 319 368
#     4  10  22  40  61  86 130 171 202 248 334 381
#     4  10  20  40  61  89 120 166 206 256 316 387
#     4  10  23  37  60  92 126 164 210 264 312 378
#
# _framework density 23.422616000000001
#
# number of rings (size 3 to 8) (size 9 to 14) (size 15 to 20)
#    0.000    1.538    4.615    1.385    2.154    0.615 
#    0.000    0.769    3.385    0.000    0.000    0.000 
#    0.000    0.000    0.000    0.000    0.000    0.000 
#
# Total GULP energy -322104.069362 kJ/mol
# GULP energy per Si atom -12388.618052 kJ/mol
# Density = 2.336931 g / cm^3
# Si number density = 23.422616 Si / 1000 Ang^3
#
#
#
# Elastic Constant Matrix: (Units=GPa)
#
#
# Indices 1 2 3 4 5 6 
#
# 1 138.8807 23.0066 22.8640 0.0000 18.4427 0.0001
# 2 23.0066 79.2695 7.3891 0.0000 6.0110 0.0001
# 3 22.8640 7.3891 31.3447 0.0000 18.2501 0.0000
# 4 0.0000 0.0000 0.0000 26.6843 0.0000 14.7955
# 5 18.4427 6.0110 18.2501 0.0000 40.6601 0.0000
# 6 0.0001 0.0001 0.0000 14.7955 0.0000 44.2337
#
#
#
# Elastic Compliance Matrix: (Units=1/GPa)
#
#
# Indices 1 2 3 4 5 6 
#
# 1 0.008514 -0.001905 -0.004978 0.000000 -0.001346 0.000000
# 2 -0.001905 0.013341 -0.001503 0.000000 -0.000434 0.000000
# 3 -0.004978 -0.001503 0.046631 0.000000 -0.018450 0.000000
# 4 0.000000 0.000000 0.000000 0.046008 0.000000 -0.015389
# 5 -0.001346 -0.000434 -0.018450 0.000000 0.033550 0.000000
# 6 0.000000 0.000000 0.000000 -0.015389 0.000000 0.027755
#
#
# Mechanical properties :
#
#
# Convention : Reuss Voigt Hill
#
# Bulk Modulus (GPa) = 19.33683 39.55714 29.44698
# Shear Modulus (GPa) = 23.83125 35.39797 29.61461
#
# Velocity S-wave (km/s) = 3.19320 3.89173 3.55964
# Velocity P-wave (km/s) = 4.67642 6.09255 5.43084
#
# Compressibility (1/GPa) = 0.05171478
#
# Stress axis : x y z
#
# Youngs Moduli (GPa) = 117.45010 74.95654 21.44495
#
# Poissons Ratio (x) = 0.14279 0.10675
# Poissons Ratio (y) = 0.22375 0.03223
# Poissons Ratio (z) = 0.58465 0.11265
#
# Static dielectric constant tensor:
#      x y z
#    x 4.275790 0.000000 0.351440 
#    y 0.000000 4.257670 0.000000 
#    z 0.351440 0.000000 3.962710 
# 
# 
# High freq. dielectric constant tensor:
#      x y z
#    x 1.929980 0.000000 0.037420 
#    y 0.000000 1.933950 0.000000 
#    z 0.037420 0.000000 1.875580 
# 
# From -- ./inp_files/247767.got.cif
#   From: 2010.06.25/outbox.cif.g09.slc.cpg/sg15_124_cif.got.tgz:247767.got - 2010.06.28 07:06:18.
