data_PCOD8137374
_publ_section_title
;
Structure prediction by ZEFSAII (Michael W. Deem and Ramdas Pophale) SiO2 
 PCOD8137374
Probable space group: C 2/C
;
_chemical_formula_sum "Si O2"
_cell_formula_units_Z 56
_cell_length_a 14.386932
_cell_length_b 21.506258
_cell_length_c 14.123123
_cell_angle_alpha 90.000000
_cell_angle_beta 39.312634
_cell_angle_gamma 90.000000
_cell_volume 2768.507488
_symmetry_space_group_name_H-M "C 2/C"
_symmetry_group_IT_number 15
_symmetry_cell_setting 'monoclinic'
loop_
_space_group_symop_operation_xyz
x,y,z
-x,y,1/2-z
-x,-y,-z
x,-y,1/2+z
1/2+x,1/2+y,z
1/2-x,1/2+y,1/2-z
1/2-x,1/2-y,-z
1/2+x,1/2-y,1/2+z
loop_
_atom_site_type_symbol
_atom_site_label
_atom_site_fract_x
_atom_site_fract_y
_atom_site_fract_z
Si Si1 0.859872 0.333658 0.215052
Si Si2 0.500000 0.249880 0.250000
Si Si3 0.265477 0.539940 0.926005
Si Si4 0.000000 0.759460 0.750000
Si Si5 0.198978 0.680960 0.947437
Si Si6 0.854645 0.868488 0.970726
Si Si7 0.481726 0.494384 0.902618
Si Si8 0.413501 0.927384 0.412782
O O1 0.837029 0.302257 0.132321
O O2 0.709824 0.364748 0.371599
O O3 0.898264 0.284109 0.266275
O O4 0.983434 0.386483 0.100468
O O5 0.638425 0.292158 0.167321
O O6 0.436299 0.208275 0.385545
O O7 0.203129 0.608752 0.969692
O O8 0.330869 0.525011 0.979979
O O9 0.386404 0.530559 0.750138
O O10 0.131685 0.493339 0.006496
O O11 0.913006 0.801995 0.892291
O O12 0.981779 0.921201 0.873571
O O13 0.730886 0.887070 0.993139
O O14 0.500000 0.500000 0.000000
O O15 0.500000 0.942503 0.250000
#
# Coordination Sequence:
#
# PCOD8137374 Si02
#       8
#     8   4   8   4   8   8   8   8
#     4  11  23  38  62  91 128 170 205 259 323 389
#     4  10  26  50  62  90 126 164 220 284 308 386
#     4  10  21  39  64  90 126 160 212 268 317 389
#     4  12  22  36  60  92 134 170 206 256 312 392
#     4  11  25  45  70  89 125 170 221 269 331 381
#     4  10  20  36  57  90 132 166 208 255 315 381
#     4  10  20  39  63  94 124 169 209 267 326 377
#     4   9  19  37  57  89 129 155 195 261 316 381
#
# _framework density 20.227505000000001
#
# number of rings (size 3 to 8) (size 9 to 14) (size 15 to 20)
#    0.000    1.714    2.143    3.857    3.000    0.571 
#    5.143    0.000    0.000    0.000    0.000    0.000 
#    0.000    0.000    0.000    0.000    0.000    0.000 
#
# Total GULP energy -347060.447723 kJ/mol
# GULP energy per Si atom -12395.015990 kJ/mol
# Density = 2.018147 g / cm^3
# Si number density = 20.227505 Si / 1000 Ang^3
#
#
#
# Elastic Constant Matrix: (Units=GPa)
#
#
# Indices 1 2 3 4 5 6 
#
# 1 84.6847 24.3929 33.7696 0.0024 25.7424 -0.0007
# 2 24.3929 118.7699 30.3715 -0.0037 0.4607 0.0029
# 3 33.7696 30.3715 85.6128 -0.0132 -1.9840 0.0025
# 4 0.0024 -0.0037 -0.0132 21.1746 0.0052 23.1972
# 5 25.7424 0.4607 -1.9840 0.0052 31.9610 0.0003
# 6 -0.0007 0.0029 0.0025 23.1972 0.0003 -18.8263
#
#
#
# Elastic Compliance Matrix: (Units=1/GPa)
#
#
# Indices 1 2 3 4 5 6 
#
# 1 0.020788 -0.002204 -0.007816 0.000000 -0.017196 -0.000003
# 2 -0.002204 0.009497 -0.002465 -0.000001 0.001485 0.000001
# 3 -0.007816 -0.002465 0.015808 0.000003 0.007312 0.000005
# 4 0.000000 -0.000001 0.000003 0.020097 -0.000003 0.024764
# 5 -0.017196 0.001485 0.007312 -0.000003 0.045571 -0.000001
# 6 -0.000003 0.000001 0.000005 0.024764 -0.000001 -0.022604
#
#
# Mechanical properties :
#
#
# Convention : Reuss Voigt Hill
#
# Bulk Modulus (GPa) = 47.34590 51.79284 49.56937
# Shear Modulus (GPa) = 41.26511 20.23075 30.74793
#
# Velocity S-wave (km/s) = 4.52159 3.16596 3.90308
# Velocity P-wave (km/s) = 7.12160 6.24701 6.69860
#
# Compressibility (1/GPa) = 0.02112115
#
# Stress axis : x y z
#
# Youngs Moduli (GPa) = 48.10577 105.29702 63.26053
#
# Poissons Ratio (x) = 0.23206 0.49446
# Poissons Ratio (y) = 0.10602 0.15596
# Poissons Ratio (z) = 0.37601 0.25959
#
# Static dielectric constant tensor:
#      x y z
#    x 3.630800 -0.000010 -0.189840 
#    y -0.000010 3.790720 0.000030 
#    z -0.189840 0.000030 3.873940 
# 
# 
# High freq. dielectric constant tensor:
#      x y z
#    x 1.773460 0.000000 -0.004700 
#    y 0.000000 1.799310 0.000000 
#    z -0.004700 0.000000 1.795520 
# 
# From -- ./inp_files/156635.got.cif
#   From: 2010.06.25/outbox.cif.g09.slc.cpg/sg15_79_cif.got.tgz:156635.got - 2010.06.28 07:06:18.
