data_PCOD8137849
_publ_section_title
;
Structure prediction by ZEFSAII (Michael W. Deem and Ramdas Pophale) SiO2 
 PCOD8137849
Probable space group: C 2/C
;
_chemical_formula_sum "Si O2"
_cell_formula_units_Z 40
_cell_length_a 15.318513
_cell_length_b 24.746098
_cell_length_c 9.147417
_cell_angle_alpha 90.000000
_cell_angle_beta 145.310224
_cell_angle_gamma 90.000000
_cell_volume 1973.492307
_symmetry_space_group_name_H-M "C 2/C"
_symmetry_group_IT_number 15
_symmetry_cell_setting 'monoclinic'
loop_
_space_group_symop_operation_xyz
x,y,z
-x,y,1/2-z
-x,-y,-z
x,-y,1/2+z
1/2+x,1/2+y,z
1/2-x,1/2+y,1/2-z
1/2-x,1/2-y,-z
1/2+x,1/2-y,1/2+z
loop_
_atom_site_type_symbol
_atom_site_label
_atom_site_fract_x
_atom_site_fract_y
_atom_site_fract_z
Si Si1 0.677388 0.471242 0.456902
Si Si2 0.000000 0.787150 0.250000
Si Si3 0.763632 0.357901 0.474191
Si Si4 0.662674 0.953486 0.523411
Si Si5 0.060975 0.311593 0.025539
Si Si6 0.500000 0.849702 0.250000
O O1 0.500000 0.468494 0.250000
O O2 0.719501 0.420676 0.411505
O O3 0.787366 0.471449 0.747923
O O4 0.707811 0.526537 0.411188
O O5 0.136325 0.824091 0.383298
O O6 0.052343 0.750044 0.458323
O O7 0.786036 0.338427 0.336147
O O8 0.919898 0.347730 0.776509
O O9 0.644016 0.888199 0.493793
O O10 0.500000 0.980631 0.250000
O O11 0.060278 0.312272 0.200593
#
# Coordination Sequence:
#
# PCOD8137849 Si02
#       6
#     8   4   8   8   8   4
#     4  12  23  39  62  90 130 163 203 258 319 357
#     4  10  20  40  61  92 118 153 212 258 308 366
#     4  10  20  37  62  88 115 162 207 255 299 372
#     4  10  24  39  62  88 125 166 212 250 296 381
#     4  10  20  36  64  84 119 159 207 255 301 358
#     4  10  22  38  61  92 124 153 216 250 298 360
#
# _framework density 20.268636999999998
#
# number of rings (size 3 to 8) (size 9 to 14) (size 15 to 20)
#    0.600    1.200    3.000    3.600    5.600    0.000 
#    0.000    4.000    0.000    0.000    0.000    0.000 
#    0.000    0.000    0.000    0.000    0.000    0.000 
#
# Total GULP energy -247884.054003 kJ/mol
# GULP energy per Si atom -12394.202700 kJ/mol
# Density = 2.022251 g / cm^3
# Si number density = 20.268637 Si / 1000 Ang^3
#
#
#
# Elastic Constant Matrix: (Units=GPa)
#
#
# Indices 1 2 3 4 5 6 
#
# 1 151.1663 48.4614 38.0122 0.0000 -12.2950 0.0000
# 2 48.4614 69.0191 22.3327 0.0000 -3.0099 0.0000
# 3 38.0122 22.3327 47.5120 0.0000 -5.7703 0.0000
# 4 0.0000 0.0000 0.0000 11.6438 0.0000 -1.2375
# 5 -12.2950 -3.0099 -5.7703 0.0000 47.5659 0.0000
# 6 0.0000 0.0000 0.0000 -1.2375 0.0000 42.4408
#
#
#
# Elastic Compliance Matrix: (Units=1/GPa)
#
#
# Indices 1 2 3 4 5 6 
#
# 1 0.009657 -0.005041 -0.005169 0.000000 0.001550 0.000000
# 2 -0.005041 0.019719 -0.005321 0.000000 -0.000701 0.000000
# 3 -0.005169 -0.005321 0.027891 0.000000 0.001711 0.000000
# 4 0.000000 0.000000 0.000000 0.086150 0.000000 0.002512
# 5 0.001550 -0.000701 0.001711 0.000000 0.021587 0.000000
# 6 0.000000 0.000000 0.000000 0.002512 0.000000 0.023635
#
#
# Mechanical properties :
#
#
# Convention : Reuss Voigt Hill
#
# Bulk Modulus (GPa) = 38.15788 53.92331 46.04059
# Shear Modulus (GPa) = 21.88793 30.92283 26.40538
#
# Velocity S-wave (km/s) = 3.28974 3.91019 3.61331
# Velocity P-wave (km/s) = 5.77033 6.85917 6.33818
#
# Compressibility (1/GPa) = 0.02620691
#
# Stress axis : x y z
#
# Youngs Moduli (GPa) = 103.55282 50.71197 35.85335
#
# Poissons Ratio (x) = 0.25562 0.18531
# Poissons Ratio (y) = 0.52196 0.19078
# Poissons Ratio (z) = 0.53521 0.26985
#
# Static dielectric constant tensor:
#      x y z
#    x 3.983060 0.000000 -0.020410 
#    y 0.000000 3.575480 0.000000 
#    z -0.020410 0.000000 3.373570 
# 
# 
# High freq. dielectric constant tensor:
#      x y z
#    x 1.810370 0.000000 0.002500 
#    y 0.000000 1.782010 0.000000 
#    z 0.002500 0.000000 1.760400 
# 
# From -- ./inp_files/43307.got.cif
#   From: 2010.06.25/outbox.cif.g09.slc.cpg/sg15_22_cif.got.tgz:43307.got - 2010.06.28 07:06:18.
