data_PCOD8137279
_publ_section_title
;
Structure prediction by ZEFSAII (Michael W. Deem and Ramdas Pophale) SiO2 
 PCOD8137279
Probable space group: C 2/C
;
_chemical_formula_sum "Si O2"
_cell_formula_units_Z 56
_cell_length_a 20.751044
_cell_length_b 29.687311
_cell_length_c 8.886479
_cell_angle_alpha 90.000000
_cell_angle_beta 31.408778
_cell_angle_gamma 90.000000
_cell_volume 2852.957284
_symmetry_space_group_name_H-M "C 2/C"
_symmetry_group_IT_number 15
_symmetry_cell_setting 'monoclinic'
loop_
_space_group_symop_operation_xyz
x,y,z
-x,y,1/2-z
-x,-y,-z
x,-y,1/2+z
1/2+x,1/2+y,z
1/2-x,1/2+y,1/2-z
1/2-x,1/2-y,-z
1/2+x,1/2-y,1/2+z
loop_
_atom_site_type_symbol
_atom_site_label
_atom_site_fract_x
_atom_site_fract_y
_atom_site_fract_z
Si Si1 0.633318 0.802671 0.332767
Si Si2 0.500000 0.988120 0.250000
Si Si3 0.383359 0.842276 0.810433
Si Si4 0.890666 0.943500 0.247136
Si Si5 0.369907 0.301944 0.664962
Si Si6 0.384406 0.056487 0.249217
Si Si7 0.120968 0.158652 0.676001
Si Si8 0.500000 0.507197 0.250000
O O1 0.500634 0.812726 0.515237
O O2 0.638497 0.832736 0.471133
O O3 0.639338 0.750200 0.361350
O O4 0.753914 0.816644 0.997812
O O5 0.411538 0.955224 0.521102
O O6 0.432966 0.019529 0.265741
O O7 0.430172 0.893362 0.694661
O O8 0.253187 0.830621 0.989519
O O9 0.758608 0.945222 0.437196
O O10 0.925016 0.892324 0.214799
O O11 0.896211 0.973170 0.389498
O O12 0.973013 0.961691 0.946427
O O13 0.359293 0.331885 0.538218
O O14 0.505360 0.311484 0.471152
#
# Coordination Sequence:
#
# PCOD8137279 Si02
#       8
#     8   4   8   8   8   8   8   4
#     4  10  22  39  58  82 112 146 184 227 278 334
#     4  10  20  36  56  78 110 146 182 222 270 324
#     4  10  21  37  58  84 113 145 184 229 276 327
#     4  10  21  36  55  81 110 144 183 225 271 321
#     4  10  22  39  58  82 112 146 184 227 278 334
#     4  10  21  36  55  81 110 144 183 225 271 321
#     4  10  21  37  58  84 113 145 184 229 276 327
#     4  10  20  36  56  78 110 146 182 222 270 324
#
# _framework density 19.628754000000001
#
# number of rings (size 3 to 8) (size 9 to 14) (size 15 to 20)
#    0.000    2.000    0.000    4.286    0.000    8.000 
#    0.000   10.000    0.000    0.000    0.000    0.000 
#    0.000    0.000    0.000    0.000    0.000    0.000 
#
# Total GULP energy -346917.075067 kJ/mol
# GULP energy per Si atom -12389.895538 kJ/mol
# Density = 1.958408 g / cm^3
# Si number density = 19.628754 Si / 1000 Ang^3
#
#
#
# Elastic Constant Matrix: (Units=GPa)
#
#
# Indices 1 2 3 4 5 6 
#
# 1 81.4558 43.5701 43.2359 0.0000 0.7717 0.0000
# 2 43.5701 95.1681 50.2845 0.0000 7.5523 0.0000
# 3 43.2359 50.2845 139.9594 0.0000 -2.7612 0.0000
# 4 0.0000 0.0000 0.0000 27.7422 0.0000 5.7800
# 5 0.7717 7.5523 -2.7612 0.0000 31.8418 0.0000
# 6 0.0000 0.0000 0.0000 5.7800 0.0000 36.2837
#
#
#
# Elastic Compliance Matrix: (Units=1/GPa)
#
#
# Indices 1 2 3 4 5 6 
#
# 1 0.017291 -0.006380 -0.003033 0.000000 0.000831 0.000000
# 2 -0.006380 0.015722 -0.003755 0.000000 -0.003900 0.000000
# 3 -0.003033 -0.003755 0.009466 0.000000 0.001785 0.000000
# 4 0.000000 0.000000 0.000000 0.037284 0.000000 -0.005939
# 5 0.000831 -0.003900 0.001785 0.000000 0.032465 0.000000
# 6 0.000000 0.000000 0.000000 -0.005939 0.000000 0.028507
#
#
# Mechanical properties :
#
#
# Convention : Reuss Voigt Hill
#
# Bulk Modulus (GPa) = 61.94148 65.64047 63.79098
# Shear Modulus (GPa) = 28.99388 31.13973 30.06680
#
# Velocity S-wave (km/s) = 3.84749 3.98733 3.91803
# Velocity P-wave (km/s) = 7.16677 7.39675 7.28267
#
# Compressibility (1/GPa) = 0.01614427
#
# Stress axis : x y z
#
# Youngs Moduli (GPa) = 57.83344 63.60585 105.64025
#
# Poissons Ratio (x) = 0.40578 0.32041
# Poissons Ratio (y) = 0.36895 0.39665
# Poissons Ratio (z) = 0.17541 0.23882
#
# Static dielectric constant tensor:
#      x y z
#    x 3.352050 0.000000 -0.423940 
#    y 0.000000 3.832270 0.000000 
#    z -0.423940 0.000000 3.713040 
# 
# 
# High freq. dielectric constant tensor:
#      x y z
#    x 1.763100 0.000000 -0.009720 
#    y 0.000000 1.776770 0.000000 
#    z -0.009720 0.000000 1.767610 
# 
# From -- ./inp_files/59361.got.cif
#   From: 2010.06.25/outbox.cif.g09.slc.cpg/sg15_30_cif.got.tgz:59361.got - 2010.06.28 07:06:18.
