data_PCOD8137439
_publ_section_title
;
Structure prediction by ZEFSAII (Michael W. Deem and Ramdas Pophale) SiO2 
 PCOD8137439
Probable space group: C 2/C
;
_chemical_formula_sum "Si O2"
_cell_formula_units_Z 56
_cell_length_a 21.499555
_cell_length_b 14.669782
_cell_length_c 8.828998
_cell_angle_alpha 90.000000
_cell_angle_beta 92.409904
_cell_angle_gamma 90.000000
_cell_volume 2782.148321
_symmetry_space_group_name_H-M "C 2/C"
_symmetry_group_IT_number 15
_symmetry_cell_setting 'monoclinic'
loop_
_space_group_symop_operation_xyz
x,y,z
-x,y,1/2-z
-x,-y,-z
x,-y,1/2+z
1/2+x,1/2+y,z
1/2-x,1/2+y,1/2-z
1/2-x,1/2-y,-z
1/2+x,1/2-y,1/2+z
loop_
_atom_site_type_symbol
_atom_site_label
_atom_site_fract_x
_atom_site_fract_y
_atom_site_fract_z
Si Si1 0.374393 0.253368 0.531838
Si Si2 0.981027 0.640413 0.410810
Si Si3 0.385791 0.461124 0.053879
Si Si4 0.816639 0.902370 0.328820
Si Si5 0.932073 0.116005 0.262270
Si Si6 0.672981 0.075544 0.841520
Si Si7 0.404476 0.039246 0.948059
O O1 0.443497 0.222264 0.486691
O O2 0.334587 0.303916 0.397652
O O3 0.381451 0.316030 0.682421
O O4 0.333408 0.165401 0.559096
O O5 0.938500 0.550708 0.388859
O O6 0.000000 0.678114 0.250000
O O7 0.044239 0.614716 0.504517
O O8 0.341264 0.403200 0.159110
O O9 0.430827 0.520735 0.167043
O O10 0.346350 0.522739 0.938246
O O11 0.422334 0.394458 0.942532
O O12 0.745237 0.932533 0.314210
O O13 0.000000 0.158859 0.250000
O O14 0.635220 0.088494 0.683976
O O15 0.643580 0.987599 0.923134
#
# Coordination Sequence:
#
# PCOD8137439 Si02
#       7
#     8   8   8   8   8   8   8
#     4  10  24  35  56  85 121 160 188 244 307 349
#     4  10  20  38  58  86 123 152 197 248 295 366
#     4   9  20  38  62  82 112 148 204 238 288 354
#     4  10  20  40  59  85 117 157 198 246 293 351
#     4  10  20  36  58  87 111 149 189 245 297 349
#     4  11  21  38  59  86 118 155 202 245 293 351
#     4  10  21  35  62  88 112 156 203 246 296 346
#
# _framework density 20.128329000000001
#
# number of rings (size 3 to 8) (size 9 to 14) (size 15 to 20)
#    0.000    2.000    1.429    1.714    2.000    1.143 
#    0.000    2.143    0.000    0.000    0.000    0.000 
#    0.000    0.000    0.000    0.000    0.000    0.000 
#
# Total GULP energy -347104.052711 kJ/mol
# GULP energy per Si atom -12396.573311 kJ/mol
# Density = 2.008252 g / cm^3
# Si number density = 20.128329 Si / 1000 Ang^3
#
#
#
# Elastic Constant Matrix: (Units=GPa)
#
#
# Indices 1 2 3 4 5 6 
#
# 1 107.9666 8.6364 35.3584 0.0000 -2.8675 0.0000
# 2 8.6364 36.3621 14.0344 0.0000 -1.7605 0.0000
# 3 35.3584 14.0344 120.3282 0.0000 -10.6377 0.0000
# 4 0.0000 0.0000 0.0000 19.4694 0.0000 -0.4738
# 5 -2.8675 -1.7605 -10.6377 0.0000 29.4720 0.0000
# 6 0.0000 0.0000 0.0000 -0.4738 0.0000 23.2873
#
#
#
# Elastic Compliance Matrix: (Units=1/GPa)
#
#
# Indices 1 2 3 4 5 6 
#
# 1 0.010311 -0.001342 -0.002884 0.000000 -0.000118 0.000000
# 2 -0.001342 0.028980 -0.002938 0.000000 0.000540 0.000000
# 3 -0.002884 -0.002938 0.009772 0.000000 0.003071 0.000000
# 4 0.000000 0.000000 0.000000 0.051388 0.000000 0.001046
# 5 -0.000118 0.000540 0.003071 0.000000 0.035060 0.000000
# 6 0.000000 0.000000 0.000000 0.001046 0.000000 0.042963
#
#
# Mechanical properties :
#
#
# Convention : Reuss Voigt Hill
#
# Bulk Modulus (GPa) = 28.78855 42.30168 35.54512
# Shear Modulus (GPa) = 24.46430 28.22092 26.34261
#
# Velocity S-wave (km/s) = 3.49006 3.74846 3.62157
# Velocity P-wave (km/s) = 5.52940 6.30842 5.93171
#
# Compressibility (1/GPa) = 0.03473603
#
# Stress axis : x y z
#
# Youngs Moduli (GPa) = 96.98647 34.50659 102.33134
#
# Poissons Ratio (x) = 0.04629 0.29510
# Poissons Ratio (y) = 0.13012 0.30066
# Poissons Ratio (z) = 0.27968 0.10138
#
# Static dielectric constant tensor:
#      x y z
#    x 3.650430 0.000000 -0.184950 
#    y 0.000000 3.481740 0.000000 
#    z -0.184950 0.000000 3.894590 
# 
# 
# High freq. dielectric constant tensor:
#      x y z
#    x 1.784380 0.000000 0.000270 
#    y 0.000000 1.767850 0.000000 
#    z 0.000270 0.000000 1.794780 
# 
# From -- ./inp_files/55628.got.cif
#   From: 2010.06.25/outbox.cif.g09.slc.cpg/sg15_28_cif.got.tgz:55628.got - 2010.06.28 07:06:18.
