data_PCOD8137666
_publ_section_title
;
Structure prediction by ZEFSAII (Michael W. Deem and Ramdas Pophale) SiO2 
 PCOD8137666
Probable space group: C 2/C
;
_chemical_formula_sum "Si O2"
_cell_formula_units_Z 48
_cell_length_a 11.837122
_cell_length_b 28.086786
_cell_length_c 8.592987
_cell_angle_alpha 90.000000
_cell_angle_beta 122.083446
_cell_angle_gamma 90.000000
_cell_volume 2420.566010
_symmetry_space_group_name_H-M "C 2/C"
_symmetry_group_IT_number 15
_symmetry_cell_setting 'monoclinic'
loop_
_space_group_symop_operation_xyz
x,y,z
-x,y,1/2-z
-x,-y,-z
x,-y,1/2+z
1/2+x,1/2+y,z
1/2-x,1/2+y,1/2-z
1/2-x,1/2-y,-z
1/2+x,1/2-y,1/2+z
loop_
_atom_site_type_symbol
_atom_site_label
_atom_site_fract_x
_atom_site_fract_y
_atom_site_fract_z
Si Si1 0.746324 0.157645 0.222833
Si Si2 0.619945 0.398355 0.937188
Si Si3 0.608267 0.237779 0.966478
Si Si4 0.500043 0.324013 0.067903
Si Si5 0.364976 0.062956 0.232043
Si Si6 0.354332 0.969269 0.071689
O O1 0.823589 0.145247 0.121388
O O2 0.848995 0.186883 0.403085
O O3 0.716883 0.110833 0.303564
O O4 0.618299 0.188847 0.076438
O O5 0.500000 0.423553 0.750000
O O6 0.560152 0.374277 0.048722
O O7 0.740787 0.434656 0.059697
O O8 0.500000 0.232144 0.750000
O O9 0.750000 0.250000 0.000000
O O10 0.581606 0.278898 0.070243
O O11 0.500000 0.327913 0.250000
O O12 0.500000 0.079805 0.250000
O O13 0.377834 0.036654 0.406366
O O14 0.302734 0.022936 0.071267
O O15 0.500000 0.958983 0.250000
#
# Coordination Sequence:
#
# PCOD8137666 Si02
#       6
#     8   8   8   8   8   8
#     4  10  22  41  62  89 124 167 207 252 307 377
#     4   9  19  40  61  85 121 166 210 246 304 373
#     4  12  22  44  70  90 123 167 208 249 313 381
#     4  11  23  39  61  92 128 160 200 265 313 363
#     4  10  21  38  59  90 128 159 205 258 307 363
#     4  10  20  36  61  87 118 162 205 255 307 358
#
# _framework density 19.830072999999999
#
# number of rings (size 3 to 8) (size 9 to 14) (size 15 to 20)
#    0.000    1.667    3.333    2.500    0.000    6.667 
#    3.000    8.333    0.000    0.000    0.000    0.000 
#    0.000    0.000    0.000    0.000    0.000    0.000 
#
# Total GULP energy -297371.311294 kJ/mol
# GULP energy per Si atom -12390.471304 kJ/mol
# Density = 1.978494 g / cm^3
# Si number density = 19.830073 Si / 1000 Ang^3
#
#
#
# Elastic Constant Matrix: (Units=GPa)
#
#
# Indices 1 2 3 4 5 6 
#
# 1 109.3633 55.3300 64.2721 0.0000 -6.0363 0.0000
# 2 55.3300 103.8800 50.4326 0.0000 5.2137 0.0000
# 3 64.2721 50.4326 80.9815 0.0000 1.7861 0.0000
# 4 0.0000 0.0000 0.0000 -390.8440 0.0000 -507.4806
# 5 -6.0363 5.2137 1.7861 0.0000 39.9847 0.0000
# 6 0.0000 0.0000 0.0000 -507.4806 0.0000 -583.9649
#
#
#
# Elastic Compliance Matrix: (Units=1/GPa)
#
#
# Indices 1 2 3 4 5 6 
#
# 1 0.018734 -0.004178 -0.012353 0.000000 0.003925 0.000000
# 2 -0.004178 0.014811 -0.005857 0.000000 -0.002300 0.000000
# 3 -0.012353 -0.005857 0.025850 0.000000 -0.002256 0.000000
# 4 0.000000 0.000000 0.000000 0.019932 0.000000 -0.017322
# 5 0.003925 -0.002300 -0.002256 0.000000 0.026003 0.000000
# 6 0.000000 0.000000 0.000000 -0.017322 0.000000 0.013341
#
#
# Mechanical properties :
#
#
# Convention : Reuss Voigt Hill
#
# Bulk Modulus (GPa) = 68.40629 70.47713 69.44171
# Shear Modulus (GPa) = 29.70526 -178.68550 -74.49012
#
# Velocity S-wave (km/s) = 3.87459 -9.50284 -6.13561
# Velocity P-wave (km/s) = 7.38835 9.20802 3.88587
#
# Compressibility (1/GPa) = 0.01461854
#
# Stress axis : x y z
#
# Youngs Moduli (GPa) = 53.37827 67.51822 38.68448
#
# Poissons Ratio (x) = 0.28210 0.47788
# Poissons Ratio (y) = 0.22302 0.22657
# Poissons Ratio (z) = 0.65940 0.39545
#
# Static dielectric constant tensor:
#      x y z
#    x 3.806030 0.000000 0.239650 
#    y 0.000000 3.707290 0.000000 
#    z 0.239650 0.000000 4.163490 
# 
# 
# High freq. dielectric constant tensor:
#      x y z
#    x 1.780010 0.000000 -0.003520 
#    y 0.000000 1.772550 0.000000 
#    z -0.003520 0.000000 1.763520 
# 
# From -- ./inp_files/33806.got.cif
#   From: 2010.06.25/outbox.cif.g09.slc.cpg/sg15_17_cif.got.tgz:33806.got - 2010.06.28 07:06:18.
