data_PCOD8137841
_publ_section_title
;
Structure prediction by ZEFSAII (Michael W. Deem and Ramdas Pophale) SiO2 
 PCOD8137841
Probable space group: C 2/C
;
_chemical_formula_sum "Si O2"
_cell_formula_units_Z 56
_cell_length_a 16.640485
_cell_length_b 7.726278
_cell_length_c 26.025037
_cell_angle_alpha 90.000000
_cell_angle_beta 135.227034
_cell_angle_gamma 90.000000
_cell_volume 2356.594953
_symmetry_space_group_name_H-M "C 2/C"
_symmetry_group_IT_number 15
_symmetry_cell_setting 'monoclinic'
loop_
_space_group_symop_operation_xyz
x,y,z
-x,y,1/2-z
-x,-y,-z
x,-y,1/2+z
1/2+x,1/2+y,z
1/2-x,1/2+y,1/2-z
1/2-x,1/2-y,-z
1/2+x,1/2-y,1/2+z
loop_
_atom_site_type_symbol
_atom_site_label
_atom_site_fract_x
_atom_site_fract_y
_atom_site_fract_z
Si Si1 0.256612 0.841452 0.116451
Si Si2 0.731385 0.403729 0.220783
Si Si3 0.875872 0.886209 0.592926
Si Si4 0.993115 0.705832 0.491823
Si Si5 0.202989 0.574066 0.452763
Si Si6 0.498045 0.730519 0.620116
Si Si7 0.410005 0.738542 0.361219
O O1 0.284432 0.868440 0.188838
O O2 0.347253 0.700972 0.134783
O O3 0.266533 0.028958 0.092493
O O4 0.131897 0.767231 0.050435
O O5 0.634155 0.258386 0.190930
O O6 0.662445 0.580382 0.194149
O O7 0.835229 0.403977 0.308975
O O8 0.961649 0.755317 0.602629
O O9 0.754601 0.911859 0.507982
O O10 0.940149 0.071548 0.625270
O O11 0.083678 0.778563 0.574436
O O12 0.000000 0.500000 0.500000
O O13 0.027791 0.788389 0.452944
O O14 0.250000 0.750000 0.500000
O O15 0.064515 0.591036 0.391741
#
# Coordination Sequence:
#
# PCOD8137841 Si02
#       7
#     8   8   8   8   8   8   8
#     4  11  23  41  68 101 131 174 230 278 351 405
#     4  10  26  44  66  94 135 190 225 280 340 421
#     4  10  21  39  66  98 133 169 215 287 336 398
#     4  11  24  40  72 105 130 176 235 290 335 413
#     4  10  20  36  64 103 136 166 215 291 341 395
#     4   9  22  41  67 100 137 170 223 283 348 399
#     4  11  25  45  66  94 140 179 230 279 345 402
#
# _framework density 23.763100999999999
#
# number of rings (size 3 to 8) (size 9 to 14) (size 15 to 20)
#    0.000    1.714    1.429    1.286   10.000    2.286 
#    0.000    0.000    0.000    0.000    0.000    0.000 
#    0.000    0.000    0.000    0.000    0.000    0.000 
#
# Total GULP energy -346909.294964 kJ/mol
# GULP energy per Si atom -12389.617677 kJ/mol
# Density = 2.370902 g / cm^3
# Si number density = 23.763101 Si / 1000 Ang^3
#
#
#
# Elastic Constant Matrix: (Units=GPa)
#
#
# Indices 1 2 3 4 5 6 
#
# 1 129.5769 29.4286 18.8080 0.0000 3.1715 0.0000
# 2 29.4286 80.8959 -4.7389 0.0000 7.7384 0.0000
# 3 18.8080 -4.7389 78.1182 0.0000 4.3865 0.0000
# 4 0.0000 0.0000 0.0000 27.2816 0.0000 -3.3559
# 5 3.1715 7.7384 4.3865 0.0000 27.5591 0.0000
# 6 0.0000 0.0000 0.0000 -3.3559 0.0000 37.3655
#
#
#
# Elastic Compliance Matrix: (Units=1/GPa)
#
#
# Indices 1 2 3 4 5 6 
#
# 1 0.008817 -0.003374 -0.002345 0.000000 0.000306 0.000000
# 2 -0.003374 0.014069 0.001883 0.000000 -0.003862 0.000000
# 3 -0.002345 0.001883 0.013616 0.000000 -0.002426 0.000000
# 4 0.000000 0.000000 0.000000 0.037064 0.000000 0.003329
# 5 0.000306 -0.003862 -0.002426 0.000000 0.037721 0.000000
# 6 0.000000 0.000000 0.000000 0.003329 0.000000 0.027062
#
#
# Mechanical properties :
#
#
# Convention : Reuss Voigt Hill
#
# Bulk Modulus (GPa) = 34.68671 41.73181 38.20926
# Shear Modulus (GPa) = 32.12760 34.78081 33.45420
#
# Velocity S-wave (km/s) = 3.68094 3.82992 3.75617
# Velocity P-wave (km/s) = 5.71789 6.09569 5.90981
#
# Compressibility (1/GPa) = 0.02882949
#
# Stress axis : x y z
#
# Youngs Moduli (GPa) = 113.42368 71.08010 73.44281
#
# Poissons Ratio (x) = 0.23982 0.17219
# Poissons Ratio (y) = 0.38268 -0.13826
# Poissons Ratio (z) = 0.26593 -0.13382
#
# Static dielectric constant tensor:
#      x y z
#    x 4.568050 0.000000 0.434590 
#    y 0.000000 4.306470 0.000000 
#    z 0.434590 0.000000 4.440710 
# 
# 
# High freq. dielectric constant tensor:
#      x y z
#    x 1.946010 0.000000 0.023560 
#    y 0.000000 1.950910 0.000000 
#    z 0.023560 0.000000 1.920990 
# 
# From -- ./inp_files/298574.got.cif
#   From: 2010.06.25/outbox.cif.g09.slc.cpg/sg15_150_cif.got.tgz:298574.got - 2010.06.28 07:06:18.
