data_PCOD8137750
_publ_section_title
;
Structure prediction by ZEFSAII (Michael W. Deem and Ramdas Pophale) SiO2 
 PCOD8137750
Probable space group: C 2/C
;
_chemical_formula_sum "Si O2"
_cell_formula_units_Z 60
_cell_length_a 25.271858
_cell_length_b 6.520592
_cell_length_c 21.323084
_cell_angle_alpha 90.000000
_cell_angle_beta 123.771232
_cell_angle_gamma 90.000000
_cell_volume 2920.875339
_symmetry_space_group_name_H-M "C 2/C"
_symmetry_group_IT_number 15
_symmetry_cell_setting 'monoclinic'
loop_
_space_group_symop_operation_xyz
x,y,z
-x,y,1/2-z
-x,-y,-z
x,-y,1/2+z
1/2+x,1/2+y,z
1/2-x,1/2+y,1/2-z
1/2-x,1/2-y,-z
1/2+x,1/2-y,1/2+z
loop_
_atom_site_type_symbol
_atom_site_label
_atom_site_fract_x
_atom_site_fract_y
_atom_site_fract_z
Si Si1 0.968934 0.048630 0.043436
Si Si2 0.500000 0.514191 0.250000
Si Si3 0.839987 0.272439 0.298968
Si Si4 0.531444 0.157590 0.672169
Si Si5 0.298771 0.199755 0.976651
Si Si6 0.558246 0.780027 0.879245
Si Si7 0.267627 0.923826 0.841483
Si Si8 0.660950 0.519887 0.591758
O O1 0.977120 0.842306 0.089123
O O2 0.998139 0.255157 0.088940
O O3 0.895501 0.105540 0.987746
O O4 0.000000 0.000000 0.000000
O O5 0.463466 0.660780 0.274114
O O6 0.444484 0.372145 0.182688
O O7 0.896450 0.399345 0.301277
O O8 0.805142 0.132742 0.223262
O O9 0.793136 0.428298 0.303564
O O10 0.867153 0.119277 0.370196
O O11 0.487174 0.972581 0.667196
O O12 0.294960 0.389331 0.926292
O O13 0.276341 0.006329 0.918786
O O14 0.250000 0.250000 0.000000
O O15 0.369223 0.160831 0.053439
O O16 0.302528 0.709144 0.855748
#
# Coordination Sequence:
#
# PCOD8137750 Si02
#       8
#     8   4   8   8   8   8   8   8
#     4  10  20  36  62  89 126 158 196 259 318 374
#     4  10  24  44  62  90 132 166 214 274 308 376
#     4  11  23  38  63  93 127 165 211 262 324 375
#     4  11  23  40  64  93 121 171 210 259 325 378
#     4  10  24  44  67  93 128 173 216 265 319 379
#     4  10  23  43  62  97 127 162 220 261 309 386
#     4  11  23  41  62  95 130 167 216 269 312 392
#     4  10  21  42  60  92 127 159 208 261 315 381
#
# _framework density 20.541789000000001
#
# number of rings (size 3 to 8) (size 9 to 14) (size 15 to 20)
#    0.000    1.600    2.667    1.200    3.733    1.067 
#    4.800    0.000    0.000    0.000    0.000    0.000 
#    0.000    0.000    0.000    0.000    0.000    0.000 
#
# Total GULP energy -371753.901015 kJ/mol
# GULP energy per Si atom -12391.796700 kJ/mol
# Density = 2.049503 g / cm^3
# Si number density = 20.541789 Si / 1000 Ang^3
#
#
#
# Elastic Constant Matrix: (Units=GPa)
#
#
# Indices 1 2 3 4 5 6 
#
# 1 95.5515 39.9400 35.4885 0.0000 0.5005 0.0003
# 2 39.9400 86.2387 44.0628 0.0010 6.8949 0.0010
# 3 35.4885 44.0628 113.8088 0.0000 3.0640 0.0000
# 4 0.0000 0.0010 0.0000 36.9629 0.0000 3.7477
# 5 0.5005 6.8949 3.0640 0.0000 31.1664 0.0000
# 6 0.0003 0.0010 0.0000 3.7477 0.0000 23.2590
#
#
#
# Elastic Compliance Matrix: (Units=1/GPa)
#
#
# Indices 1 2 3 4 5 6 
#
# 1 0.013452 -0.005190 -0.002216 0.000000 0.001150 0.000000
# 2 -0.005190 0.016680 -0.004755 0.000000 -0.003139 -0.000001
# 3 -0.002216 -0.004755 0.011319 0.000000 -0.000025 0.000000
# 4 0.000000 0.000000 0.000000 0.027503 0.000000 -0.004432
# 5 0.001150 -0.003139 -0.000025 0.000000 0.032764 0.000000
# 6 0.000000 -0.000001 0.000000 -0.004432 0.000000 0.043708
#
#
# Mechanical properties :
#
#
# Convention : Reuss Voigt Hill
#
# Bulk Modulus (GPa) = 58.38014 59.39796 58.88905
# Shear Modulus (GPa) = 28.49674 30.01817 29.25745
#
# Velocity S-wave (km/s) = 3.72863 3.82687 3.77807
# Velocity P-wave (km/s) = 6.85703 6.96456 6.91100
#
# Compressibility (1/GPa) = 0.01712911
#
# Stress axis : x y z
#
# Youngs Moduli (GPa) = 74.33881 59.95316 88.34329
#
# Poissons Ratio (x) = 0.31113 0.19581
# Poissons Ratio (y) = 0.38578 0.42008
# Poissons Ratio (z) = 0.16477 0.28508
#
# Static dielectric constant tensor:
#      x y z
#    x 3.406990 0.000040 0.013470 
#    y 0.000040 3.248320 0.000060 
#    z 0.013470 0.000060 4.114600 
# 
# 
# High freq. dielectric constant tensor:
#      x y z
#    x 1.784620 0.000000 0.000610 
#    y 0.000000 1.801640 0.000000 
#    z 0.000610 0.000000 1.823810 
# 
# From -- ./inp_files/256775.got.cif
#   From: 2010.06.25/outbox.cif.g09.slc.cpg/sg15_129_cif.got.tgz:256775.got - 2010.06.28 07:06:18.
