data_PCOD8137850
_publ_section_title
;
Structure prediction by ZEFSAII (Michael W. Deem and Ramdas Pophale) SiO2 
 PCOD8137850
Probable space group: C 2/C
;
_chemical_formula_sum "Si O2"
_cell_formula_units_Z 40
_cell_length_a 18.759151
_cell_length_b 18.023207
_cell_length_c 11.646154
_cell_angle_alpha 90.000000
_cell_angle_beta 149.267370
_cell_angle_gamma 90.000000
_cell_volume 2012.223968
_symmetry_space_group_name_H-M "C 2/C"
_symmetry_group_IT_number 15
_symmetry_cell_setting 'monoclinic'
loop_
_space_group_symop_operation_xyz
x,y,z
-x,y,1/2-z
-x,-y,-z
x,-y,1/2+z
1/2+x,1/2+y,z
1/2-x,1/2+y,1/2-z
1/2-x,1/2-y,-z
1/2+x,1/2-y,1/2+z
loop_
_atom_site_type_symbol
_atom_site_label
_atom_site_fract_x
_atom_site_fract_y
_atom_site_fract_z
Si Si1 0.814318 0.825569 0.718864
Si Si2 0.925644 0.416582 0.030614
Si Si3 0.509786 0.426184 0.133943
Si Si4 0.705752 0.457302 0.220717
Si Si5 0.688804 0.845842 0.301548
O O1 0.675775 0.845398 0.599168
O O2 0.785385 0.851955 0.548302
O O3 0.847589 0.739157 0.773551
O O4 0.944626 0.868717 0.952640
O O5 0.000000 0.437128 0.250000
O O6 0.045043 0.392966 0.106652
O O7 0.838657 0.490260 0.879966
O O8 0.500000 0.393536 0.250000
O O9 0.667488 0.442139 0.303338
O O10 0.427803 0.503696 0.021675
O O11 0.726260 0.378631 0.187601
#
# Coordination Sequence:
#
# PCOD8137850 Si02
#       5
#     8   8   8   8   8
#     4   9  21  38  58  90 116 153 191 238 290 337
#     4   9  19  36  56  86 120 146 193 240 281 343
#     4  10  23  39  58  83 120 151 195 242 283 352
#     4  10  22  36  61  86 112 157 193 236 297 337
#     4  10  20  36  64  86 118 149 193 242 286 348
#
# _framework density 19.878502999999998
#
# number of rings (size 3 to 8) (size 9 to 14) (size 15 to 20)
#    0.000    2.400    0.000    0.600   14.000    0.000 
#    0.000    2.000    0.000    0.000    0.000    0.000 
#    0.000    0.000    0.000    0.000    0.000    0.000 
#
# Total GULP energy -247836.363363 kJ/mol
# GULP energy per Si atom -12391.818168 kJ/mol
# Density = 1.983326 g / cm^3
# Si number density = 19.878503 Si / 1000 Ang^3
#
#
#
# Elastic Constant Matrix: (Units=GPa)
#
#
# Indices 1 2 3 4 5 6 
#
# 1 119.4590 62.5939 35.6690 0.0000 8.3746 0.0000
# 2 62.5939 104.7296 36.1232 0.0000 4.6307 0.0000
# 3 35.6690 36.1232 59.1435 0.0000 5.9165 0.0000
# 4 0.0000 0.0000 0.0000 26.4461 0.0000 0.9266
# 5 8.3746 4.6307 5.9165 0.0000 20.0319 0.0000
# 6 0.0000 0.0000 0.0000 0.9266 0.0000 29.3938
#
#
#
# Elastic Compliance Matrix: (Units=1/GPa)
#
#
# Indices 1 2 3 4 5 6 
#
# 1 0.013013 -0.006388 -0.003658 0.000000 -0.002883 0.000000
# 2 -0.006388 0.015241 -0.005534 0.000000 0.000782 0.000000
# 3 -0.003658 -0.005534 0.022889 0.000000 -0.003952 0.000000
# 4 0.000000 0.000000 0.000000 0.037855 0.000000 -0.001193
# 5 -0.002883 0.000782 -0.003952 0.000000 0.052112 0.000000
# 6 0.000000 0.000000 0.000000 -0.001193 0.000000 0.034058
#
#
# Mechanical properties :
#
#
# Convention : Reuss Voigt Hill
#
# Bulk Modulus (GPa) = 50.04336 61.34492 55.69414
# Shear Modulus (GPa) = 23.47544 25.10410 24.28977
#
# Velocity S-wave (km/s) = 3.44022 3.55755 3.49938
# Velocity P-wave (km/s) = 6.40386 6.91389 6.66375
#
# Compressibility (1/GPa) = 0.01998267
#
# Stress axis : x y z
#
# Youngs Moduli (GPa) = 76.84877 65.61386 43.68833
#
# Poissons Ratio (x) = 0.41915 0.15980
# Poissons Ratio (y) = 0.49092 0.24178
# Poissons Ratio (z) = 0.28109 0.36312
#
# Static dielectric constant tensor:
#      x y z
#    x 3.745500 0.000000 0.281120 
#    y 0.000000 3.475250 0.000000 
#    z 0.281120 0.000000 3.616390 
# 
# 
# High freq. dielectric constant tensor:
#      x y z
#    x 1.775500 0.000000 0.019170 
#    y 0.000000 1.771190 0.000000 
#    z 0.019170 0.000000 1.756030 
# 
# From -- ./inp_files/30187.got.cif
#   From: 2010.06.25/outbox.cif.g09.slc.cpg/sg15_16_cif.got.tgz:30187.got - 2010.06.28 07:06:18.
