data_PCOD8137153
_publ_section_title
;
Structure prediction by ZEFSAII (Michael W. Deem and Ramdas Pophale) SiO2 
 PCOD8137153
Probable space group: C 2/C
;
_chemical_formula_sum "Si O2"
_cell_formula_units_Z 56
_cell_length_a 23.219636
_cell_length_b 23.504991
_cell_length_c 14.397101
_cell_angle_alpha 90.000000
_cell_angle_beta 19.612480
_cell_angle_gamma 90.000000
_cell_volume 2637.460374
_symmetry_space_group_name_H-M "C 2/C"
_symmetry_group_IT_number 15
_symmetry_cell_setting 'monoclinic'
loop_
_space_group_symop_operation_xyz
x,y,z
-x,y,1/2-z
-x,-y,-z
x,-y,1/2+z
1/2+x,1/2+y,z
1/2-x,1/2+y,1/2-z
1/2-x,1/2-y,-z
1/2+x,1/2-y,1/2+z
loop_
_atom_site_type_symbol
_atom_site_label
_atom_site_fract_x
_atom_site_fract_y
_atom_site_fract_z
Si Si1 0.000000 0.006719 0.750000
Si Si2 0.973053 0.057416 0.594770
Si Si3 0.000000 0.815023 0.750000
Si Si4 0.487792 0.148550 0.925456
Si Si5 0.235375 0.408756 0.168129
Si Si6 0.543843 0.728320 0.983311
Si Si7 0.232399 0.850599 0.658759
Si Si8 0.698748 0.130029 0.930431
O O1 0.171121 0.967877 0.498369
O O2 0.987438 0.048199 0.857129
O O3 0.783817 0.086028 0.874588
O O4 0.102023 0.097785 0.341571
O O5 0.000000 0.000000 0.500000
O O6 0.160072 0.855296 0.532111
O O7 0.025685 0.775121 0.622525
O O8 0.548158 0.096942 0.902248
O O9 0.630379 0.155129 0.630008
O O10 0.451139 0.204433 0.044733
O O11 0.310808 0.136470 0.141274
O O12 0.224267 0.401946 0.294580
O O13 0.712469 0.692353 0.698345
O O14 0.379555 0.707027 0.174530
O O15 0.500000 0.139597 0.250000
#
# Coordination Sequence:
#
# PCOD8137153 Si02
#       8
#     4   8   4   8   8   8   8   8
#     4  11  22  42  72  92 124 178 216 264 345 382
#     4  11  22  44  65  91 131 175 213 273 340 378
#     4   9  16  30  56  86 120 158 204 252 317 386
#     4  11  21  34  61  96 130 158 211 267 325 386
#     4  10  20  36  61  92 121 158 217 263 305 395
#     4  10  20  35  62  89 128 171 202 260 340 382
#     4  10  22  36  55  96 136 157 206 277 321 385
#     4  10  23  43  63  90 130 168 222 265 310 399
#
# _framework density 21.232547
#
# number of rings (size 3 to 8) (size 9 to 14) (size 15 to 20)
#    0.000    1.714    2.857    2.143    4.000    1.143 
#    5.143    2.143    1.571    0.000    0.000    0.000 
#    0.000    0.000    0.000    0.000    0.000    0.000 
#
# Total GULP energy -347059.659659 kJ/mol
# GULP energy per Si atom -12394.987845 kJ/mol
# Density = 2.118422 g / cm^3
# Si number density = 21.232547 Si / 1000 Ang^3
#
#
#
# Elastic Constant Matrix: (Units=GPa)
#
#
# Indices 1 2 3 4 5 6 
#
# 1 99.4104 25.5402 19.9845 0.0207 -24.9959 -0.0085
# 2 25.5402 79.8261 30.7114 -0.0087 -4.3199 0.0215
# 3 19.9845 30.7114 88.0526 0.0853 -15.3705 0.0570
# 4 0.0207 -0.0087 0.0853 19.3730 -0.0111 0.6396
# 5 -24.9959 -4.3199 -15.3705 -0.0111 35.4531 0.0076
# 6 -0.0085 0.0215 0.0570 0.6396 0.0076 25.9778
#
#
#
# Elastic Compliance Matrix: (Units=1/GPa)
#
#
# Indices 1 2 3 4 5 6 
#
# 1 0.013264 -0.003697 -0.000181 -0.000010 0.008823 0.000005
# 2 -0.003697 0.015506 -0.005079 0.000032 -0.002919 -0.000003
# 3 -0.000181 -0.005079 0.014107 -0.000060 0.005369 -0.000027
# 4 -0.000010 0.000032 -0.000060 0.051660 -0.000013 -0.001272
# 5 0.008823 -0.002919 0.005369 -0.000013 0.036399 -0.000017
# 6 0.000005 -0.000003 -0.000027 -0.001272 -0.000017 0.038526
#
#
# Mechanical properties :
#
#
# Convention : Reuss Voigt Hill
#
# Bulk Modulus (GPa) = 40.05817 46.64015 43.34916
# Shear Modulus (GPa) = 25.54991 28.89767 27.22379
#
# Velocity S-wave (km/s) = 3.47268 3.69319 3.58463
# Velocity P-wave (km/s) = 5.91495 6.34036 6.13135
#
# Compressibility (1/GPa) = 0.02496369
#
# Stress axis : x y z
#
# Youngs Moduli (GPa) = 75.39317 64.49130 70.88836
#
# Poissons Ratio (x) = 0.23840 0.01283
# Poissons Ratio (y) = 0.27870 0.36003
# Poissons Ratio (z) = 0.01364 0.32754
#
# Static dielectric constant tensor:
#      x y z
#    x 4.264820 -0.000260 -0.237860 
#    y -0.000260 3.697260 0.000420 
#    z -0.237860 0.000420 4.003750 
# 
# 
# High freq. dielectric constant tensor:
#      x y z
#    x 1.842460 0.000000 -0.022330 
#    y 0.000000 1.820910 0.000010 
#    z -0.022330 0.000010 1.809850 
# 
# From -- ./inp_files/174751.got.cif
#   From: 2010.06.25/outbox.cif.g09.slc.cpg/sg15_88_cif.got.tgz:174751.got - 2010.06.28 07:06:18.
