data_PCOD8137571
_publ_section_title
;
Structure prediction by ZEFSAII (Michael W. Deem and Ramdas Pophale) SiO2 
 PCOD8137571
Probable space group: C 2/C
;
_chemical_formula_sum "Si O2"
_cell_formula_units_Z 52
_cell_length_a 13.445727
_cell_length_b 9.749231
_cell_length_c 29.384500
_cell_angle_alpha 90.000000
_cell_angle_beta 136.104178
_cell_angle_gamma 90.000000
_cell_volume 2670.699509
_symmetry_space_group_name_H-M "C 2/C"
_symmetry_group_IT_number 15
_symmetry_cell_setting 'monoclinic'
loop_
_space_group_symop_operation_xyz
x,y,z
-x,y,1/2-z
-x,-y,-z
x,-y,1/2+z
1/2+x,1/2+y,z
1/2-x,1/2+y,1/2-z
1/2-x,1/2-y,-z
1/2+x,1/2-y,1/2+z
loop_
_atom_site_type_symbol
_atom_site_label
_atom_site_fract_x
_atom_site_fract_y
_atom_site_fract_z
Si Si1 0.845690 0.981030 0.469624
Si Si2 0.919824 0.988086 0.597701
Si Si3 0.000000 0.415065 0.250000
Si Si4 0.188790 0.761986 0.870796
Si Si5 0.169215 0.335094 0.674668
Si Si6 0.262275 0.532958 0.781240
Si Si7 0.845102 0.282234 0.574819
O O1 0.848980 0.969834 0.525116
O O2 0.792787 0.840776 0.430872
O O3 0.742031 0.110282 0.422099
O O4 0.000000 0.000000 0.500000
O O5 0.860006 0.873501 0.610112
O O6 0.877495 0.133438 0.607639
O O7 0.091510 0.974098 0.649057
O O8 0.049723 0.318989 0.307790
O O9 0.132722 0.504431 0.273920
O O10 0.269678 0.835778 0.856038
O O11 0.230673 0.466355 0.721880
O O12 0.220652 0.197465 0.717877
O O13 0.998100 0.349951 0.613272
O O14 0.750000 0.250000 0.500000
#
# Coordination Sequence:
#
# PCOD8137571 Si02
#       7
#     8   8   4   8   8   8   8
#     4  11  21  38  61  83 112 152 191 231 280 343
#     4  10  21  37  57  84 116 147 188 237 285 335
#     4  10  20  36  60  84 112 150 188 232 282 342
#     4  11  21  37  58  85 114 147 188 235 286 335
#     4  10  21  38  60  83 115 151 189 237 287 340
#     4  10  20  37  58  84 113 149 191 235 285 338
#     4   9  19  37  56  80 113 150 188 231 280 335
#
# _framework density 19.470554
#
# number of rings (size 3 to 8) (size 9 to 14) (size 15 to 20)
#    0.000    1.846    0.000    6.923    0.000    0.000 
#    0.000   17.692    0.000    0.923    0.000    0.000 
#    0.000    0.000    0.000    0.000    0.000    0.000 
#
# Total GULP energy -322296.622380 kJ/mol
# GULP energy per Si atom -12396.023938 kJ/mol
# Density = 1.942624 g / cm^3
# Si number density = 19.470554 Si / 1000 Ang^3
#
#
#
# Elastic Constant Matrix: (Units=GPa)
#
#
# Indices 1 2 3 4 5 6 
#
# 1 138.2393 81.2864 52.4529 0.0000 10.1664 0.0000
# 2 81.2864 94.2325 43.7405 0.0000 -2.6491 0.0000
# 3 52.4529 43.7405 102.1468 0.0000 8.9962 0.0000
# 4 0.0000 0.0000 0.0000 35.6425 0.0000 2.0939
# 5 10.1664 -2.6491 8.9962 0.0000 40.1941 0.0000
# 6 0.0000 0.0000 0.0000 2.0939 0.0000 12.8995
#
#
#
# Elastic Compliance Matrix: (Units=1/GPa)
#
#
# Indices 1 2 3 4 5 6 
#
# 1 0.015981 -0.012827 -0.002329 0.000000 -0.004366 0.000000
# 2 -0.012827 0.023731 -0.004079 0.000000 0.005721 0.000000
# 3 -0.002329 -0.004079 0.012960 0.000000 -0.002580 0.000000
# 4 0.000000 0.000000 0.000000 0.028327 0.000000 -0.004598
# 5 -0.004366 0.005721 -0.002580 0.000000 0.026938 0.000000
# 6 0.000000 0.000000 0.000000 -0.004598 0.000000 0.078269
#
#
# Mechanical properties :
#
#
# Convention : Reuss Voigt Hill
#
# Bulk Modulus (GPa) = 70.41533 76.61979 73.51756
# Shear Modulus (GPa) = 21.79497 28.22313 25.00905
#
# Velocity S-wave (km/s) = 3.34934 3.81140 3.58782
# Velocity P-wave (km/s) = 7.15549 7.66851 7.41644
#
# Compressibility (1/GPa) = 0.01420145
#
# Stress axis : x y z
#
# Youngs Moduli (GPa) = 62.57299 42.13832 77.16166
#
# Poissons Ratio (x) = 0.54052 0.17972
# Poissons Ratio (y) = 0.80265 0.31475
# Poissons Ratio (z) = 0.14574 0.17188
#
# Static dielectric constant tensor:
#      x y z
#    x 3.505220 0.000000 0.128580 
#    y 0.000000 3.620910 0.000000 
#    z 0.128580 0.000000 3.521890 
# 
# 
# High freq. dielectric constant tensor:
#      x y z
#    x 1.754560 0.000000 0.022490 
#    y 0.000000 1.751600 0.000000 
#    z 0.022490 0.000000 1.770080 
# 
# From -- ./inp_files/313218.got.cif
#   From: 2010.06.25/outbox.cif.g09.slc.cpg/sg15_157_cif.got.tgz:313218.got - 2010.06.28 07:06:18.
