data_PCOD8137319
_publ_section_title
;
Structure prediction by ZEFSAII (Michael W. Deem and Ramdas Pophale) SiO2 
 PCOD8137319
Probable space group: C 2/C
;
_chemical_formula_sum "Si O2"
_cell_formula_units_Z 60
_cell_length_a 8.856644
_cell_length_b 25.279568
_cell_length_c 25.875683
_cell_angle_alpha 90.000000
_cell_angle_beta 145.812182
_cell_angle_gamma 90.000000
_cell_volume 3255.333582
_symmetry_space_group_name_H-M "C 2/C"
_symmetry_group_IT_number 15
_symmetry_cell_setting 'monoclinic'
loop_
_space_group_symop_operation_xyz
x,y,z
-x,y,1/2-z
-x,-y,-z
x,-y,1/2+z
1/2+x,1/2+y,z
1/2-x,1/2+y,1/2-z
1/2-x,1/2-y,-z
1/2+x,1/2-y,1/2+z
loop_
_atom_site_type_symbol
_atom_site_label
_atom_site_fract_x
_atom_site_fract_y
_atom_site_fract_z
Si Si1 0.000000 0.565185 0.250000
Si Si2 0.316649 0.581199 0.959339
Si Si3 0.223248 0.327885 0.356899
Si Si4 0.220280 0.388541 0.646202
Si Si5 0.463002 0.377557 0.611661
Si Si6 0.256013 0.769701 0.944213
Si Si7 0.126666 0.469331 0.894606
Si Si8 0.698659 0.192208 0.505847
O O1 0.235149 0.602751 0.296178
O O2 0.092599 0.528101 0.323013
O O3 0.175839 0.621165 0.879576
O O4 0.132528 0.529575 0.916060
O O5 0.348220 0.610763 0.022577
O O6 0.600103 0.562321 0.015493
O O7 0.208104 0.275713 0.388353
O O8 0.509550 0.335061 0.408525
O O9 0.000000 0.324658 0.250000
O O10 0.500000 0.368154 0.750000
O O11 0.273047 0.404646 0.601309
O O12 0.119926 0.440717 0.647191
O O13 0.997734 0.341833 0.587475
O O14 0.473193 0.314506 0.625662
O O15 0.544009 0.799550 0.016603
O O16 0.250000 0.750000 0.000000
O O17 0.750000 0.250000 0.500000
#
# Coordination Sequence:
#
# PCOD8137319 Si02
#       8
#     4   8   8   8   8   8   8   8
#     4  10  20  36  56  92 114 146 204 256 294 356
#     4  10  21  39  61  84 115 165 196 245 308 364
#     4  11  22  40  61  89 122 163 207 244 299 376
#     4  11  20  37  62  92 122 153 204 258 307 363
#     4  10  21  36  62  87 118 154 197 251 309 363
#     4  10  20  39  61  85 120 158 199 247 311 362
#     4  10  21  37  61  86 117 154 204 247 306 362
#     4   9  21  36  59  87 122 161 196 247 303 357
#
# _framework density 18.431291000000002
#
# number of rings (size 3 to 8) (size 9 to 14) (size 15 to 20)
#    0.000    1.867    4.000    0.000    0.933    5.333 
#    2.400    0.000    5.867    0.000    0.000    0.000 
#    0.000    0.000    0.000    0.000    0.000    0.000 
#
# Total GULP energy -371836.025628 kJ/mol
# GULP energy per Si atom -12394.534188 kJ/mol
# Density = 1.838934 g / cm^3
# Si number density = 18.431291 Si / 1000 Ang^3
#
#
#
# Elastic Constant Matrix: (Units=GPa)
#
#
# Indices 1 2 3 4 5 6 
#
# 1 85.6743 43.6562 38.9921 -0.0029 -4.5521 -0.0029
# 2 43.6562 112.1666 47.7411 0.0000 -0.1345 -0.0004
# 3 38.9921 47.7411 116.6092 -0.0017 0.6370 -0.0018
# 4 -0.0029 0.0000 -0.0017 20.9270 -0.0023 1.2169
# 5 -4.5521 -0.1345 0.6370 -0.0023 28.1794 -0.0021
# 6 -0.0029 -0.0004 -0.0018 1.2169 -0.0021 26.3415
#
#
#
# Elastic Compliance Matrix: (Units=1/GPa)
#
#
# Indices 1 2 3 4 5 6 
#
# 1 0.015726 -0.004691 -0.003352 0.000002 0.002594 0.000002
# 2 -0.004691 0.012197 -0.003421 -0.000001 -0.000622 -0.000001
# 3 -0.003352 -0.003421 0.011102 0.000000 -0.000809 0.000000
# 4 0.000002 -0.000001 0.000000 0.047914 0.000004 -0.002213
# 5 0.002594 -0.000622 -0.000809 0.000004 0.035921 0.000003
# 6 0.000002 -0.000001 0.000000 -0.002213 0.000003 0.038065
#
#
# Mechanical properties :
#
#
# Convention : Reuss Voigt Hill
#
# Bulk Modulus (GPa) = 62.12994 63.91432 63.02213
# Shear Modulus (GPa) = 26.42451 27.36028 26.89240
#
# Velocity S-wave (km/s) = 3.79050 3.85703 3.82391
# Velocity P-wave (km/s) = 7.27594 7.38837 7.33237
#
# Compressibility (1/GPa) = 0.01609530
#
# Stress axis : x y z
#
# Youngs Moduli (GPa) = 63.58989 81.99070 90.07571
#
# Poissons Ratio (x) = 0.38460 0.30195
# Poissons Ratio (y) = 0.29828 0.30819
# Poissons Ratio (z) = 0.21316 0.28053
#
# Static dielectric constant tensor:
#      x y z
#    x 3.766470 0.000000 0.170960 
#    y 0.000000 3.445690 0.000000 
#    z 0.170960 0.000000 3.349170 
# 
# 
# High freq. dielectric constant tensor:
#      x y z
#    x 1.723530 0.000000 0.002930 
#    y 0.000000 1.715420 0.000000 
#    z 0.002930 0.000000 1.697270 
# 
# From -- ./inp_files/290311.got.cif
#   From: 2010.06.25/outbox.cif.g09.slc.cpg/sg15_146_cif.got.tgz:290311.got - 2010.06.28 07:06:18.
