data_PCOD8137553
_publ_section_title
;
Structure prediction by ZEFSAII (Michael W. Deem and Ramdas Pophale) SiO2 
 PCOD8137553
Probable space group: C 2/C
;
_chemical_formula_sum "Si O2"
_cell_formula_units_Z 56
_cell_length_a 9.699676
_cell_length_b 10.536502
_cell_length_c 28.918980
_cell_angle_alpha 90.000000
_cell_angle_beta 58.598106
_cell_angle_gamma 90.000000
_cell_volume 2522.651522
_symmetry_space_group_name_H-M "C 2/C"
_symmetry_group_IT_number 15
_symmetry_cell_setting 'monoclinic'
loop_
_space_group_symop_operation_xyz
x,y,z
-x,y,1/2-z
-x,-y,-z
x,-y,1/2+z
1/2+x,1/2+y,z
1/2-x,1/2+y,1/2-z
1/2-x,1/2-y,-z
1/2+x,1/2-y,1/2+z
loop_
_atom_site_type_symbol
_atom_site_label
_atom_site_fract_x
_atom_site_fract_y
_atom_site_fract_z
Si Si1 0.607315 0.443917 0.776787
Si Si2 0.049703 0.311699 0.497146
Si Si3 0.048764 0.243346 0.888114
Si Si4 0.999295 0.037452 0.394043
Si Si5 0.238574 0.597838 0.083501
Si Si6 0.287642 0.940631 0.496193
Si Si7 0.813923 0.316656 0.272128
O O1 0.500000 0.469379 0.750000
O O2 0.491002 0.425165 0.841594
O O3 0.728778 0.562844 0.762531
O O4 0.700970 0.309790 0.756695
O O5 0.937580 0.290694 0.561848
O O6 0.924568 0.332790 0.476866
O O7 0.163446 0.194140 0.466359
O O8 0.158259 0.434476 0.485668
O O9 0.225127 0.222506 0.835252
O O10 0.940824 0.344889 0.877462
O O11 0.956264 0.110354 0.904298
O O12 0.180120 0.069122 0.381488
O O13 0.874116 0.109116 0.449684
O O14 0.237710 0.467077 0.053924
O O15 0.000000 0.351161 0.250000
#
# Coordination Sequence:
#
# PCOD8137553 Si02
#       7
#     8   8   8   8   8   8   8
#     4  10  25  46  68  96 128 170 219 282 331 385
#     4  10  20  36  62  91 129 170 202 247 312 384
#     4  10  21  41  65  88 131 168 202 265 325 370
#     4  11  22  39  67  91 125 166 213 259 322 380
#     4  11  21  40  59  95 130 164 203 252 316 384
#     4  10  20  36  59  92 129 165 207 249 300 385
#     4  10  24  45  69  98 129 168 223 282 330 387
#
# _framework density 22.198862999999999
#
# number of rings (size 3 to 8) (size 9 to 14) (size 15 to 20)
#    0.000    1.714    2.857    1.286    4.000    5.714 
#    0.000    0.000    0.000    0.000    0.000    0.000 
#    0.000    0.000    0.000    0.000    0.000    0.000 
#
# Total GULP energy -347043.026323 kJ/mol
# GULP energy per Si atom -12394.393797 kJ/mol
# Density = 2.214834 g / cm^3
# Si number density = 22.198863 Si / 1000 Ang^3
#
#
#
# Elastic Constant Matrix: (Units=GPa)
#
#
# Indices 1 2 3 4 5 6 
#
# 1 86.2899 4.3502 24.1295 0.0000 6.2838 0.0000
# 2 4.3502 75.9581 1.7789 0.0000 1.3937 0.0000
# 3 24.1295 1.7789 60.9269 0.0000 -6.2379 0.0000
# 4 0.0000 0.0000 0.0000 21.2979 0.0000 1.6058
# 5 6.2838 1.3937 -6.2379 0.0000 39.1273 0.0000
# 6 0.0000 0.0000 0.0000 1.6058 0.0000 32.2832
#
#
#
# Elastic Compliance Matrix: (Units=1/GPa)
#
#
# Indices 1 2 3 4 5 6 
#
# 1 0.013405 -0.000581 -0.005602 0.000000 -0.003025 0.000000
# 2 -0.000581 0.013211 -0.000197 0.000000 -0.000409 0.000000
# 3 -0.005602 -0.000197 0.019041 0.000000 0.003942 0.000000
# 4 0.000000 0.000000 0.000000 0.047130 0.000000 -0.002344
# 5 -0.003025 -0.000409 0.003942 0.000000 0.026686 0.000000
# 6 0.000000 0.000000 0.000000 -0.002344 0.000000 0.031092
#
#
# Mechanical properties :
#
#
# Convention : Reuss Voigt Hill
#
# Bulk Modulus (GPa) = 30.39868 31.52137 30.96002
# Shear Modulus (GPa) = 28.68771 31.40276 30.04523
#
# Velocity S-wave (km/s) = 3.59876 3.76521 3.68293
# Velocity P-wave (km/s) = 5.56702 5.75611 5.66235
#
# Compressibility (1/GPa) = 0.03289616
#
# Stress axis : x y z
#
# Youngs Moduli (GPa) = 74.59999 75.69706 52.51837
#
# Poissons Ratio (x) = 0.04398 0.29419
# Poissons Ratio (y) = 0.04334 0.01037
# Poissons Ratio (z) = 0.41788 0.01495
#
# Static dielectric constant tensor:
#      x y z
#    x 4.014450 0.000000 -0.134530 
#    y 0.000000 4.132000 0.000000 
#    z -0.134530 0.000000 3.948920 
# 
# 
# High freq. dielectric constant tensor:
#      x y z
#    x 1.872420 0.000000 -0.004510 
#    y 0.000000 1.881900 0.000000 
#    z -0.004510 0.000000 1.857370 
# 
# From -- ./inp_files/307391.got.cif
#   From: 2010.06.25/outbox.cif.g09.slc.cpg/sg15_154_cif.got.tgz:307391.got - 2010.06.28 07:06:18.
