data_PCOD8137397
_publ_section_title
;
Structure prediction by ZEFSAII (Michael W. Deem and Ramdas Pophale) SiO2 
 PCOD8137397
Probable space group: C 2/C
;
_chemical_formula_sum "Si O2"
_cell_formula_units_Z 40
_cell_length_a 21.438206
_cell_length_b 8.927278
_cell_length_c 28.976262
_cell_angle_alpha 90.000000
_cell_angle_beta 20.114921
_cell_angle_gamma 90.000000
_cell_volume 1907.161153
_symmetry_space_group_name_H-M "C 2/C"
_symmetry_group_IT_number 15
_symmetry_cell_setting 'monoclinic'
loop_
_space_group_symop_operation_xyz
x,y,z
-x,y,1/2-z
-x,-y,-z
x,-y,1/2+z
1/2+x,1/2+y,z
1/2-x,1/2+y,1/2-z
1/2-x,1/2-y,-z
1/2+x,1/2-y,1/2+z
loop_
_atom_site_type_symbol
_atom_site_label
_atom_site_fract_x
_atom_site_fract_y
_atom_site_fract_z
Si Si1 0.536441 0.971819 0.376014
Si Si2 0.700794 0.058528 0.348596
Si Si3 0.251773 0.916449 0.851715
Si Si4 0.168848 0.117069 0.663221
Si Si5 0.044686 0.195685 0.009194
O O1 0.707359 0.038211 0.288471
O O2 0.591793 0.993026 0.284517
O O3 0.353827 0.066158 0.510292
O O4 0.501116 0.796202 0.413635
O O5 0.700233 0.228314 0.368170
O O6 0.500000 0.000000 0.500000
O O7 0.849048 0.960577 0.273592
O O8 0.336494 0.797689 0.828389
O O9 0.127967 0.035276 0.966119
O O10 0.133680 0.821586 0.897634
O O11 0.000000 0.064234 0.750000
#
# Coordination Sequence:
#
# PCOD8137397 Si02
#       5
#     8   8   8   8   8
#     4  10  20  36  58  81 117 148 188 236 278 338
#     4   8  15  35  53  79 109 144 184 231 275 323
#     4  11  20  32  60  87 112 148 187 236 286 325
#     4  10  20  38  57  83 120 149 185 233 280 343
#     4   9  19  34  51  86 112 138 189 241 276 320
#
# _framework density 20.973582
#
# number of rings (size 3 to 8) (size 9 to 14) (size 15 to 20)
#    0.000    2.800    6.000    0.000    2.800    0.800 
#    0.000    4.000    0.000    6.000    0.000    0.000 
#    0.000    0.000    0.000    0.000    0.000    0.000 
#
# Total GULP energy -247805.118348 kJ/mol
# GULP energy per Si atom -12390.255917 kJ/mol
# Density = 2.092585 g / cm^3
# Si number density = 20.973582 Si / 1000 Ang^3
#
#
#
# Elastic Constant Matrix: (Units=GPa)
#
#
# Indices 1 2 3 4 5 6 
#
# 1 67.1103 23.9949 37.3177 0.0342 -24.1880 0.0228
# 2 23.9949 104.6805 28.8183 -0.2987 -5.9194 -0.1806
# 3 37.3177 28.8183 55.0512 0.3638 -8.0225 0.2117
# 4 0.0342 -0.2987 0.3638 16.7995 0.3805 -5.9630
# 5 -24.1880 -5.9194 -8.0225 0.3805 29.2265 0.1995
# 6 0.0228 -0.1806 0.2117 -5.9630 0.1995 20.7568
#
#
#
# Elastic Compliance Matrix: (Units=1/GPa)
#
#
# Indices 1 2 3 4 5 6 
#
# 1 0.034293 -0.001270 -0.019250 -0.000243 0.022844 -0.000142
# 2 -0.001270 0.011224 -0.005043 0.000411 -0.000169 0.000270
# 3 -0.019250 -0.005043 0.032700 -0.000754 -0.007964 -0.000496
# 4 -0.000243 0.000411 -0.000754 0.066354 -0.001319 0.019086
# 5 0.022844 -0.000169 -0.007964 -0.001319 0.050924 -0.000814
# 6 -0.000142 0.000270 -0.000496 0.019086 -0.000814 0.053676
#
#
# Mechanical properties :
#
#
# Convention : Reuss Voigt Hill
#
# Bulk Modulus (GPa) = 36.91310 45.23373 41.07342
# Shear Modulus (GPa) = 16.16404 22.47062 19.31733
#
# Velocity S-wave (km/s) = 2.77913 3.27674 3.03814
# Velocity P-wave (km/s) = 5.28546 5.99415 5.65093
#
# Compressibility (1/GPa) = 0.02709065
#
# Stress axis : x y z
#
# Youngs Moduli (GPa) = 29.16057 89.09093 30.58066
#
# Poissons Ratio (x) = 0.11317 0.58868
# Poissons Ratio (y) = 0.03704 0.15422
# Poissons Ratio (z) = 0.56134 0.44930
#
# Static dielectric constant tensor:
#      x y z
#    x 4.080160 -0.000050 0.274840 
#    y -0.000050 4.131510 0.000120 
#    z 0.274840 0.000120 3.492070 
# 
# 
# High freq. dielectric constant tensor:
#      x y z
#    x 1.775520 0.000000 0.013390 
#    y 0.000000 1.839550 0.000010 
#    z 0.013390 0.000010 1.791130 
# 
# From -- ./inp_files/317442.got.cif
#   From: 2010.06.25/outbox.cif.g09.slc.cpg/sg15_159_cif.got.tgz:317442.got - 2010.06.28 07:06:18.
