data_PCOD8137517
_publ_section_title
;
Structure prediction by ZEFSAII (Michael W. Deem and Ramdas Pophale) SiO2 
 PCOD8137517
Probable space group: C 2/C
;
_chemical_formula_sum "Si O2"
_cell_formula_units_Z 56
_cell_length_a 14.799510
_cell_length_b 11.763096
_cell_length_c 14.283389
_cell_angle_alpha 90.000000
_cell_angle_beta 81.377990
_cell_angle_gamma 90.000000
_cell_volume 2458.466401
_symmetry_space_group_name_H-M "C 2/C"
_symmetry_group_IT_number 15
_symmetry_cell_setting 'monoclinic'
loop_
_space_group_symop_operation_xyz
x,y,z
-x,y,1/2-z
-x,-y,-z
x,-y,1/2+z
1/2+x,1/2+y,z
1/2-x,1/2+y,1/2-z
1/2-x,1/2-y,-z
1/2+x,1/2-y,1/2+z
loop_
_atom_site_type_symbol
_atom_site_label
_atom_site_fract_x
_atom_site_fract_y
_atom_site_fract_z
Si Si1 0.779962 0.949465 0.153979
Si Si2 0.577445 0.629656 0.309565
Si Si3 0.163390 0.512443 0.344443
Si Si4 0.785412 0.786756 0.860557
Si Si5 0.010184 0.680489 0.347667
Si Si6 0.626332 0.020823 0.046182
Si Si7 0.447270 0.773230 0.459084
O O1 0.789354 0.814514 0.136860
O O2 0.725303 0.001053 0.075470
O O3 0.875210 0.018038 0.150783
O O4 0.718343 0.948614 0.256888
O O5 0.500000 0.584560 0.250000
O O6 0.653834 0.703063 0.243484
O O7 0.531670 0.714149 0.392047
O O8 0.227285 0.602492 0.388750
O O9 0.134319 0.434179 0.437200
O O10 0.078643 0.577482 0.311369
O O11 0.850764 0.776698 0.940296
O O12 0.914213 0.625327 0.390465
O O13 0.000000 0.749991 0.250000
O O14 0.043171 0.755174 0.431379
O O15 0.558611 0.909755 0.058200
#
# Coordination Sequence:
#
# PCOD8137517 Si02
#       7
#     8   8   8   8   8   8   8
#     4  10  20  36  59  86 118 153 192 251 286 344
#     4   9  19  37  61  88 118 154 204 240 287 352
#     4  10  20  37  57  86 119 149 200 244 287 350
#     4   9  20  35  61  87 112 158 201 240 285 348
#     4  11  21  34  55  85 121 147 188 243 306 342
#     4  10  21  34  59  85 111 156 188 247 296 346
#     4   9  19  34  57  86 111 155 197 241 279 353
#
# _framework density 22.778428000000002
#
# number of rings (size 3 to 8) (size 9 to 14) (size 15 to 20)
#    0.000    2.286    1.429    1.714    4.000    5.714 
#    0.000    2.857    0.000   19.714    0.000    0.000 
#    0.000    1.143    0.000    0.000    0.000    0.000 
#
# Total GULP energy -346942.622227 kJ/mol
# GULP energy per Si atom -12390.807937 kJ/mol
# Density = 2.272658 g / cm^3
# Si number density = 22.778428 Si / 1000 Ang^3
#
#
#
# Elastic Constant Matrix: (Units=GPa)
#
#
# Indices 1 2 3 4 5 6 
#
# 1 78.3890 20.7715 24.7729 0.0000 9.1429 0.0000
# 2 20.7715 39.9131 14.8222 0.0000 6.5009 0.0000
# 3 24.7729 14.8222 150.5837 0.0000 19.9784 0.0000
# 4 0.0000 0.0000 0.0000 9.7477 0.0000 4.7531
# 5 9.1429 6.5009 19.9784 0.0000 31.6154 0.0000
# 6 0.0000 0.0000 0.0000 4.7531 0.0000 32.8667
#
#
#
# Elastic Compliance Matrix: (Units=1/GPa)
#
#
# Indices 1 2 3 4 5 6 
#
# 1 0.015363 -0.007089 -0.001565 0.000000 -0.001996 0.000000
# 2 -0.007089 0.029765 -0.001336 0.000000 -0.003226 0.000000
# 3 -0.001565 -0.001336 0.007568 0.000000 -0.004055 0.000000
# 4 0.000000 0.000000 0.000000 0.110372 0.000000 -0.015962
# 5 -0.001996 -0.003226 -0.004055 0.000000 0.035433 0.000000
# 6 0.000000 0.000000 0.000000 -0.015962 0.000000 0.032734
#
#
# Mechanical properties :
#
#
# Convention : Reuss Voigt Hill
#
# Bulk Modulus (GPa) = 30.56490 43.29099 36.92794
# Shear Modulus (GPa) = 19.07532 28.74725 23.91129
#
# Velocity S-wave (km/s) = 2.89698 3.55637 3.24347
# Velocity P-wave (km/s) = 4.96361 5.99251 5.50217
#
# Compressibility (1/GPa) = 0.03271727
#
# Stress axis : x y z
#
# Youngs Moduli (GPa) = 65.09323 33.59648 132.14064
#
# Poissons Ratio (x) = 0.23816 0.20676
# Poissons Ratio (y) = 0.46143 0.17648
# Poissons Ratio (z) = 0.10185 0.04487
#
# Static dielectric constant tensor:
#      x y z
#    x 4.219090 0.000000 0.029740 
#    y 0.000000 3.689690 0.000000 
#    z 0.029740 0.000000 4.355140 
# 
# 
# High freq. dielectric constant tensor:
#      x y z
#    x 1.906360 0.000000 0.000180 
#    y 0.000000 1.850210 0.000000 
#    z 0.000180 0.000000 1.917450 
# 
# From -- ./inp_files/152591.got.cif
#   From: 2010.06.25/outbox.cif.g09.slc.cpg/sg15_77_cif.got.tgz:152591.got - 2010.06.28 07:06:18.
