data_PCOD8137827
_publ_section_title
;
Structure prediction by ZEFSAII (Michael W. Deem and Ramdas Pophale) SiO2 
 PCOD8137827
Probable space group: C 2/C
;
_chemical_formula_sum "Si O2"
_cell_formula_units_Z 40
_cell_length_a 8.755071
_cell_length_b 25.995648
_cell_length_c 8.549657
_cell_angle_alpha 90.000000
_cell_angle_beta 74.792267
_cell_angle_gamma 90.000000
_cell_volume 1877.706972
_symmetry_space_group_name_H-M "C 2/C"
_symmetry_group_IT_number 15
_symmetry_cell_setting 'monoclinic'
loop_
_space_group_symop_operation_xyz
x,y,z
-x,y,1/2-z
-x,-y,-z
x,-y,1/2+z
1/2+x,1/2+y,z
1/2-x,1/2+y,1/2-z
1/2-x,1/2-y,-z
1/2+x,1/2-y,1/2+z
loop_
_atom_site_type_symbol
_atom_site_label
_atom_site_fract_x
_atom_site_fract_y
_atom_site_fract_z
Si Si1 0.315001 0.153342 0.788674
Si Si2 0.669559 0.541242 0.289453
Si Si3 0.175070 0.061226 0.651290
Si Si4 0.313799 0.754921 0.808591
Si Si5 0.186964 0.146762 0.166392
O O1 0.500000 0.146462 0.750000
O O2 0.268198 0.113507 0.664186
O O3 0.279060 0.211804 0.759352
O O4 0.220108 0.144739 0.973915
O O5 0.500000 0.538400 0.250000
O O6 0.663716 0.545807 0.475260
O O7 0.755004 0.487383 0.221606
O O8 0.757845 0.592375 0.206570
O O9 0.000000 0.073698 0.750000
O O10 0.500000 0.744514 0.750000
O O11 0.278444 0.809085 0.735478
O O12 0.250000 0.750000 0.000000
O O13 0.000000 0.151928 0.250000
#
# Coordination Sequence:
#
# PCOD8137827 Si02
#       5
#     8   8   8   8   8
#     4  12  25  42  62  92 129 168 207 258 315 370
#     4  10  20  36  63  94 123 161 208 258 308 369
#     4  11  20  38  63  92 124 165 213 257 305 372
#     4  12  24  41  64  93 123 163 211 261 313 373
#     4  11  22  41  63  89 123 165 208 256 309 370
#
# _framework density 21.302579000000001
#
# number of rings (size 3 to 8) (size 9 to 14) (size 15 to 20)
#    0.000    0.800    0.000   11.400    0.000    0.000 
#    0.000    5.000    0.000    0.000    0.000    0.000 
#    0.000    0.000    0.000    0.000    0.000    0.000 
#
# Total GULP energy -247910.130266 kJ/mol
# GULP energy per Si atom -12395.506513 kJ/mol
# Density = 2.125409 g / cm^3
# Si number density = 21.302579 Si / 1000 Ang^3
#
#
#
# Elastic Constant Matrix: (Units=GPa)
#
#
# Indices 1 2 3 4 5 6 
#
# 1 84.8380 26.0482 38.8124 0.0000 -1.3288 0.0000
# 2 26.0482 132.6977 1.9460 0.0000 6.5923 0.0000
# 3 38.8124 1.9460 133.2230 0.0000 -5.9261 0.0000
# 4 0.0000 0.0000 0.0000 46.4066 0.0000 14.0362
# 5 -1.3288 6.5923 -5.9261 0.0000 28.4724 0.0000
# 6 0.0000 0.0000 0.0000 14.0362 0.0000 34.3600
#
#
#
# Elastic Compliance Matrix: (Units=1/GPa)
#
#
# Indices 1 2 3 4 5 6 
#
# 1 0.014575 -0.002823 -0.004185 0.000000 0.000463 0.000000
# 2 -0.002823 0.008175 0.000619 0.000000 -0.001896 0.000000
# 3 -0.004185 0.000619 0.008783 0.000000 0.001489 0.000000
# 4 0.000000 0.000000 0.000000 0.024586 0.000000 -0.010044
# 5 0.000463 -0.001896 0.001489 0.000000 0.035892 0.000000
# 6 0.000000 0.000000 0.000000 -0.010044 0.000000 0.033206
#
#
# Mechanical properties :
#
#
# Convention : Reuss Voigt Hill
#
# Bulk Modulus (GPa) = 53.31675 53.81910 53.56792
# Shear Modulus (GPa) = 34.66264 40.77795 37.72029
#
# Velocity S-wave (km/s) = 4.03818 4.37993 4.21252
# Velocity P-wave (km/s) = 6.84289 7.13424 6.99008
#
# Compressibility (1/GPa) = 0.01875583
#
# Stress axis : x y z
#
# Youngs Moduli (GPa) = 68.60849 122.32210 113.86262
#
# Poissons Ratio (x) = 0.34529 0.47646
# Poissons Ratio (y) = 0.19366 -0.07044
# Poissons Ratio (z) = 0.28709 -0.07567
#
# Static dielectric constant tensor:
#      x y z
#    x 3.572810 0.000000 0.061170 
#    y 0.000000 4.520650 0.000000 
#    z 0.061170 0.000000 4.106880 
# 
# 
# High freq. dielectric constant tensor:
#      x y z
#    x 1.809280 0.000000 0.009670 
#    y 0.000000 1.869630 0.000000 
#    z 0.009670 0.000000 1.854460 
# 
# From -- ./inp_files/23427.got.cif
#   From: 2010.06.25/outbox.cif.g09.slc.cpg/sg15_12_cif.got.tgz:23427.got - 2010.06.28 07:06:18.
