data_PCOD8137160
_publ_section_title
;
Structure prediction by ZEFSAII (Michael W. Deem and Ramdas Pophale) SiO2 
 PCOD8137160
Probable space group: C 2/C
;
_chemical_formula_sum "Si O2"
_cell_formula_units_Z 48
_cell_length_a 17.438054
_cell_length_b 30.135638
_cell_length_c 9.870467
_cell_angle_alpha 90.000000
_cell_angle_beta 150.675321
_cell_angle_gamma 90.000000
_cell_volume 2540.374104
_symmetry_space_group_name_H-M "C 2/C"
_symmetry_group_IT_number 15
_symmetry_cell_setting 'monoclinic'
loop_
_space_group_symop_operation_xyz
x,y,z
-x,y,1/2-z
-x,-y,-z
x,-y,1/2+z
1/2+x,1/2+y,z
1/2-x,1/2+y,1/2-z
1/2-x,1/2-y,-z
1/2+x,1/2-y,1/2+z
loop_
_atom_site_type_symbol
_atom_site_label
_atom_site_fract_x
_atom_site_fract_y
_atom_site_fract_z
Si Si1 0.683171 0.461877 0.051103
Si Si2 0.896444 0.381982 0.456397
Si Si3 0.320561 0.970706 0.969605
Si Si4 0.180227 0.705322 0.545643
Si Si5 0.885036 0.375324 0.962376
Si Si6 0.815791 0.802140 0.965016
O O1 0.500000 0.453193 0.750000
O O2 0.755903 0.475807 0.020608
O O3 0.761271 0.418009 0.233412
O O4 0.713637 0.501189 0.203801
O O5 0.806522 0.333963 0.322464
O O6 0.016834 0.385980 0.519798
O O7 0.000000 0.389181 0.750000
O O8 0.308928 0.920064 0.903020
O O9 0.500000 0.987769 0.250000
O O10 0.249328 0.754066 0.689872
O O11 0.255126 0.688104 0.522290
O O12 0.000000 0.715983 0.250000
O O13 0.747976 0.340132 0.730818
O O14 0.000000 0.354083 0.250000
O O15 0.000000 0.806243 0.250000
#
# Coordination Sequence:
#
# PCOD8137160 Si02
#       6
#     8   8   8   8   8   8
#     4  12  26  42  63  95 128 155 201 265 306 356
#     4  11  21  41  67  88 117 173 209 239 302 378
#     4  11  24  43  65  90 122 167 206 244 304 377
#     4   9  18  36  62  88 118 159 213 240 293 366
#     4  11  22  41  62  91 128 159 204 255 305 366
#     4  10  20  35  62  93 119 156 208 258 292 353
#
# _framework density 18.894853999999999
#
# number of rings (size 3 to 8) (size 9 to 14) (size 15 to 20)
#    0.000    1.333    6.667    1.500    2.333    2.000 
#    0.000    1.667    0.000    0.000    0.000    0.000 
#    0.000    0.000    0.000    0.000    0.000    0.000 
#
# Total GULP energy -297504.563782 kJ/mol
# GULP energy per Si atom -12396.023491 kJ/mol
# Density = 1.885185 g / cm^3
# Si number density = 18.894854 Si / 1000 Ang^3
#
#
#
# Elastic Constant Matrix: (Units=GPa)
#
#
# Indices 1 2 3 4 5 6 
#
# 1 87.0453 7.7030 33.9570 0.0000 -2.6804 0.0000
# 2 7.7030 113.5125 57.7601 0.0000 -5.8135 0.0000
# 3 33.9570 57.7601 117.0934 0.0000 2.3823 0.0000
# 4 0.0000 0.0000 0.0000 29.4410 0.0000 -2.6805
# 5 -2.6804 -5.8135 2.3823 0.0000 31.4609 0.0000
# 6 0.0000 0.0000 0.0000 -2.6805 0.0000 31.8051
#
#
#
# Elastic Compliance Matrix: (Units=1/GPa)
#
#
# Indices 1 2 3 4 5 6 
#
# 1 0.013212 0.001551 -0.004633 0.000000 0.001763 0.000000
# 2 0.001551 0.012163 -0.006508 0.000000 0.002872 0.000000
# 3 -0.004633 -0.006508 0.013147 0.000000 -0.002593 0.000000
# 4 0.000000 0.000000 0.000000 0.034229 0.000000 0.002885
# 5 0.001763 0.002872 -0.002593 0.000000 0.032663 0.000000
# 6 0.000000 0.000000 0.000000 0.002885 0.000000 0.031685
#
#
# Mechanical properties :
#
#
# Convention : Reuss Voigt Hill
#
# Bulk Modulus (GPa) = 51.69844 57.38793 54.54319
# Shear Modulus (GPa) = 30.72663 33.09016 31.90839
#
# Velocity S-wave (km/s) = 4.03698 4.18937 4.11388
# Velocity P-wave (km/s) = 7.01072 7.33752 7.17598
#
# Compressibility (1/GPa) = 0.01934294
#
# Stress axis : x y z
#
# Youngs Moduli (GPa) = 75.68600 82.21634 76.06504
#
# Poissons Ratio (x) = -0.12751 0.35237
# Poissons Ratio (y) = -0.11738 0.49503
# Poissons Ratio (z) = 0.35062 0.53506
#
# Static dielectric constant tensor:
#      x y z
#    x 3.320080 0.000000 0.122600 
#    y 0.000000 3.841360 0.000000 
#    z 0.122600 0.000000 3.232680 
# 
# 
# High freq. dielectric constant tensor:
#      x y z
#    x 1.746580 0.000000 0.002270 
#    y 0.000000 1.750170 0.000000 
#    z 0.002270 0.000000 1.711170 
# 
# From -- ./inp_files/52893.got.cif
#   From: 2010.06.25/outbox.cif.g09.slc.cpg/sg15_27_cif.got.tgz:52893.got - 2010.06.28 07:06:18.
