data_PCOD8137945
_publ_section_title
;
Structure prediction by ZEFSAII (Michael W. Deem and Ramdas Pophale) SiO2 
 PCOD8137945
Probable space group: C 2/C
;
_chemical_formula_sum "Si O2"
_cell_formula_units_Z 40
_cell_length_a 4.915809
_cell_length_b 18.432575
_cell_length_c 20.665489
_cell_angle_alpha 90.000000
_cell_angle_beta 101.957658
_cell_angle_gamma 90.000000
_cell_volume 1831.889130
_symmetry_space_group_name_H-M "C 2/C"
_symmetry_group_IT_number 15
_symmetry_cell_setting 'monoclinic'
loop_
_space_group_symop_operation_xyz
x,y,z
-x,y,1/2-z
-x,-y,-z
x,-y,1/2+z
1/2+x,1/2+y,z
1/2-x,1/2+y,1/2-z
1/2-x,1/2-y,-z
1/2+x,1/2-y,1/2+z
loop_
_atom_site_type_symbol
_atom_site_label
_atom_site_fract_x
_atom_site_fract_y
_atom_site_fract_z
Si Si1 0.044273 0.141855 0.608385
Si Si2 0.253167 0.596374 0.120563
Si Si3 0.215130 0.731985 0.206744
Si Si4 0.276025 0.996421 0.614545
Si Si5 0.936951 0.393755 0.027487
O O1 0.735602 0.123015 0.571795
O O2 0.050271 0.206840 0.659212
O O3 0.222975 0.161900 0.552866
O O4 0.183540 0.069252 0.648712
O O5 0.313464 0.665483 0.167239
O O6 0.540965 0.564660 0.108416
O O7 0.067812 0.538810 0.152979
O O8 0.066820 0.619123 0.049317
O O9 0.500000 0.764703 0.250000
O O10 0.000000 0.703830 0.250000
O O11 0.334979 0.023772 0.542665
#
# Coordination Sequence:
#
# PCOD8137945 Si02
#       5
#     8   8   8   8   8
#     4  10  22  40  65  91 129 162 215 251 316 392
#     4  12  22  38  68  97 135 156 206 265 329 383
#     4  12  28  48  61  85 128 182 221 266 312 367
#     4  10  20  38  64 103 122 164 193 259 330 389
#     4  10  20  36  69 102 126 158 199 266 331 388
#
# _framework density 21.835381999999999
#
# number of rings (size 3 to 8) (size 9 to 14) (size 15 to 20)
#    1.200    0.000    2.000    4.800    0.000    1.600 
#    0.000    6.000    0.000    0.000    0.000    0.000 
#    0.000    0.000    0.000    0.000    0.000    0.000 
#
# Total GULP energy -247787.114600 kJ/mol
# GULP energy per Si atom -12389.355730 kJ/mol
# Density = 2.178568 g / cm^3
# Si number density = 21.835382 Si / 1000 Ang^3
#
#
#
# Elastic Constant Matrix: (Units=GPa)
#
#
# Indices 1 2 3 4 5 6 
#
# 1 159.4693 33.3458 34.3199 0.0000 -0.7743 0.0000
# 2 33.3458 84.4060 40.7945 0.0000 -11.2655 0.0000
# 3 34.3199 40.7945 55.4441 0.0000 -7.1996 0.0000
# 4 0.0000 0.0000 0.0000 -1.1819 0.0000 1.8612
# 5 -0.7743 -11.2655 -7.1996 0.0000 21.0834 0.0000
# 6 0.0000 0.0000 0.0000 1.8612 0.0000 27.8135
#
#
#
# Elastic Compliance Matrix: (Units=1/GPa)
#
#
# Indices 1 2 3 4 5 6 
#
# 1 0.007356 -0.001284 -0.003832 0.000000 -0.001725 0.000000
# 2 -0.001284 0.019227 -0.012582 0.000000 0.005930 0.000000
# 3 -0.003832 -0.012582 0.030110 0.000000 0.003418 0.000000
# 4 0.000000 0.000000 0.000000 -0.765424 0.000000 0.051220
# 5 -0.001725 0.005930 0.003418 0.000000 0.051703 0.000000
# 6 0.000000 0.000000 0.000000 0.051220 0.000000 0.032526
#
#
# Mechanical properties :
#
#
# Convention : Reuss Voigt Hill
#
# Bulk Modulus (GPa) = 46.95745 57.35996 52.15871
# Shear Modulus (GPa) = -8.59098 22.26694 6.83798
#
# Velocity S-wave (km/s) = -1.98569 3.19684 1.77155
# Velocity P-wave (km/s) = 4.03666 6.32081 5.30317
#
# Compressibility (1/GPa) = 0.02129588
#
# Stress axis : x y z
#
# Youngs Moduli (GPa) = 135.94928 52.00919 33.21147
#
# Poissons Ratio (x) = 0.06677 0.12728
# Poissons Ratio (y) = 0.17454 0.41788
# Poissons Ratio (z) = 0.52102 0.65440
#
# Static dielectric constant tensor:
#      x y z
#    x 4.133290 0.000000 -0.124660 
#    y 0.000000 3.792450 0.000000 
#    z -0.124660 0.000000 3.563600 
# 
# 
# High freq. dielectric constant tensor:
#      x y z
#    x 1.889180 0.000000 -0.005190 
#    y 0.000000 1.844880 0.000000 
#    z -0.005190 0.000000 1.815490 
# 
# From -- ./inp_files/226860.got.cif
#   From: 2010.06.25/outbox.cif.g09.slc.cpg/sg15_114_cif.got.tgz:226860.got - 2010.06.28 07:06:18.
