data_PCOD8137146
_publ_section_title
;
Structure prediction by ZEFSAII (Michael W. Deem and Ramdas Pophale) SiO2 
 PCOD8137146
Probable space group: C 2/C
;
_chemical_formula_sum "Si O2"
_cell_formula_units_Z 60
_cell_length_a 17.490789
_cell_length_b 16.116456
_cell_length_c 13.834393
_cell_angle_alpha 90.000000
_cell_angle_beta 53.503436
_cell_angle_gamma 90.000000
_cell_volume 3134.996423
_symmetry_space_group_name_H-M "C 2/C"
_symmetry_group_IT_number 15
_symmetry_cell_setting 'monoclinic'
loop_
_space_group_symop_operation_xyz
x,y,z
-x,y,1/2-z
-x,-y,-z
x,-y,1/2+z
1/2+x,1/2+y,z
1/2-x,1/2+y,1/2-z
1/2-x,1/2-y,-z
1/2+x,1/2-y,1/2+z
loop_
_atom_site_type_symbol
_atom_site_label
_atom_site_fract_x
_atom_site_fract_y
_atom_site_fract_z
Si Si1 0.920456 0.110501 0.086782
Si Si2 0.260196 0.087143 0.687243
Si Si3 0.950602 0.946005 0.182030
Si Si4 0.382576 0.971227 0.922668
Si Si5 0.718821 0.057169 0.195861
Si Si6 0.031149 0.588504 0.430388
Si Si7 0.916245 0.703745 0.640606
Si Si8 0.000000 0.616185 0.750000
O O1 0.813931 0.109808 0.126740
O O2 0.930899 0.198366 0.130721
O O3 0.939311 0.040788 0.153990
O O4 0.988614 0.103480 0.942957
O O5 0.151590 0.100544 0.733981
O O6 0.316216 0.173216 0.667247
O O7 0.314436 0.029992 0.567901
O O8 0.259396 0.037226 0.788966
O O9 0.000000 0.945086 0.250000
O O10 0.429375 0.061520 0.870022
O O11 0.319482 0.939905 0.882933
O O12 0.471174 0.908494 0.874821
O O13 0.642239 0.096694 0.326093
O O14 0.000000 0.500000 0.500000
O O15 0.004519 0.665957 0.515701
O O16 0.928386 0.672102 0.740918
#
# Coordination Sequence:
#
# PCOD8137146 Si02
#       8
#     8   8   8   8   8   8   8   4
#     4  10  25  40  61  87 120 160 209 250 295 351
#     4  10  20  35  62  84 120 152 202 249 292 353
#     4  10  22  46  65  79 112 174 214 244 285 356
#     4  11  17  31  58  97 111 155 196 234 305 373
#     4  11  18  35  57  82 117 158 198 239 290 368
#     4  11  17  33  56  88 124 153 187 239 309 365
#     4  11  22  37  58  96 127 151 189 256 311 357
#     4  12  18  32  64  92 136 144 188 250 324 362
#
# _framework density 19.138777999999999
#
# number of rings (size 3 to 8) (size 9 to 14) (size 15 to 20)
#    0.000    1.333    6.667    0.800    0.933    1.067 
#    0.000    8.667    0.000    3.200    0.000    0.000 
#    0.000    0.000    0.000    0.000    0.000    0.000 
#
# Total GULP energy -371795.645673 kJ/mol
# GULP energy per Si atom -12393.188189 kJ/mol
# Density = 1.909522 g / cm^3
# Si number density = 19.138778 Si / 1000 Ang^3
#
#
#
# Elastic Constant Matrix: (Units=GPa)
#
#
# Indices 1 2 3 4 5 6 
#
# 1 128.8768 23.6540 49.7467 0.0000 -10.0713 0.0000
# 2 23.6540 85.5143 30.9450 0.0000 -4.2646 0.0000
# 3 49.7467 30.9450 92.5004 0.0000 -18.4126 0.0000
# 4 0.0000 0.0000 0.0000 16.8418 0.0000 -0.2392
# 5 -10.0713 -4.2646 -18.4126 0.0000 41.0594 0.0000
# 6 0.0000 0.0000 0.0000 -0.2392 0.0000 21.7728
#
#
#
# Elastic Compliance Matrix: (Units=1/GPa)
#
#
# Indices 1 2 3 4 5 6 
#
# 1 0.009856 -0.000922 -0.004974 0.000000 0.000091 0.000000
# 2 -0.000922 0.013408 -0.004126 0.000000 -0.000684 0.000000
# 3 -0.004974 -0.004126 0.015963 0.000000 0.005510 0.000000
# 4 0.000000 0.000000 0.000000 0.059385 0.000000 0.000652
# 5 0.000091 -0.000684 0.005510 0.000000 0.026777 0.000000
# 6 0.000000 0.000000 0.000000 0.000652 0.000000 0.045936
#
#
# Mechanical properties :
#
#
# Convention : Reuss Voigt Hill
#
# Bulk Modulus (GPa) = 52.12855 57.28700 54.70778
# Shear Modulus (GPa) = 25.28294 29.43783 27.36039
#
# Velocity S-wave (km/s) = 3.63854 3.92615 3.78508
# Velocity P-wave (km/s) = 6.70435 7.10987 6.91008
#
# Compressibility (1/GPa) = 0.01918335
#
# Stress axis : x y z
#
# Youngs Moduli (GPa) = 101.46565 74.58330 62.64614
#
# Poissons Ratio (x) = 0.06874 0.31159
# Poissons Ratio (y) = 0.09352 0.25847
# Poissons Ratio (z) = 0.50467 0.30772
#
# Static dielectric constant tensor:
#      x y z
#    x 3.910110 0.000000 -0.082700 
#    y 0.000000 3.126180 0.000000 
#    z -0.082700 0.000000 3.628030 
# 
# 
# High freq. dielectric constant tensor:
#      x y z
#    x 1.763640 0.000000 0.000310 
#    y 0.000000 1.702990 0.000000 
#    z 0.000310 0.000000 1.748180 
# 
# From -- ./inp_files/162929.got.cif
#   From: 2010.06.25/outbox.cif.g09.slc.cpg/sg15_82_cif.got.tgz:162929.got - 2010.06.28 07:06:18.
