data_PCOD8137556
_publ_section_title
;
Structure prediction by ZEFSAII (Michael W. Deem and Ramdas Pophale) SiO2 
 PCOD8137556
Probable space group: C 2/C
;
_chemical_formula_sum "Si O2"
_cell_formula_units_Z 64
_cell_length_a 9.661868
_cell_length_b 19.629120
_cell_length_c 21.962141
_cell_angle_alpha 90.000000
_cell_angle_beta 48.254100
_cell_angle_gamma 90.000000
_cell_volume 3107.681976
_symmetry_space_group_name_H-M "C 2/C"
_symmetry_group_IT_number 15
_symmetry_cell_setting 'monoclinic'
loop_
_space_group_symop_operation_xyz
x,y,z
-x,y,1/2-z
-x,-y,-z
x,-y,1/2+z
1/2+x,1/2+y,z
1/2-x,1/2+y,1/2-z
1/2-x,1/2-y,-z
1/2+x,1/2-y,1/2+z
loop_
_atom_site_type_symbol
_atom_site_label
_atom_site_fract_x
_atom_site_fract_y
_atom_site_fract_z
Si Si1 0.550614 0.871217 0.665341
Si Si2 0.808396 0.852523 0.028165
Si Si3 0.787659 0.168228 0.309185
Si Si4 0.795169 0.574030 0.815019
Si Si5 0.084338 0.697874 0.488304
Si Si6 0.706958 0.303416 0.262961
Si Si7 0.606456 0.543506 0.420400
Si Si8 0.196462 0.224267 0.626436
O O1 0.500000 0.867730 0.750000
O O2 0.354055 0.879826 0.687548
O O3 0.697064 0.931120 0.608493
O O4 0.654608 0.801220 0.617672
O O5 0.745096 0.886501 0.109790
O O6 0.890049 0.778422 0.015162
O O7 0.631750 0.843471 0.035982
O O8 0.969705 0.894196 0.944036
O O9 0.711080 0.166503 0.399517
O O10 0.787894 0.244549 0.282475
O O11 0.000000 0.140537 0.250000
O O12 0.789228 0.624575 0.759221
O O13 0.656772 0.508598 0.850164
O O14 0.000000 0.542704 0.750000
O O15 0.864350 0.690220 0.539195
O O16 0.487885 0.317235 0.334794
O O17 0.753916 0.280886 0.180731
O O18 0.500000 0.500000 0.500000
#
# Coordination Sequence:
#
# PCOD8137556 Si02
#       8
#     8   8   8   8   8   8   8   8
#     4  11  21  39  65  91 129 162 202 256 316 373
#     4  10  22  34  57  89 122 154 198 255 303 363
#     4  11  24  36  58  98 130 156 201 261 319 379
#     4  11  21  38  60  84 116 162 207 249 290 366
#     4  11  22  34  59  91 126 160 189 253 328 368
#     4  10  20  36  59  93 127 153 199 259 309 370
#     4  10  23  40  59  88 119 164 216 253 290 370
#     4  10  20  36  60  95 126 160 193 257 328 373
#
# _framework density 20.594127
#
# number of rings (size 3 to 8) (size 9 to 14) (size 15 to 20)
#    0.000    1.500    5.000    1.500    5.250    4.000 
#    0.000    0.000    0.000   12.750    0.000    0.000 
#    0.000    0.000    0.000    0.000    0.000    0.000 
#
# Total GULP energy -396498.707132 kJ/mol
# GULP energy per Si atom -12390.584598 kJ/mol
# Density = 2.054725 g / cm^3
# Si number density = 20.594127 Si / 1000 Ang^3
#
#
#
# Elastic Constant Matrix: (Units=GPa)
#
#
# Indices 1 2 3 4 5 6 
#
# 1 78.9964 12.1411 19.6330 -0.0027 -20.3250 0.0029
# 2 12.1411 54.8759 13.5518 -0.0012 -6.4253 0.0013
# 3 19.6330 13.5518 71.3370 -0.0054 -26.9843 0.0032
# 4 -0.0027 -0.0012 -0.0054 17.0238 0.0023 1.8190
# 5 -20.3250 -6.4253 -26.9843 0.0023 40.3061 -0.0016
# 6 0.0029 0.0013 0.0032 1.8190 -0.0016 11.6665
#
#
#
# Elastic Compliance Matrix: (Units=1/GPa)
#
#
# Indices 1 2 3 4 5 6 
#
# 1 0.014951 -0.002248 -0.001301 0.000001 0.006310 -0.000002
# 2 -0.002248 0.019478 -0.003128 0.000000 -0.000123 -0.000001
# 3 -0.001301 -0.003128 0.019462 0.000005 0.011875 -0.000004
# 4 0.000001 0.000000 0.000005 0.059737 0.000000 -0.009314
# 5 0.006310 -0.000123 0.011875 0.000000 0.035923 0.000000
# 6 -0.000002 -0.000001 -0.000004 -0.009314 0.000000 0.087168
#
#
# Mechanical properties :
#
#
# Convention : Reuss Voigt Hill
#
# Bulk Modulus (GPa) = 24.66804 32.87344 28.77074
# Shear Modulus (GPa) = 18.96922 24.45817 21.71370
#
# Velocity S-wave (km/s) = 3.03825 3.44994 3.25062
# Velocity P-wave (km/s) = 4.93074 5.64505 5.29994
#
# Compressibility (1/GPa) = 0.04053829
#
# Stress axis : x y z
#
# Youngs Moduli (GPa) = 66.88463 51.33897 51.38202
#
# Poissons Ratio (x) = 0.11540 0.06684
# Poissons Ratio (y) = 0.15034 0.16072
# Poissons Ratio (z) = 0.08701 0.16059
#
# Static dielectric constant tensor:
#      x y z
#    x 3.559530 0.000000 -0.503710 
#    y 0.000000 3.818180 0.000010 
#    z -0.503710 0.000010 3.832840 
# 
# 
# High freq. dielectric constant tensor:
#      x y z
#    x 1.792430 0.000000 -0.020890 
#    y 0.000000 1.780680 0.000000 
#    z -0.020890 0.000000 1.820630 
# 
# From -- ./inp_files/266084.got.cif
#   From: 2010.06.25/outbox.cif.g09.slc.cpg/sg15_134_cif.got.tgz:266084.got - 2010.06.28 07:06:18.
