data_PCOD8137993
_publ_section_title
;
Structure prediction by ZEFSAII (Michael W. Deem and Ramdas Pophale) SiO2 
 PCOD8137993
Probable space group: C 2/C
;
_chemical_formula_sum "Si O2"
_cell_formula_units_Z 52
_cell_length_a 8.500212
_cell_length_b 12.342088
_cell_length_c 25.587781
_cell_angle_alpha 90.000000
_cell_angle_beta 92.872866
_cell_angle_gamma 90.000000
_cell_volume 2681.049662
_symmetry_space_group_name_H-M "C 2/C"
_symmetry_group_IT_number 15
_symmetry_cell_setting 'monoclinic'
loop_
_space_group_symop_operation_xyz
x,y,z
-x,y,1/2-z
-x,-y,-z
x,-y,1/2+z
1/2+x,1/2+y,z
1/2-x,1/2+y,1/2-z
1/2-x,1/2-y,-z
1/2+x,1/2-y,1/2+z
loop_
_atom_site_type_symbol
_atom_site_label
_atom_site_fract_x
_atom_site_fract_y
_atom_site_fract_z
Si Si1 0.995283 0.263472 0.985182
Si Si2 0.784645 0.121983 0.441609
Si Si3 0.905808 0.412680 0.175577
Si Si4 0.221285 0.624616 0.938891
Si Si5 0.230094 0.870909 0.677113
Si Si6 0.000000 0.983858 0.750000
Si Si7 0.764349 0.643397 0.779353
O O1 0.863851 0.209100 0.946529
O O2 0.113595 0.327262 0.949663
O O3 0.918141 0.349049 0.023328
O O4 0.083150 0.170561 0.018935
O O5 0.830208 0.147664 0.382703
O O6 0.782963 0.994669 0.452462
O O7 0.843760 0.364646 0.120608
O O8 0.869252 0.540560 0.180664
O O9 0.818857 0.347036 0.220112
O O10 0.092943 0.398006 0.181900
O O11 0.296909 0.759791 0.702206
O O12 0.080490 0.908560 0.708223
O O13 0.876879 0.058693 0.716755
#
# Coordination Sequence:
#
# PCOD8137993 Si02
#       7
#     8   8   8   8   8   4   8
#     4  10  21  36  58  81 108 145 183 223 274 320
#     4  10  21  37  56  82 111 142 181 227 270 320
#     4   9  20  37  56  80 111 141 179 222 266 324
#     4  10  20  38  57  81 111 143 182 225 269 323
#     4  10  21  37  57  81 110 144 179 220 272 320
#     4  10  22  36  56  84 108 140 186 220 264 330
#     4  10  20  37  56  79 111 142 174 223 268 317
#
# _framework density 19.395389000000002
#
# number of rings (size 3 to 8) (size 9 to 14) (size 15 to 20)
#    0.000    2.154    0.000    2.769    0.000    6.154 
#    0.000   15.385    0.000    0.000    0.000    0.000 
#    0.000    0.000    0.000    0.000    0.000    0.000 
#
# Total GULP energy -322514.474450 kJ/mol
# GULP energy per Si atom -12404.402863 kJ/mol
# Density = 1.935124 g / cm^3
# Si number density = 19.395389 Si / 1000 Ang^3
#
#
#
# Elastic Constant Matrix: (Units=GPa)
#
#
# Indices 1 2 3 4 5 6 
#
# 1 72.2033 2.3450 33.7073 0.0000 0.2471 0.0000
# 2 2.3450 51.8814 32.2174 0.0000 -6.5405 0.0000
# 3 33.7073 32.2174 114.2185 0.0000 2.4396 0.0000
# 4 0.0000 0.0000 0.0000 27.3547 0.0000 -5.0568
# 5 0.2471 -6.5405 2.4396 0.0000 28.2121 0.0000
# 6 0.0000 0.0000 0.0000 -5.0568 0.0000 15.6700
#
#
#
# Elastic Compliance Matrix: (Units=1/GPa)
#
#
# Indices 1 2 3 4 5 6 
#
# 1 0.016406 0.002919 -0.005687 0.000000 0.001025 0.000000
# 2 0.002919 0.024946 -0.008036 0.000000 0.006453 0.000000
# 3 -0.005687 -0.008036 0.012762 0.000000 -0.002917 0.000000
# 4 0.000000 0.000000 0.000000 0.038876 0.000000 0.012546
# 5 0.001025 0.006453 -0.002917 0.000000 0.037185 0.000000
# 6 0.000000 0.000000 0.000000 0.012546 0.000000 0.067865
#
#
# Mechanical properties :
#
#
# Convention : Reuss Voigt Hill
#
# Bulk Modulus (GPa) = 30.76189 41.64916 36.20553
# Shear Modulus (GPa) = 21.69344 25.58292 23.63818
#
# Velocity S-wave (km/s) = 3.34800 3.63577 3.49485
# Velocity P-wave (km/s) = 5.55341 6.25664 5.91548
#
# Compressibility (1/GPa) = 0.03250776
#
# Stress axis : x y z
#
# Youngs Moduli (GPa) = 60.95185 40.08591 78.35499
#
# Poissons Ratio (x) = -0.11702 0.44561
# Poissons Ratio (y) = -0.17793 0.62965
# Poissons Ratio (z) = 0.34663 0.32213
#
# Static dielectric constant tensor:
#      x y z
#    x 3.544630 0.000000 -0.045900 
#    y 0.000000 3.569200 0.000000 
#    z -0.045900 0.000000 3.577520 
# 
# 
# High freq. dielectric constant tensor:
#      x y z
#    x 1.754190 0.000000 -0.000770 
#    y 0.000000 1.763150 0.000000 
#    z -0.000770 0.000000 1.759570 
# 
# From -- ./inp_files/287568.got.cif
#   From: 2010.06.25/outbox.cif.g09.slc.cpg/sg15_144_cif.got.tgz:287568.got - 2010.06.28 07:06:18.
