data_PCOD8137679
_publ_section_title
;
Structure prediction by ZEFSAII (Michael W. Deem and Ramdas Pophale) SiO2 
 PCOD8137679
Probable space group: C 2/C
;
_chemical_formula_sum "Si O2"
_cell_formula_units_Z 48
_cell_length_a 5.517024
_cell_length_b 18.812766
_cell_length_c 23.615255
_cell_angle_alpha 90.000000
_cell_angle_beta 114.516150
_cell_angle_gamma 90.000000
_cell_volume 2230.063689
_symmetry_space_group_name_H-M "C 2/C"
_symmetry_group_IT_number 15
_symmetry_cell_setting 'monoclinic'
loop_
_space_group_symop_operation_xyz
x,y,z
-x,y,1/2-z
-x,-y,-z
x,-y,1/2+z
1/2+x,1/2+y,z
1/2-x,1/2+y,1/2-z
1/2-x,1/2-y,-z
1/2+x,1/2-y,1/2+z
loop_
_atom_site_type_symbol
_atom_site_label
_atom_site_fract_x
_atom_site_fract_y
_atom_site_fract_z
Si Si1 0.603283 0.544850 0.922258
Si Si2 0.687508 0.407370 0.213987
Si Si3 0.459534 0.180881 0.971026
Si Si4 0.415932 0.587926 0.020982
Si Si5 0.661993 0.191054 0.413843
Si Si6 0.310795 0.241726 0.285318
O O1 0.426854 0.546676 0.848829
O O2 0.823816 0.605364 0.942858
O O3 0.719370 0.464408 0.944676
O O4 0.416490 0.551645 0.959429
O O5 0.500000 0.424719 0.250000
O O6 0.667833 0.324462 0.196682
O O7 0.000000 0.428729 0.250000
O O8 0.358470 0.241679 0.918144
O O9 0.769741 0.163208 0.994556
O O10 0.436347 0.206607 0.032878
O O11 0.699387 0.613687 0.074183
O O12 0.418282 0.192928 0.346695
O O13 0.500000 0.224643 0.250000
O O14 0.000000 0.220130 0.250000
#
# Coordination Sequence:
#
# PCOD8137679 Si02
#       6
#     8   8   8   8   8   8
#     4  10  21  39  59  91 120 158 211 255 313 375
#     4  10  22  40  63  92 120 165 215 261 303 364
#     4  10  20  36  61  89 120 158 197 262 313 370
#     4  10  22  36  62  90 123 160 198 261 322 372
#     4  10  21  37  56  93 121 154 209 253 316 373
#     4  10  22  38  63  89 121 165 212 261 306 367
#
# _framework density 21.524046999999999
#
# number of rings (size 3 to 8) (size 9 to 14) (size 15 to 20)
#    0.000    2.000    1.667    1.000    4.667    1.333 
#    0.000    0.833    0.000    0.000    0.000    0.000 
#    0.000    0.000    0.000    0.000    0.000    0.000 
#
# Total GULP energy -297321.621787 kJ/mol
# GULP energy per Si atom -12388.400908 kJ/mol
# Density = 2.147506 g / cm^3
# Si number density = 21.524047 Si / 1000 Ang^3
#
#
#
# Elastic Constant Matrix: (Units=GPa)
#
#
# Indices 1 2 3 4 5 6 
#
# 1 95.8552 12.6071 43.7344 0.0000 8.3213 0.0000
# 2 12.6071 57.0269 38.5223 0.0000 -0.0449 0.0000
# 3 43.7344 38.5223 142.2837 0.0000 13.8298 0.0000
# 4 0.0000 0.0000 0.0000 30.5559 0.0000 4.4203
# 5 8.3213 -0.0449 13.8298 0.0000 22.1929 0.0000
# 6 0.0000 0.0000 0.0000 4.4203 0.0000 24.0754
#
#
#
# Elastic Compliance Matrix: (Units=1/GPa)
#
#
# Indices 1 2 3 4 5 6 
#
# 1 0.012260 -0.000402 -0.003420 0.000000 -0.002467 0.000000
# 2 -0.000402 0.021796 -0.006170 0.000000 0.004040 0.000000
# 3 -0.003420 -0.006170 0.010247 0.000000 -0.005116 0.000000
# 4 0.000000 0.000000 0.000000 0.033620 0.000000 -0.006173
# 5 -0.002467 0.004040 -0.005116 0.000000 0.049180 0.000000
# 6 0.000000 0.000000 0.000000 -0.006173 0.000000 0.042669
#
#
# Mechanical properties :
#
#
# Convention : Reuss Voigt Hill
#
# Bulk Modulus (GPa) = 41.12087 53.87703 47.49895
# Shear Modulus (GPa) = 25.27011 28.71831 26.99421
#
# Velocity S-wave (km/s) = 3.43015 3.65669 3.54523
# Velocity P-wave (km/s) = 5.90203 6.55087 6.23490
#
# Compressibility (1/GPa) = 0.02431855
#
# Stress axis : x y z
#
# Youngs Moduli (GPa) = 81.56822 45.88076 97.58870
#
# Poissons Ratio (x) = 0.01845 0.33372
# Poissons Ratio (y) = 0.03281 0.60213
# Poissons Ratio (z) = 0.27894 0.28309
#
# Static dielectric constant tensor:
#      x y z
#    x 3.855970 0.000000 0.159560 
#    y 0.000000 4.195160 0.000000 
#    z 0.159560 0.000000 3.768130 
# 
# 
# High freq. dielectric constant tensor:
#      x y z
#    x 1.835970 0.000000 0.013030 
#    y 0.000000 1.839460 0.000000 
#    z 0.013030 0.000000 1.837560 
# 
# From -- ./inp_files/227273.got.cif
#   From: 2010.06.25/outbox.cif.g09.slc.cpg/sg15_114_cif.got.tgz:227273.got - 2010.06.28 07:06:18.
