data_PCOD8137609
_publ_section_title
;
Structure prediction by ZEFSAII (Michael W. Deem and Ramdas Pophale) SiO2 
 PCOD8137609
Probable space group: C 2/C
;
_chemical_formula_sum "Si O2"
_cell_formula_units_Z 52
_cell_length_a 16.102439
_cell_length_b 14.261145
_cell_length_c 11.472614
_cell_angle_alpha 90.000000
_cell_angle_beta 67.224024
_cell_angle_gamma 90.000000
_cell_volume 2429.133583
_symmetry_space_group_name_H-M "C 2/C"
_symmetry_group_IT_number 15
_symmetry_cell_setting 'monoclinic'
loop_
_space_group_symop_operation_xyz
x,y,z
-x,y,1/2-z
-x,-y,-z
x,-y,1/2+z
1/2+x,1/2+y,z
1/2-x,1/2+y,1/2-z
1/2-x,1/2-y,-z
1/2+x,1/2-y,1/2+z
loop_
_atom_site_type_symbol
_atom_site_label
_atom_site_fract_x
_atom_site_fract_y
_atom_site_fract_z
Si Si1 0.922510 0.843597 0.952351
Si Si2 0.157641 0.481316 0.532052
Si Si3 0.000000 0.590535 0.250000
Si Si4 0.354747 0.847417 0.152350
Si Si5 0.711461 0.469363 0.360247
Si Si6 0.449153 0.143627 0.023985
Si Si7 0.626651 0.642318 0.284777
O O1 0.874352 0.851485 0.853811
O O2 0.026747 0.871623 0.889496
O O3 0.879875 0.911816 0.071914
O O4 0.903249 0.739658 0.009823
O O5 0.171047 0.380561 0.463269
O O6 0.256409 0.500103 0.528805
O O7 0.121175 0.559277 0.460248
O O8 0.085966 0.473903 0.675839
O O9 0.024510 0.650563 0.353065
O O10 0.294141 0.906184 0.273170
O O11 0.333448 0.737928 0.182713
O O12 0.462006 0.869847 0.106128
O O13 0.691240 0.556713 0.286539
#
# Coordination Sequence:
#
# PCOD8137609 Si02
#       7
#     8   8   4   8   8   8   8
#     4  10  23  42  64  84 115 164 204 243 297 357
#     4  11  21  35  59  91 126 159 196 247 303 355
#     4  10  20  36  60  88 124 162 198 244 300 358
#     4  10  22  38  60  89 120 157 196 247 304 351
#     4  12  23  37  62  92 119 155 204 249 294 357
#     4  10  21  40  62  90 123 158 200 246 302 359
#     4  10  23  44  61  83 121 159 200 247 299 357
#
# _framework density 21.40681
#
# number of rings (size 3 to 8) (size 9 to 14) (size 15 to 20)
#    0.000    1.538    0.000    6.000    0.000    8.000 
#    0.000    9.231    0.000    0.000    0.000    0.000 
#    0.000    0.000    0.000    0.000    0.000    0.000 
#
# Total GULP energy -322296.506243 kJ/mol
# GULP energy per Si atom -12396.019471 kJ/mol
# Density = 2.135809 g / cm^3
# Si number density = 21.406810 Si / 1000 Ang^3
#
#
#
# Elastic Constant Matrix: (Units=GPa)
#
#
# Indices 1 2 3 4 5 6 
#
# 1 93.2949 64.0071 35.6253 0.0000 17.6987 0.0000
# 2 64.0071 145.2803 52.5864 0.0000 13.3440 0.0000
# 3 35.6253 52.5864 88.1799 0.0000 13.7572 0.0000
# 4 0.0000 0.0000 0.0000 24.8368 0.0000 6.3693
# 5 17.6987 13.3440 13.7572 0.0000 24.2391 0.0000
# 6 0.0000 0.0000 0.0000 6.3693 0.0000 31.8212
#
#
#
# Elastic Compliance Matrix: (Units=1/GPa)
#
#
# Indices 1 2 3 4 5 6 
#
# 1 0.017217 -0.006100 -0.002063 0.000000 -0.008042 0.000000
# 2 -0.006100 0.011032 -0.004237 0.000000 0.000785 0.000000
# 3 -0.002063 -0.004237 0.015472 0.000000 -0.004942 0.000000
# 4 0.000000 0.000000 0.000000 0.042441 0.000000 -0.008495
# 5 -0.008042 0.000785 -0.004942 0.000000 0.049500 0.000000
# 6 0.000000 0.000000 0.000000 -0.008495 0.000000 0.033126
#
#
# Mechanical properties :
#
#
# Convention : Reuss Voigt Hill
#
# Bulk Modulus (GPa) = 52.85335 70.13251 61.49293
# Shear Modulus (GPa) = 25.01279 27.81518 26.41398
#
# Velocity S-wave (km/s) = 3.42197 3.60858 3.51651
# Velocity P-wave (km/s) = 6.35269 7.08487 6.72875
#
# Compressibility (1/GPa) = 0.01892028
#
# Stress axis : x y z
#
# Youngs Moduli (GPa) = 58.08090 90.64241 64.63264
#
# Poissons Ratio (x) = 0.55292 0.13337
# Poissons Ratio (y) = 0.35429 0.27387
# Poissons Ratio (z) = 0.11985 0.38408
#
# Static dielectric constant tensor:
#      x y z
#    x 3.761310 0.000000 -0.055900 
#    y 0.000000 3.791790 0.000000 
#    z -0.055900 0.000000 3.853540 
# 
# 
# High freq. dielectric constant tensor:
#      x y z
#    x 1.834390 0.000000 -0.005830 
#    y 0.000000 1.832110 0.000000 
#    z -0.005830 0.000000 1.846650 
# 
# From -- ./inp_files/96957.got.cif
#   From: 2010.06.25/outbox.cif.g09.slc.cpg/sg15_49_cif.got.tgz:96957.got - 2010.06.28 07:06:18.
