data_PCOD8137088
_publ_section_title
;
Structure prediction by ZEFSAII (Michael W. Deem and Ramdas Pophale) SiO2 
 PCOD8137088
Probable space group: C 2/C
;
_chemical_formula_sum "Si O2"
_cell_formula_units_Z 56
_cell_length_a 22.112760
_cell_length_b 17.199960
_cell_length_c 10.177759
_cell_angle_alpha 90.000000
_cell_angle_beta 48.633684
_cell_angle_gamma 90.000000
_cell_volume 2905.180287
_symmetry_space_group_name_H-M "C 2/C"
_symmetry_group_IT_number 15
_symmetry_cell_setting 'monoclinic'
loop_
_space_group_symop_operation_xyz
x,y,z
-x,y,1/2-z
-x,-y,-z
x,-y,1/2+z
1/2+x,1/2+y,z
1/2-x,1/2+y,1/2-z
1/2-x,1/2-y,-z
1/2+x,1/2-y,1/2+z
loop_
_atom_site_type_symbol
_atom_site_label
_atom_site_fract_x
_atom_site_fract_y
_atom_site_fract_z
Si Si1 0.747253 0.978882 0.572246
Si Si2 0.503580 0.290446 0.892458
Si Si3 0.930191 0.290130 0.956343
Si Si4 0.189763 0.427018 0.393827
Si Si5 0.657511 0.621049 0.147512
Si Si6 0.323362 0.690700 0.648801
Si Si7 0.711553 0.327291 0.844611
O O1 0.685676 0.972794 0.537765
O O2 0.783113 0.895084 0.556678
O O3 0.694527 0.012844 0.767047
O O4 0.823743 0.033774 0.427917
O O5 0.500000 0.254380 0.750000
O O6 0.561955 0.366420 0.810252
O O7 0.535910 0.224919 0.945784
O O8 0.415390 0.318951 0.063693
O O9 0.000000 0.287996 0.750000
O O10 0.888603 0.374226 0.016007
O O11 0.866582 0.223689 0.009202
O O12 0.271307 0.376762 0.289841
O O13 0.708425 0.636833 0.204226
O O14 0.685343 0.682784 0.996714
O O15 0.291632 0.774869 0.738684
#
# Coordination Sequence:
#
# PCOD8137088 Si02
#       7
#     8   8   8   8   8   8   8
#     4  11  21  38  60  85 119 155 195 234 289 349
#     4   9  19  37  60  87 116 150 192 235 290 343
#     4  10  23  40  60  86 119 148 195 249 288 335
#     4  10  23  40  60  85 118 156 197 236 289 349
#     4   9  18  37  56  85 121 153 190 235 288 350
#     4   9  19  34  64  86 114 147 196 245 282 343
#     4  10  20  35  60  88 112 153 196 237 294 338
#
# _framework density 19.275912000000002
#
# number of rings (size 3 to 8) (size 9 to 14) (size 15 to 20)
#    0.000    2.286    1.429    0.429    4.000    4.571 
#    0.000    5.000    0.000    0.000    0.000    0.000 
#    0.000    0.000    0.000    0.000    0.000    0.000 
#
# Total GULP energy -347176.228267 kJ/mol
# GULP energy per Si atom -12399.151010 kJ/mol
# Density = 1.923204 g / cm^3
# Si number density = 19.275912 Si / 1000 Ang^3
#
#
#
# Elastic Constant Matrix: (Units=GPa)
#
#
# Indices 1 2 3 4 5 6 
#
# 1 68.6489 34.9887 42.8526 0.0000 19.6530 0.0000
# 2 34.9887 84.2625 45.6167 0.0000 5.5080 0.0000
# 3 42.8526 45.6167 96.6958 0.0000 9.4767 0.0000
# 4 0.0000 0.0000 0.0000 24.8841 0.0000 6.9186
# 5 19.6530 5.5080 9.4767 0.0000 34.8162 0.0000
# 6 0.0000 0.0000 0.0000 6.9186 0.0000 26.3402
#
#
#
# Elastic Compliance Matrix: (Units=1/GPa)
#
#
# Indices 1 2 3 4 5 6 
#
# 1 0.025413 -0.005795 -0.007410 0.000000 -0.011411 0.000000
# 2 -0.005795 0.017268 -0.005785 0.000000 0.002114 0.000000
# 3 -0.007410 -0.005785 0.016290 0.000000 0.000664 0.000000
# 4 0.000000 0.000000 0.000000 0.043352 0.000000 -0.011387
# 5 -0.011411 0.002114 0.000664 0.000000 0.034648 0.000000
# 6 0.000000 0.000000 0.000000 -0.011387 0.000000 0.040956
#
#
# Mechanical properties :
#
#
# Convention : Reuss Voigt Hill
#
# Bulk Modulus (GPa) = 47.64170 55.16922 51.40546
# Shear Modulus (GPa) = 22.43126 25.61807 24.02467
#
# Velocity S-wave (km/s) = 3.41500 3.64953 3.53421
# Velocity P-wave (km/s) = 6.34972 6.81481 6.58637
#
# Compressibility (1/GPa) = 0.02099002
#
# Stress axis : x y z
#
# Youngs Moduli (GPa) = 39.35030 57.91203 61.38845
#
# Poissons Ratio (x) = 0.33559 0.45489
# Poissons Ratio (y) = 0.22803 0.35514
# Poissons Ratio (z) = 0.29159 0.33503
#
# Static dielectric constant tensor:
#      x y z
#    x 3.483860 0.000000 0.090220 
#    y 0.000000 3.420600 0.000000 
#    z 0.090220 0.000000 3.620670 
# 
# 
# High freq. dielectric constant tensor:
#      x y z
#    x 1.744890 0.000000 0.014310 
#    y 0.000000 1.733290 0.000000 
#    z 0.014310 0.000000 1.757590 
# 
# From -- ./inp_files/62664.got.cif
#   From: 2010.06.25/outbox.cif.g09.slc.cpg/sg15_32_cif.got.tgz:62664.got - 2010.06.28 07:06:18.
