data_PCOD8137677
_publ_section_title
;
Structure prediction by ZEFSAII (Michael W. Deem and Ramdas Pophale) SiO2 
 PCOD8137677
Probable space group: C 2/C
;
_chemical_formula_sum "Si O2"
_cell_formula_units_Z 48
_cell_length_a 10.098093
_cell_length_b 29.845229
_cell_length_c 8.650091
_cell_angle_alpha 90.000000
_cell_angle_beta 62.854179
_cell_angle_gamma 90.000000
_cell_volume 2319.801838
_symmetry_space_group_name_H-M "C 2/C"
_symmetry_group_IT_number 15
_symmetry_cell_setting 'monoclinic'
loop_
_space_group_symop_operation_xyz
x,y,z
-x,y,1/2-z
-x,-y,-z
x,-y,1/2+z
1/2+x,1/2+y,z
1/2-x,1/2+y,1/2-z
1/2-x,1/2-y,-z
1/2+x,1/2-y,1/2+z
loop_
_atom_site_type_symbol
_atom_site_label
_atom_site_fract_x
_atom_site_fract_y
_atom_site_fract_z
Si Si1 0.721668 0.706974 0.214128
Si Si2 0.323512 0.127328 0.353618
Si Si3 0.158171 0.469189 0.590350
Si Si4 0.853060 0.870004 0.256765
Si Si5 0.659985 0.944362 0.233764
Si Si6 0.421566 0.283785 0.032308
O O1 0.757879 0.656785 0.250304
O O2 0.587242 0.727322 0.386498
O O3 0.861691 0.740408 0.157264
O O4 0.683477 0.703585 0.054863
O O5 0.500000 0.129427 0.250000
O O6 0.270377 0.075207 0.368184
O O7 0.265954 0.145209 0.549595
O O8 0.140421 0.461942 0.418556
O O9 0.240665 0.516038 0.589417
O O10 0.000000 0.479337 0.750000
O O11 0.772260 0.902134 0.175404
O O12 0.920631 0.826061 0.143537
O O13 0.000000 0.894693 0.250000
O O14 0.500000 0.928741 0.250000
#
# Coordination Sequence:
#
# PCOD8137677 Si02
#       6
#     8   8   8   8   8   8
#     4  10  22  42  60  89 118 154 202 246 302 362
#     4  10  22  38  61  89 119 156 202 249 294 362
#     4   9  18  34  58  88 120 152 202 253 291 350
#     4  11  23  41  60  89 129 161 197 253 307 360
#     4  10  20  36  61  89 118 160 205 249 296 355
#     4  10  23  40  63  84 121 158 196 250 300 363
#
# _framework density 20.691421999999999
#
# number of rings (size 3 to 8) (size 9 to 14) (size 15 to 20)
#    0.000    2.000    1.667    2.000    2.333    6.667 
#    3.000    3.333    3.667    0.000    0.000    0.000 
#    0.000    0.000    0.000    0.000    0.000    0.000 
#
# Total GULP energy -297459.354222 kJ/mol
# GULP energy per Si atom -12394.139759 kJ/mol
# Density = 2.064433 g / cm^3
# Si number density = 20.691422 Si / 1000 Ang^3
#
#
#
# Elastic Constant Matrix: (Units=GPa)
#
#
# Indices 1 2 3 4 5 6 
#
# 1 94.4974 50.7190 23.0436 0.0000 -2.1010 0.0000
# 2 50.7190 104.9387 23.4758 0.0000 12.1081 0.0000
# 3 23.0436 23.4758 84.7427 0.0000 -5.6674 0.0000
# 4 0.0000 0.0000 0.0000 31.0332 0.0000 8.4828
# 5 -2.1010 12.1081 -5.6674 0.0000 28.4818 0.0000
# 6 0.0000 0.0000 0.0000 8.4828 0.0000 32.2600
#
#
#
# Elastic Compliance Matrix: (Units=1/GPa)
#
#
# Indices 1 2 3 4 5 6 
#
# 1 0.015029 -0.007305 -0.001805 0.000000 0.003855 0.000000
# 2 -0.007305 0.014446 -0.002496 0.000000 -0.007177 0.000000
# 3 -0.001805 -0.002496 0.013221 0.000000 0.003558 0.000000
# 4 0.000000 0.000000 0.000000 0.034719 0.000000 -0.009129
# 5 0.003855 -0.007177 0.003558 0.000000 0.039154 0.000000
# 6 0.000000 0.000000 0.000000 -0.009129 0.000000 0.033399
#
#
# Mechanical properties :
#
#
# Convention : Reuss Voigt Hill
#
# Bulk Modulus (GPa) = 51.32277 53.18395 52.25336
# Shear Modulus (GPa) = 27.82835 30.81770 29.32302
#
# Velocity S-wave (km/s) = 3.67130 3.86345 3.76860
# Velocity P-wave (km/s) = 6.54438 6.75728 6.65169
#
# Compressibility (1/GPa) = 0.01948453
#
# Stress axis : x y z
#
# Youngs Moduli (GPa) = 66.53891 69.22232 75.63919
#
# Poissons Ratio (x) = 0.50564 0.13655
# Poissons Ratio (y) = 0.48604 0.18877
# Poissons Ratio (z) = 0.12013 0.17275
#
# Static dielectric constant tensor:
#      x y z
#    x 3.691900 0.000000 -0.008100 
#    y 0.000000 4.023360 0.000000 
#    z -0.008100 0.000000 3.850110 
# 
# 
# High freq. dielectric constant tensor:
#      x y z
#    x 1.789080 0.000000 0.002390 
#    y 0.000000 1.814730 0.000000 
#    z 0.002390 0.000000 1.812610 
# 
# From -- ./inp_files/33411.got.cif
#   From: 2010.06.25/outbox.cif.g09.slc.cpg/sg15_17_cif.got.tgz:33411.got - 2010.06.28 07:06:18.
