data_PCOD8137770
_publ_section_title
;
Structure prediction by ZEFSAII (Michael W. Deem and Ramdas Pophale) SiO2 
 PCOD8137770
Probable space group: C 2/C
;
_chemical_formula_sum "Si O2"
_cell_formula_units_Z 64
_cell_length_a 19.279420
_cell_length_b 9.234062
_cell_length_c 29.712203
_cell_angle_alpha 90.000000
_cell_angle_beta 143.109426
_cell_angle_gamma 90.000000
_cell_volume 3175.277906
_symmetry_space_group_name_H-M "C 2/C"
_symmetry_group_IT_number 15
_symmetry_cell_setting 'monoclinic'
loop_
_space_group_symop_operation_xyz
x,y,z
-x,y,1/2-z
-x,-y,-z
x,-y,1/2+z
1/2+x,1/2+y,z
1/2-x,1/2+y,1/2-z
1/2-x,1/2-y,-z
1/2+x,1/2-y,1/2+z
loop_
_atom_site_type_symbol
_atom_site_label
_atom_site_fract_x
_atom_site_fract_y
_atom_site_fract_z
Si Si1 0.716903 0.984720 0.550518
Si Si2 0.230052 0.175447 0.065338
Si Si3 0.254954 0.966520 0.833521
Si Si4 0.974340 0.312241 0.655362
Si Si5 0.780148 0.701164 0.189429
Si Si6 0.621252 0.316838 0.687934
Si Si7 0.526530 0.024578 0.605663
Si Si8 0.593564 0.515861 0.919247
O O1 0.705621 0.158259 0.540958
O O2 0.807841 0.935455 0.559437
O O3 0.760197 0.930056 0.621670
O O4 0.591087 0.912606 0.477430
O O5 0.361260 0.130907 0.121991
O O6 0.212356 0.150572 0.109483
O O7 0.144669 0.075138 0.992638
O O8 0.178385 0.851045 0.765887
O O9 0.209927 0.126694 0.800612
O O10 0.389785 0.961012 0.889566
O O11 0.987082 0.390812 0.614812
O O12 0.963020 0.141497 0.640210
O O13 0.086988 0.350222 0.743482
O O14 0.712869 0.634841 0.197172
O O15 0.592285 0.146805 0.669007
O O16 0.503608 0.401917 0.618419
#
# Coordination Sequence:
#
# PCOD8137770 Si02
#       8
#     8   8   8   8   8   8   8   8
#     4  10  20  38  63  91 112 154 202 244 283 345
#     4  10  20  36  62  92 113 149 203 241 291 340
#     4  10  21  38  61  86 118 154 199 240 288 349
#     4  11  18  37  64  86 114 153 191 248 291 332
#     4  10  21  37  60  87 116 151 199 246 284 342
#     4  11  24  37  56  88 119 164 189 233 298 348
#     4  11  21  38  62  86 119 153 196 240 295 345
#     4  11  21  38  63  86 120 152 195 240 292 345
#
# _framework density 20.155716000000002
#
# number of rings (size 3 to 8) (size 9 to 14) (size 15 to 20)
#    0.000    1.500    5.000    1.500    0.000    1.500 
#    0.000    1.250    2.750    0.000    0.000    0.000 
#    0.000    0.000    0.000    0.000    0.000    0.000 
#
# Total GULP energy -396788.045142 kJ/mol
# GULP energy per Si atom -12399.626411 kJ/mol
# Density = 2.010984 g / cm^3
# Si number density = 20.155716 Si / 1000 Ang^3
#
#
#
# Elastic Constant Matrix: (Units=GPa)
#
#
# Indices 1 2 3 4 5 6 
#
# 1 81.5004 17.9483 45.5605 0.0000 1.1842 -0.0001
# 2 17.9483 28.0865 14.2054 0.0000 2.9018 -0.0002
# 3 45.5605 14.2054 127.0506 0.0000 4.8897 0.0000
# 4 0.0000 0.0000 0.0000 28.5762 0.0000 2.9515
# 5 1.1842 2.9018 4.8897 0.0000 35.8882 0.0000
# 6 -0.0001 -0.0002 0.0000 2.9515 0.0000 25.3075
#
#
#
# Elastic Compliance Matrix: (Units=1/GPa)
#
#
# Indices 1 2 3 4 5 6 
#
# 1 0.016994 -0.008317 -0.005196 0.000000 0.000820 0.000000
# 2 -0.008317 0.042031 -0.001605 0.000000 -0.002905 0.000000
# 3 -0.005196 -0.001605 0.009954 0.000000 -0.001055 0.000000
# 4 0.000000 0.000000 0.000000 0.035421 0.000000 -0.004131
# 5 0.000820 -0.002905 -0.001055 0.000000 0.028216 0.000000
# 6 0.000000 0.000000 0.000000 -0.004131 0.000000 0.039996
#
#
# Mechanical properties :
#
#
# Convention : Reuss Voigt Hill
#
# Bulk Modulus (GPa) = 25.81048 43.56286 34.68667
# Shear Modulus (GPa) = 23.17372 28.54927 25.86150
#
# Velocity S-wave (km/s) = 3.39445 3.76764 3.58590
# Velocity P-wave (km/s) = 5.31003 6.37078 5.86444
#
# Compressibility (1/GPa) = 0.03874396
#
# Stress axis : x y z
#
# Youngs Moduli (GPa) = 58.84426 23.79193 100.46042
#
# Poissons Ratio (x) = 0.19787 0.52197
# Poissons Ratio (y) = 0.48939 0.16127
# Poissons Ratio (z) = 0.30574 0.03819
#
# Static dielectric constant tensor:
#      x y z
#    x 3.839720 0.000000 0.172690 
#    y 0.000000 3.247160 0.000000 
#    z 0.172690 0.000000 3.781980 
# 
# 
# High freq. dielectric constant tensor:
#      x y z
#    x 1.792460 0.000000 0.007680 
#    y 0.000000 1.745120 0.000000 
#    z 0.007680 0.000000 1.800450 
# 
# From -- ./inp_files/315743.got.cif
#   From: 2010.06.25/outbox.cif.g09.slc.cpg/sg15_158_cif.got.tgz:315743.got - 2010.06.28 07:06:18.
