data_PCOD8137195
_publ_section_title
;
Structure prediction by ZEFSAII (Michael W. Deem and Ramdas Pophale) SiO2 
 PCOD8137195
Probable space group: C 2/C
;
_chemical_formula_sum "Si O2"
_cell_formula_units_Z 56
_cell_length_a 30.076441
_cell_length_b 9.074912
_cell_length_c 21.321388
_cell_angle_alpha 90.000000
_cell_angle_beta 28.597802
_cell_angle_gamma 90.000000
_cell_volume 2785.542708
_symmetry_space_group_name_H-M "C 2/C"
_symmetry_group_IT_number 15
_symmetry_cell_setting 'monoclinic'
loop_
_space_group_symop_operation_xyz
x,y,z
-x,y,1/2-z
-x,-y,-z
x,-y,1/2+z
1/2+x,1/2+y,z
1/2-x,1/2+y,1/2-z
1/2-x,1/2-y,-z
1/2+x,1/2-y,1/2+z
loop_
_atom_site_type_symbol
_atom_site_label
_atom_site_fract_x
_atom_site_fract_y
_atom_site_fract_z
Si Si1 0.138142 0.500143 0.363970
Si Si2 0.136806 0.389183 0.161836
Si Si3 0.958361 0.601043 0.138399
Si Si4 0.716565 0.305042 0.765762
Si Si5 0.980929 0.856452 0.844030
Si Si6 0.211563 0.275413 0.948911
Si Si7 0.479733 0.578205 0.958971
O O1 0.089858 0.509490 0.357071
O O2 0.190770 0.651921 0.311693
O O3 0.214413 0.371293 0.268413
O O4 0.063652 0.460479 0.510416
O O5 0.096777 0.550503 0.230591
O O6 0.224460 0.345375 0.096055
O O7 0.053109 0.272806 0.270690
O O8 0.173221 0.397056 0.045286
O O9 0.955965 0.776248 0.129490
O O10 0.727826 0.358543 0.679294
O O11 0.627147 0.375208 0.908339
O O12 0.000000 0.919162 0.750000
O O13 0.998815 0.978559 0.874901
O O14 0.874795 0.803368 0.978778
O O15 0.500000 0.500000 0.000000
#
# Coordination Sequence:
#
# PCOD8137195 Si02
#       7
#     8   8   8   8   8   8   8
#     4  10  22  35  58  84 124 158 197 261 310 373
#     4  10  20  39  64  87 120 163 209 259 318 369
#     4  10  22  39  56  89 123 165 203 257 319 367
#     4  11  21  37  57  91 120 153 205 256 308 370
#     4  10  22  41  64  91 125 167 209 258 314 384
#     4  10  20  35  64  92 117 159 212 258 306 386
#     4  11  25  38  62  92 126 171 206 257 325 383
#
# _framework density 20.103802999999999
#
# number of rings (size 3 to 8) (size 9 to 14) (size 15 to 20)
#    0.000    1.714    1.429    2.571    8.000    0.000 
#    0.000    5.000    0.000   12.000    0.000    0.000 
#    0.000    0.000    0.000    0.000    0.000    0.000 
#
# Total GULP energy -347075.329101 kJ/mol
# GULP energy per Si atom -12395.547468 kJ/mol
# Density = 2.005805 g / cm^3
# Si number density = 20.103803 Si / 1000 Ang^3
#
#
#
# Elastic Constant Matrix: (Units=GPa)
#
#
# Indices 1 2 3 4 5 6 
#
# 1 74.7876 40.2970 34.3578 0.0045 -1.8587 0.0002
# 2 40.2970 106.0329 46.7085 -0.0055 6.3214 0.0008
# 3 34.3578 46.7085 93.7871 -0.0087 15.9053 0.0018
# 4 0.0045 -0.0055 -0.0087 34.4715 -0.0001 1.3529
# 5 -1.8587 6.3214 15.9053 -0.0001 44.0739 0.0004
# 6 0.0002 0.0008 0.0018 1.3529 0.0004 31.9865
#
#
#
# Elastic Compliance Matrix: (Units=1/GPa)
#
#
# Indices 1 2 3 4 5 6 
#
# 1 0.018369 -0.005083 -0.004743 -0.000004 0.003215 0.000000
# 2 -0.005083 0.013497 -0.004788 0.000002 -0.000422 0.000000
# 3 -0.004743 -0.004788 0.015661 0.000004 -0.005165 -0.000001
# 4 -0.000004 0.000002 0.000004 0.029058 -0.000002 -0.001229
# 5 0.003215 -0.000422 -0.005165 -0.000002 0.024749 0.000000
# 6 0.000000 0.000000 -0.000001 -0.001229 0.000000 0.031315
#
#
# Mechanical properties :
#
#
# Convention : Reuss Voigt Hill
#
# Bulk Modulus (GPa) = 54.65104 57.48158 56.06631
# Shear Modulus (GPa) = 29.76591 32.32267 31.04429
#
# Velocity S-wave (km/s) = 3.85205 4.01407 3.93389
# Velocity P-wave (km/s) = 6.85768 7.08083 6.97015
#
# Compressibility (1/GPa) = 0.01829791
#
# Stress axis : x y z
#
# Youngs Moduli (GPa) = 54.43928 74.08847 63.85489
#
# Poissons Ratio (x) = 0.37662 0.30286
# Poissons Ratio (y) = 0.27674 0.30575
# Poissons Ratio (z) = 0.25820 0.35475
#
# Static dielectric constant tensor:
#      x y z
#    x 3.639140 -0.000010 0.023500 
#    y -0.000010 3.420700 0.000040 
#    z 0.023500 0.000040 3.978990 
# 
# 
# High freq. dielectric constant tensor:
#      x y z
#    x 1.785740 0.000000 -0.005760 
#    y 0.000000 1.754610 0.000000 
#    z -0.005760 0.000000 1.803540 
# 
# From -- ./inp_files/258974.got.cif
#   From: 2010.06.25/outbox.cif.g09.slc.cpg/sg15_130_cif.got.tgz:258974.got - 2010.06.28 07:06:18.
