data_PCOD8137488
_publ_section_title
;
Structure prediction by ZEFSAII (Michael W. Deem and Ramdas Pophale) SiO2 
 PCOD8137488
Probable space group: C 2/C
;
_chemical_formula_sum "Si O2"
_cell_formula_units_Z 40
_cell_length_a 21.818829
_cell_length_b 11.307319
_cell_length_c 12.309254
_cell_angle_alpha 90.000000
_cell_angle_beta 144.490855
_cell_angle_gamma 90.000000
_cell_volume 1763.900230
_symmetry_space_group_name_H-M "C 2/C"
_symmetry_group_IT_number 15
_symmetry_cell_setting 'monoclinic'
loop_
_space_group_symop_operation_xyz
x,y,z
-x,y,1/2-z
-x,-y,-z
x,-y,1/2+z
1/2+x,1/2+y,z
1/2-x,1/2+y,1/2-z
1/2-x,1/2-y,-z
1/2+x,1/2-y,1/2+z
loop_
_atom_site_type_symbol
_atom_site_label
_atom_site_fract_x
_atom_site_fract_y
_atom_site_fract_z
Si Si1 0.591248 0.848540 0.642653
Si Si2 0.934523 0.828937 0.923860
Si Si3 0.922624 0.557085 0.730905
Si Si4 0.794928 0.734096 0.396547
Si Si5 0.564323 0.552492 0.438239
O O1 0.534877 0.738564 0.626112
O O2 0.491121 0.882837 0.423288
O O3 0.686871 0.815149 0.700201
O O4 0.633297 0.944569 0.790557
O O5 0.829483 0.749535 0.762928
O O6 0.979146 0.859879 0.869602
O O7 0.896011 0.949477 0.925950
O O8 0.840814 0.647806 0.556752
O O9 0.000000 0.506513 0.750000
O O10 0.840076 0.867052 0.468372
O O11 0.500000 0.488921 0.250000
#
# Coordination Sequence:
#
# PCOD8137488 Si02
#       5
#     8   8   8   8   8
#     4   9  19  35  53  82 117 144 182 234 283 332
#     4  10  22  38  58  84 116 151 188 237 287 334
#     4   9  18  33  56  83 111 142 182 234 283 333
#     4  10  20  36  59  84 109 147 195 232 275 341
#     4  10  22  40  58  82 117 153 189 231 287 345
#
# _framework density 22.677019000000001
#
# number of rings (size 3 to 8) (size 9 to 14) (size 15 to 20)
#    0.000    2.400    0.000    3.000    0.000   10.400 
#    0.000    0.000    0.000    8.400    0.000    0.000 
#    0.000    0.000    0.000    0.000    0.000    0.000 
#
# Total GULP energy -247767.761174 kJ/mol
# GULP energy per Si atom -12388.388059 kJ/mol
# Density = 2.262540 g / cm^3
# Si number density = 22.677019 Si / 1000 Ang^3
#
#
#
# Elastic Constant Matrix: (Units=GPa)
#
#
# Indices 1 2 3 4 5 6 
#
# 1 66.9726 21.4958 31.9980 0.0000 16.1776 0.0000
# 2 21.4958 83.8762 16.1707 0.0000 -7.0013 0.0000
# 3 31.9980 16.1707 47.6410 0.0000 8.8145 0.0000
# 4 0.0000 0.0000 0.0000 13.3872 0.0000 -5.7121
# 5 16.1776 -7.0013 8.8145 0.0000 31.9068 0.0000
# 6 0.0000 0.0000 0.0000 -5.7121 0.0000 41.5655
#
#
#
# Elastic Compliance Matrix: (Units=1/GPa)
#
#
# Indices 1 2 3 4 5 6 
#
# 1 0.025388 -0.004740 -0.013562 0.000000 -0.010166 0.000000
# 2 -0.004740 0.014203 -0.002801 0.000000 0.006294 0.000000
# 3 -0.013562 -0.002801 0.031502 0.000000 -0.002441 0.000000
# 4 0.000000 0.000000 0.000000 0.079351 0.000000 0.010905
# 5 -0.010166 0.006294 -0.002441 0.000000 0.038551 0.000000
# 6 0.000000 0.000000 0.000000 0.010905 0.000000 0.025557
#
#
# Mechanical properties :
#
#
# Convention : Reuss Voigt Hill
#
# Bulk Modulus (GPa) = 34.62004 37.53540 36.07772
# Shear Modulus (GPa) = 18.76958 25.96024 22.36491
#
# Velocity S-wave (km/s) = 2.88008 3.38713 3.14385
# Velocity P-wave (km/s) = 5.13416 5.64668 5.39651
#
# Compressibility (1/GPa) = 0.02888501
#
# Stress axis : x y z
#
# Youngs Moduli (GPa) = 39.38813 70.40932 31.74422
#
# Poissons Ratio (x) = 0.33377 0.43052
# Poissons Ratio (y) = 0.18672 0.08893
# Poissons Ratio (z) = 0.53419 0.19724
#
# Static dielectric constant tensor:
#      x y z
#    x 4.208420 0.000000 -0.092440 
#    y 0.000000 4.207810 0.000000 
#    z -0.092440 0.000000 3.503120 
# 
# 
# High freq. dielectric constant tensor:
#      x y z
#    x 1.908790 0.000000 0.000250 
#    y 0.000000 1.896190 0.000000 
#    z 0.000250 0.000000 1.848960 
# 
# From -- ./inp_files/111887.got.cif
#   From: 2010.06.25/outbox.cif.g09.slc.cpg/sg15_56_cif.got.tgz:111887.got - 2010.06.28 07:06:18.
