data_PCOD8137011
_publ_section_title
;
Structure prediction by ZEFSAII (Michael W. Deem and Ramdas Pophale) SiO2 
 PCOD8137011
Probable space group: C 2/C
;
_chemical_formula_sum "Si O2"
_cell_formula_units_Z 48
_cell_length_a 14.688611
_cell_length_b 33.880901
_cell_length_c 13.982206
_cell_angle_alpha 90.000000
_cell_angle_beta 160.151711
_cell_angle_gamma 90.000000
_cell_volume 2362.601759
_symmetry_space_group_name_H-M "C 2/C"
_symmetry_group_IT_number 15
_symmetry_cell_setting 'monoclinic'
loop_
_space_group_symop_operation_xyz
x,y,z
-x,y,1/2-z
-x,-y,-z
x,-y,1/2+z
1/2+x,1/2+y,z
1/2-x,1/2+y,1/2-z
1/2-x,1/2-y,-z
1/2+x,1/2-y,1/2+z
loop_
_atom_site_type_symbol
_atom_site_label
_atom_site_fract_x
_atom_site_fract_y
_atom_site_fract_z
Si Si1 0.073730 0.147605 0.717352
Si Si2 0.414485 0.840319 0.897509
Si Si3 0.647485 0.439191 0.238255
Si Si4 0.248331 0.016391 0.441580
Si Si5 0.842301 0.427511 0.869889
Si Si6 0.529160 0.775955 0.171020
O O1 0.079237 0.100003 0.731487
O O2 0.000000 0.164190 0.750000
O O3 0.863978 0.164770 0.433440
O O4 0.361086 0.162100 0.963557
O O5 0.407213 0.881380 0.948548
O O6 0.461738 0.807962 0.024653
O O7 0.594209 0.478987 0.243222
O O8 0.956931 0.442569 0.513510
O O9 0.460741 0.437122 0.960364
O O10 0.386871 0.048677 0.510623
O O11 0.000000 0.037784 0.250000
O O12 0.500000 0.000236 0.750000
O O13 0.500000 0.793461 0.250000
O O14 0.833405 0.761226 0.460715
#
# Coordination Sequence:
#
# PCOD8137011 Si02
#       6
#     8   8   8   8   8   8
#     4  10  20  35  58  86 115 150 193 235 278 329
#     4  10  21  37  60  86 115 149 185 233 286 335
#     4  10  20  36  55  74 104 147 194 234 273 325
#     4  12  23  34  51  77 108 143 187 236 286 333
#     4  10  21  37  54  76 107 146 184 228 287 336
#     4  10  21  39  64  91 116 148 188 228 274 333
#
# _framework density 20.316583999999999
#
# number of rings (size 3 to 8) (size 9 to 14) (size 15 to 20)
#    0.000    1.667    0.000    5.000    0.000    3.333 
#    0.000    2.500    0.000   10.000    0.000    0.000 
#    0.000    0.000    0.000    0.000    0.000    0.000 
#
# Total GULP energy -297541.210067 kJ/mol
# GULP energy per Si atom -12397.550419 kJ/mol
# Density = 2.027034 g / cm^3
# Si number density = 20.316584 Si / 1000 Ang^3
#
#
#
# Elastic Constant Matrix: (Units=GPa)
#
#
# Indices 1 2 3 4 5 6 
#
# 1 98.9631 53.0733 20.8345 -0.0127 -12.0672 0.0148
# 2 53.0733 67.7514 18.2931 -0.0019 -9.5468 -0.0050
# 3 20.8345 18.2931 82.2548 0.0603 6.1681 -0.0600
# 4 -0.0127 -0.0019 0.0603 23.5527 -0.0127 -3.1716
# 5 -12.0672 -9.5468 6.1681 -0.0127 21.8920 0.0139
# 6 0.0148 -0.0050 -0.0600 -3.1716 0.0139 20.0817
#
#
#
# Elastic Compliance Matrix: (Units=1/GPa)
#
#
# Indices 1 2 3 4 5 6 
#
# 1 0.018053 -0.012889 -0.002075 0.000013 0.004915 -0.000024
# 2 -0.012889 0.026408 -0.003003 0.000006 0.005257 0.000004
# 3 -0.002075 -0.003003 0.013827 -0.000035 -0.006349 0.000041
# 4 0.000013 0.000006 -0.000035 0.043381 0.000041 0.006851
# 5 0.004915 0.005257 -0.006349 0.000041 0.052470 -0.000051
# 6 -0.000024 0.000004 0.000041 0.006851 -0.000051 0.050879
#
#
# Mechanical properties :
#
#
# Convention : Reuss Voigt Hill
#
# Bulk Modulus (GPa) = 44.73291 48.15237 46.44264
# Shear Modulus (GPa) = 20.12859 23.55651 21.84255
#
# Velocity S-wave (km/s) = 3.15103 3.40880 3.28244
# Velocity P-wave (km/s) = 5.94175 6.26464 6.10533
#
# Compressibility (1/GPa) = 0.02235491
#
# Stress axis : x y z
#
# Youngs Moduli (GPa) = 55.39107 37.86676 72.32339
#
# Poissons Ratio (x) = 0.48808 0.15006
# Poissons Ratio (y) = 0.71396 0.21715
# Poissons Ratio (z) = 0.11493 0.11370
#
# Static dielectric constant tensor:
#      x y z
#    x 3.554700 0.000010 0.087430 
#    y 0.000010 3.386700 0.000010 
#    z 0.087430 0.000010 3.802970 
# 
# 
# High freq. dielectric constant tensor:
#      x y z
#    x 1.792750 0.000000 0.008510 
#    y 0.000000 1.764380 0.000000 
#    z 0.008510 0.000000 1.814620 
# 
# From -- ./inp_files/8935.got.cif
#   From: 2010.06.25/outbox.cif.g09.slc.cpg/sg15_5_cif.got.tgz:8935.got - 2010.06.28 07:06:18.
