data_PCOD8137112
_publ_section_title
;
Structure prediction by ZEFSAII (Michael W. Deem and Ramdas Pophale) SiO2 
 PCOD8137112
Probable space group: C 2/C
;
_chemical_formula_sum "Si O2"
_cell_formula_units_Z 44
_cell_length_a 10.258486
_cell_length_b 17.954817
_cell_length_c 12.166607
_cell_angle_alpha 90.000000
_cell_angle_beta 108.716587
_cell_angle_gamma 90.000000
_cell_volume 2122.450440
_symmetry_space_group_name_H-M "C 2/C"
_symmetry_group_IT_number 15
_symmetry_cell_setting 'monoclinic'
loop_
_space_group_symop_operation_xyz
x,y,z
-x,y,1/2-z
-x,-y,-z
x,-y,1/2+z
1/2+x,1/2+y,z
1/2-x,1/2+y,1/2-z
1/2-x,1/2-y,-z
1/2+x,1/2-y,1/2+z
loop_
_atom_site_type_symbol
_atom_site_label
_atom_site_fract_x
_atom_site_fract_y
_atom_site_fract_z
Si Si1 0.337103 0.933525 0.020747
Si Si2 0.855809 0.682795 0.167445
Si Si3 0.186423 0.067940 0.702472
Si Si4 0.871242 0.596552 0.961286
Si Si5 0.000000 0.174814 0.750000
Si Si6 0.347365 0.403522 0.737373
O O1 0.274822 0.911797 0.120802
O O2 0.374036 0.020516 0.032135
O O3 0.476370 0.886231 0.043412
O O4 0.230754 0.913233 0.897620
O O5 0.827588 0.661071 0.033781
O O6 0.728860 0.657868 0.209251
O O7 0.000000 0.645255 0.250000
O O8 0.872960 0.772638 0.176369
O O9 0.050226 0.120179 0.664667
O O10 0.144939 0.981194 0.693350
O O11 0.265740 0.091140 0.833732
O O12 0.500000 0.374990 0.750000
#
# Coordination Sequence:
#
# PCOD8137112 Si02
#       6
#     8   8   8   8   4   8
#     4  10  20  35  60  96 129 155 214 273 300 365
#     4  10  21  43  63  84 129 174 203 251 315 385
#     4  11  22  37  61  97 128 161 211 268 317 359
#     4  10  20  35  65  92 123 173 211 253 313 385
#     4  10  24  42  60  88 136 166 206 260 320 372
#     4  11  22  38  64  94 125 165 214 259 317 368
#
# _framework density 20.730754999999998
#
# number of rings (size 3 to 8) (size 9 to 14) (size 15 to 20)
#    0.545    1.091    4.545    0.545    0.000    2.909 
#    0.000    5.455    0.000    0.000    0.000    0.000 
#    0.000    0.000    0.000    0.000    0.000    0.000 
#
# Total GULP energy -272780.264056 kJ/mol
# GULP energy per Si atom -12399.102912 kJ/mol
# Density = 2.068357 g / cm^3
# Si number density = 20.730755 Si / 1000 Ang^3
#
#
#
# Elastic Constant Matrix: (Units=GPa)
#
#
# Indices 1 2 3 4 5 6 
#
# 1 158.5208 42.9863 31.3354 0.0000 -29.0679 0.0000
# 2 42.9863 80.6860 20.6921 0.0000 -12.0210 0.0000
# 3 31.3354 20.6921 71.7832 0.0000 -29.9012 0.0000
# 4 0.0000 0.0000 0.0000 10.5065 0.0000 -4.1989
# 5 -29.0679 -12.0210 -29.9012 0.0000 38.5729 0.0000
# 6 0.0000 0.0000 0.0000 -4.1989 0.0000 39.8423
#
#
#
# Elastic Compliance Matrix: (Units=1/GPa)
#
#
# Indices 1 2 3 4 5 6 
#
# 1 0.008241 -0.003536 -0.000665 0.000000 0.004593 0.000000
# 2 -0.003536 0.014980 -0.002865 0.000000 -0.000217 0.000000
# 3 -0.000665 -0.002865 0.021365 0.000000 0.015168 0.000000
# 4 0.000000 0.000000 0.000000 0.099364 0.000000 0.010472
# 5 0.004593 -0.000217 0.015168 0.000000 0.041076 0.000000
# 6 0.000000 0.000000 0.000000 0.010472 0.000000 0.026203
#
#
# Mechanical properties :
#
#
# Convention : Reuss Voigt Hill
#
# Bulk Modulus (GPa) = 32.83597 55.66860 44.25229
# Shear Modulus (GPa) = 21.23038 32.18275 26.70657
#
# Velocity S-wave (km/s) = 3.20363 3.94435 3.59313
# Velocity P-wave (km/s) = 5.43672 6.90328 6.21342
#
# Compressibility (1/GPa) = 0.03045440
#
# Stress axis : x y z
#
# Youngs Moduli (GPa) = 121.34937 66.75690 46.80503
#
# Poissons Ratio (x) = 0.23602 0.03113
# Poissons Ratio (y) = 0.42903 0.13410
# Poissons Ratio (z) = 0.08071 0.19126
#
# Static dielectric constant tensor:
#      x y z
#    x 3.866200 0.000000 -0.056830 
#    y 0.000000 3.584710 0.000000 
#    z -0.056830 0.000000 3.492560 
# 
# 
# High freq. dielectric constant tensor:
#      x y z
#    x 1.823170 0.000000 -0.005990 
#    y 0.000000 1.789030 0.000000 
#    z -0.005990 0.000000 1.802620 
# 
# From -- ./inp_files/78311.got.cif
#   From: 2010.06.25/outbox.cif.g09.slc.cpg/sg15_40_cif.got.tgz:78311.got - 2010.06.28 07:06:18.
