data_PCOD8137496
_publ_section_title
;
Structure prediction by ZEFSAII (Michael W. Deem and Ramdas Pophale) SiO2 
 PCOD8137496
Probable space group: C 2/C
;
_chemical_formula_sum "Si O2"
_cell_formula_units_Z 56
_cell_length_a 18.122227
_cell_length_b 27.261899
_cell_length_c 9.483732
_cell_angle_alpha 90.000000
_cell_angle_beta 147.007505
_cell_angle_gamma 90.000000
_cell_volume 2551.338586
_symmetry_space_group_name_H-M "C 2/C"
_symmetry_group_IT_number 15
_symmetry_cell_setting 'monoclinic'
loop_
_space_group_symop_operation_xyz
x,y,z
-x,y,1/2-z
-x,-y,-z
x,-y,1/2+z
1/2+x,1/2+y,z
1/2-x,1/2+y,1/2-z
1/2-x,1/2-y,-z
1/2+x,1/2-y,1/2+z
loop_
_atom_site_type_symbol
_atom_site_label
_atom_site_fract_x
_atom_site_fract_y
_atom_site_fract_z
Si Si1 0.853589 0.425583 0.584732
Si Si2 0.647467 0.813286 0.388338
Si Si3 0.775325 0.619007 0.250606
Si Si4 0.223979 0.604790 0.821059
Si Si5 0.651086 0.036422 0.933170
Si Si6 0.456235 0.719204 0.391747
Si Si7 0.000000 0.822109 0.250000
Si Si8 0.500000 0.643002 0.250000
O O1 0.851014 0.398137 0.729913
O O2 0.764593 0.395966 0.329636
O O3 0.796199 0.480978 0.497577
O O4 0.000000 0.425416 0.750000
O O5 0.625707 0.843444 0.502239
O O6 0.639209 0.849040 0.240739
O O7 0.532575 0.772300 0.168377
O O8 0.797223 0.791691 0.640786
O O9 0.753595 0.570703 0.314904
O O10 0.630168 0.642716 0.981573
O O11 0.157494 0.556103 0.782284
O O12 0.380212 0.609569 0.118579
O O13 0.500000 0.038964 0.750000
O O14 0.517445 0.715488 0.647191
O O15 0.545063 0.679751 0.447836
#
# Coordination Sequence:
#
# PCOD8137496 Si02
#       8
#     8   8   8   8   8   8   4   4
#     4  11  22  37  57  86 120 153 199 254 300 340
#     4   8  18  36  58  78 114 157 207 229 282 359
#     4  10  20  37  60  91 119 156 200 248 301 363
#     4  10  20  37  58  85 117 153 194 245 298 362
#     4  10  21  39  61  82 114 163 207 242 291 356
#     4   9  17  36  57  83 112 159 195 239 288 354
#     4  10  20  36  63  90 124 152 193 252 316 350
#     4  10  20  36  59  84 120 156 189 238 312 366
#
# _framework density 21.949262000000001
#
# number of rings (size 3 to 8) (size 9 to 14) (size 15 to 20)
#    0.000    2.286    0.000    3.429    0.000    2.286 
#    9.000    4.286    0.000    6.857    0.000    0.000 
#    0.000    0.000    0.000    0.000    0.000    0.000 
#
# Total GULP energy -346901.080197 kJ/mol
# GULP energy per Si atom -12389.324293 kJ/mol
# Density = 2.189930 g / cm^3
# Si number density = 21.949262 Si / 1000 Ang^3
#
#
#
# Elastic Constant Matrix: (Units=GPa)
#
#
# Indices 1 2 3 4 5 6 
#
# 1 105.8019 49.7511 33.2403 0.0000 -30.3961 0.0000
# 2 49.7511 129.2145 62.0999 0.0000 -16.9684 0.0000
# 3 33.2403 62.0999 90.0410 0.0000 -31.7551 0.0000
# 4 0.0000 0.0000 0.0000 34.6909 0.0000 -7.3143
# 5 -30.3961 -16.9684 -31.7551 0.0000 44.9740 0.0000
# 6 0.0000 0.0000 0.0000 -7.3143 0.0000 25.4050
#
#
#
# Elastic Compliance Matrix: (Units=1/GPa)
#
#
# Indices 1 2 3 4 5 6 
#
# 1 0.013696 -0.004725 0.001116 0.000000 0.008262 0.000000
# 2 -0.004725 0.013303 -0.009037 0.000000 -0.004555 0.000000
# 3 0.001116 -0.009037 0.021293 0.000000 0.012379 0.000000
# 4 0.000000 0.000000 0.000000 0.030689 0.000000 0.008836
# 5 0.008262 -0.004555 0.012379 0.000000 0.034841 0.000000
# 6 0.000000 0.000000 0.000000 0.008836 0.000000 0.041906
#
#
# Mechanical properties :
#
#
# Convention : Reuss Voigt Hill
#
# Bulk Modulus (GPa) = 43.47716 68.36000 55.91858
# Shear Modulus (GPa) = 26.49880 33.01171 29.75526
#
# Velocity S-wave (km/s) = 3.47836 3.88235 3.68589
# Velocity P-wave (km/s) = 5.99858 7.16303 6.60651
#
# Compressibility (1/GPa) = 0.02300058
#
# Stress axis : x y z
#
# Youngs Moduli (GPa) = 73.01143 75.16824 46.96465
#
# Poissons Ratio (x) = 0.35517 -0.05243
# Poissons Ratio (y) = 0.34498 0.42444
# Poissons Ratio (z) = -0.08151 0.67933
#
# Static dielectric constant tensor:
#      x y z
#    x 4.280560 0.000000 -0.502620 
#    y 0.000000 4.276090 0.000000 
#    z -0.502620 0.000000 4.071910 
# 
# 
# High freq. dielectric constant tensor:
#      x y z
#    x 1.872650 0.000000 -0.018900 
#    y 0.000000 1.865130 0.000000 
#    z -0.018900 0.000000 1.844560 
# 
# From -- ./inp_files/52400.got.cif
#   From: 2010.06.25/outbox.cif.g09.slc.cpg/sg15_27_cif.got.tgz:52400.got - 2010.06.28 07:06:18.
