data_PCOD8137289
_publ_section_title
;
Structure prediction by ZEFSAII (Michael W. Deem and Ramdas Pophale) SiO2 
 PCOD8137289
Probable space group: C 2/C
;
_chemical_formula_sum "Si O2"
_cell_formula_units_Z 64
_cell_length_a 14.775885
_cell_length_b 11.093722
_cell_length_c 29.460995
_cell_angle_alpha 90.000000
_cell_angle_beta 42.265723
_cell_angle_gamma 90.000000
_cell_volume 3247.997048
_symmetry_space_group_name_H-M "C 2/C"
_symmetry_group_IT_number 15
_symmetry_cell_setting 'monoclinic'
loop_
_space_group_symop_operation_xyz
x,y,z
-x,y,1/2-z
-x,-y,-z
x,-y,1/2+z
1/2+x,1/2+y,z
1/2-x,1/2+y,1/2-z
1/2-x,1/2-y,-z
1/2+x,1/2-y,1/2+z
loop_
_atom_site_type_symbol
_atom_site_label
_atom_site_fract_x
_atom_site_fract_y
_atom_site_fract_z
Si Si1 0.847792 0.565161 0.020241
Si Si2 0.388960 0.543010 0.940892
Si Si3 0.376349 0.940247 0.610292
Si Si4 0.384362 0.401259 0.539827
Si Si5 0.760917 0.674714 0.688143
Si Si6 0.113986 0.347053 0.675981
Si Si7 0.937858 0.243644 0.662866
Si Si8 0.523423 0.279535 0.561994
O O1 0.738838 0.468931 0.043975
O O2 0.813053 0.598315 0.085394
O O3 0.847628 0.691831 0.992058
O O4 0.990880 0.508634 0.955369
O O5 0.506538 0.614431 0.872820
O O6 0.435976 0.409776 0.936074
O O7 0.348319 0.619923 0.000680
O O8 0.402354 0.825705 0.632643
O O9 0.275484 0.031351 0.674025
O O10 0.500000 0.500000 0.500000
O O11 0.242464 0.434345 0.618114
O O12 0.448271 0.283940 0.540184
O O13 0.668353 0.729136 0.682252
O O14 0.695446 0.707914 0.760457
O O15 0.910720 0.728980 0.637758
O O16 0.048133 0.311185 0.652611
O O17 0.000000 0.411681 0.750000
#
# Coordination Sequence:
#
# PCOD8137289 Si02
#       8
#     8   8   8   8   8   8   8   8
#     4  10  20  36  56  81 113 146 189 237 287 338
#     4  11  21  32  55  87 112 146 190 239 285 336
#     4  10  21  36  56  82 111 149 187 237 287 342
#     4   9  18  33  54  82 113 145 190 237 288 344
#     4   9  20  37  56  77 112 148 188 228 288 350
#     4   9  18  35  55  81 111 148 189 239 291 344
#     4  11  22  33  56  85 113 149 189 242 283 344
#     4   9  19  36  56  78 109 155 185 232 287 347
#
# _framework density 19.704450999999999
#
# number of rings (size 3 to 8) (size 9 to 14) (size 15 to 20)
#    0.000    2.250    0.000    2.625    1.750    4.000 
#    0.000    0.000    0.000    0.000    0.000    0.000 
#    0.000    0.000    0.000    0.000    0.000    0.000 
#
# Total GULP energy -396455.486925 kJ/mol
# GULP energy per Si atom -12389.233966 kJ/mol
# Density = 1.965960 g / cm^3
# Si number density = 19.704451 Si / 1000 Ang^3
#
#
#
# Elastic Constant Matrix: (Units=GPa)
#
#
# Indices 1 2 3 4 5 6 
#
# 1 75.5871 15.4603 35.2792 0.0000 14.2564 0.0000
# 2 15.4603 69.0016 51.1389 0.0000 0.4111 0.0000
# 3 35.2792 51.1389 128.9334 0.0000 4.4816 0.0000
# 4 0.0000 0.0000 0.0000 34.5362 0.0000 -3.6099
# 5 14.2564 0.4111 4.4816 0.0000 29.3179 0.0000
# 6 0.0000 0.0000 0.0000 -3.6099 0.0000 25.6790
#
#
#
# Elastic Compliance Matrix: (Units=1/GPa)
#
#
# Indices 1 2 3 4 5 6 
#
# 1 0.016660 -0.000712 -0.004017 0.000000 -0.007477 0.000000
# 2 -0.000712 0.020584 -0.008014 0.000000 0.001282 0.000000
# 3 -0.004017 -0.008014 0.012026 0.000000 0.000227 0.000000
# 4 0.000000 0.000000 0.000000 0.029387 0.000000 0.004131
# 5 -0.007477 0.001282 0.000227 0.000000 0.037692 0.000000
# 6 0.000000 0.000000 0.000000 0.004131 0.000000 0.039523
#
#
# Mechanical properties :
#
#
# Convention : Reuss Voigt Hill
#
# Bulk Modulus (GPa) = 42.04255 53.03100 47.53677
# Shear Modulus (GPa) = 26.41530 29.34951 27.88240
#
# Velocity S-wave (km/s) = 3.66536 3.86357 3.76577
# Velocity P-wave (km/s) = 6.26865 6.84650 6.56394
#
# Compressibility (1/GPa) = 0.02378543
#
# Stress axis : x y z
#
# Youngs Moduli (GPa) = 60.02302 48.58249 83.15571
#
# Poissons Ratio (x) = 0.03457 0.33400
# Poissons Ratio (y) = 0.04271 0.66641
# Poissons Ratio (z) = 0.24108 0.38934
#
# Static dielectric constant tensor:
#      x y z
#    x 3.855370 0.000000 0.131190 
#    y 0.000000 3.462580 0.000000 
#    z 0.131190 0.000000 3.840620 
# 
# 
# High freq. dielectric constant tensor:
#      x y z
#    x 1.766000 0.000000 0.002790 
#    y 0.000000 1.747650 0.000000 
#    z 0.002790 0.000000 1.775090 
# 
# From -- ./inp_files/296100.got.cif
#   From: 2010.06.25/outbox.cif.g09.slc.cpg/sg15_149_cif.got.tgz:296100.got - 2010.06.28 07:06:18.
