data_PCOD8137467
_publ_section_title
;
Structure prediction by ZEFSAII (Michael W. Deem and Ramdas Pophale) SiO2 
 PCOD8137467
Probable space group: C 2/C
;
_chemical_formula_sum "Si O2"
_cell_formula_units_Z 44
_cell_length_a 8.614406
_cell_length_b 25.430369
_cell_length_c 11.917617
_cell_angle_alpha 90.000000
_cell_angle_beta 57.147003
_cell_angle_gamma 90.000000
_cell_volume 2193.210952
_symmetry_space_group_name_H-M "C 2/C"
_symmetry_group_IT_number 15
_symmetry_cell_setting 'monoclinic'
loop_
_space_group_symop_operation_xyz
x,y,z
-x,y,1/2-z
-x,-y,-z
x,-y,1/2+z
1/2+x,1/2+y,z
1/2-x,1/2+y,1/2-z
1/2-x,1/2-y,-z
1/2+x,1/2-y,1/2+z
loop_
_atom_site_type_symbol
_atom_site_label
_atom_site_fract_x
_atom_site_fract_y
_atom_site_fract_z
Si Si1 0.538360 0.258253 0.105212
Si Si2 0.857783 0.542053 0.106150
Si Si3 0.800692 0.340462 0.643460
Si Si4 0.632658 0.543696 0.997790
Si Si5 0.019724 0.842419 0.557405
Si Si6 0.000000 0.488742 0.250000
O O1 0.500000 0.272150 0.250000
O O2 0.449869 0.204130 0.100513
O O3 0.750000 0.250000 0.000000
O O4 0.463539 0.305101 0.056721
O O5 0.908597 0.604162 0.082564
O O6 0.656791 0.535870 0.123877
O O7 0.857114 0.525598 0.236281
O O8 0.000000 0.500000 0.000000
O O9 0.679361 0.326998 0.582071
O O10 0.677686 0.340512 0.804204
O O11 0.542763 0.598783 0.001510
O O12 0.500000 0.500000 0.000000
O O13 0.850610 0.546127 0.875613
#
# Coordination Sequence:
#
# PCOD8137467 Si02
#       6
#     8   8   8   8   8   4
#     4  12  25  44  65  97 130 164 224 276 329 389
#     4   9  20  37  61  95 123 168 213 258 319 384
#     4  10  21  41  69  89 127 171 216 264 324 395
#     4  10  21  39  61  90 127 165 216 256 320 390
#     4  10  22  43  64  92 126 173 215 263 328 389
#     4  10  20  36  58  92 130 158 206 270 316 384
#
# _framework density 20.061910000000001
#
# number of rings (size 3 to 8) (size 9 to 14) (size 15 to 20)
#    0.000    1.818    1.818    1.636    1.273    5.091 
#   13.091    0.000    0.000    0.000    0.000    0.000 
#    0.000    0.000    0.000    0.000    0.000    0.000 
#
# Total GULP energy -272565.826625 kJ/mol
# GULP energy per Si atom -12389.355756 kJ/mol
# Density = 2.001625 g / cm^3
# Si number density = 20.061910 Si / 1000 Ang^3
#
#
#
# Elastic Constant Matrix: (Units=GPa)
#
#
# Indices 1 2 3 4 5 6 
#
# 1 104.8069 82.8360 56.2952 0.0000 5.3597 0.0000
# 2 82.8360 178.3564 65.2227 0.0000 7.4909 0.0000
# 3 56.2952 65.2227 106.2646 0.0000 3.3443 0.0000
# 4 0.0000 0.0000 0.0000 27.2058 0.0000 -0.8850
# 5 5.3597 7.4909 3.3443 0.0000 42.3135 0.0000
# 6 0.0000 0.0000 0.0000 -0.8850 0.0000 42.9108
#
#
#
# Elastic Compliance Matrix: (Units=1/GPa)
#
#
# Indices 1 2 3 4 5 6 
#
# 1 0.017223 -0.005985 -0.005429 0.000000 -0.000693 0.000000
# 2 -0.005985 0.009346 -0.002544 0.000000 -0.000695 0.000000
# 3 -0.005429 -0.002544 0.013847 0.000000 0.000044 0.000000
# 4 0.000000 0.000000 0.000000 0.036782 0.000000 0.000759
# 5 -0.000693 -0.000695 0.000044 0.000000 0.023841 0.000000
# 6 0.000000 0.000000 0.000000 0.000759 0.000000 0.023320
#
#
# Mechanical properties :
#
#
# Convention : Reuss Voigt Hill
#
# Bulk Modulus (GPa) = 79.99898 88.68176 84.34037
# Shear Modulus (GPa) = 31.96132 34.82428 33.39280
#
# Velocity S-wave (km/s) = 3.99574 4.17086 4.08424
# Velocity P-wave (km/s) = 7.82627 8.21552 8.02326
#
# Compressibility (1/GPa) = 0.01250016
#
# Stress axis : x y z
#
# Youngs Moduli (GPa) = 58.06191 107.00092 72.21977
#
# Poissons Ratio (x) = 0.64036 0.39209
# Poissons Ratio (y) = 0.34748 0.18372
# Poissons Ratio (z) = 0.31523 0.27220
#
# Static dielectric constant tensor:
#      x y z
#    x 3.946660 0.000000 0.422460 
#    y 0.000000 3.719750 0.000000 
#    z 0.422460 0.000000 3.967600 
# 
# 
# High freq. dielectric constant tensor:
#      x y z
#    x 1.798360 0.000000 0.014780 
#    y 0.000000 1.784460 0.000000 
#    z 0.014780 0.000000 1.778940 
# 
# From -- ./inp_files/79708.got.cif
#   From: 2010.06.25/outbox.cif.g09.slc.cpg/sg15_40_cif.got.tgz:79708.got - 2010.06.28 07:06:18.
