data_PCOD8137502
_publ_section_title
;
Structure prediction by ZEFSAII (Michael W. Deem and Ramdas Pophale) SiO2 
 PCOD8137502
Probable space group: C 2/C
;
_chemical_formula_sum "Si O2"
_cell_formula_units_Z 64
_cell_length_a 17.323219
_cell_length_b 8.784159
_cell_length_c 19.205828
_cell_angle_alpha 90.000000
_cell_angle_beta 88.010452
_cell_angle_gamma 90.000000
_cell_volume 2920.787340
_symmetry_space_group_name_H-M "C 2/C"
_symmetry_group_IT_number 15
_symmetry_cell_setting 'monoclinic'
loop_
_space_group_symop_operation_xyz
x,y,z
-x,y,1/2-z
-x,-y,-z
x,-y,1/2+z
1/2+x,1/2+y,z
1/2-x,1/2+y,1/2-z
1/2-x,1/2-y,-z
1/2+x,1/2-y,1/2+z
loop_
_atom_site_type_symbol
_atom_site_label
_atom_site_fract_x
_atom_site_fract_y
_atom_site_fract_z
Si Si1 0.091857 0.157840 0.874831
Si Si2 0.577164 0.305087 0.142227
Si Si3 0.093321 0.347758 0.499663
Si Si4 0.746776 0.256098 0.305939
Si Si5 0.700232 0.920380 0.679963
Si Si6 0.575562 0.824477 0.016487
Si Si7 0.668596 0.429489 0.587469
Si Si8 0.684086 0.591216 0.444764
O O1 0.157953 0.192544 0.816420
O O2 0.011499 0.157641 0.833088
O O3 0.112854 0.995704 0.909415
O O4 0.087466 0.283648 0.935216
O O5 0.616147 0.162147 0.181782
O O6 0.629523 0.456676 0.144951
O O7 0.573553 0.270093 0.060923
O O8 0.120205 0.514265 0.525333
O O9 0.161062 0.268564 0.453035
O O10 0.013320 0.357391 0.458938
O O11 0.755409 0.161912 0.234614
O O12 0.805082 0.400879 0.300382
O O13 0.763273 0.153947 0.373286
O O14 0.737905 0.905939 0.602448
O O15 0.606653 0.697339 0.067216
O O16 0.703392 0.511591 0.518167
#
# Coordination Sequence:
#
# PCOD8137502 Si02
#       8
#     8   8   8   8   8   8   8   8
#     4   9  20  37  58  83 112 151 192 234 286 347
#     4  10  20  36  59  85 113 148 192 237 287 343
#     4   9  17  30  53  86 121 149 184 238 291 340
#     4  11  24  41  60  83 117 156 197 244 296 355
#     4  11  24  40  59  85 117 155 199 246 297 353
#     4   9  17  30  53  87 119 149 187 236 290 341
#     4  10  20  36  62  89 118 154 197 244 295 353
#     4   9  20  37  60  87 119 155 196 242 296 356
#
# _framework density 21.911898999999998
#
# number of rings (size 3 to 8) (size 9 to 14) (size 15 to 20)
#    0.000    2.250    0.000    2.250    0.000   13.000 
#    0.000    0.000    0.000    6.750    0.000    0.000 
#    0.000    0.000    0.000    0.000    0.000    0.000 
#
# Total GULP energy -396684.625995 kJ/mol
# GULP energy per Si atom -12396.394562 kJ/mol
# Density = 2.186203 g / cm^3
# Si number density = 21.911899 Si / 1000 Ang^3
#
#
#
# Elastic Constant Matrix: (Units=GPa)
#
#
# Indices 1 2 3 4 5 6 
#
# 1 86.2402 30.9443 21.0244 0.0000 12.6294 0.0000
# 2 30.9443 126.3867 27.1951 0.0000 4.3718 0.0000
# 3 21.0244 27.1951 62.0574 0.0000 12.2320 0.0000
# 4 0.0000 0.0000 0.0000 31.5832 0.0000 8.0941
# 5 12.6294 4.3718 12.2320 0.0000 19.7047 0.0000
# 6 0.0000 0.0000 0.0000 8.0941 0.0000 29.9042
#
#
#
# Elastic Compliance Matrix: (Units=1/GPa)
#
#
# Indices 1 2 3 4 5 6 
#
# 1 0.014156 -0.002749 -0.002191 0.000000 -0.007103 0.000000
# 2 -0.002749 0.009274 -0.003503 0.000000 0.001879 0.000000
# 3 -0.002191 -0.003503 0.020466 0.000000 -0.010523 0.000000
# 4 0.000000 0.000000 0.000000 0.034022 0.000000 -0.009209
# 5 -0.007103 0.001879 -0.010523 0.000000 0.061417 0.000000
# 6 0.000000 0.000000 0.000000 -0.009209 0.000000 0.035933
#
#
# Mechanical properties :
#
#
# Convention : Reuss Voigt Hill
#
# Bulk Modulus (GPa) = 37.02401 48.11240 42.56820
# Shear Modulus (GPa) = 24.85607 29.27312 27.06460
#
# Velocity S-wave (km/s) = 3.37169 3.65903 3.51829
# Velocity P-wave (km/s) = 5.66490 6.31317 5.99780
#
# Compressibility (1/GPa) = 0.02700950
#
# Stress axis : x y z
#
# Youngs Moduli (GPa) = 70.64014 107.82792 48.86200
#
# Poissons Ratio (x) = 0.29639 0.10707
# Poissons Ratio (y) = 0.19417 0.17117
# Poissons Ratio (z) = 0.15480 0.37774
#
# Static dielectric constant tensor:
#      x y z
#    x 3.886760 0.000000 0.120340 
#    y 0.000000 4.154600 0.000000 
#    z 0.120340 0.000000 3.623070 
# 
# 
# High freq. dielectric constant tensor:
#      x y z
#    x 1.854410 0.000000 0.014430 
#    y 0.000000 1.872910 0.000000 
#    z 0.014430 0.000000 1.831460 
# 
# From -- ./inp_files/247466.got.cif
#   From: 2010.06.25/outbox.cif.g09.slc.cpg/sg15_124_cif.got.tgz:247466.got - 2010.06.28 07:06:18.
