data_PCOD8137384
_publ_section_title
;
Structure prediction by ZEFSAII (Michael W. Deem and Ramdas Pophale) SiO2 
 PCOD8137384
Probable space group: C 2/C
;
_chemical_formula_sum "Si O2"
_cell_formula_units_Z 40
_cell_length_a 10.790533
_cell_length_b 23.531157
_cell_length_c 10.068037
_cell_angle_alpha 90.000000
_cell_angle_beta 62.716788
_cell_angle_gamma 90.000000
_cell_volume 2272.015910
_symmetry_space_group_name_H-M "C 2/C"
_symmetry_group_IT_number 15
_symmetry_cell_setting 'monoclinic'
loop_
_space_group_symop_operation_xyz
x,y,z
-x,y,1/2-z
-x,-y,-z
x,-y,1/2+z
1/2+x,1/2+y,z
1/2-x,1/2+y,1/2-z
1/2-x,1/2-y,-z
1/2+x,1/2-y,1/2+z
loop_
_atom_site_type_symbol
_atom_site_label
_atom_site_fract_x
_atom_site_fract_y
_atom_site_fract_z
Si Si1 0.786517 0.350436 0.511241
Si Si2 0.278718 0.146165 0.704094
Si Si3 0.493791 0.237195 0.515290
Si Si4 0.492759 0.051960 0.602591
Si Si5 0.000000 0.190472 0.750000
Si Si6 0.500000 0.321758 0.750000
O O1 0.768694 0.337958 0.363986
O O2 0.879095 0.405985 0.490510
O O3 0.636050 0.360561 0.653562
O O4 0.857975 0.294516 0.539297
O O5 0.371613 0.191708 0.582465
O O6 0.346017 0.084059 0.652676
O O7 0.128589 0.147626 0.708602
O O8 0.483086 0.267607 0.380786
O O9 0.468874 0.283584 0.639112
O O10 0.500000 0.029388 0.750000
O O11 0.500000 0.000000 0.500000
#
# Coordination Sequence:
#
# PCOD8137384 Si02
#       6
#     8   8   8   8   4   4
#     4  10  20  36  58  79 107 150 186 213 265 328
#     4  10  20  37  55  80 111 149 179 217 272 320
#     4  11  20  34  55  78 115 153 182 212 254 322
#     4   9  20  42  63  77 100 135 183 232 274 322
#     4  12  22  32  49  88 123 138 174 226 268 304
#     4  12  18  32  57  80 111 146 186 208 252 334
#
# _framework density 17.605512000000001
#
# number of rings (size 3 to 8) (size 9 to 14) (size 15 to 20)
#    0.000    1.600    4.000    3.600    0.000    0.000 
#   10.800    1.000    0.000    4.800    0.000    0.000 
#    0.000    0.000    0.000    0.000    0.000    0.000 
#
# Total GULP energy -248009.149478 kJ/mol
# GULP energy per Si atom -12400.457474 kJ/mol
# Density = 1.756544 g / cm^3
# Si number density = 17.605512 Si / 1000 Ang^3
#
#
#
# Elastic Constant Matrix: (Units=GPa)
#
#
# Indices 1 2 3 4 5 6 
#
# 1 146.7106 58.6316 62.0758 0.0000 -6.7488 0.0000
# 2 58.6316 91.3520 63.0259 0.0000 9.1195 0.0000
# 3 62.0758 63.0259 124.2351 0.0000 3.3409 0.0000
# 4 0.0000 0.0000 0.0000 33.2335 0.0000 9.6801
# 5 -6.7488 9.1195 3.3409 0.0000 39.3610 0.0000
# 6 0.0000 0.0000 0.0000 9.6801 0.0000 13.9376
#
#
#
# Elastic Compliance Matrix: (Units=1/GPa)
#
#
# Indices 1 2 3 4 5 6 
#
# 1 0.010035 -0.004973 -0.002574 0.000000 0.003091 0.000000
# 2 -0.004973 0.019714 -0.007387 0.000000 -0.004793 0.000000
# 3 -0.002574 -0.007387 0.013079 0.000000 0.000160 0.000000
# 4 0.000000 0.000000 0.000000 0.037721 0.000000 -0.026199
# 5 0.003091 -0.004793 0.000160 0.000000 0.027033 0.000000
# 6 0.000000 0.000000 0.000000 -0.026199 0.000000 0.089944
#
#
# Mechanical properties :
#
#
# Convention : Reuss Voigt Hill
#
# Bulk Modulus (GPa) = 77.17129 81.08492 79.12811
# Shear Modulus (GPa) = 21.57828 29.21071 25.39449
#
# Velocity S-wave (km/s) = 3.50473 4.07772 3.80204
# Velocity P-wave (km/s) = 7.76571 8.26601 8.01976
#
# Compressibility (1/GPa) = 0.01295819
#
# Stress axis : x y z
#
# Youngs Moduli (GPa) = 99.65015 50.72636 76.45966
#
# Poissons Ratio (x) = 0.25228 0.19683
# Poissons Ratio (y) = 0.49559 0.56481
# Poissons Ratio (z) = 0.25653 0.37472
#
# Static dielectric constant tensor:
#      x y z
#    x 3.536880 0.000000 -0.118640 
#    y 0.000000 3.008350 0.000000 
#    z -0.118640 0.000000 3.217030 
# 
# 
# High freq. dielectric constant tensor:
#      x y z
#    x 1.689400 0.000000 -0.004600 
#    y 0.000000 1.652860 0.000000 
#    z -0.004600 0.000000 1.689260 
# 
# From -- ./inp_files/23519.got.cif
#   From: 2010.06.25/outbox.cif.g09.slc.cpg/sg15_12_cif.got.tgz:23519.got - 2010.06.28 07:06:18.
