data_PCOD8137191
_publ_section_title
;
Structure prediction by ZEFSAII (Michael W. Deem and Ramdas Pophale) SiO2 
 PCOD8137191
Probable space group: C 2/C
;
_chemical_formula_sum "Si O2"
_cell_formula_units_Z 52
_cell_length_a 15.318736
_cell_length_b 23.388486
_cell_length_c 8.548108
_cell_angle_alpha 90.000000
_cell_angle_beta 57.927138
_cell_angle_gamma 90.000000
_cell_volume 2595.194615
_symmetry_space_group_name_H-M "C 2/C"
_symmetry_group_IT_number 15
_symmetry_cell_setting 'monoclinic'
loop_
_space_group_symop_operation_xyz
x,y,z
-x,y,1/2-z
-x,-y,-z
x,-y,1/2+z
1/2+x,1/2+y,z
1/2-x,1/2+y,1/2-z
1/2-x,1/2-y,-z
1/2+x,1/2-y,1/2+z
loop_
_atom_site_type_symbol
_atom_site_label
_atom_site_fract_x
_atom_site_fract_y
_atom_site_fract_z
Si Si1 0.115656 0.558183 0.663676
Si Si2 0.259405 0.975594 0.740272
Si Si3 0.317069 0.154660 0.691918
Si Si4 0.000000 0.848864 0.250000
Si Si5 0.548899 0.732886 0.432054
Si Si6 0.690693 0.421711 0.108443
Si Si7 0.345810 0.714649 0.470395
O O1 0.161547 0.508958 0.726568
O O2 0.177518 0.563333 0.441811
O O3 0.115972 0.619248 0.748215
O O4 0.000000 0.538558 0.750000
O O5 0.187522 0.020236 0.714368
O O6 0.194179 0.935032 0.918931
O O7 0.383997 0.210836 0.589362
O O8 0.290216 0.117416 0.562715
O O9 0.204077 0.164927 0.877525
O O10 0.944666 0.808386 0.427419
O O11 0.913953 0.888516 0.253503
O O12 0.429886 0.748576 0.498992
O O13 0.596482 0.695895 0.243399
O O14 0.250000 0.750000 0.500000
#
# Coordination Sequence:
#
# PCOD8137191 Si02
#       7
#     8   8   8   4   8   8   8
#     4  10  20  35  64  89 118 154 201 250 317 373
#     4   9  21  42  62  87 124 152 201 269 309 365
#     4  10  21  39  58  89 122 163 203 245 309 372
#     4  12  24  40  62  90 128 162 212 256 308 364
#     4  10  22  39  58  89 124 164 205 253 295 365
#     4  10  22  42  62  92 120 164 205 256 320 362
#     4   9  19  38  60  79 121 161 205 247 291 353
#
# _framework density 20.037033000000001
#
# number of rings (size 3 to 8) (size 9 to 14) (size 15 to 20)
#    0.000    2.154    1.538    0.462    6.462    1.231 
#    2.769    0.000    0.000    0.000    0.000    0.000 
#    0.000    0.000    0.000    0.000    0.000    0.000 
#
# Total GULP energy -322201.826431 kJ/mol
# GULP energy per Si atom -12392.377940 kJ/mol
# Density = 1.999143 g / cm^3
# Si number density = 20.037033 Si / 1000 Ang^3
#
#
#
# Elastic Constant Matrix: (Units=GPa)
#
#
# Indices 1 2 3 4 5 6 
#
# 1 87.4258 24.0651 36.1459 0.0000 -1.3921 0.0000
# 2 24.0651 78.8534 47.0139 0.0000 1.5210 0.0000
# 3 36.1459 47.0139 98.5704 0.0000 13.9228 0.0000
# 4 0.0000 0.0000 0.0000 31.2537 0.0000 -1.0820
# 5 -1.3921 1.5210 13.9228 0.0000 28.6052 0.0000
# 6 0.0000 0.0000 0.0000 -1.0820 0.0000 20.6765
#
#
#
# Elastic Compliance Matrix: (Units=1/GPa)
#
#
# Indices 1 2 3 4 5 6 
#
# 1 0.013884 -0.001396 -0.004866 0.000000 0.003118 0.000000
# 2 -0.001396 0.018176 -0.008602 0.000000 0.003153 0.000000
# 3 -0.004866 -0.008602 0.017182 0.000000 -0.008142 0.000000
# 4 0.000000 0.000000 0.000000 0.032054 0.000000 0.001677
# 5 0.003118 0.003153 -0.008142 0.000000 0.038906 0.000000
# 6 0.000000 0.000000 0.000000 0.001677 0.000000 0.048452
#
#
# Mechanical properties :
#
#
# Convention : Reuss Voigt Hill
#
# Bulk Modulus (GPa) = 51.24681 53.25550 52.25116
# Shear Modulus (GPa) = 24.40358 26.61539 25.50949
#
# Velocity S-wave (km/s) = 3.49366 3.64855 3.57195
# Velocity P-wave (km/s) = 6.47347 6.66224 6.56853
#
# Compressibility (1/GPa) = 0.01951341
#
# Stress axis : x y z
#
# Youngs Moduli (GPa) = 72.02529 55.01749 58.19909
#
# Poissons Ratio (x) = 0.07682 0.28318
# Poissons Ratio (y) = 0.10057 0.50065
# Poissons Ratio (z) = 0.35046 0.47329
#
# Static dielectric constant tensor:
#      x y z
#    x 3.767680 0.000000 0.000380 
#    y 0.000000 3.588280 0.000000 
#    z 0.000380 0.000000 4.119660 
# 
# 
# High freq. dielectric constant tensor:
#      x y z
#    x 1.793020 0.000000 0.007950 
#    y 0.000000 1.764390 0.000000 
#    z 0.007950 0.000000 1.780110 
# 
# From -- ./inp_files/42066.got.cif
#   From: 2010.06.25/outbox.cif.g09.slc.cpg/sg15_22_cif.got.tgz:42066.got - 2010.06.28 07:06:18.
