data_PCOD8137546
_publ_section_title
;
Structure prediction by ZEFSAII (Michael W. Deem and Ramdas Pophale) SiO2 
 PCOD8137546
Probable space group: C 2/C
;
_chemical_formula_sum "Si O2"
_cell_formula_units_Z 64
_cell_length_a 11.847438
_cell_length_b 28.258818
_cell_length_c 16.502996
_cell_angle_alpha 90.000000
_cell_angle_beta 144.787851
_cell_angle_gamma 90.000000
_cell_volume 3185.811424
_symmetry_space_group_name_H-M "C 2/C"
_symmetry_group_IT_number 15
_symmetry_cell_setting 'monoclinic'
loop_
_space_group_symop_operation_xyz
x,y,z
-x,y,1/2-z
-x,-y,-z
x,-y,1/2+z
1/2+x,1/2+y,z
1/2-x,1/2+y,1/2-z
1/2-x,1/2-y,-z
1/2+x,1/2-y,1/2+z
loop_
_atom_site_type_symbol
_atom_site_label
_atom_site_fract_x
_atom_site_fract_y
_atom_site_fract_z
Si Si1 0.565461 0.144802 0.914869
Si Si2 0.678437 0.772560 0.298039
Si Si3 0.721155 0.171289 0.171891
Si Si4 0.415390 0.651944 0.011803
Si Si5 0.429721 0.098859 0.065092
Si Si6 0.307255 0.938196 0.325150
Si Si7 0.581623 0.415037 0.472928
Si Si8 0.158409 0.479059 0.780185
O O1 0.409706 0.187214 0.812254
O O2 0.447629 0.097467 0.860808
O O3 0.715337 0.160328 0.073254
O O4 0.704213 0.133204 0.919632
O O5 0.500000 0.754455 0.250000
O O6 0.767440 0.727455 0.303135
O O7 0.865326 0.794027 0.456264
O O8 0.521141 0.148972 0.091197
O O9 0.916036 0.147987 0.322403
O O10 0.482761 0.621085 0.976299
O O11 0.254160 0.109947 0.023746
O O12 0.594987 0.072296 0.212051
O O13 0.366371 0.063530 0.954402
O O14 0.321048 0.988277 0.286678
O O15 0.080243 0.925545 0.189421
O O16 0.644797 0.464614 0.554323
O O17 0.000000 0.501089 0.750000
#
# Coordination Sequence:
#
# PCOD8137546 Si02
#       8
#     8   8   8   8   8   8   8   8
#     4  10  22  36  58  93 121 155 192 253 306 351
#     4  10  20  36  59  90 122 155 199 248 305 355
#     4  11  21  37  60  84 122 162 196 243 301 356
#     4  11  21  36  62  86 123 154 199 244 302 358
#     4  10  23  42  59  86 120 162 198 243 294 351
#     4  11  22  39  65  85 122 152 201 248 296 349
#     4  11  22  40  62  85 117 163 201 237 297 352
#     4  10  22  39  64  90 117 152 200 246 298 357
#
# _framework density 20.089074
#
# number of rings (size 3 to 8) (size 9 to 14) (size 15 to 20)
#    0.000    1.500    2.500    3.000    1.750    2.000 
#    0.000    0.625    2.750    1.500    0.000    0.000 
#    0.000    0.000    0.000    0.000    0.000    0.000 
#
# Total GULP energy -396568.530733 kJ/mol
# GULP energy per Si atom -12392.766585 kJ/mol
# Density = 2.004335 g / cm^3
# Si number density = 20.089074 Si / 1000 Ang^3
#
#
#
# Elastic Constant Matrix: (Units=GPa)
#
#
# Indices 1 2 3 4 5 6 
#
# 1 97.3334 42.8544 22.3857 0.0000 7.2594 0.0000
# 2 42.8544 72.7167 18.6877 0.0000 12.5589 0.0000
# 3 22.3857 18.6877 102.4114 0.0000 0.7642 0.0000
# 4 0.0000 0.0000 0.0000 22.5496 0.0000 -1.5750
# 5 7.2594 12.5589 0.7642 0.0000 28.1026 0.0000
# 6 0.0000 0.0000 0.0000 -1.5750 0.0000 27.2321
#
#
#
# Elastic Compliance Matrix: (Units=1/GPa)
#
#
# Indices 1 2 3 4 5 6 
#
# 1 0.014134 -0.007892 -0.001649 0.000000 -0.000079 0.000000
# 2 -0.007892 0.020077 -0.001887 0.000000 -0.006882 0.000000
# 3 -0.001649 -0.001887 0.010462 0.000000 0.000985 0.000000
# 4 0.000000 0.000000 0.000000 0.044527 0.000000 0.002575
# 5 -0.000079 -0.006882 0.000985 0.000000 0.038653 0.000000
# 6 0.000000 0.000000 0.000000 0.002575 0.000000 0.036870
#
#
# Mechanical properties :
#
#
# Convention : Reuss Voigt Hill
#
# Bulk Modulus (GPa) = 45.83672 48.92412 47.38042
# Shear Modulus (GPa) = 25.66067 28.14577 26.90322
#
# Velocity S-wave (km/s) = 3.57787 3.74712 3.66347
# Velocity P-wave (km/s) = 6.31938 6.56717 6.44446
#
# Compressibility (1/GPa) = 0.02181657
#
# Stress axis : x y z
#
# Youngs Moduli (GPa) = 70.75206 49.80896 95.58466
#
# Poissons Ratio (x) = 0.39310 0.15759
# Poissons Ratio (y) = 0.55839 0.18037
# Poissons Ratio (z) = 0.11665 0.09399
#
# Static dielectric constant tensor:
#      x y z
#    x 3.551820 0.000000 -0.097730 
#    y 0.000000 3.444540 0.000000 
#    z -0.097730 0.000000 4.000710 
# 
# 
# High freq. dielectric constant tensor:
#      x y z
#    x 1.772090 0.000000 -0.007210 
#    y 0.000000 1.765970 0.000000 
#    z -0.007210 0.000000 1.810110 
# 
# From -- ./inp_files/52806.got.cif
#   From: 2010.06.25/outbox.cif.g09.slc.cpg/sg15_27_cif.got.tgz:52806.got - 2010.06.28 07:06:18.
