data_PCOD8137906
_publ_section_title
;
Structure prediction by ZEFSAII (Michael W. Deem and Ramdas Pophale) SiO2 
 PCOD8137906
Probable space group: C 2/C
;
_chemical_formula_sum "Si O2"
_cell_formula_units_Z 60
_cell_length_a 12.112646
_cell_length_b 28.015465
_cell_length_c 11.945038
_cell_angle_alpha 90.000000
_cell_angle_beta 133.649780
_cell_angle_gamma 90.000000
_cell_volume 2932.961798
_symmetry_space_group_name_H-M "C 2/C"
_symmetry_group_IT_number 15
_symmetry_cell_setting 'monoclinic'
loop_
_space_group_symop_operation_xyz
x,y,z
-x,y,1/2-z
-x,-y,-z
x,-y,1/2+z
1/2+x,1/2+y,z
1/2-x,1/2+y,1/2-z
1/2-x,1/2-y,-z
1/2+x,1/2-y,1/2+z
loop_
_atom_site_type_symbol
_atom_site_label
_atom_site_fract_x
_atom_site_fract_y
_atom_site_fract_z
Si Si1 0.511662 0.382341 0.879728
Si Si2 0.355740 0.281643 0.494718
Si Si3 0.185318 0.742387 0.676548
Si Si4 0.500000 0.094982 0.250000
Si Si5 0.268222 0.840899 0.705029
Si Si6 0.829886 0.180035 0.606053
Si Si7 0.045714 0.047942 0.594890
Si Si8 0.781560 0.926644 0.080297
O O1 0.500000 0.408188 0.750000
O O2 0.601868 0.332831 0.922906
O O3 0.338167 0.375260 0.797440
O O4 0.594190 0.415341 0.030540
O O5 0.250000 0.250000 0.500000
O O6 0.256832 0.294589 0.315626
O O7 0.508956 0.252492 0.574665
O O8 0.290610 0.789599 0.778772
O O9 0.211354 0.718939 0.572610
O O10 0.580016 0.130134 0.216970
O O11 0.617230 0.062885 0.405707
O O12 0.178709 0.822789 0.532644
O O13 0.790960 0.127888 0.629217
O O14 0.000000 0.197077 0.750000
O O15 0.184307 0.041599 0.783822
O O16 0.903274 0.066634 0.566678
O O17 0.000000 0.000000 0.500000
#
# Coordination Sequence:
#
# PCOD8137906 Si02
#       8
#     8   8   8   4   8   8   8   8
#     4  11  22  42  64  89 127 172 221 265 320 396
#     4  11  23  41  56  83 126 181 219 266 312 383
#     4  11  23  32  57  87 121 168 226 261 317 372
#     4  10  20  36  66  88 140 168 194 258 354 388
#     4  10  21  35  53  93 124 169 208 258 322 381
#     4  11  18  34  57  86 130 156 204 272 328 373
#     4  11  22  41  69  99 121 164 220 271 331 395
#     4  10  21  41  64  97 132 158 210 269 337 388
#
# _framework density 20.457135999999998
#
# number of rings (size 3 to 8) (size 9 to 14) (size 15 to 20)
#    0.000    1.333    4.000    4.800    6.533    0.000 
#    0.000    0.667    0.000    0.000    0.000    0.000 
#    0.000    0.000    0.000    0.000    0.000    0.000 
#
# Total GULP energy -371735.320765 kJ/mol
# GULP energy per Si atom -12391.177359 kJ/mol
# Density = 2.041057 g / cm^3
# Si number density = 20.457136 Si / 1000 Ang^3
#
#
#
# Elastic Constant Matrix: (Units=GPa)
#
#
# Indices 1 2 3 4 5 6 
#
# 1 102.3716 30.4365 52.4923 0.0000 -7.5072 0.0000
# 2 30.4365 71.9586 27.8787 0.0000 -0.5569 0.0000
# 3 52.4923 27.8787 145.0225 0.0000 -3.5033 0.0000
# 4 0.0000 0.0000 0.0000 26.6623 0.0000 -7.8001
# 5 -7.5072 -0.5569 -3.5033 0.0000 36.3070 0.0000
# 6 0.0000 0.0000 0.0000 -7.8001 0.0000 12.8934
#
#
#
# Elastic Compliance Matrix: (Units=1/GPa)
#
#
# Indices 1 2 3 4 5 6 
#
# 1 0.013146 -0.004020 -0.003931 0.000000 0.002277 0.000000
# 2 -0.004020 0.016245 -0.001686 0.000000 -0.000745 0.000000
# 3 -0.003931 -0.001686 0.008642 0.000000 -0.000005 0.000000
# 4 0.000000 0.000000 0.000000 0.045572 0.000000 0.027569
# 5 0.002277 -0.000745 -0.000005 0.000000 0.028002 0.000000
# 6 0.000000 0.000000 0.000000 0.027569 0.000000 0.094238
#
#
# Mechanical properties :
#
#
# Convention : Reuss Voigt Hill
#
# Bulk Modulus (GPa) = 53.30431 60.10753 56.70592
# Shear Modulus (GPa) = 21.61043 29.07555 25.34299
#
# Velocity S-wave (km/s) = 3.25372 3.77409 3.52353
# Velocity P-wave (km/s) = 6.34261 6.95972 6.65832
#
# Compressibility (1/GPa) = 0.01876021
#
# Stress axis : x y z
#
# Youngs Moduli (GPa) = 76.06916 61.55913 115.71239
#
# Poissons Ratio (x) = 0.24746 0.45481
# Poissons Ratio (y) = 0.30579 0.19506
# Poissons Ratio (z) = 0.29899 0.10377
#
# Static dielectric constant tensor:
#      x y z
#    x 3.656390 0.000000 -0.194540 
#    y 0.000000 3.641130 0.000000 
#    z -0.194540 0.000000 3.957530 
# 
# 
# High freq. dielectric constant tensor:
#      x y z
#    x 1.791810 0.000000 -0.015020 
#    y 0.000000 1.772800 0.000000 
#    z -0.015020 0.000000 1.807110 
# 
# From -- ./inp_files/92612.got.cif
#   From: 2010.06.25/outbox.cif.g09.slc.cpg/sg15_47_cif.got.tgz:92612.got - 2010.06.28 07:06:18.
