data_PCOD8137940
_publ_section_title
;
Structure prediction by ZEFSAII (Michael W. Deem and Ramdas Pophale) SiO2 
 PCOD8137940
Probable space group: C 2/C
;
_chemical_formula_sum "Si O2"
_cell_formula_units_Z 60
_cell_length_a 28.239621
_cell_length_b 9.678103
_cell_length_c 10.919181
_cell_angle_alpha 90.000000
_cell_angle_beta 77.424397
_cell_angle_gamma 90.000000
_cell_volume 2912.683131
_symmetry_space_group_name_H-M "C 2/C"
_symmetry_group_IT_number 15
_symmetry_cell_setting 'monoclinic'
loop_
_space_group_symop_operation_xyz
x,y,z
-x,y,1/2-z
-x,-y,-z
x,-y,1/2+z
1/2+x,1/2+y,z
1/2-x,1/2+y,1/2-z
1/2-x,1/2-y,-z
1/2+x,1/2-y,1/2+z
loop_
_atom_site_type_symbol
_atom_site_label
_atom_site_fract_x
_atom_site_fract_y
_atom_site_fract_z
Si Si1 0.356878 0.500212 0.995793
Si Si2 0.500000 0.863672 0.250000
Si Si3 0.154349 0.530922 0.638075
Si Si4 0.071315 0.495568 0.879037
Si Si5 0.796294 0.014360 0.280938
Si Si6 0.084738 0.733678 0.549412
Si Si7 0.779757 0.690081 0.745499
Si Si8 0.367144 0.803638 0.021303
O O1 0.324592 0.489692 0.136852
O O2 0.381407 0.650937 0.967850
O O3 0.328583 0.473508 0.884587
O O4 0.400391 0.390611 0.985772
O O5 0.479003 0.964085 0.156891
O O6 0.457109 0.766258 0.323783
O O7 0.117093 0.488999 0.764554
O O8 0.132221 0.650883 0.565729
O O9 0.207370 0.584906 0.650719
O O10 0.163920 0.389138 0.560338
O O11 0.083724 0.611859 0.975105
O O12 0.064096 0.343684 0.940904
O O13 0.760672 0.882307 0.316236
O O14 0.763830 0.155466 0.294414
O O15 0.832351 0.714814 0.656551
#
# Coordination Sequence:
#
# PCOD8137940 Si02
#       8
#     8   4   8   8   8   8   8   8
#     4  11  25  42  62  90 127 169 208 260 315 373
#     4  10  20  36  68  92 126 150 204 266 316 372
#     4   9  18  36  60  85 121 163 205 252 303 367
#     4   9  19  36  62  95 117 161 199 257 307 379
#     4  11  26  40  62  90 127 168 214 265 309 370
#     4  10  20  39  63  88 122 160 207 250 321 371
#     4  10  22  38  56  89 126 161 213 259 311 353
#     4   9  21  37  60  84 126 165 206 248 315 366
#
# _framework density 20.599561999999999
#
# number of rings (size 3 to 8) (size 9 to 14) (size 15 to 20)
#    0.000    2.133    1.333    0.400    7.467    3.733 
#    0.000    0.667    0.000    4.000    0.000    0.000 
#    0.000    0.000    0.000    0.000    0.000    0.000 
#
# Total GULP energy -371853.636661 kJ/mol
# GULP energy per Si atom -12395.121222 kJ/mol
# Density = 2.055268 g / cm^3
# Si number density = 20.599562 Si / 1000 Ang^3
#
#
#
# Elastic Constant Matrix: (Units=GPa)
#
#
# Indices 1 2 3 4 5 6 
#
# 1 79.4123 49.1051 19.7382 0.0000 13.4941 0.0000
# 2 49.1051 178.2520 35.3141 0.0000 12.8596 0.0000
# 3 19.7382 35.3141 70.9065 0.0000 17.8633 0.0000
# 4 0.0000 0.0000 0.0000 23.1598 0.0000 -2.6571
# 5 13.4941 12.8596 17.8633 0.0000 22.8341 0.0000
# 6 0.0000 0.0000 0.0000 -2.6571 0.0000 20.7634
#
#
#
# Elastic Compliance Matrix: (Units=1/GPa)
#
#
# Indices 1 2 3 4 5 6 
#
# 1 0.016343 -0.003828 -0.000938 0.000000 -0.006769 0.000000
# 2 -0.003828 0.007154 -0.002556 0.000000 0.000233 0.000000
# 3 -0.000938 -0.002556 0.018850 0.000000 -0.012753 0.000000
# 4 0.000000 0.000000 0.000000 0.043822 0.000000 0.005608
# 5 -0.006769 0.000233 -0.012753 0.000000 0.057639 0.000000
# 6 0.000000 0.000000 0.000000 0.005608 0.000000 0.048879
#
#
# Mechanical properties :
#
#
# Convention : Reuss Voigt Hill
#
# Bulk Modulus (GPa) = 36.09676 59.65397 47.87537
# Shear Modulus (GPa) = 23.08771 28.31236 25.70003
#
# Velocity S-wave (km/s) = 3.35145 3.71133 3.53597
# Velocity P-wave (km/s) = 5.70415 6.88382 6.32157
#
# Compressibility (1/GPa) = 0.02770332
#
# Stress axis : x y z
#
# Youngs Moduli (GPa) = 61.18893 139.77806 53.05066
#
# Poissons Ratio (x) = 0.53508 0.04974
# Poissons Ratio (y) = 0.23424 0.13560
# Poissons Ratio (z) = 0.05737 0.35729
#
# Static dielectric constant tensor:
#      x y z
#    x 3.479100 0.000000 0.259230 
#    y 0.000000 3.908590 0.000000 
#    z 0.259230 0.000000 3.768370 
# 
# 
# High freq. dielectric constant tensor:
#      x y z
#    x 1.783430 0.000000 0.015600 
#    y 0.000000 1.808060 0.000000 
#    z 0.015600 0.000000 1.803610 
# 
# From -- ./inp_files/121956.got.cif
#   From: 2010.06.25/outbox.cif.g09.slc.cpg/sg15_61_cif.got.tgz:121956.got - 2010.06.28 07:06:18.
