data_PCOD8137144
_publ_section_title
;
Structure prediction by ZEFSAII (Michael W. Deem and Ramdas Pophale) SiO2 
 PCOD8137144
Probable space group: C 2/C
;
_chemical_formula_sum "Si O2"
_cell_formula_units_Z 64
_cell_length_a 25.535645
_cell_length_b 10.302383
_cell_length_c 21.408125
_cell_angle_alpha 90.000000
_cell_angle_beta 147.293147
_cell_angle_gamma 90.000000
_cell_volume 3043.203896
_symmetry_space_group_name_H-M "C 2/C"
_symmetry_group_IT_number 15
_symmetry_cell_setting 'monoclinic'
loop_
_space_group_symop_operation_xyz
x,y,z
-x,y,1/2-z
-x,-y,-z
x,-y,1/2+z
1/2+x,1/2+y,z
1/2-x,1/2+y,1/2-z
1/2-x,1/2-y,-z
1/2+x,1/2-y,1/2+z
loop_
_atom_site_type_symbol
_atom_site_label
_atom_site_fract_x
_atom_site_fract_y
_atom_site_fract_z
Si Si1 0.320654 0.801795 0.944501
Si Si2 0.869111 0.766334 0.812037
Si Si3 0.922892 0.919839 0.621969
Si Si4 0.069641 0.633257 0.372608
Si Si5 0.231908 0.988613 0.439421
Si Si6 0.534975 0.231317 0.466062
Si Si7 0.005491 0.542617 0.907095
Si Si8 0.428086 0.460783 0.314402
O O1 0.242969 0.746285 0.817388
O O2 0.265936 0.873117 0.946379
O O3 0.387889 0.691906 0.040913
O O4 0.388924 0.896189 0.971877
O O5 0.909591 0.905295 0.831714
O O6 0.922568 0.648347 0.830825
O O7 0.882762 0.758109 0.900110
O O8 0.000000 0.863099 0.750000
O O9 0.978791 0.025680 0.636921
O O10 0.830003 0.987749 0.560392
O O11 0.176148 0.601960 0.452013
O O12 0.082550 0.730806 0.444417
O O13 0.014128 0.503623 0.342761
O O14 0.000000 0.696054 0.250000
O O15 0.165504 0.919809 0.320115
O O16 0.452007 0.342766 0.386047
O O17 0.489109 0.087054 0.433590
#
# Coordination Sequence:
#
# PCOD8137144 Si02
#       8
#     8   8   8   8   8   8   8   8
#     4  10  20  37  60  95 124 157 207 261 311 370
#     4  11  21  41  67  91 122 160 215 261 310 364
#     4  10  20  35  61  95 125 165 208 259 309 368
#     4   9  21  39  63  89 129 165 203 251 312 376
#     4   9  20  37  60  90 127 161 202 259 312 362
#     4  10  23  42  62  87 123 170 202 252 318 366
#     4   9  21  41  62  89 128 160 206 256 309 361
#     4  10  21  41  62  92 123 161 210 259 312 371
#
# _framework density 21.030467000000002
#
# number of rings (size 3 to 8) (size 9 to 14) (size 15 to 20)
#    0.750    1.500    1.250    1.125    1.750    3.500 
#    4.500    3.750    0.000    0.000    0.000    0.000 
#    0.000    0.000    0.000    0.000    0.000    0.000 
#
# Total GULP energy -396540.410568 kJ/mol
# GULP energy per Si atom -12391.887830 kJ/mol
# Density = 2.098260 g / cm^3
# Si number density = 21.030467 Si / 1000 Ang^3
#
#
#
# Elastic Constant Matrix: (Units=GPa)
#
#
# Indices 1 2 3 4 5 6 
#
# 1 61.7585 24.2628 44.9640 0.0000 -1.2316 0.0000
# 2 24.2628 107.0422 50.8461 0.0000 2.8803 0.0000
# 3 44.9640 50.8461 136.4509 0.0000 -6.0111 0.0000
# 4 0.0000 0.0000 0.0000 16.4194 0.0000 -1.3460
# 5 -1.2316 2.8803 -6.0111 0.0000 30.7284 0.0000
# 6 0.0000 0.0000 0.0000 -1.3460 0.0000 14.5951
#
#
#
# Elastic Compliance Matrix: (Units=1/GPa)
#
#
# Indices 1 2 3 4 5 6 
#
# 1 0.021599 -0.001828 -0.006446 0.000000 -0.000224 0.000000
# 2 -0.001828 0.011618 -0.003811 0.000000 -0.001908 0.000000
# 3 -0.006446 -0.003811 0.010972 0.000000 0.002245 0.000000
# 4 0.000000 0.000000 0.000000 0.061367 0.000000 0.005660
# 5 -0.000224 -0.001908 0.002245 0.000000 0.033152 0.000000
# 6 0.000000 0.000000 0.000000 0.005660 0.000000 0.069038
#
#
# Mechanical properties :
#
#
# Convention : Reuss Voigt Hill
#
# Bulk Modulus (GPa) = 49.95272 60.59969 55.27621
# Shear Modulus (GPa) = 20.95652 24.69384 22.82518
#
# Velocity S-wave (km/s) = 3.16014 3.43037 3.29802
# Velocity P-wave (km/s) = 6.09257 6.67590 6.39089
#
# Compressibility (1/GPa) = 0.02001893
#
# Stress axis : x y z
#
# Youngs Moduli (GPa) = 46.29863 86.07338 91.14247
#
# Poissons Ratio (x) = 0.15732 0.58752
# Poissons Ratio (y) = 0.08462 0.34734
# Poissons Ratio (z) = 0.29845 0.32803
#
# Static dielectric constant tensor:
#      x y z
#    x 3.607650 0.000000 0.056150 
#    y 0.000000 3.709640 0.000000 
#    z 0.056150 0.000000 3.757410 
# 
# 
# High freq. dielectric constant tensor:
#      x y z
#    x 1.806910 0.000000 0.001300 
#    y 0.000000 1.818810 0.000000 
#    z 0.001300 0.000000 1.820140 
# 
# From -- ./inp_files/257527.got.cif
#   From: 2010.06.25/outbox.cif.g09.slc.cpg/sg15_129_cif.got.tgz:257527.got - 2010.06.28 07:06:18.
