data_PCOD8137017
_publ_section_title
;
Structure prediction by ZEFSAII (Michael W. Deem and Ramdas Pophale) SiO2 
 PCOD8137017
Probable space group: C 2/C
;
_chemical_formula_sum "Si O2"
_cell_formula_units_Z 40
_cell_length_a 4.963345
_cell_length_b 26.123687
_cell_length_c 15.605076
_cell_angle_alpha 90.000000
_cell_angle_beta 76.049401
_cell_angle_gamma 90.000000
_cell_volume 1963.686400
_symmetry_space_group_name_H-M "C 2/C"
_symmetry_group_IT_number 15
_symmetry_cell_setting 'monoclinic'
loop_
_space_group_symop_operation_xyz
x,y,z
-x,y,1/2-z
-x,-y,-z
x,-y,1/2+z
1/2+x,1/2+y,z
1/2-x,1/2+y,1/2-z
1/2-x,1/2-y,-z
1/2+x,1/2-y,1/2+z
loop_
_atom_site_type_symbol
_atom_site_label
_atom_site_fract_x
_atom_site_fract_y
_atom_site_fract_z
Si Si1 0.189089 0.712148 0.308279
Si Si2 0.985662 0.816676 0.397929
Si Si3 0.119614 0.659539 0.490837
Si Si4 0.575665 0.425700 0.338837
Si Si5 0.007461 0.550976 0.554169
O O1 0.500000 0.717946 0.250000
O O2 0.156848 0.674409 0.390197
O O3 0.000000 0.686355 0.250000
O O4 0.053772 0.766990 0.338178
O O5 0.658606 0.821178 0.440678
O O6 0.129694 0.812807 0.479349
O O7 0.118547 0.864318 0.334654
O O8 0.154321 0.597874 0.493098
O O9 0.500000 0.446657 0.250000
O O10 0.842742 0.453602 0.363021
O O11 0.313990 0.436312 0.417458
O O12 0.000000 0.500000 0.500000
#
# Coordination Sequence:
#
# PCOD8137017 Si02
#       5
#     8   8   8   8   8
#     4  12  23  35  54  83 115 146 180 223 270 326
#     4  10  20  36  58  80 109 146 182 223 275 331
#     4  10  21  38  57  78 109 149 187 222 269 333
#     4  10  20  35  58  87 110 134 181 240 280 312
#     4  10  21  38  59  80 110 149 186 224 275 334
#
# _framework density 20.369851000000001
#
# number of rings (size 3 to 8) (size 9 to 14) (size 15 to 20)
#    0.000    1.600    0.000    5.400    0.000    3.200 
#    0.000    3.000    0.000    0.000    0.000    0.000 
#    0.000    0.000    0.000    0.000    0.000    0.000 
#
# Total GULP energy -247935.078404 kJ/mol
# GULP energy per Si atom -12396.753920 kJ/mol
# Density = 2.032349 g / cm^3
# Si number density = 20.369851 Si / 1000 Ang^3
#
#
#
# Elastic Constant Matrix: (Units=GPa)
#
#
# Indices 1 2 3 4 5 6 
#
# 1 98.6011 22.6730 19.6049 0.0000 16.4774 0.0000
# 2 22.6730 77.0680 40.5696 0.0000 6.5708 0.0000
# 3 19.6049 40.5696 92.8006 0.0000 18.6391 0.0000
# 4 0.0000 0.0000 0.0000 15.2377 0.0000 8.6397
# 5 16.4774 6.5708 18.6391 0.0000 44.0331 0.0000
# 6 0.0000 0.0000 0.0000 8.6397 0.0000 20.9834
#
#
#
# Elastic Compliance Matrix: (Units=1/GPa)
#
#
# Indices 1 2 3 4 5 6 
#
# 1 0.011499 -0.002831 -0.000450 0.000000 -0.003690 0.000000
# 2 -0.002831 0.017569 -0.007398 0.000000 0.001569 0.000000
# 3 -0.000450 -0.007398 0.015136 0.000000 -0.005135 0.000000
# 4 0.000000 0.000000 0.000000 0.085614 0.000000 -0.035250
# 5 -0.003690 0.001569 -0.005135 0.000000 0.026030 0.000000
# 6 0.000000 0.000000 0.000000 -0.035250 0.000000 0.062171
#
#
# Mechanical properties :
#
#
# Convention : Reuss Voigt Hill
#
# Bulk Modulus (GPa) = 43.77203 48.24052 46.00628
# Shear Modulus (GPa) = 20.24352 28.42568 24.33460
#
# Velocity S-wave (km/s) = 3.15588 3.73966 3.46010
# Velocity P-wave (km/s) = 5.90040 6.51003 6.21270
#
# Compressibility (1/GPa) = 0.02284564
#
# Stress axis : x y z
#
# Youngs Moduli (GPa) = 86.96341 56.91874 66.06649
#
# Poissons Ratio (x) = 0.16115 0.02976
# Poissons Ratio (y) = 0.24622 0.48874
# Poissons Ratio (z) = 0.03917 0.42106
#
# Static dielectric constant tensor:
#      x y z
#    x 4.066260 0.000000 0.169060 
#    y 0.000000 3.715610 0.000000 
#    z 0.169060 0.000000 3.563710 
# 
# 
# High freq. dielectric constant tensor:
#      x y z
#    x 1.821190 0.000000 0.011480 
#    y 0.000000 1.773040 0.000000 
#    z 0.011480 0.000000 1.789350 
# 
# From -- ./inp_files/73075.got.cif
#   From: 2010.06.25/outbox.cif.g09.slc.cpg/sg15_37_cif.got.tgz:73075.got - 2010.06.28 07:06:18.
