data_PCOD8137878
_publ_section_title
;
Structure prediction by ZEFSAII (Michael W. Deem and Ramdas Pophale) SiO2 
 PCOD8137878
Probable space group: C 2/C
;
_chemical_formula_sum "Si O2"
_cell_formula_units_Z 52
_cell_length_a 7.809014
_cell_length_b 17.099293
_cell_length_c 24.183885
_cell_angle_alpha 90.000000
_cell_angle_beta 132.366980
_cell_angle_gamma 90.000000
_cell_volume 2385.904585
_symmetry_space_group_name_H-M "C 2/C"
_symmetry_group_IT_number 15
_symmetry_cell_setting 'monoclinic'
loop_
_space_group_symop_operation_xyz
x,y,z
-x,y,1/2-z
-x,-y,-z
x,-y,1/2+z
1/2+x,1/2+y,z
1/2-x,1/2+y,1/2-z
1/2-x,1/2-y,-z
1/2+x,1/2-y,1/2+z
loop_
_atom_site_type_symbol
_atom_site_label
_atom_site_fract_x
_atom_site_fract_y
_atom_site_fract_z
Si Si1 0.701416 0.242599 0.425811
Si Si2 0.500000 0.920394 0.750000
Si Si3 0.568832 0.383296 0.009082
Si Si4 0.743467 0.841544 0.704518
Si Si5 0.004474 0.379446 0.458897
Si Si6 0.905549 0.992815 0.391408
Si Si7 0.787266 0.462900 0.894688
O O1 0.750000 0.250000 0.500000
O O2 0.434068 0.225384 0.354361
O O3 0.785650 0.320965 0.413004
O O4 0.851771 0.167539 0.441883
O O5 0.675933 0.865063 0.752917
O O6 0.353097 0.975516 0.676415
O O7 0.590690 0.405268 0.079739
O O8 0.803813 0.340032 0.039695
O O9 0.551624 0.460216 0.968321
O O10 0.744680 0.921958 0.670634
O O11 0.000000 0.805079 0.750000
O O12 0.951282 0.463277 0.419913
O O13 0.097939 0.396630 0.541123
O O14 0.048487 0.999295 0.365627
#
# Coordination Sequence:
#
# PCOD8137878 Si02
#       7
#     8   4   8   8   8   8   8
#     4  12  23  40  67  97 132 174 228 284 342 408
#     4  12  22  40  66  96 134 178 226 276 350 416
#     4  10  21  37  62  99 133 165 225 277 335 397
#     4  12  25  43  67  98 136 181 228 282 349 420
#     4  10  21  37  67  98 130 167 220 284 336 393
#     4  10  20  36  64  97 131 170 220 283 330 401
#     4  10  20  39  66  97 127 169 222 277 335 400
#
# _framework density 21.794667
#
# number of rings (size 3 to 8) (size 9 to 14) (size 15 to 20)
#    0.000    1.231    4.615    2.308    4.308    0.000 
#    2.769    0.000    8.462    0.000    0.000    0.000 
#    0.000    0.000    0.000    0.000    0.000    0.000 
#
# Total GULP energy -322224.604467 kJ/mol
# GULP energy per Si atom -12393.254018 kJ/mol
# Density = 2.174506 g / cm^3
# Si number density = 21.794667 Si / 1000 Ang^3
#
#
#
# Elastic Constant Matrix: (Units=GPa)
#
#
# Indices 1 2 3 4 5 6 
#
# 1 130.9649 36.7636 44.5069 0.0001 18.4822 0.0000
# 2 36.7636 69.8427 32.1390 0.0000 8.1954 0.0000
# 3 44.5069 32.1390 93.3385 0.0002 22.5154 0.0001
# 4 0.0001 0.0000 0.0002 32.8575 0.0001 6.4591
# 5 18.4822 8.1954 22.5154 0.0001 42.5491 0.0001
# 6 0.0000 0.0000 0.0001 6.4591 0.0001 30.4225
#
#
#
# Elastic Compliance Matrix: (Units=1/GPa)
#
#
# Indices 1 2 3 4 5 6 
#
# 1 0.009963 -0.003619 -0.003013 0.000000 -0.002036 0.000000
# 2 -0.003619 0.018329 -0.004715 0.000000 0.000537 0.000000
# 3 -0.003013 -0.004715 0.015177 0.000000 -0.005814 0.000000
# 4 0.000000 0.000000 0.000000 0.031760 0.000000 -0.006743
# 5 -0.002036 0.000537 -0.005814 0.000000 0.027360 0.000000
# 6 0.000000 0.000000 0.000000 -0.006743 0.000000 0.034302
#
#
# Mechanical properties :
#
#
# Convention : Reuss Voigt Hill
#
# Bulk Modulus (GPa) = 48.13674 57.88502 53.01088
# Shear Modulus (GPa) = 30.02818 33.21493 31.62156
#
# Velocity S-wave (km/s) = 3.71587 3.90807 3.81318
# Velocity P-wave (km/s) = 6.36747 6.85426 6.61535
#
# Compressibility (1/GPa) = 0.02077415
#
# Stress axis : x y z
#
# Youngs Moduli (GPa) = 100.37278 54.55689 65.89078
#
# Poissons Ratio (x) = 0.19742 0.19856
# Poissons Ratio (y) = 0.36321 0.31069
# Poissons Ratio (z) = 0.30247 0.25725
#
# Static dielectric constant tensor:
#      x y z
#    x 4.296540 0.000000 0.105050 
#    y 0.000000 3.676580 0.000000 
#    z 0.105050 0.000000 3.671250 
# 
# 
# High freq. dielectric constant tensor:
#      x y z
#    x 1.878900 0.000000 0.011810 
#    y 0.000000 1.832170 0.000000 
#    z 0.011810 0.000000 1.829910 
# 
# From -- ./inp_files/289624.got.cif
#   From: 2010.06.25/outbox.cif.g09.slc.cpg/sg15_145_cif.got.tgz:289624.got - 2010.06.28 07:06:18.
