data_PCOD8137377
_publ_section_title
;
Structure prediction by ZEFSAII (Michael W. Deem and Ramdas Pophale) SiO2 
 PCOD8137377
Probable space group: C 2/C
;
_chemical_formula_sum "Si O2"
_cell_formula_units_Z 48
_cell_length_a 28.973870
_cell_length_b 9.456090
_cell_length_c 8.038146
_cell_angle_alpha 90.000000
_cell_angle_beta 89.187969
_cell_angle_gamma 90.000000
_cell_volume 2202.066226
_symmetry_space_group_name_H-M "C 2/C"
_symmetry_group_IT_number 15
_symmetry_cell_setting 'monoclinic'
loop_
_space_group_symop_operation_xyz
x,y,z
-x,y,1/2-z
-x,-y,-z
x,-y,1/2+z
1/2+x,1/2+y,z
1/2-x,1/2+y,1/2-z
1/2-x,1/2-y,-z
1/2+x,1/2-y,1/2+z
loop_
_atom_site_type_symbol
_atom_site_label
_atom_site_fract_x
_atom_site_fract_y
_atom_site_fract_z
Si Si1 0.593520 0.637464 0.661893
Si Si2 0.169294 0.660627 0.721725
Si Si3 0.533928 0.580842 0.379774
Si Si4 0.150850 0.638871 0.351413
Si Si5 0.322994 0.420926 0.549306
Si Si6 0.224441 0.162771 0.750841
O O1 0.562692 0.683677 0.501579
O O2 0.567562 0.532062 0.788147
O O3 0.610408 0.779558 0.753486
O O4 0.636884 0.549165 0.586903
O O5 0.144029 0.670890 0.546293
O O6 0.148141 0.528676 0.822519
O O7 0.224108 0.650711 0.685583
O O8 0.159312 0.800440 0.826773
O O9 0.500000 0.662245 0.250000
O O10 0.500000 0.500000 0.500000
O O11 0.202179 0.683053 0.284289
O O12 0.310242 0.562146 0.644916
O O13 0.277848 0.370587 0.446674
#
# Coordination Sequence:
#
# PCOD8137377 Si02
#       6
#     8   8   8   8   8   8
#     4  10  20  36  57  92 124 148 188 233 298 367
#     4  12  23  39  53  80 118 168 218 251 296 346
#     4   9  19  37  64  94 121 144 173 231 296 358
#     4  11  23  36  56  81 117 163 204 256 302 343
#     4  11  22  35  58  84 117 161 201 258 306 340
#     4  11  21  37  56  81 113 160 218 269 298 332
#
# _framework density 21.797709000000001
#
# number of rings (size 3 to 8) (size 9 to 14) (size 15 to 20)
#    0.000    1.333    0.000    8.000    0.000    4.000 
#    0.000    0.000    0.000    0.000    0.000   60.667 
#    0.000    0.000    0.000    0.333    0.000    0.000 
#
# Total GULP energy -297452.614946 kJ/mol
# GULP energy per Si atom -12393.858956 kJ/mol
# Density = 2.174810 g / cm^3
# Si number density = 21.797709 Si / 1000 Ang^3
#
#
#
# Elastic Constant Matrix: (Units=GPa)
#
#
# Indices 1 2 3 4 5 6 
#
# 1 97.4206 23.0868 42.8026 0.0000 7.2868 0.0000
# 2 23.0868 58.2582 11.8959 0.0000 -1.2669 0.0000
# 3 42.8026 11.8959 124.4639 0.0000 24.1217 0.0000
# 4 0.0000 0.0000 0.0000 35.2456 0.0000 8.0314
# 5 7.2868 -1.2669 24.1217 0.0000 51.2876 0.0000
# 6 0.0000 0.0000 0.0000 8.0314 0.0000 18.3866
#
#
#
# Elastic Compliance Matrix: (Units=1/GPa)
#
#
# Indices 1 2 3 4 5 6 
#
# 1 0.013092 -0.004357 -0.004076 0.000000 -0.000051 0.000000
# 2 -0.004357 0.019041 -0.000586 0.000000 0.001365 0.000000
# 3 -0.004076 -0.000586 0.010324 0.000000 -0.004291 0.000000
# 4 0.000000 0.000000 0.000000 0.031508 0.000000 -0.013763
# 5 -0.000051 0.001365 -0.004291 0.000000 0.021557 0.000000
# 6 0.000000 0.000000 0.000000 -0.013763 0.000000 0.060399
#
#
# Mechanical properties :
#
#
# Convention : Reuss Voigt Hill
#
# Bulk Modulus (GPa) = 40.95249 48.41259 44.68254
# Shear Modulus (GPa) = 27.45763 34.47445 30.96604
#
# Velocity S-wave (km/s) = 3.55301 3.98120 3.77319
# Velocity P-wave (km/s) = 5.97162 6.58722 6.28696
#
# Compressibility (1/GPa) = 0.02441854
#
# Stress axis : x y z
#
# Youngs Moduli (GPa) = 76.38311 52.51853 96.86365
#
# Poissons Ratio (x) = 0.22882 0.39482
# Poissons Ratio (y) = 0.33280 0.05677
# Poissons Ratio (z) = 0.31134 0.03078
#
# Static dielectric constant tensor:
#      x y z
#    x 4.522270 0.000000 0.721590 
#    y 0.000000 3.602660 0.000000 
#    z 0.721590 0.000000 4.796570 
# 
# 
# High freq. dielectric constant tensor:
#      x y z
#    x 1.841410 0.000000 0.012580 
#    y 0.000000 1.821590 0.000000 
#    z 0.012580 0.000000 1.893820 
# 
# From -- ./inp_files/68608.got.cif
#   From: 2010.06.25/outbox.cif.g09.slc.cpg/sg15_35_cif.got.tgz:68608.got - 2010.06.28 07:06:18.
