data_PCOD8137359
_publ_section_title
;
Structure prediction by ZEFSAII (Michael W. Deem and Ramdas Pophale) SiO2 
 PCOD8137359
Probable space group: C 2/C
;
_chemical_formula_sum "Si O2"
_cell_formula_units_Z 64
_cell_length_a 21.533287
_cell_length_b 18.987551
_cell_length_c 13.044594
_cell_angle_alpha 90.000000
_cell_angle_beta 34.901201
_cell_angle_gamma 90.000000
_cell_volume 3051.614487
_symmetry_space_group_name_H-M "C 2/C"
_symmetry_group_IT_number 15
_symmetry_cell_setting 'monoclinic'
loop_
_space_group_symop_operation_xyz
x,y,z
-x,y,1/2-z
-x,-y,-z
x,-y,1/2+z
1/2+x,1/2+y,z
1/2-x,1/2+y,1/2-z
1/2-x,1/2-y,-z
1/2+x,1/2-y,1/2+z
loop_
_atom_site_type_symbol
_atom_site_label
_atom_site_fract_x
_atom_site_fract_y
_atom_site_fract_z
Si Si1 0.024584 0.954745 0.599813
Si Si2 0.798350 0.332388 0.547063
Si Si3 0.821122 0.841247 0.196539
Si Si4 0.438636 0.804431 0.536504
Si Si5 0.532337 0.060352 0.373811
Si Si6 0.684802 0.810772 0.194386
Si Si7 0.667536 0.939631 0.499058
Si Si8 0.665922 0.452518 0.789628
O O1 0.073153 0.885491 0.479400
O O2 0.000000 0.938542 0.750000
O O3 0.911389 0.973277 0.699966
O O4 0.106663 0.021668 0.474574
O O5 0.908800 0.333426 0.463514
O O6 0.769391 0.251797 0.568922
O O7 0.814709 0.361210 0.408199
O O8 0.699452 0.370514 0.742156
O O9 0.858996 0.761622 0.171724
O O10 0.730275 0.852491 0.230413
O O11 0.758800 0.876752 0.377918
O O12 0.421486 0.869466 0.635676
O O13 0.563460 0.780756 0.373148
O O14 0.430758 0.082165 0.441826
O O15 0.628875 0.038541 0.165607
O O16 0.500000 0.000000 0.500000
O O17 0.719534 0.009108 0.379627
#
# Coordination Sequence:
#
# PCOD8137359 Si02
#       8
#     8   8   8   8   8   8   8   8
#     4  10  21  37  62  87 121 163 202 248 312 374
#     4  10  21  34  56  88 124 156 204 259 302 362
#     4  10  21  39  62  88 121 166 209 256 318 379
#     4  11  22  36  60  89 119 159 209 258 304 376
#     4  11  24  41  63  91 122 166 211 258 318 387
#     4  10  20  36  57  85 124 164 199 255 316 363
#     4  10  23  42  62  86 127 165 204 258 324 376
#     4  10  21  37  58  89 119 159 202 254 302 370
#
# _framework density 20.972505000000002
#
# number of rings (size 3 to 8) (size 9 to 14) (size 15 to 20)
#    0.000    1.750    1.250    2.625    1.750    5.500 
#    0.000    0.000    0.000    3.000    0.000    0.000 
#    0.000    0.000    0.000    0.000    0.000    0.000 
#
# Total GULP energy -396484.337526 kJ/mol
# GULP energy per Si atom -12390.135548 kJ/mol
# Density = 2.092477 g / cm^3
# Si number density = 20.972505 Si / 1000 Ang^3
#
#
#
# Elastic Constant Matrix: (Units=GPa)
#
#
# Indices 1 2 3 4 5 6 
#
# 1 85.5724 18.5709 26.1263 0.0000 -5.9048 0.0000
# 2 18.5709 79.7990 32.3939 0.0000 10.8883 0.0000
# 3 26.1263 32.3939 104.9805 0.0000 4.4824 0.0000
# 4 0.0000 0.0000 0.0000 25.3197 0.0000 -5.6158
# 5 -5.9048 10.8883 4.4824 0.0000 28.2761 0.0000
# 6 0.0000 0.0000 0.0000 -5.6158 0.0000 30.7876
#
#
#
# Elastic Compliance Matrix: (Units=1/GPa)
#
#
# Indices 1 2 3 4 5 6 
#
# 1 0.013365 -0.002586 -0.002708 0.000000 0.004216 0.000000
# 2 -0.002586 0.015519 -0.003893 0.000000 -0.005899 0.000000
# 3 -0.002708 -0.003893 0.011438 0.000000 -0.000880 0.000000
# 4 0.000000 0.000000 0.000000 0.041160 0.000000 0.007508
# 5 0.004216 -0.005899 -0.000880 0.000000 0.038657 0.000000
# 6 0.000000 0.000000 0.000000 0.007508 0.000000 0.033850
#
#
# Mechanical properties :
#
#
# Convention : Reuss Voigt Hill
#
# Bulk Modulus (GPa) = 45.56409 47.17045 46.36727
# Shear Modulus (GPa) = 27.82730 29.76074 28.79402
#
# Velocity S-wave (km/s) = 3.64654 3.77110 3.70934
# Velocity P-wave (km/s) = 6.28510 6.44220 6.36414
#
# Compressibility (1/GPa) = 0.02194711
#
# Stress axis : x y z
#
# Youngs Moduli (GPa) = 74.82216 64.43884 87.42484
#
# Poissons Ratio (x) = 0.16666 0.23676
# Poissons Ratio (y) = 0.19351 0.34035
# Poissons Ratio (z) = 0.20263 0.25087
#
# Static dielectric constant tensor:
#      x y z
#    x 4.050780 0.000000 0.134710 
#    y 0.000000 3.635800 0.000000 
#    z 0.134710 0.000000 3.909270 
# 
# 
# High freq. dielectric constant tensor:
#      x y z
#    x 1.825160 0.000000 -0.015020 
#    y 0.000000 1.810710 0.000000 
#    z -0.015020 0.000000 1.816440 
# 
# From -- ./inp_files/114239.got.cif
#   From: 2010.06.25/outbox.cif.g09.slc.cpg/sg15_58_cif.got.tgz:114239.got - 2010.06.28 07:06:18.
