data_PCOD8137643
_publ_section_title
;
Structure prediction by ZEFSAII (Michael W. Deem and Ramdas Pophale) SiO2 
 PCOD8137643
Probable space group: C 2/C
;
_chemical_formula_sum "Si O2"
_cell_formula_units_Z 44
_cell_length_a 14.472398
_cell_length_b 15.270628
_cell_length_c 8.948097
_cell_angle_alpha 90.000000
_cell_angle_beta 108.144961
_cell_angle_gamma 90.000000
_cell_volume 1879.212313
_symmetry_space_group_name_H-M "C 2/C"
_symmetry_group_IT_number 15
_symmetry_cell_setting 'monoclinic'
loop_
_space_group_symop_operation_xyz
x,y,z
-x,y,1/2-z
-x,-y,-z
x,-y,1/2+z
1/2+x,1/2+y,z
1/2-x,1/2+y,1/2-z
1/2-x,1/2-y,-z
1/2+x,1/2-y,1/2+z
loop_
_atom_site_type_symbol
_atom_site_label
_atom_site_fract_x
_atom_site_fract_y
_atom_site_fract_z
Si Si1 0.167760 0.931488 0.954410
Si Si2 0.591900 0.374313 0.402234
Si Si3 0.133719 0.471744 0.570957
Si Si4 0.410362 0.285295 0.783078
Si Si5 0.734463 0.140466 0.708779
Si Si6 0.500000 0.012723 0.250000
O O1 0.099290 0.860242 0.847321
O O2 0.111594 0.022917 0.936168
O O3 0.261522 0.929166 0.892143
O O4 0.199798 0.910138 0.137840
O O5 0.500000 0.359607 0.250000
O O6 0.566925 0.326562 0.544279
O O7 0.690161 0.331459 0.383299
O O8 0.149495 0.576577 0.603330
O O9 0.068073 0.454054 0.391826
O O10 0.074239 0.431152 0.682834
O O11 0.500000 0.232186 0.750000
O O12 0.315252 0.225056 0.744061
#
# Coordination Sequence:
#
# PCOD8137643 Si02
#       6
#     8   8   8   8   8   4
#     4  11  23  43  71  96 130 177 225 278 326 392
#     4  11  24  46  71 100 133 176 230 274 329 397
#     4  10  21  38  64  94 131 170 225 271 323 389
#     4  12  27  43  68 100 134 177 220 275 342 397
#     4  11  24  43  66  98 139 173 214 279 335 396
#     4  10  20  36  60  96 124 174 224 264 322 388
#
# _framework density 23.414065000000001
#
# number of rings (size 3 to 8) (size 9 to 14) (size 15 to 20)
#    0.000    1.091    1.818    4.909    3.818    2.182 
#    1.636    0.000    0.000    0.000    0.000    0.000 
#    0.000    0.000    0.000    0.000    0.000    0.000 
#
# Total GULP energy -272700.970100 kJ/mol
# GULP energy per Si atom -12395.498641 kJ/mol
# Density = 2.336077 g / cm^3
# Si number density = 23.414065 Si / 1000 Ang^3
#
#
#
# Elastic Constant Matrix: (Units=GPa)
#
#
# Indices 1 2 3 4 5 6 
#
# 1 141.1493 25.3199 45.0470 0.0000 -23.4662 0.0000
# 2 25.3199 62.6241 23.3010 0.0000 -1.3290 0.0000
# 3 45.0470 23.3010 132.0477 0.0000 -1.9080 0.0000
# 4 0.0000 0.0000 0.0000 23.7306 0.0000 -1.2647
# 5 -23.4662 -1.3290 -1.9080 0.0000 45.8915 0.0000
# 6 0.0000 0.0000 0.0000 -1.2647 0.0000 11.0417
#
#
#
# Elastic Compliance Matrix: (Units=1/GPa)
#
#
# Indices 1 2 3 4 5 6 
#
# 1 0.009127 -0.002634 -0.002584 0.000000 0.004483 0.000000
# 2 -0.002634 0.017857 -0.002266 0.000000 -0.000924 0.000000
# 3 -0.002584 -0.002266 0.008840 0.000000 -0.001019 0.000000
# 4 0.000000 0.000000 0.000000 0.042398 0.000000 0.004856
# 5 0.004483 -0.000924 -0.001019 0.000000 0.024014 0.000000
# 6 0.000000 0.000000 0.000000 0.004856 0.000000 0.091122
#
#
# Mechanical properties :
#
#
# Convention : Reuss Voigt Hill
#
# Bulk Modulus (GPa) = 47.94741 58.12857 53.03799
# Shear Modulus (GPa) = 23.22589 32.27631 27.75110
#
# Velocity S-wave (km/s) = 3.15296 3.71685 3.44645
# Velocity P-wave (km/s) = 5.81183 6.58029 6.20796
#
# Compressibility (1/GPa) = 0.02085619
#
# Stress axis : x y z
#
# Youngs Moduli (GPa) = 109.56239 56.00172 113.12615
#
# Poissons Ratio (x) = 0.14749 0.29234
# Poissons Ratio (y) = 0.28855 0.25633
# Poissons Ratio (z) = 0.28313 0.12689
#
# Static dielectric constant tensor:
#      x y z
#    x 4.610020 0.000000 -0.196550 
#    y 0.000000 3.776250 0.000000 
#    z -0.196550 0.000000 4.298900 
# 
# 
# High freq. dielectric constant tensor:
#      x y z
#    x 1.961750 0.000000 -0.007970 
#    y 0.000000 1.879220 0.000000 
#    z -0.007970 0.000000 1.940960 
# 
# From -- ./inp_files/39338.got.cif
#   From: 2010.06.25/outbox.cif.g09.slc.cpg/sg15_20_cif.got.tgz:39338.got - 2010.06.28 07:06:18.
