data_PCOD8137469
_publ_section_title
;
Structure prediction by ZEFSAII (Michael W. Deem and Ramdas Pophale) SiO2 
 PCOD8137469
Probable space group: C 2/C
;
_chemical_formula_sum "Si O2"
_cell_formula_units_Z 52
_cell_length_a 13.756434
_cell_length_b 18.228269
_cell_length_c 14.988023
_cell_angle_alpha 90.000000
_cell_angle_beta 42.759786
_cell_angle_gamma 90.000000
_cell_volume 2551.632878
_symmetry_space_group_name_H-M "C 2/C"
_symmetry_group_IT_number 15
_symmetry_cell_setting 'monoclinic'
loop_
_space_group_symop_operation_xyz
x,y,z
-x,y,1/2-z
-x,-y,-z
x,-y,1/2+z
1/2+x,1/2+y,z
1/2-x,1/2+y,1/2-z
1/2-x,1/2-y,-z
1/2+x,1/2-y,1/2+z
loop_
_atom_site_type_symbol
_atom_site_label
_atom_site_fract_x
_atom_site_fract_y
_atom_site_fract_z
Si Si1 0.366884 0.554766 0.775046
Si Si2 0.652571 0.201437 0.338831
Si Si3 0.546220 0.935987 0.533506
Si Si4 0.576578 0.612052 0.288685
Si Si5 0.041063 0.146234 0.949666
Si Si6 0.000000 0.420927 0.750000
Si Si7 0.237430 0.307954 0.587559
O O1 0.500000 0.576893 0.750000
O O2 0.216876 0.577678 0.920724
O O3 0.358283 0.468043 0.767055
O O4 0.372587 0.593041 0.674495
O O5 0.527533 0.141947 0.439102
O O6 0.800557 0.170756 0.276011
O O7 0.616430 0.275567 0.415297
O O8 0.667126 0.225402 0.225038
O O9 0.479225 0.966676 0.673265
O O10 0.500000 0.000000 0.500000
O O11 0.500000 0.637875 0.250000
O O12 0.468746 0.609601 0.445828
O O13 0.888690 0.156909 0.006674
O O14 0.134622 0.372982 0.626747
O O15 0.250000 0.250000 0.500000
#
# Coordination Sequence:
#
# PCOD8137469 Si02
#       7
#     8   8   8   8   8   4   8
#     4  11  24  41  68  96 126 168 211 260 327 385
#     4  10  23  39  64  96 124 172 207 269 317 380
#     4  11  22  43  62  88 131 169 213 254 315 383
#     4  10  23  46  63  88 129 170 217 264 308 377
#     4  11  24  37  67  94 127 159 218 262 326 377
#     4  10  22  36  60  88 124 166 210 256 310 378
#     4  10  20  36  58  92 134 159 195 259 330 388
#
# _framework density 20.379107999999999
#
# number of rings (size 3 to 8) (size 9 to 14) (size 15 to 20)
#    0.000    1.538    1.538    3.231    8.615    0.615 
#    5.538    0.000    1.692    0.000    0.000    0.000 
#    0.000    0.000    0.000    0.000    0.000    0.000 
#
# Total GULP energy -322323.943166 kJ/mol
# GULP energy per Si atom -12397.074737 kJ/mol
# Density = 2.033272 g / cm^3
# Si number density = 20.379108 Si / 1000 Ang^3
#
#
#
# Elastic Constant Matrix: (Units=GPa)
#
#
# Indices 1 2 3 4 5 6 
#
# 1 106.3495 42.7196 59.6231 0.0007 15.3895 -0.0005
# 2 42.7196 65.2018 43.2201 0.0011 6.4265 -0.0009
# 3 59.6231 43.2201 136.3527 0.0015 13.0175 -0.0013
# 4 0.0007 0.0011 0.0015 23.0335 -0.0010 19.6200
# 5 15.3895 6.4265 13.0175 -0.0010 41.3077 0.0008
# 6 -0.0005 -0.0009 -0.0013 19.6200 0.0008 16.0606
#
#
#
# Elastic Compliance Matrix: (Units=1/GPa)
#
#
# Indices 1 2 3 4 5 6 
#
# 1 0.014838 -0.006720 -0.004052 0.000000 -0.003206 0.000000
# 2 -0.006720 0.022510 -0.004229 0.000027 0.000334 -0.000032
# 3 -0.004052 -0.004229 0.010557 0.000022 -0.001159 -0.000026
# 4 0.000000 0.000027 0.000022 -1.069884 -0.000064 1.306991
# 5 -0.003206 0.000334 -0.001159 -0.000064 0.025716 0.000076
# 6 0.000000 -0.000032 -0.000026 1.306991 0.000076 -1.534381
#
#
# Mechanical properties :
#
#
# Convention : Reuss Voigt Hill
#
# Bulk Modulus (GPa) = 55.85456 66.55885 61.20670
# Shear Modulus (GPa) = -2.00427 26.90311 12.44942
#
# Velocity S-wave (km/s) = -0.99279 3.63730 2.47430
# Velocity P-wave (km/s) = 5.11401 7.09727 6.18564
#
# Compressibility (1/GPa) = 0.01790364
#
# Stress axis : x y z
#
# Youngs Moduli (GPa) = 67.39536 44.42540 94.72522
#
# Poissons Ratio (x) = 0.29852 0.38385
# Poissons Ratio (y) = 0.45287 0.40055
# Poissons Ratio (z) = 0.27310 0.18786
#
# Static dielectric constant tensor:
#      x y z
#    x 3.724090 0.000000 0.050940 
#    y 0.000000 3.674770 0.000010 
#    z 0.050940 0.000010 4.042890 
# 
# 
# High freq. dielectric constant tensor:
#      x y z
#    x 1.793950 0.000000 0.002270 
#    y 0.000000 1.783640 0.000000 
#    z 0.002270 0.000000 1.816480 
# 
# From -- ./inp_files/155436.got.cif
#   From: 2010.06.25/outbox.cif.g09.slc.cpg/sg15_78_cif.got.tgz:155436.got - 2010.06.28 07:06:18.
