data_PCOD8137430
_publ_section_title
;
Structure prediction by ZEFSAII (Michael W. Deem and Ramdas Pophale) SiO2 
 PCOD8137430
Probable space group: C 2/C
;
_chemical_formula_sum "Si O2"
_cell_formula_units_Z 48
_cell_length_a 25.636587
_cell_length_b 8.161411
_cell_length_c 13.609990
_cell_angle_alpha 90.000000
_cell_angle_beta 129.374260
_cell_angle_gamma 90.000000
_cell_volume 2201.269581
_symmetry_space_group_name_H-M "C 2/C"
_symmetry_group_IT_number 15
_symmetry_cell_setting 'monoclinic'
loop_
_space_group_symop_operation_xyz
x,y,z
-x,y,1/2-z
-x,-y,-z
x,-y,1/2+z
1/2+x,1/2+y,z
1/2-x,1/2+y,1/2-z
1/2-x,1/2-y,-z
1/2+x,1/2-y,1/2+z
loop_
_atom_site_type_symbol
_atom_site_label
_atom_site_fract_x
_atom_site_fract_y
_atom_site_fract_z
Si Si1 0.979134 0.772165 0.944015
Si Si2 0.926298 0.556226 0.325529
Si Si3 0.176009 0.642384 0.144357
Si Si4 0.213899 0.109509 0.075406
Si Si5 0.398510 0.532240 0.953671
Si Si6 0.814451 0.456478 0.538487
O O1 0.960052 0.621267 0.851429
O O2 0.029688 0.882872 0.938464
O O3 0.018667 0.700289 0.088390
O O4 0.914354 0.883037 0.896483
O O5 0.878920 0.531566 0.364873
O O6 0.883852 0.592431 0.176705
O O7 0.250066 0.603013 0.274742
O O8 0.154903 0.829770 0.146511
O O9 0.174558 0.603861 0.025915
O O10 0.256427 0.998839 0.048968
O O11 0.213043 0.298909 0.049100
O O12 0.137336 0.043047 0.992547
#
# Coordination Sequence:
#
# PCOD8137430 Si02
#       6
#     8   8   8   8   8   8
#     4   9  19  38  61  84 118 158 194 241 289 339
#     4   9  19  39  63  85 114 156 199 236 288 349
#     4  10  20  37  61  87 117 151 191 245 300 346
#     4  10  21  38  60  87 117 151 196 246 296 347
#     4  10  20  36  58  85 116 153 192 236 295 346
#     4  10  21  38  61  87 115 153 197 240 292 354
#
# _framework density 21.805599000000001
#
# number of rings (size 3 to 8) (size 9 to 14) (size 15 to 20)
#    0.000    2.333    0.000    2.000    0.000    3.333 
#    0.000   23.333    0.000    0.000    0.000    0.000 
#    0.000    0.000    0.000    0.000    0.000    0.000 
#
# Total GULP energy -297334.706943 kJ/mol
# GULP energy per Si atom -12388.946123 kJ/mol
# Density = 2.175597 g / cm^3
# Si number density = 21.805599 Si / 1000 Ang^3
#
#
#
# Elastic Constant Matrix: (Units=GPa)
#
#
# Indices 1 2 3 4 5 6 
#
# 1 118.9593 46.7900 45.2832 0.0000 5.5908 0.0000
# 2 46.7900 95.6121 22.8724 0.0000 5.5225 0.0000
# 3 45.2832 22.8724 92.4179 0.0000 -6.3594 0.0000
# 4 0.0000 0.0000 0.0000 21.7471 0.0000 9.6499
# 5 5.5908 5.5225 -6.3594 0.0000 22.2661 0.0000
# 6 0.0000 0.0000 0.0000 9.6499 0.0000 37.6385
#
#
#
# Elastic Compliance Matrix: (Units=1/GPa)
#
#
# Indices 1 2 3 4 5 6 
#
# 1 0.012337 -0.004610 -0.005139 0.000000 -0.003422 0.000000
# 2 -0.004610 0.013133 -0.001158 0.000000 -0.002430 0.000000
# 3 -0.005139 -0.001158 0.014009 0.000000 0.005579 0.000000
# 4 0.000000 0.000000 0.000000 0.051886 0.000000 -0.013303
# 5 -0.003422 -0.002430 0.005579 0.000000 0.047967 0.000000
# 6 0.000000 0.000000 0.000000 -0.013303 0.000000 0.029979
#
#
# Mechanical properties :
#
#
# Convention : Reuss Voigt Hill
#
# Bulk Modulus (GPa) = 56.61706 59.65340 58.13523
# Shear Modulus (GPa) = 25.37892 29.13325 27.25608
#
# Velocity S-wave (km/s) = 3.41526 3.65916 3.53931
# Velocity P-wave (km/s) = 6.44770 6.72822 6.58945
#
# Compressibility (1/GPa) = 0.01766252
#
# Stress axis : x y z
#
# Youngs Moduli (GPa) = 81.05889 76.14671 71.38173
#
# Poissons Ratio (x) = 0.35105 0.36685
# Poissons Ratio (y) = 0.37370 0.08269
# Poissons Ratio (z) = 0.41659 0.08822
#
# Static dielectric constant tensor:
#      x y z
#    x 4.169880 0.000000 0.219860 
#    y 0.000000 3.918960 0.000000 
#    z 0.219860 0.000000 3.582700 
# 
# 
# High freq. dielectric constant tensor:
#      x y z
#    x 1.857140 0.000000 0.026180 
#    y 0.000000 1.860960 0.000000 
#    z 0.026180 0.000000 1.823780 
# 
# From -- ./inp_files/180890.got.cif
#   From: 2010.06.25/outbox.cif.g09.slc.cpg/sg15_91_cif.got.tgz:180890.got - 2010.06.28 07:06:18.
