data_PCOD8137241
_publ_section_title
;
Structure prediction by ZEFSAII (Michael W. Deem and Ramdas Pophale) SiO2 
 PCOD8137241
Probable space group: C 2/C
;
_chemical_formula_sum "Si O2"
_cell_formula_units_Z 60
_cell_length_a 14.492742
_cell_length_b 22.778744
_cell_length_c 11.814390
_cell_angle_alpha 90.000000
_cell_angle_beta 61.977548
_cell_angle_gamma 90.000000
_cell_volume 3442.992161
_symmetry_space_group_name_H-M "C 2/C"
_symmetry_group_IT_number 15
_symmetry_cell_setting 'monoclinic'
loop_
_space_group_symop_operation_xyz
x,y,z
-x,y,1/2-z
-x,-y,-z
x,-y,1/2+z
1/2+x,1/2+y,z
1/2-x,1/2+y,1/2-z
1/2-x,1/2-y,-z
1/2+x,1/2-y,1/2+z
loop_
_atom_site_type_symbol
_atom_site_label
_atom_site_fract_x
_atom_site_fract_y
_atom_site_fract_z
Si Si1 0.000000 0.644215 0.250000
Si Si2 0.313319 0.261451 0.078936
Si Si3 0.706529 0.185354 0.038146
Si Si4 0.953208 0.443809 0.158016
Si Si5 0.465580 0.729777 0.146272
Si Si6 0.681477 0.164511 0.807434
Si Si7 0.725246 0.655473 0.263658
Si Si8 0.887933 0.567813 0.125667
O O1 0.916553 0.685903 0.360306
O O2 0.945040 0.601903 0.192517
O O3 0.271599 0.318832 0.167304
O O4 0.302273 0.205485 0.167831
O O5 0.250000 0.250000 0.000000
O O6 0.433328 0.277825 0.989175
O O7 0.768456 0.153076 0.103440
O O8 0.750000 0.250000 0.000000
O O9 0.724192 0.150420 0.909376
O O10 0.873661 0.390650 0.217363
O O11 0.887167 0.498129 0.146593
O O12 0.000000 0.463080 0.250000
O O13 0.048996 0.421632 0.025910
O O14 0.500000 0.750767 0.250000
O O15 0.395235 0.780070 0.131698
O O16 0.395787 0.669844 0.197740
O O17 0.768695 0.593691 0.186896
#
# Coordination Sequence:
#
# PCOD8137241 Si02
#       8
#     4   8   8   8   8   8   8   8
#     4  10  20  36  54  70 116 140 180 224 254 336
#     4  11  21  34  52  81 111 140 175 226 280 329
#     4  11  20  35  49  77 105 149 184 206 271 322
#     4  11  22  34  57  83 111 142 187 229 282 330
#     4  11  20  34  51  77 112 142 174 213 280 334
#     4  11  22  34  53  81 113 141 175 233 268 331
#     4  10  22  34  54  75 111 148 179 226 268 336
#     4  10  21  37  53  80 108 148 181 220 284 322
#
# _framework density 17.426703
#
# number of rings (size 3 to 8) (size 9 to 14) (size 15 to 20)
#    0.000    1.333    7.333    1.200    3.733    0.000 
#    0.000    0.000    0.000    0.800    0.000    0.000 
#    0.000    0.000    0.000    0.000    0.000    0.000 
#
# Total GULP energy -371897.346996 kJ/mol
# GULP energy per Si atom -12396.578233 kJ/mol
# Density = 1.738704 g / cm^3
# Si number density = 17.426703 Si / 1000 Ang^3
#
#
#
# Elastic Constant Matrix: (Units=GPa)
#
#
# Indices 1 2 3 4 5 6 
#
# 1 60.7185 19.0482 35.3265 0.0000 -14.5587 0.0000
# 2 19.0482 68.1615 30.5085 0.0000 -18.0081 0.0000
# 3 35.3265 30.5085 117.4702 0.0000 -13.2317 0.0000
# 4 0.0000 0.0000 0.0000 23.7349 0.0000 -4.5373
# 5 -14.5587 -18.0081 -13.2317 0.0000 43.5979 0.0000
# 6 0.0000 0.0000 0.0000 -4.5373 0.0000 25.8982
#
#
#
# Elastic Compliance Matrix: (Units=1/GPa)
#
#
# Indices 1 2 3 4 5 6 
#
# 1 0.021396 -0.002408 -0.005297 0.000000 0.004542 0.000000
# 2 -0.002408 0.018388 -0.003403 0.000000 0.005758 0.000000
# 3 -0.005297 -0.003403 0.011008 0.000000 0.000166 0.000000
# 4 0.000000 0.000000 0.000000 0.043592 0.000000 0.007637
# 5 0.004542 0.005758 0.000166 0.000000 0.026883 0.000000
# 6 0.000000 0.000000 0.000000 0.007637 0.000000 0.039951
#
#
# Mechanical properties :
#
#
# Convention : Reuss Voigt Hill
#
# Bulk Modulus (GPa) = 34.99415 46.23519 40.61467
# Shear Modulus (GPa) = 25.91201 29.41067 27.66134
#
# Velocity S-wave (km/s) = 3.86024 4.11259 3.98841
# Velocity P-wave (km/s) = 6.32400 7.01000 6.67581
#
# Compressibility (1/GPa) = 0.02857620
#
# Stress axis : x y z
#
# Youngs Moduli (GPa) = 46.73750 54.38184 90.84004
#
# Poissons Ratio (x) = 0.13096 0.48121
# Poissons Ratio (y) = 0.11255 0.30912
# Poissons Ratio (z) = 0.24758 0.18506
#
# Static dielectric constant tensor:
#      x y z
#    x 3.326940 0.000000 0.028590 
#    y 0.000000 3.098370 0.000000 
#    z 0.028590 0.000000 3.632180 
# 
# 
# High freq. dielectric constant tensor:
#      x y z
#    x 1.660310 0.000000 0.013260 
#    y 0.000000 1.643250 0.000000 
#    z 0.013260 0.000000 1.692670 
# 
# From -- ./inp_files/100468.got.cif
#   From: 2010.06.25/outbox.cif.g09.slc.cpg/sg15_51_cif.got.tgz:100468.got - 2010.06.28 07:06:18.
