data_PCOD8137380
_publ_section_title
;
Structure prediction by ZEFSAII (Michael W. Deem and Ramdas Pophale) SiO2 
 PCOD8137380
Probable space group: C 2/C
;
_chemical_formula_sum "Si O2"
_cell_formula_units_Z 56
_cell_length_a 21.844396
_cell_length_b 11.073916
_cell_length_c 13.310074
_cell_angle_alpha 90.000000
_cell_angle_beta 76.472343
_cell_angle_gamma 90.000000
_cell_volume 3130.421869
_symmetry_space_group_name_H-M "C 2/C"
_symmetry_group_IT_number 15
_symmetry_cell_setting 'monoclinic'
loop_
_space_group_symop_operation_xyz
x,y,z
-x,y,1/2-z
-x,-y,-z
x,-y,1/2+z
1/2+x,1/2+y,z
1/2-x,1/2+y,1/2-z
1/2-x,1/2-y,-z
1/2+x,1/2-y,1/2+z
loop_
_atom_site_type_symbol
_atom_site_label
_atom_site_fract_x
_atom_site_fract_y
_atom_site_fract_z
Si Si1 0.228759 0.222347 0.708745
Si Si2 0.303996 0.236844 0.060145
Si Si3 0.295371 0.032682 0.540572
Si Si4 0.020134 0.102681 0.630301
Si Si5 0.633550 0.231725 0.083563
Si Si6 0.591512 0.585555 0.974567
Si Si7 0.300881 0.416164 0.582989
O O1 0.217682 0.194223 0.829810
O O2 0.263914 0.108614 0.643830
O O3 0.160763 0.252136 0.685481
O O4 0.269151 0.346952 0.688330
O O5 0.369255 0.299965 0.998265
O O6 0.317911 0.095680 0.075604
O O7 0.250000 0.250000 0.000000
O O8 0.356784 0.097909 0.466913
O O9 0.246871 0.005411 0.467237
O O10 0.061370 0.225141 0.608648
O O11 0.000000 0.072727 0.750000
O O12 0.959495 0.128781 0.585991
O O13 0.058657 0.985152 0.578943
O O14 0.678847 0.310932 0.998797
O O15 0.640500 0.494756 0.900597
#
# Coordination Sequence:
#
# PCOD8137380 Si02
#       7
#     8   8   8   8   8   8   8
#     4   9  19  31  54  77 103 144 178 204 250 324
#     4  12  23  31  48  80 116 139 164 209 274 320
#     4   9  18  34  52  76 108 139 166 216 262 311
#     4  10  20  36  58  74  96 138 188 226 249 297
#     4   8  16  34  56  75  96 133 184 218 249 298
#     4  10  21  34  50  79 109 134 171 223 266 304
#     4   8  15  33  53  74 103 135 172 211 259 307
#
# _framework density 17.888961999999999
#
# number of rings (size 3 to 8) (size 9 to 14) (size 15 to 20)
#    0.000    2.571    1.429    2.571    2.000    1.143 
#    0.000    0.714    0.000    0.857    0.000    0.000 
#    0.000    0.000    0.000    0.000    0.000    0.000 
#
# Total GULP energy -347010.632541 kJ/mol
# GULP energy per Si atom -12393.236876 kJ/mol
# Density = 1.784825 g / cm^3
# Si number density = 17.888962 Si / 1000 Ang^3
#
#
#
# Elastic Constant Matrix: (Units=GPa)
#
#
# Indices 1 2 3 4 5 6 
#
# 1 129.1487 54.7455 45.7596 0.0000 7.6557 0.0000
# 2 54.7455 98.6147 29.5786 0.0000 -0.0866 0.0000
# 3 45.7596 29.5786 94.6641 0.0000 1.9128 0.0000
# 4 0.0000 0.0000 0.0000 18.5559 0.0000 0.0267
# 5 7.6557 -0.0866 1.9128 0.0000 19.1223 0.0000
# 6 0.0000 0.0000 0.0000 0.0267 0.0000 27.0249
#
#
#
# Elastic Compliance Matrix: (Units=1/GPa)
#
#
# Indices 1 2 3 4 5 6 
#
# 1 0.011611 -0.005288 -0.003874 0.000000 -0.004285 0.000000
# 2 -0.005288 0.013600 -0.001741 0.000000 0.002353 0.000000
# 3 -0.003874 -0.001741 0.012975 0.000000 0.000245 0.000000
# 4 0.000000 0.000000 0.000000 0.053891 0.000000 -0.000053
# 5 -0.004285 0.002353 0.000245 0.000000 0.053996 0.000000
# 6 0.000000 0.000000 0.000000 -0.000053 0.000000 0.037003
#
#
# Mechanical properties :
#
#
# Convention : Reuss Voigt Hill
#
# Bulk Modulus (GPa) = 61.04500 64.73278 62.88889
# Shear Modulus (GPa) = 23.77073 25.76354 24.76714
#
# Velocity S-wave (km/s) = 3.64922 3.79910 3.72491
# Velocity P-wave (km/s) = 7.20792 7.45041 7.33017
#
# Compressibility (1/GPa) = 0.01638136
#
# Stress axis : x y z
#
# Youngs Moduli (GPa) = 86.12528 73.52858 77.06942
#
# Poissons Ratio (x) = 0.38879 0.29856
# Poissons Ratio (y) = 0.45540 0.13418
# Poissons Ratio (z) = 0.33364 0.12802
#
# Static dielectric constant tensor:
#      x y z
#    x 3.268860 0.000000 -0.041350 
#    y 0.000000 3.472740 0.000000 
#    z -0.041350 0.000000 3.152500 
# 
# 
# High freq. dielectric constant tensor:
#      x y z
#    x 1.676760 0.000000 -0.000140 
#    y 0.000000 1.690910 0.000000 
#    z -0.000140 0.000000 1.681270 
# 
# From -- ./inp_files/111087.got.cif
#   From: 2010.06.25/outbox.cif.g09.slc.cpg/sg15_56_cif.got.tgz:111087.got - 2010.06.28 07:06:18.
