data_PCOD8137543
_publ_section_title
;
Structure prediction by ZEFSAII (Michael W. Deem and Ramdas Pophale) SiO2 
 PCOD8137543
Probable space group: C 2/C
;
_chemical_formula_sum "Si O2"
_cell_formula_units_Z 52
_cell_length_a 6.724014
_cell_length_b 18.643225
_cell_length_c 21.919607
_cell_angle_alpha 90.000000
_cell_angle_beta 76.757337
_cell_angle_gamma 90.000000
_cell_volume 2674.715488
_symmetry_space_group_name_H-M "C 2/C"
_symmetry_group_IT_number 15
_symmetry_cell_setting 'monoclinic'
loop_
_space_group_symop_operation_xyz
x,y,z
-x,y,1/2-z
-x,-y,-z
x,-y,1/2+z
1/2+x,1/2+y,z
1/2-x,1/2+y,1/2-z
1/2-x,1/2-y,-z
1/2+x,1/2-y,1/2+z
loop_
_atom_site_type_symbol
_atom_site_label
_atom_site_fract_x
_atom_site_fract_y
_atom_site_fract_z
Si Si1 0.637969 0.334851 0.964783
Si Si2 0.769037 0.128381 0.418363
Si Si3 0.437826 0.921664 0.022302
Si Si4 0.576665 0.625010 0.808147
Si Si5 0.774671 0.480951 0.149719
Si Si6 0.500000 0.937364 0.250000
Si Si7 0.985998 0.243907 0.586992
O O1 0.504011 0.371805 0.921545
O O2 0.803053 0.286922 0.917479
O O3 0.739022 0.396983 0.998622
O O4 0.492593 0.286156 0.017469
O O5 0.628726 0.127788 0.489803
O O6 0.705673 0.202314 0.389065
O O7 0.731919 0.060504 0.377446
O O8 0.389489 0.923102 0.097675
O O9 0.500000 0.000000 0.000000
O O10 0.500000 0.660007 0.750000
O O11 0.454063 0.549569 0.824754
O O12 0.819523 0.611594 0.790336
O O13 0.526219 0.679373 0.865242
O O14 0.902226 0.486231 0.203494
#
# Coordination Sequence:
#
# PCOD8137543 Si02
#       7
#     8   8   8   8   8   4   8
#     4  10  20  36  59  89 129 159 184 249 309 355
#     4  10  22  35  59  93 121 156 191 232 314 366
#     4   9  19  33  55  91 118 147 193 234 294 363
#     4  10  22  41  63  85 113 159 212 250 294 349
#     4  10  21  39  58  87 118 153 202 247 293 357
#     4  10  24  40  66  82 112 158 202 252 296 334
#     4  10  21  38  58  91 123 156 199 243 297 371
#
# _framework density 19.441320000000001
#
# number of rings (size 3 to 8) (size 9 to 14) (size 15 to 20)
#    0.000    2.154    1.538    0.462    2.154    8.615 
#    1.385    0.000    5.077    0.000    0.000    0.000 
#    0.000    0.000    0.000    0.000    0.000    0.000 
#
# Total GULP energy -322268.093686 kJ/mol
# GULP energy per Si atom -12394.926680 kJ/mol
# Density = 1.939707 g / cm^3
# Si number density = 19.441320 Si / 1000 Ang^3
#
#
#
# Elastic Constant Matrix: (Units=GPa)
#
#
# Indices 1 2 3 4 5 6 
#
# 1 127.4691 54.0343 50.8875 0.0000 12.7892 0.0000
# 2 54.0343 101.3170 35.7576 0.0000 11.5198 0.0000
# 3 50.8875 35.7576 83.7100 0.0000 4.6151 0.0000
# 4 0.0000 0.0000 0.0000 26.9090 0.0000 0.8300
# 5 12.7892 11.5198 4.6151 0.0000 27.2671 0.0000
# 6 0.0000 0.0000 0.0000 0.8300 0.0000 26.4367
#
#
#
# Elastic Compliance Matrix: (Units=1/GPa)
#
#
# Indices 1 2 3 4 5 6 
#
# 1 0.012072 -0.004201 -0.005380 0.000000 -0.002977 0.000000
# 2 -0.004201 0.013559 -0.003059 0.000000 -0.003240 0.000000
# 3 -0.005380 -0.003059 0.016467 0.000000 0.001029 0.000000
# 4 0.000000 0.000000 0.000000 0.037198 0.000000 -0.001168
# 5 -0.002977 -0.003240 0.001029 0.000000 0.039265 0.000000
# 6 0.000000 0.000000 0.000000 -0.001168 0.000000 0.037863
#
#
# Mechanical properties :
#
#
# Convention : Reuss Voigt Hill
#
# Bulk Modulus (GPa) = 59.46477 65.98387 62.72432
# Shear Modulus (GPa) = 26.69361 27.57700 27.13531
#
# Velocity S-wave (km/s) = 3.70947 3.77035 3.74003
# Velocity P-wave (km/s) = 7.00001 7.27789 7.14030
#
# Compressibility (1/GPa) = 0.01681668
#
# Stress axis : x y z
#
# Youngs Moduli (GPa) = 82.83332 73.75374 60.72882
#
# Poissons Ratio (x) = 0.30985 0.32673
# Poissons Ratio (y) = 0.34800 0.18578
# Poissons Ratio (z) = 0.44566 0.22563
#
# Static dielectric constant tensor:
#      x y z
#    x 3.582710 0.000000 -0.268220 
#    y 0.000000 3.564270 0.000000 
#    z -0.268220 0.000000 4.126220 
# 
# 
# High freq. dielectric constant tensor:
#      x y z
#    x 1.760640 0.000000 -0.007280 
#    y 0.000000 1.750610 0.000000 
#    z -0.007280 0.000000 1.745620 
# 
# From -- ./inp_files/227501.got.cif
#   From: 2010.06.25/outbox.cif.g09.slc.cpg/sg15_114_cif.got.tgz:227501.got - 2010.06.28 07:06:18.
