data_PCOD8137001
_publ_section_title
;
Structure prediction by ZEFSAII (Michael W. Deem and Ramdas Pophale) SiO2 
 PCOD8137001
Probable space group: C 2/C
;
_chemical_formula_sum "Si O2"
_cell_formula_units_Z 64
_cell_length_a 29.826462
_cell_length_b 18.775135
_cell_length_c 11.807898
_cell_angle_alpha 90.000000
_cell_angle_beta 31.595020
_cell_angle_gamma 90.000000
_cell_volume 3464.301194
_symmetry_space_group_name_H-M "C 2/C"
_symmetry_group_IT_number 15
_symmetry_cell_setting 'monoclinic'
loop_
_space_group_symop_operation_xyz
x,y,z
-x,y,1/2-z
-x,-y,-z
x,-y,1/2+z
1/2+x,1/2+y,z
1/2-x,1/2+y,1/2-z
1/2-x,1/2-y,-z
1/2+x,1/2-y,1/2+z
loop_
_atom_site_type_symbol
_atom_site_label
_atom_site_fract_x
_atom_site_fract_y
_atom_site_fract_z
Si Si1 0.122513 0.264051 0.336736
Si Si2 0.308957 0.880384 0.619241
Si Si3 0.533181 0.377566 0.020811
Si Si4 0.439844 0.962039 0.480464
Si Si5 0.705548 0.726101 0.922636
Si Si6 0.415634 0.091239 0.675835
Si Si7 0.123515 0.057815 0.524987
Si Si8 0.579330 0.603451 0.162458
O O1 0.055544 0.202539 0.515738
O O2 0.191542 0.282246 0.286959
O O3 0.071377 0.335679 0.419674
O O4 0.169956 0.234405 0.124755
O O5 0.372034 0.905555 0.581545
O O6 0.310862 0.794936 0.620041
O O7 0.338255 0.905863 0.431712
O O8 0.218108 0.914089 0.841178
O O9 0.436180 0.395992 0.262993
O O10 0.595671 0.431427 0.954238
O O11 0.543918 0.388504 0.864992
O O12 0.500000 0.990126 0.250000
O O13 0.493926 0.922023 0.459602
O O14 0.392012 0.029459 0.637759
O O15 0.657140 0.658804 0.970128
O O16 0.118228 0.974502 0.562811
O O17 0.500000 0.619088 0.250000
#
# Coordination Sequence:
#
# PCOD8137001 Si02
#       8
#     8   8   8   8   8   8   8   8
#     4   9  17  34  58  80 106 148 187 241 279 334
#     4  10  20  35  58  84 114 149 191 238 291 335
#     4  10  21  39  58  82 118 151 198 232 288 348
#     4   9  19  36  55  84 115 148 187 238 287 345
#     4   9  19  33  55  84 106 139 200 240 275 342
#     4   9  19  35  58  84 113 148 194 229 289 345
#     4  11  22  36  58  88 114 159 188 239 295 343
#     4  11  23  37  59  86 114 154 197 239 291 347
#
# _framework density 18.474143999999999
#
# number of rings (size 3 to 8) (size 9 to 14) (size 15 to 20)
#    0.000    2.250    2.500    0.375    3.500    3.500 
#    2.250    0.000    2.750    1.500    0.000    0.000 
#    0.000    0.000    0.000    0.000    0.000    0.000 
#
# Total GULP energy -396744.489116 kJ/mol
# GULP energy per Si atom -12398.265285 kJ/mol
# Density = 1.843210 g / cm^3
# Si number density = 18.474144 Si / 1000 Ang^3
#
#
#
# Elastic Constant Matrix: (Units=GPa)
#
#
# Indices 1 2 3 4 5 6 
#
# 1 95.7377 61.4325 43.5551 0.0000 -3.1260 0.0000
# 2 61.4325 173.2585 70.6751 0.0000 -12.0704 0.0000
# 3 43.5551 70.6751 77.4736 0.0000 -18.9934 0.0000
# 4 0.0000 0.0000 0.0000 26.9534 0.0000 -2.8676
# 5 -3.1260 -12.0704 -18.9934 0.0000 20.3741 0.0000
# 6 0.0000 0.0000 0.0000 -2.8676 0.0000 31.7786
#
#
#
# Elastic Compliance Matrix: (Units=1/GPa)
#
#
# Indices 1 2 3 4 5 6 
#
# 1 0.015579 -0.002791 -0.007819 0.000000 -0.006552 0.000000
# 2 -0.002791 0.009843 -0.007889 0.000000 -0.001951 0.000000
# 3 -0.007819 -0.007889 0.029891 0.000000 0.021992 0.000000
# 4 0.000000 0.000000 0.000000 0.037461 0.000000 0.003380
# 5 -0.006552 -0.001951 0.021992 0.000000 0.067423 0.000000
# 6 0.000000 0.000000 0.000000 0.003380 0.000000 0.031773
#
#
# Mechanical properties :
#
#
# Convention : Reuss Voigt Hill
#
# Bulk Modulus (GPa) = 54.59401 77.53278 66.06340
# Shear Modulus (GPa) = 21.26996 27.20836 24.23916
#
# Velocity S-wave (km/s) = 3.39682 3.84185 3.62616
# Velocity P-wave (km/s) = 6.70822 7.85742 7.30545
#
# Compressibility (1/GPa) = 0.01831703
#
# Stress axis : x y z
#
# Youngs Moduli (GPa) = 64.18783 101.59091 33.45442
#
# Poissons Ratio (x) = 0.28354 0.26157
# Poissons Ratio (y) = 0.17915 0.26391
# Poissons Ratio (z) = 0.50187 0.80143
#
# Static dielectric constant tensor:
#      x y z
#    x 3.411630 0.000000 -0.109120 
#    y 0.000000 3.631000 0.000000 
#    z -0.109120 0.000000 3.317230 
# 
# 
# High freq. dielectric constant tensor:
#      x y z
#    x 1.712850 0.000000 -0.012390 
#    y 0.000000 1.725500 0.000000 
#    z -0.012390 0.000000 1.700860 
# 
# From -- ./inp_files/124267.got.cif
#   From: 2010.06.25/outbox.cif.g09.slc.cpg/sg15_63_cif.got.tgz:124267.got - 2010.06.28 07:06:18.
