data_PCOD8137759
_publ_section_title
;
Structure prediction by ZEFSAII (Michael W. Deem and Ramdas Pophale) SiO2 
 PCOD8137759
Probable space group: C 2/C
;
_chemical_formula_sum "Si O2"
_cell_formula_units_Z 52
_cell_length_a 29.580671
_cell_length_b 11.233602
_cell_length_c 10.600806
_cell_angle_alpha 90.000000
_cell_angle_beta 43.316670
_cell_angle_gamma 90.000000
_cell_volume 2416.624038
_symmetry_space_group_name_H-M "C 2/C"
_symmetry_group_IT_number 15
_symmetry_cell_setting 'monoclinic'
loop_
_space_group_symop_operation_xyz
x,y,z
-x,y,1/2-z
-x,-y,-z
x,-y,1/2+z
1/2+x,1/2+y,z
1/2-x,1/2+y,1/2-z
1/2-x,1/2-y,-z
1/2+x,1/2-y,1/2+z
loop_
_atom_site_type_symbol
_atom_site_label
_atom_site_fract_x
_atom_site_fract_y
_atom_site_fract_z
Si Si1 0.206526 0.385292 0.978373
Si Si2 0.347382 0.328117 0.771264
Si Si3 0.069303 0.026772 0.791569
Si Si4 0.437547 0.231811 0.092252
Si Si5 0.651725 0.035148 0.320353
Si Si6 0.000000 0.885407 0.750000
Si Si7 0.953854 0.339137 0.958646
O O1 0.282654 0.347088 0.817816
O O2 0.188594 0.445791 0.880158
O O3 0.164727 0.264559 0.087587
O O4 0.195750 0.471855 0.122573
O O5 0.369253 0.457670 0.772584
O O6 0.404789 0.272301 0.569777
O O7 0.059684 0.971360 0.672798
O O8 0.084261 0.167870 0.760582
O O9 0.000000 0.000000 0.000000
O O10 0.372162 0.160253 0.187855
O O11 0.496611 0.147866 0.022971
O O12 0.467004 0.299713 0.915621
O O13 0.586233 0.959813 0.481974
O O14 0.000000 0.309354 0.750000
#
# Coordination Sequence:
#
# PCOD8137759 Si02
#       7
#     8   8   8   8   8   4   8
#     4  10  24  47  70  94 134 190 232 266 329 401
#     4  10  21  47  68  90 136 186 223 272 332 411
#     4  10  20  38  58  97 124 165 219 271 333 389
#     4  11  23  37  64 100 132 172 212 280 346 398
#     4  11  24  44  66 101 136 178 232 271 332 410
#     4  10  20  36  62  90 138 166 218 256 346 408
#     4  11  23  39  67 102 136 166 219 289 343 389
#
# _framework density 21.517620000000001
#
# number of rings (size 3 to 8) (size 9 to 14) (size 15 to 20)
#    0.000    1.538    3.077    2.308    4.308    0.000 
#   16.615    0.769    0.000    0.000    0.000    0.000 
#    0.000    0.000    0.000    0.000    0.000    0.000 
#
# Total GULP energy -322217.633985 kJ/mol
# GULP energy per Si atom -12392.985923 kJ/mol
# Density = 2.146865 g / cm^3
# Si number density = 21.517620 Si / 1000 Ang^3
#
#
#
# Elastic Constant Matrix: (Units=GPa)
#
#
# Indices 1 2 3 4 5 6 
#
# 1 127.1097 42.3724 37.8651 0.0000 13.2259 0.0000
# 2 42.3724 92.1386 7.0719 0.0000 3.3114 0.0000
# 3 37.8651 7.0719 70.2093 0.0000 4.6356 0.0000
# 4 0.0000 0.0000 0.0000 -30.5551 0.0000 -4.4380
# 5 13.2259 3.3114 4.6356 0.0000 27.8439 0.0000
# 6 0.0000 0.0000 0.0000 -4.4380 0.0000 42.8511
#
#
#
# Elastic Compliance Matrix: (Units=1/GPa)
#
#
# Indices 1 2 3 4 5 6 
#
# 1 0.011478 -0.004717 -0.005452 0.000000 -0.003984 0.000000
# 2 -0.004717 0.012911 0.001210 0.000000 0.000504 0.000000
# 3 -0.005452 0.001210 0.017088 0.000000 -0.000399 0.000000
# 4 0.000000 0.000000 0.000000 -0.032243 0.000000 -0.003339
# 5 -0.003984 0.000504 -0.000399 0.000000 0.037813 0.000000
# 6 0.000000 0.000000 0.000000 -0.003339 0.000000 0.022991
#
#
# Mechanical properties :
#
#
# Convention : Reuss Voigt Hill
#
# Bulk Modulus (GPa) = 42.44543 51.56405 47.00474
# Shear Modulus (GPa) = 52.18622 21.50452 36.84537
#
# Velocity S-wave (km/s) = 4.93005 3.16474 4.14253
# Velocity P-wave (km/s) = 7.22329 6.11308 6.69125
#
# Compressibility (1/GPa) = 0.02355966
#
# Stress axis : x y z
#
# Youngs Moduli (GPa) = 87.12060 77.45058 58.52018
#
# Poissons Ratio (x) = 0.36533 0.31907
# Poissons Ratio (y) = 0.41095 -0.07082
# Poissons Ratio (z) = 0.47501 -0.09373
#
# Static dielectric constant tensor:
#      x y z
#    x 1.127220 0.000000 -0.525750 
#    y 0.000000 4.267350 0.000000 
#    z -0.525750 0.000000 3.849080 
# 
# 
# High freq. dielectric constant tensor:
#      x y z
#    x 1.849450 0.000000 0.001590 
#    y 0.000000 1.855090 0.000000 
#    z 0.001590 0.000000 1.825390 
# 
# From -- ./inp_files/126245.got.cif
#   From: 2010.06.25/outbox.cif.g09.slc.cpg/sg15_64_cif.got.tgz:126245.got - 2010.06.28 07:06:18.
