data_PCOD8137603
_publ_section_title
;
Structure prediction by ZEFSAII (Michael W. Deem and Ramdas Pophale) SiO2 
 PCOD8137603
Probable space group: C 2/C
;
_chemical_formula_sum "Si O2"
_cell_formula_units_Z 44
_cell_length_a 19.151874
_cell_length_b 11.124386
_cell_length_c 17.198176
_cell_angle_alpha 90.000000
_cell_angle_beta 144.628890
_cell_angle_gamma 90.000000
_cell_volume 2121.049604
_symmetry_space_group_name_H-M "C 2/C"
_symmetry_group_IT_number 15
_symmetry_cell_setting 'monoclinic'
loop_
_space_group_symop_operation_xyz
x,y,z
-x,y,1/2-z
-x,-y,-z
x,-y,1/2+z
1/2+x,1/2+y,z
1/2-x,1/2+y,1/2-z
1/2-x,1/2-y,-z
1/2+x,1/2-y,1/2+z
loop_
_atom_site_type_symbol
_atom_site_label
_atom_site_fract_x
_atom_site_fract_y
_atom_site_fract_z
Si Si1 0.887402 0.816724 0.198665
Si Si2 0.115187 0.022300 0.194429
Si Si3 0.157500 0.059657 0.571472
Si Si4 0.695863 0.259790 0.863133
Si Si5 0.693791 0.925131 0.919590
Si Si6 0.500000 0.112525 0.750000
O O1 0.884513 0.671541 0.202087
O O2 0.000000 0.860122 0.250000
O O3 0.901379 0.884125 0.293136
O O4 0.758268 0.858009 0.048278
O O5 0.184737 0.103340 0.322126
O O6 0.188256 0.010715 0.179750
O O7 0.985168 0.081730 0.062618
O O8 0.221193 0.189842 0.623663
O O9 0.204746 0.981212 0.543019
O O10 0.561945 0.198333 0.741421
O O11 0.750000 0.250000 0.000000
O O12 0.607071 0.026457 0.878797
#
# Coordination Sequence:
#
# PCOD8137603 Si02
#       6
#     8   8   8   8   8   4
#     4  11  21  36  63  87 117 159 201 252 296 364
#     4  11  23  39  61  88 125 156 205 250 312 366
#     4  10  23  40  60  88 121 163 196 254 312 362
#     4  11  23  39  66  89 121 163 211 256 305 367
#     4  10  21  38  60  87 119 154 203 246 305 359
#     4  10  20  36  60  88 116 150 202 254 290 358
#
# _framework density 20.744447000000001
#
# number of rings (size 3 to 8) (size 9 to 14) (size 15 to 20)
#    0.000    1.455    2.727    3.273    3.818    0.000 
#    0.000    0.000    0.000    5.455    0.000    0.000 
#    0.000    0.000    0.000    0.000    0.000    0.000 
#
# Total GULP energy -272636.568196 kJ/mol
# GULP energy per Si atom -12392.571282 kJ/mol
# Density = 2.069723 g / cm^3
# Si number density = 20.744447 Si / 1000 Ang^3
#
#
#
# Elastic Constant Matrix: (Units=GPa)
#
#
# Indices 1 2 3 4 5 6 
#
# 1 96.3944 24.3050 29.9840 0.0000 7.2230 0.0000
# 2 24.3050 97.8824 18.3948 0.0000 -0.3495 0.0000
# 3 29.9840 18.3948 58.4234 0.0000 0.2268 0.0000
# 4 0.0000 0.0000 0.0000 30.1876 0.0000 -0.9248
# 5 7.2230 -0.3495 0.2268 0.0000 29.0473 0.0000
# 6 0.0000 0.0000 0.0000 -0.9248 0.0000 31.4873
#
#
#
# Elastic Compliance Matrix: (Units=1/GPa)
#
#
# Indices 1 2 3 4 5 6 
#
# 1 0.013015 -0.002115 -0.006001 0.000000 -0.003215 0.000000
# 2 -0.002115 0.011203 -0.002444 0.000000 0.000680 0.000000
# 3 -0.006001 -0.002444 0.020961 0.000000 0.001299 0.000000
# 4 0.000000 0.000000 0.000000 0.033156 0.000000 0.000974
# 5 -0.003215 0.000680 0.001299 0.000000 0.035224 0.000000
# 6 0.000000 0.000000 0.000000 0.000974 0.000000 0.031787
#
#
# Mechanical properties :
#
#
# Convention : Reuss Voigt Hill
#
# Bulk Modulus (GPa) = 41.56696 44.22975 42.89836
# Shear Modulus (GPa) = 28.65531 30.14552 29.40041
#
# Velocity S-wave (km/s) = 3.72068 3.81620 3.76874
# Velocity P-wave (km/s) = 6.20799 6.38634 6.29780
#
# Compressibility (1/GPa) = 0.02405757
#
# Stress axis : x y z
#
# Youngs Moduli (GPa) = 76.83447 89.25843 47.70802
#
# Poissons Ratio (x) = 0.18882 0.28630
# Poissons Ratio (y) = 0.16254 0.11662
# Poissons Ratio (z) = 0.46108 0.21818
#
# Static dielectric constant tensor:
#      x y z
#    x 3.700820 0.000000 0.256150 
#    y 0.000000 4.077900 0.000000 
#    z 0.256150 0.000000 3.654780 
# 
# 
# High freq. dielectric constant tensor:
#      x y z
#    x 1.795130 0.000000 0.023290 
#    y 0.000000 1.826750 0.000000 
#    z 0.023290 0.000000 1.796230 
# 
# From -- ./inp_files/103618.got.cif
#   From: 2010.06.25/outbox.cif.g09.slc.cpg/sg15_52_cif.got.tgz:103618.got - 2010.06.28 07:06:18.
