data_PCOD8137209
_publ_section_title
;
Structure prediction by ZEFSAII (Michael W. Deem and Ramdas Pophale) SiO2 
 PCOD8137209
Probable space group: C 2/C
;
_chemical_formula_sum "Si O2"
_cell_formula_units_Z 56
_cell_length_a 14.359290
_cell_length_b 9.295412
_cell_length_c 23.683202
_cell_angle_alpha 90.000000
_cell_angle_beta 125.424261
_cell_angle_gamma 90.000000
_cell_volume 2575.947374
_symmetry_space_group_name_H-M "C 2/C"
_symmetry_group_IT_number 15
_symmetry_cell_setting 'monoclinic'
loop_
_space_group_symop_operation_xyz
x,y,z
-x,y,1/2-z
-x,-y,-z
x,-y,1/2+z
1/2+x,1/2+y,z
1/2-x,1/2+y,1/2-z
1/2-x,1/2-y,-z
1/2+x,1/2-y,1/2+z
loop_
_atom_site_type_symbol
_atom_site_label
_atom_site_fract_x
_atom_site_fract_y
_atom_site_fract_z
Si Si1 0.500000 0.767432 0.750000
Si Si2 0.000000 0.735709 0.750000
Si Si3 0.060084 0.817899 0.150576
Si Si4 0.271538 0.376858 0.710818
Si Si5 0.146333 0.495367 0.360237
Si Si6 0.416851 0.920367 0.545991
Si Si7 0.162973 0.076716 0.145872
Si Si8 0.638614 0.898041 0.096955
O O1 0.447618 0.674412 0.783424
O O2 0.401593 0.862340 0.687115
O O3 0.902263 0.830033 0.745591
O O4 0.936646 0.638824 0.680966
O O5 0.180996 0.751523 0.171529
O O6 0.958412 0.730712 0.085956
O O7 0.052092 0.980595 0.123493
O O8 0.256959 0.425820 0.770377
O O9 0.242947 0.513624 0.660934
O O10 0.159435 0.507044 0.432265
O O11 0.273709 0.485430 0.380824
O O12 0.341796 0.894301 0.463758
O O13 0.520979 0.025870 0.570270
O O14 0.129229 0.236716 0.116589
#
# Coordination Sequence:
#
# PCOD8137209 Si02
#       8
#     4   4   8   8   8   8   8   8
#     4   9  18  35  58  92 123 161 202 252 315 369
#     4  11  22  39  62  96 125 165 210 260 313 369
#     4  10  20  37  64  91 125 163 208 255 312 375
#     4  11  22  39  62  93 125 164 206 260 314 369
#     4  10  20  35  66  89 121 164 207 254 310 369
#     4   9  21  44  64  85 124 172 207 245 315 383
#     4  12  22  36  63  93 125 157 205 268 311 359
#     4  10  23  41  66  89 126 165 206 258 312 372
#
# _framework density 21.739574000000001
#
# number of rings (size 3 to 8) (size 9 to 14) (size 15 to 20)
#    0.000    1.714    2.857    1.714    2.000    1.714 
#    2.571    0.714    3.143    0.000    0.000    0.000 
#    0.000    0.000    0.000    0.000    0.000    0.000 
#
# Total GULP energy -347068.197570 kJ/mol
# GULP energy per Si atom -12395.292770 kJ/mol
# Density = 2.169009 g / cm^3
# Si number density = 21.739574 Si / 1000 Ang^3
#
#
#
# Elastic Constant Matrix: (Units=GPa)
#
#
# Indices 1 2 3 4 5 6 
#
# 1 98.3659 43.1386 36.7448 0.0000 -28.1093 0.0000
# 2 43.1386 127.5952 52.6435 0.0000 -19.0026 0.0000
# 3 36.7448 52.6435 129.7100 0.0000 -41.6810 0.0000
# 4 0.0000 0.0000 0.0000 20.8722 0.0000 -9.8249
# 5 -28.1093 -19.0026 -41.6810 0.0000 38.4104 0.0000
# 6 0.0000 0.0000 0.0000 -9.8249 0.0000 20.9277
#
#
#
# Elastic Compliance Matrix: (Units=1/GPa)
#
#
# Indices 1 2 3 4 5 6 
#
# 1 0.014179 -0.003592 0.000314 0.000000 0.008940 0.000000
# 2 -0.003592 0.010339 -0.003654 0.000000 -0.001478 0.000000
# 3 0.000314 -0.003654 0.013199 0.000000 0.012745 0.000000
# 4 0.000000 0.000000 0.000000 0.061502 0.000000 0.028873
# 5 0.008940 -0.001478 0.012745 0.000000 0.045676 0.000000
# 6 0.000000 0.000000 0.000000 0.028873 0.000000 0.061338
#
#
# Mechanical properties :
#
#
# Convention : Reuss Voigt Hill
#
# Bulk Modulus (GPa) = 41.92278 68.96944 55.44611
# Shear Modulus (GPa) = 21.92534 30.91834 26.42184
#
# Velocity S-wave (km/s) = 3.17921 3.77532 3.49001
# Velocity P-wave (km/s) = 5.72734 7.12729 6.46532
#
# Compressibility (1/GPa) = 0.02385338
#
# Stress axis : x y z
#
# Youngs Moduli (GPa) = 70.52810 96.72220 75.76405
#
# Poissons Ratio (x) = 0.34740 -0.02378
# Poissons Ratio (y) = 0.25332 0.27682
# Poissons Ratio (z) = -0.02214 0.35339
#
# Static dielectric constant tensor:
#      x y z
#    x 3.898660 0.000000 -0.366000 
#    y 0.000000 3.914690 0.000000 
#    z -0.366000 0.000000 3.916210 
# 
# 
# High freq. dielectric constant tensor:
#      x y z
#    x 1.851810 0.000000 -0.025480 
#    y 0.000000 1.855830 0.000000 
#    z -0.025480 0.000000 1.834180 
# 
# From -- ./inp_files/273280.got.cif
#   From: 2010.06.25/outbox.cif.g09.slc.cpg/sg15_137_cif.got.tgz:273280.got - 2010.06.28 07:06:18.
