data_PCOD8137008
_publ_section_title
;
Structure prediction by ZEFSAII (Michael W. Deem and Ramdas Pophale) SiO2 
 PCOD8137008
Probable space group: C 2/C
;
_chemical_formula_sum "Si O2"
_cell_formula_units_Z 40
_cell_length_a 20.451372
_cell_length_b 6.710377
_cell_length_c 19.619056
_cell_angle_alpha 90.000000
_cell_angle_beta 130.635118
_cell_angle_gamma 90.000000
_cell_volume 2043.224888
_symmetry_space_group_name_H-M "C 2/C"
_symmetry_group_IT_number 15
_symmetry_cell_setting 'monoclinic'
loop_
_space_group_symop_operation_xyz
x,y,z
-x,y,1/2-z
-x,-y,-z
x,-y,1/2+z
1/2+x,1/2+y,z
1/2-x,1/2+y,1/2-z
1/2-x,1/2-y,-z
1/2+x,1/2-y,1/2+z
loop_
_atom_site_type_symbol
_atom_site_label
_atom_site_fract_x
_atom_site_fract_y
_atom_site_fract_z
Si Si1 0.644294 0.664772 0.720442
Si Si2 0.863336 0.547969 0.698319
Si Si3 0.841804 0.670938 0.540230
Si Si4 0.507117 0.619942 0.178652
Si Si5 0.718133 0.149813 0.142098
O O1 0.558413 0.531414 0.664687
O O2 0.649733 0.772235 0.651160
O O3 0.728829 0.531470 0.789930
O O4 0.639651 0.825863 0.776702
O O5 0.872792 0.525294 0.622349
O O6 0.943849 0.667753 0.784206
O O7 0.776891 0.665815 0.659294
O O8 0.750000 0.750000 0.500000
O O9 0.833769 0.569991 0.460011
O O10 0.912136 0.849323 0.582791
O O11 0.500000 0.528599 0.250000
#
# Coordination Sequence:
#
# PCOD8137008 Si02
#       5
#     8   8   8   8   8
#     4  11  20  35  62  83 114 155 189 229 288 341
#     4   9  19  37  58  80 116 151 185 236 280 337
#     4   9  19  38  58  82 116 149 191 239 279 331
#     4   9  20  37  57  84 114 148 190 235 286 336
#     4  10  20  35  58  86 113 150 192 231 281 340
#
# _framework density 19.576893999999999
#
# number of rings (size 3 to 8) (size 9 to 14) (size 15 to 20)
#    0.000    2.400    2.000    1.200    0.000    4.000 
#    0.000    5.000    0.000    0.000    0.000    0.000 
#    0.000    0.000    0.000    0.000    0.000    0.000 
#
# Total GULP energy -247899.267088 kJ/mol
# GULP energy per Si atom -12394.963354 kJ/mol
# Density = 1.953234 g / cm^3
# Si number density = 19.576894 Si / 1000 Ang^3
#
#
#
# Elastic Constant Matrix: (Units=GPa)
#
#
# Indices 1 2 3 4 5 6 
#
# 1 127.2777 47.4954 54.7676 0.0000 -6.9056 0.0000
# 2 47.4954 76.9108 31.3116 -0.0001 -3.8637 0.0002
# 3 54.7676 31.3116 96.7795 0.0000 -10.3508 0.0000
# 4 0.0000 -0.0001 0.0000 12.6026 0.0000 -4.4630
# 5 -6.9056 -3.8637 -10.3508 0.0000 39.7666 0.0000
# 6 0.0000 0.0002 0.0000 -4.4630 0.0000 34.9100
#
#
#
# Elastic Compliance Matrix: (Units=1/GPa)
#
#
# Indices 1 2 3 4 5 6 
#
# 1 0.012050 -0.005371 -0.005054 0.000000 0.000255 0.000000
# 2 -0.005371 0.017370 -0.002571 0.000000 0.000086 0.000000
# 3 -0.005054 -0.002571 0.014302 0.000000 0.002595 0.000000
# 4 0.000000 0.000000 0.000000 0.083111 0.000000 0.010625
# 5 0.000255 0.000086 0.002595 0.000000 0.025875 0.000000
# 6 0.000000 0.000000 0.000000 0.010625 0.000000 0.030003
#
#
# Mechanical properties :
#
#
# Convention : Reuss Voigt Hill
#
# Bulk Modulus (GPa) = 56.40240 63.12414 59.76327
# Shear Modulus (GPa) = 23.29775 28.61541 25.95658
#
# Velocity S-wave (km/s) = 3.45347 3.82736 3.64521
# Velocity P-wave (km/s) = 6.69143 7.20040 6.95057
#
# Compressibility (1/GPa) = 0.01772974
#
# Stress axis : x y z
#
# Youngs Moduli (GPa) = 82.99071 57.57115 69.91895
#
# Poissons Ratio (x) = 0.30920 0.35337
# Poissons Ratio (y) = 0.44572 0.17978
# Poissons Ratio (z) = 0.41943 0.14803
#
# Static dielectric constant tensor:
#      x y z
#    x 3.818000 0.000000 -0.136690 
#    y 0.000000 3.219360 0.000000 
#    z -0.136690 0.000000 3.796240 
# 
# 
# High freq. dielectric constant tensor:
#      x y z
#    x 1.779250 0.000000 -0.003380 
#    y 0.000000 1.731070 0.000000 
#    z -0.003380 0.000000 1.752280 
# 
# From -- ./inp_files/212716.got.cif
#   From: 2010.06.25/outbox.cif.g09.slc.cpg/sg15_107_cif.got.tgz:212716.got - 2010.06.28 07:06:18.
