data_PCOD8137037
_publ_section_title
;
Structure prediction by ZEFSAII (Michael W. Deem and Ramdas Pophale) SiO2 
 PCOD8137037
Probable space group: C 2/C
;
_chemical_formula_sum "Si O2"
_cell_formula_units_Z 64
_cell_length_a 23.271242
_cell_length_b 12.847742
_cell_length_c 11.961908
_cell_angle_alpha 90.000000
_cell_angle_beta 89.447594
_cell_angle_gamma 90.000000
_cell_volume 3576.239881
_symmetry_space_group_name_H-M "C 2/C"
_symmetry_group_IT_number 15
_symmetry_cell_setting 'monoclinic'
loop_
_space_group_symop_operation_xyz
x,y,z
-x,y,1/2-z
-x,-y,-z
x,-y,1/2+z
1/2+x,1/2+y,z
1/2-x,1/2+y,1/2-z
1/2-x,1/2-y,-z
1/2+x,1/2-y,1/2+z
loop_
_atom_site_type_symbol
_atom_site_label
_atom_site_fract_x
_atom_site_fract_y
_atom_site_fract_z
Si Si1 0.286991 0.930756 0.272991
Si Si2 0.188069 0.703881 0.517423
Si Si3 0.105955 0.118960 0.986411
Si Si4 0.833217 0.646478 0.229975
Si Si5 0.940654 0.992739 0.811989
Si Si6 0.731418 0.740237 0.373086
Si Si7 0.668411 0.534219 0.334647
Si Si8 0.562269 0.284855 0.260116
O O1 0.308520 0.881509 0.387299
O O2 0.293617 0.849976 0.170317
O O3 0.331386 0.025233 0.258088
O O4 0.221911 0.974332 0.276263
O O5 0.250000 0.750000 0.500000
O O6 0.142694 0.793801 0.551581
O O7 0.168533 0.652282 0.402995
O O8 0.071785 0.168720 0.883770
O O9 0.150869 0.032022 0.943370
O O10 0.059742 0.064421 0.068242
O O11 0.782648 0.711675 0.288125
O O12 0.891946 0.697366 0.273964
O O13 0.884612 0.953609 0.747796
O O14 0.000000 0.961318 0.750000
O O15 0.935832 0.117722 0.825925
O O16 0.750000 0.750000 0.500000
O O17 0.683835 0.650644 0.370705
O O18 0.500000 0.231224 0.250000
#
# Coordination Sequence:
#
# PCOD8137037 Si02
#       8
#     8   8   8   8   8   8   8   8
#     4  11  22  36  57  84 119 150 189 233 287 340
#     4  11  19  37  60  79 112 155 189 225 277 356
#     4  10  20  35  59  83 111 152 188 227 286 347
#     4  10  23  37  56  85 114 147 197 231 284 344
#     4  10  21  35  55  80 115 143 194 235 285 331
#     4  11  23  34  51  89 122 146 181 234 294 342
#     4  10  22  33  54  83 110 157 181 231 285 338
#     4   9  20  39  59  82 109 151 194 239 279 333
#
# _framework density 17.895892
#
# number of rings (size 3 to 8) (size 9 to 14) (size 15 to 20)
#    0.000    1.750    2.500    2.250    8.750    4.500 
#    0.000    0.000    0.000    6.000    0.000    0.000 
#    0.000    0.000    0.000    0.000    0.000    0.000 
#
# Total GULP energy -396761.258331 kJ/mol
# GULP energy per Si atom -12398.789323 kJ/mol
# Density = 1.785516 g / cm^3
# Si number density = 17.895892 Si / 1000 Ang^3
#
#
#
# Elastic Constant Matrix: (Units=GPa)
#
#
# Indices 1 2 3 4 5 6 
#
# 1 108.7720 54.8667 24.2979 0.0000 -2.9774 0.0000
# 2 54.8667 126.8215 44.5735 0.0000 -7.7877 0.0000
# 3 24.2979 44.5735 80.9242 0.0000 -8.4141 0.0000
# 4 0.0000 0.0000 0.0000 28.0138 0.0000 -2.5218
# 5 -2.9774 -7.7877 -8.4141 0.0000 18.6828 0.0000
# 6 0.0000 0.0000 0.0000 -2.5218 0.0000 25.8876
#
#
#
# Elastic Compliance Matrix: (Units=1/GPa)
#
#
# Indices 1 2 3 4 5 6 
#
# 1 0.011819 -0.004811 -0.000956 0.000000 -0.000553 0.000000
# 2 -0.004811 0.011790 -0.004845 0.000000 0.001966 0.000000
# 3 -0.000956 -0.004845 0.015828 0.000000 0.004957 0.000000
# 4 0.000000 0.000000 0.000000 0.036012 0.000000 0.003508
# 5 -0.000553 0.001966 0.004957 0.000000 0.056489 0.000000
# 6 0.000000 0.000000 0.000000 0.003508 0.000000 0.038970
#
#
# Mechanical properties :
#
#
# Convention : Reuss Voigt Hill
#
# Bulk Modulus (GPa) = 54.90683 62.66601 58.78642
# Shear Modulus (GPa) = 25.22650 27.36882 26.29766
#
# Velocity S-wave (km/s) = 3.75857 3.91491 3.83754
# Velocity P-wave (km/s) = 7.04157 7.45174 7.24955
#
# Compressibility (1/GPa) = 0.01821267
#
# Stress axis : x y z
#
# Youngs Moduli (GPa) = 84.61106 84.81693 63.17751
#
# Poissons Ratio (x) = 0.40806 0.06041
# Poissons Ratio (y) = 0.40707 0.30610
# Poissons Ratio (z) = 0.08090 0.41095
#
# Static dielectric constant tensor:
#      x y z
#    x 3.328440 0.000000 0.031130 
#    y 0.000000 3.589180 0.000000 
#    z 0.031130 0.000000 2.915440 
# 
# 
# High freq. dielectric constant tensor:
#      x y z
#    x 1.683280 0.000000 0.009600 
#    y 0.000000 1.693430 0.000000 
#    z 0.009600 0.000000 1.689550 
# 
# From -- ./inp_files/117566.got.cif
#   From: 2010.06.25/outbox.cif.g09.slc.cpg/sg15_59_cif.got.tgz:117566.got - 2010.06.28 07:06:18.
