data_PCOD8137242
_publ_section_title
;
Structure prediction by ZEFSAII (Michael W. Deem and Ramdas Pophale) SiO2 
 PCOD8137242
Probable space group: C 2/C
;
_chemical_formula_sum "Si O2"
_cell_formula_units_Z 64
_cell_length_a 24.378356
_cell_length_b 28.517451
_cell_length_c 9.344029
_cell_angle_alpha 90.000000
_cell_angle_beta 29.879949
_cell_angle_gamma 90.000000
_cell_volume 3236.229874
_symmetry_space_group_name_H-M "C 2/C"
_symmetry_group_IT_number 15
_symmetry_cell_setting 'monoclinic'
loop_
_space_group_symop_operation_xyz
x,y,z
-x,y,1/2-z
-x,-y,-z
x,-y,1/2+z
1/2+x,1/2+y,z
1/2-x,1/2+y,1/2-z
1/2-x,1/2-y,-z
1/2+x,1/2-y,1/2+z
loop_
_atom_site_type_symbol
_atom_site_label
_atom_site_fract_x
_atom_site_fract_y
_atom_site_fract_z
Si Si1 0.889025 0.839396 0.678232
Si Si2 0.963799 0.545010 0.670252
Si Si3 0.434958 0.185461 0.758316
Si Si4 0.641821 0.344196 0.154612
Si Si5 0.279974 0.731362 0.234768
Si Si6 0.054796 0.627209 0.277667
Si Si7 0.769546 0.396490 0.660675
Si Si8 0.723505 0.668180 0.775941
O O1 0.861071 0.787578 0.677008
O O2 0.819347 0.879664 0.755400
O O3 0.018532 0.848358 0.372889
O O4 0.857990 0.844394 0.913083
O O5 0.000000 0.538040 0.750000
O O6 0.000000 0.500000 0.500000
O O7 0.030382 0.586544 0.444734
O O8 0.828941 0.554274 0.982325
O O9 0.500000 0.203615 0.750000
O O10 0.512837 0.176319 0.444012
O O11 0.345103 0.225095 0.922916
O O12 0.374843 0.137143 0.931912
O O13 0.645951 0.331871 0.312029
O O14 0.703346 0.300703 0.941738
O O15 0.706610 0.392109 0.957731
O O16 0.293228 0.784940 0.157290
O O17 0.000000 0.617046 0.250000
O O18 0.185109 0.628612 0.955993
#
# Coordination Sequence:
#
# PCOD8137242 Si02
#       8
#     8   8   8   8   8   8   8   8
#     4  10  21  36  52  74 107 149 196 240 277 324
#     4  11  22  38  62  92 118 140 168 212 276 351
#     4   9  17  32  50  69 101 142 182 228 278 330
#     4  10  20  36  54  75 104 148 199 241 277 325
#     4  10  21  34  47  70 103 146 195 240 284 330
#     4  11  21  35  54  80 112 149 180 221 283 344
#     4   9  18  37  57  78 107 142 177 213 268 338
#     4  12  22  32  49  78 109 142 190 245 286 324
#
# _framework density 19.776098999999999
#
# number of rings (size 3 to 8) (size 9 to 14) (size 15 to 20)
#    0.000    2.000    0.000    9.000    0.000    3.000 
#    0.000    0.000    0.000    0.000    0.000   15.750 
#    0.000    0.000    0.000    0.000    0.000    0.000 
#
# Total GULP energy -396447.985846 kJ/mol
# GULP energy per Si atom -12388.999558 kJ/mol
# Density = 1.973109 g / cm^3
# Si number density = 19.776099 Si / 1000 Ang^3
#
#
#
# Elastic Constant Matrix: (Units=GPa)
#
#
# Indices 1 2 3 4 5 6 
#
# 1 115.9776 30.7136 34.5480 0.0001 12.5595 -0.0001
# 2 30.7136 68.0312 41.2778 0.0002 0.1481 -0.0001
# 3 34.5480 41.2778 88.6328 -0.0002 0.0206 -0.0001
# 4 0.0001 0.0002 -0.0002 24.2092 0.0001 6.0165
# 5 12.5595 0.1481 0.0206 0.0001 45.9720 0.0001
# 6 -0.0001 -0.0001 -0.0001 6.0165 0.0001 3.5113
#
#
#
# Elastic Compliance Matrix: (Units=1/GPa)
#
#
# Indices 1 2 3 4 5 6 
#
# 1 0.010557 -0.003155 -0.002645 0.000000 -0.002873 0.000000
# 2 -0.003155 0.021432 -0.008752 0.000000 0.000797 0.000001
# 3 -0.002645 -0.008752 0.016389 0.000000 0.000743 0.000000
# 4 0.000000 0.000000 0.000000 0.071942 0.000000 -0.123271
# 5 -0.002873 0.000797 0.000743 0.000000 0.022534 -0.000001
# 6 0.000000 0.000001 0.000000 -0.123271 -0.000001 0.496020
#
#
# Mechanical properties :
#
#
# Convention : Reuss Voigt Hill
#
# Bulk Modulus (GPa) = 51.88141 53.96893 52.92517
# Shear Modulus (GPa) = 7.41398 25.81198 16.61298
#
# Velocity S-wave (km/s) = 1.93832 3.61669 2.90151
# Velocity P-wave (km/s) = 5.59471 6.69252 6.16809
#
# Compressibility (1/GPa) = 0.01927473
#
# Stress axis : x y z
#
# Youngs Moduli (GPa) = 94.72525 46.65979 61.01635
#
# Poissons Ratio (x) = 0.14721 0.16138
# Poissons Ratio (y) = 0.29885 0.53399
# Poissons Ratio (z) = 0.25054 0.40835
#
# Static dielectric constant tensor:
#      x y z
#    x 3.621950 0.000000 0.144410 
#    y 0.000000 3.385990 0.000000 
#    z 0.144410 0.000000 4.100790 
# 
# 
# High freq. dielectric constant tensor:
#      x y z
#    x 1.782290 0.000000 0.010980 
#    y 0.000000 1.709490 0.000000 
#    z 0.010980 0.000000 1.789150 
# 
# From -- ./inp_files/64202.got.cif
#   From: 2010.06.25/outbox.cif.g09.slc.cpg/sg15_33_cif.got.tgz:64202.got - 2010.06.28 07:06:18.
