data_PCOD8137201
_publ_section_title
;
Structure prediction by ZEFSAII (Michael W. Deem and Ramdas Pophale) SiO2 
 PCOD8137201
Probable space group: C 2/C
;
_chemical_formula_sum "Si O2"
_cell_formula_units_Z 56
_cell_length_a 9.867762
_cell_length_b 15.976776
_cell_length_c 18.096622
_cell_angle_alpha 90.000000
_cell_angle_beta 76.920783
_cell_angle_gamma 90.000000
_cell_volume 2779.010561
_symmetry_space_group_name_H-M "C 2/C"
_symmetry_group_IT_number 15
_symmetry_cell_setting 'monoclinic'
loop_
_space_group_symop_operation_xyz
x,y,z
-x,y,1/2-z
-x,-y,-z
x,-y,1/2+z
1/2+x,1/2+y,z
1/2-x,1/2+y,1/2-z
1/2-x,1/2-y,-z
1/2+x,1/2-y,1/2+z
loop_
_atom_site_type_symbol
_atom_site_label
_atom_site_fract_x
_atom_site_fract_y
_atom_site_fract_z
Si Si1 0.188719 0.351392 0.456274
Si Si2 0.794176 0.572373 0.825832
Si Si3 0.230511 0.808968 0.864645
Si Si4 0.589541 0.043857 0.838754
Si Si5 0.496714 0.865767 0.606613
Si Si6 0.629401 0.451695 0.950791
Si Si7 0.138360 0.229954 0.782744
O O1 0.241244 0.257679 0.430874
O O2 0.178368 0.394992 0.378417
O O3 0.039924 0.346488 0.516512
O O4 0.294592 0.406765 0.490490
O O5 0.821290 0.522890 0.745802
O O6 0.719915 0.520262 0.898283
O O7 0.696291 0.650741 0.819101
O O8 0.946798 0.594320 0.838898
O O9 0.368493 0.866639 0.856336
O O10 0.101598 0.874384 0.895104
O O11 0.235410 0.765761 0.784046
O O12 0.569213 0.957179 0.883737
O O13 0.390318 0.796656 0.649449
O O14 0.500000 0.500000 0.000000
O O15 0.000000 0.209960 0.750000
#
# Coordination Sequence:
#
# PCOD8137201 Si02
#       7
#     8   8   8   8   8   8   8
#     4  11  22  40  63  93 124 163 203 257 315 364
#     4  11  23  38  60  93 120 162 206 254 309 369
#     4  10  20  40  59  92 119 163 205 248 305 372
#     4  11  22  41  64  88 123 164 208 253 305 376
#     4  10  20  35  65  87 114 157 211 247 292 372
#     4  11  24  37  64  94 132 156 206 263 317 366
#     4  10  22  38  65  89 121 159 212 259 307 371
#
# _framework density 20.151057999999999
#
# number of rings (size 3 to 8) (size 9 to 14) (size 15 to 20)
#    0.000    1.429    4.286    3.000   10.000    0.000 
#    0.000    2.143    0.000    1.714    0.000    0.000 
#    0.000    0.000    0.000    0.000    0.000    0.000 
#
# Total GULP energy -346914.273607 kJ/mol
# GULP energy per Si atom -12389.795486 kJ/mol
# Density = 2.010519 g / cm^3
# Si number density = 20.151058 Si / 1000 Ang^3
#
#
#
# Elastic Constant Matrix: (Units=GPa)
#
#
# Indices 1 2 3 4 5 6 
#
# 1 55.1793 45.9513 30.2152 0.0000 -12.3490 0.0000
# 2 45.9513 113.3074 32.7872 0.0000 -16.8041 0.0000
# 3 30.2152 32.7872 102.2550 0.0000 -27.1798 0.0000
# 4 0.0000 0.0000 0.0000 42.2546 0.0000 -7.5049
# 5 -12.3490 -16.8041 -27.1798 0.0000 30.1356 0.0000
# 6 0.0000 0.0000 0.0000 -7.5049 0.0000 29.1387
#
#
#
# Elastic Compliance Matrix: (Units=1/GPa)
#
#
# Indices 1 2 3 4 5 6 
#
# 1 0.029974 -0.010419 -0.004993 0.000000 0.001970 0.000000
# 2 -0.010419 0.013628 -0.000534 0.000000 0.002848 0.000000
# 3 -0.004993 -0.000534 0.014209 0.000000 0.010472 0.000000
# 4 0.000000 0.000000 0.000000 0.024801 0.000000 0.006388
# 5 0.001970 0.002848 0.010472 0.000000 0.045024 0.000000
# 6 0.000000 0.000000 0.000000 0.006388 0.000000 0.035964
#
#
# Mechanical properties :
#
#
# Convention : Reuss Voigt Hill
#
# Bulk Modulus (GPa) = 38.57974 54.29434 46.43704
# Shear Modulus (GPa) = 24.49416 31.09165 27.79290
#
# Velocity S-wave (km/s) = 3.49022 3.93227 3.71782
# Velocity P-wave (km/s) = 5.95223 6.90067 6.44392
#
# Compressibility (1/GPa) = 0.02592034
#
# Stress axis : x y z
#
# Youngs Moduli (GPa) = 33.36224 73.37949 70.37569
#
# Poissons Ratio (x) = 0.76454 0.35136
# Poissons Ratio (y) = 0.34760 0.03758
# Poissons Ratio (z) = 0.16656 0.03918
#
# Static dielectric constant tensor:
#      x y z
#    x 3.344510 0.000000 -0.262410 
#    y 0.000000 3.859720 0.000000 
#    z -0.262410 0.000000 4.064950 
# 
# 
# High freq. dielectric constant tensor:
#      x y z
#    x 1.732200 0.000000 -0.018090 
#    y 0.000000 1.800190 0.000000 
#    z -0.018090 0.000000 1.814320 
# 
# From -- ./inp_files/238329.got.cif
#   From: 2010.06.25/outbox.cif.g09.slc.cpg/sg15_120_cif.got.tgz:238329.got - 2010.06.28 07:06:18.
