data_PCOD8137792
_publ_section_title
;
Structure prediction by ZEFSAII (Michael W. Deem and Ramdas Pophale) SiO2 
 PCOD8137792
Probable space group: C 2/C
;
_chemical_formula_sum "Si O2"
_cell_formula_units_Z 60
_cell_length_a 19.199754
_cell_length_b 5.243848
_cell_length_c 25.693786
_cell_angle_alpha 90.000000
_cell_angle_beta 93.147815
_cell_angle_gamma 90.000000
_cell_volume 2582.962493
_symmetry_space_group_name_H-M "C 2/C"
_symmetry_group_IT_number 15
_symmetry_cell_setting 'monoclinic'
loop_
_space_group_symop_operation_xyz
x,y,z
-x,y,1/2-z
-x,-y,-z
x,-y,1/2+z
1/2+x,1/2+y,z
1/2-x,1/2+y,1/2-z
1/2-x,1/2-y,-z
1/2+x,1/2-y,1/2+z
loop_
_atom_site_type_symbol
_atom_site_label
_atom_site_fract_x
_atom_site_fract_y
_atom_site_fract_z
Si Si1 0.917037 0.979859 0.987178
Si Si2 0.446993 0.980419 0.949698
Si Si3 0.500000 0.982151 0.750000
Si Si4 0.650033 0.107196 0.741402
Si Si5 0.159874 0.908698 0.177203
Si Si6 0.508839 0.704233 0.645285
Si Si7 0.699715 0.966107 0.359610
Si Si8 0.869436 0.027718 0.598789
O O1 0.872518 0.935354 0.037107
O O2 0.902770 0.742373 0.947375
O O3 0.894613 0.242022 0.957822
O O4 0.000000 0.000000 0.000000
O O5 0.486009 0.937361 0.896253
O O6 0.500000 0.000000 0.000000
O O7 0.484647 0.805679 0.699853
O O8 0.567117 0.156058 0.743345
O O9 0.679496 0.367518 0.718630
O O10 0.683770 0.062686 0.798224
O O11 0.665120 0.866326 0.705036
O O12 0.082244 0.945634 0.150979
O O13 0.216378 0.932406 0.132881
O O14 0.448186 0.513942 0.624236
O O15 0.664280 0.744427 0.391334
O O16 0.674767 0.240864 0.378755
#
# Coordination Sequence:
#
# PCOD8137792 Si02
#       8
#     8   8   4   8   8   8   8   8
#     4  10  20  36  62  97 123 154 213 272 318 376
#     4  10  20  37  63  94 125 164 214 265 318 388
#     4  10  24  38  62 108 132 158 210 292 316 380
#     4  11  23  41  65  88 130 176 227 256 323 384
#     4  11  26  43  62  89 132 179 218 260 327 396
#     4  11  24  42  67 100 133 170 215 275 331 378
#     4  12  25  42  64  91 132 175 218 265 322 395
#     4  12  24  39  69  98 124 163 221 275 320 369
#
# _framework density 23.229142
#
# number of rings (size 3 to 8) (size 9 to 14) (size 15 to 20)
#    0.000    1.067    4.000    3.200    5.600    2.667 
#    0.000    0.000    0.000    4.800    0.000    0.000 
#    0.000    0.000    0.000    0.000    0.000    0.000 
#
# Total GULP energy -371917.077083 kJ/mol
# GULP energy per Si atom -12397.235903 kJ/mol
# Density = 2.317627 g / cm^3
# Si number density = 23.229142 Si / 1000 Ang^3
#
#
#
# Elastic Constant Matrix: (Units=GPa)
#
#
# Indices 1 2 3 4 5 6 
#
# 1 78.6158 13.6797 5.8617 0.0000 -28.7723 0.0000
# 2 13.6797 147.5486 27.7797 0.0000 -9.5432 0.0000
# 3 5.8617 27.7797 110.4626 0.0000 -18.4397 0.0000
# 4 0.0000 0.0000 0.0000 20.3782 0.0000 -43.7336
# 5 -28.7723 -9.5432 -18.4397 0.0000 24.6825 0.0000
# 6 0.0000 0.0000 0.0000 -43.7336 0.0000 -17.6037
#
#
#
# Elastic Compliance Matrix: (Units=1/GPa)
#
#
# Indices 1 2 3 4 5 6 
#
# 1 0.023641 -0.000999 0.004036 0.000000 0.030187 0.000000
# 2 -0.000999 0.007213 -0.001702 0.000000 0.000352 0.000000
# 3 0.004036 -0.001702 0.011359 0.000000 0.012533 0.000000
# 4 0.000000 0.000000 0.000000 0.007750 0.000000 -0.019254
# 5 0.030187 0.000352 0.012533 0.000000 0.085203 0.000000
# 6 0.000000 0.000000 0.000000 -0.019254 0.000000 -0.008972
#
#
# Mechanical properties :
#
#
# Convention : Reuss Voigt Hill
#
# Bulk Modulus (GPa) = 22.28044 47.91883 35.09963
# Shear Modulus (GPa) = 36.10459 24.77844 30.44152
#
# Velocity S-wave (km/s) = 3.94671 3.26958 3.62399
# Velocity P-wave (km/s) = 5.51191 5.90991 5.71438
#
# Compressibility (1/GPa) = 0.04488242
#
# Stress axis : x y z
#
# Youngs Moduli (GPa) = 42.29909 138.63191 88.03730
#
# Poissons Ratio (x) = 0.13853 -0.35532
# Poissons Ratio (y) = 0.04227 0.14986
# Poissons Ratio (z) = -0.17072 0.23598
#
# Static dielectric constant tensor:
#      x y z
#    x 4.235070 0.000000 -0.198950 
#    y 0.000000 3.803140 0.000000 
#    z -0.198950 0.000000 4.257750 
# 
# 
# High freq. dielectric constant tensor:
#      x y z
#    x 1.890860 0.000000 -0.015510 
#    y 0.000000 1.930590 0.000000 
#    z -0.015510 0.000000 1.926870 
# 
# From -- ./inp_files/299897.got.cif
#   From: 2010.06.25/outbox.cif.g09.slc.cpg/sg15_150_cif.got.tgz:299897.got - 2010.06.28 07:06:18.
