data_PCOD8137435
_publ_section_title
;
Structure prediction by ZEFSAII (Michael W. Deem and Ramdas Pophale) SiO2 
 PCOD8137435
Probable space group: C 2/C
;
_chemical_formula_sum "Si O2"
_cell_formula_units_Z 60
_cell_length_a 11.333296
_cell_length_b 15.114883
_cell_length_c 18.830965
_cell_angle_alpha 90.000000
_cell_angle_beta 61.804748
_cell_angle_gamma 90.000000
_cell_volume 2843.009849
_symmetry_space_group_name_H-M "C 2/C"
_symmetry_group_IT_number 15
_symmetry_cell_setting 'monoclinic'
loop_
_space_group_symop_operation_xyz
x,y,z
-x,y,1/2-z
-x,-y,-z
x,-y,1/2+z
1/2+x,1/2+y,z
1/2-x,1/2+y,1/2-z
1/2-x,1/2-y,-z
1/2+x,1/2-y,1/2+z
loop_
_atom_site_type_symbol
_atom_site_label
_atom_site_fract_x
_atom_site_fract_y
_atom_site_fract_z
Si Si1 0.810548 0.975318 0.605745
Si Si2 0.762147 0.127497 0.254960
Si Si3 0.928704 0.078027 0.925608
Si Si4 0.963997 0.379887 0.479486
Si Si5 0.204830 0.514174 0.889660
Si Si6 0.306517 0.157379 0.894248
Si Si7 0.428400 0.751099 0.606229
Si Si8 0.000000 0.225165 0.250000
O O1 0.745472 0.903424 0.678084
O O2 0.845694 0.925349 0.522650
O O3 0.702482 0.052712 0.621488
O O4 0.942646 0.014822 0.605487
O O5 0.654564 0.204281 0.305420
O O6 0.913416 0.162847 0.222389
O O7 0.736959 0.042758 0.311615
O O8 0.843709 0.047227 0.882437
O O9 0.967586 0.178977 0.894460
O O10 0.873328 0.462880 0.526579
O O11 0.867098 0.325656 0.454715
O O12 0.003959 0.325658 0.538837
O O13 0.102070 0.405898 0.399505
O O14 0.161162 0.200271 0.927203
O O15 0.400256 0.209429 0.815448
#
# Coordination Sequence:
#
# PCOD8137435 Si02
#       8
#     8   8   8   8   8   8   8   4
#     4  10  21  36  62  87 121 151 204 247 303 349
#     4  10  21  39  58  90 120 161 194 251 299 359
#     4  10  20  38  60  90 115 158 197 250 296 363
#     4  10  20  36  58  86 114 160 192 250 289 356
#     4  10  21  37  60  81 121 155 203 232 300 362
#     4  10  20  36  58  90 115 151 202 252 291 354
#     4   9  21  37  60  87 123 148 201 249 304 347
#     4  10  22  34  60  86 122 150 200 250 306 340
#
# _framework density 21.104392000000001
#
# number of rings (size 3 to 8) (size 9 to 14) (size 15 to 20)
#    0.000    2.133    1.333    1.200    3.733    0.533 
#    0.000    0.000    0.000    1.600    0.000    0.000 
#    0.000    0.000    0.000    0.000    0.000    0.000 
#
# Total GULP energy -371879.410564 kJ/mol
# GULP energy per Si atom -12395.980352 kJ/mol
# Density = 2.105636 g / cm^3
# Si number density = 21.104392 Si / 1000 Ang^3
#
#
#
# Elastic Constant Matrix: (Units=GPa)
#
#
# Indices 1 2 3 4 5 6 
#
# 1 40.8235 15.7668 10.2963 0.0000 -10.1244 0.0000
# 2 15.7668 96.9056 33.4132 0.0000 -11.2733 0.0000
# 3 10.2963 33.4132 73.4823 0.0000 1.5712 0.0000
# 4 0.0000 0.0000 0.0000 27.4022 0.0000 -0.2623
# 5 -10.1244 -11.2733 1.5712 0.0000 19.7567 0.0000
# 6 0.0000 0.0000 0.0000 -0.2623 0.0000 37.5372
#
#
#
# Elastic Compliance Matrix: (Units=1/GPa)
#
#
# Indices 1 2 3 4 5 6 
#
# 1 0.029721 -0.001916 -0.003602 0.000000 0.014424 0.000000
# 2 -0.001916 0.013560 -0.006052 0.000000 0.007237 0.000000
# 3 -0.003602 -0.006052 0.017008 0.000000 -0.006652 0.000000
# 4 0.000000 0.000000 0.000000 0.036496 0.000000 0.000255
# 5 0.014424 0.007237 -0.006652 0.000000 0.062666 0.000000
# 6 0.000000 0.000000 0.000000 0.000255 0.000000 0.026642
#
#
# Mechanical properties :
#
#
# Convention : Reuss Voigt Hill
#
# Bulk Modulus (GPa) = 26.91848 36.68487 31.80167
# Shear Modulus (GPa) = 22.56175 27.05492 24.80833
#
# Velocity S-wave (km/s) = 3.27319 3.58433 3.43228
# Velocity P-wave (km/s) = 5.20265 5.87794 5.55058
#
# Compressibility (1/GPa) = 0.03714921
#
# Stress axis : x y z
#
# Youngs Moduli (GPa) = 33.64595 73.74828 58.79756
#
# Poissons Ratio (x) = 0.14129 0.21177
# Poissons Ratio (y) = 0.06446 0.35584
# Poissons Ratio (z) = 0.12118 0.44632
#
# Static dielectric constant tensor:
#      x y z
#    x 3.405410 0.000000 0.102050 
#    y 0.000000 4.028950 0.000000 
#    z 0.102050 0.000000 3.492940 
# 
# 
# High freq. dielectric constant tensor:
#      x y z
#    x 1.816610 0.000000 -0.007680 
#    y 0.000000 1.830850 0.000000 
#    z -0.007680 0.000000 1.812270 
# 
# From -- ./inp_files/198286.got.cif
#   From: 2010.06.25/outbox.cif.g09.slc.cpg/sg15_100_cif.got.tgz:198286.got - 2010.06.28 07:06:18.
