data_PCOD8137128
_publ_section_title
;
Structure prediction by ZEFSAII (Michael W. Deem and Ramdas Pophale) SiO2 
 PCOD8137128
Probable space group: C 2/C
;
_chemical_formula_sum "Si O2"
_cell_formula_units_Z 56
_cell_length_a 16.610639
_cell_length_b 9.667304
_cell_length_c 26.184041
_cell_angle_alpha 90.000000
_cell_angle_beta 40.736485
_cell_angle_gamma 90.000000
_cell_volume 2743.865625
_symmetry_space_group_name_H-M "C 2/C"
_symmetry_group_IT_number 15
_symmetry_cell_setting 'monoclinic'
loop_
_space_group_symop_operation_xyz
x,y,z
-x,y,1/2-z
-x,-y,-z
x,-y,1/2+z
1/2+x,1/2+y,z
1/2-x,1/2+y,1/2-z
1/2-x,1/2-y,-z
1/2+x,1/2-y,1/2+z
loop_
_atom_site_type_symbol
_atom_site_label
_atom_site_fract_x
_atom_site_fract_y
_atom_site_fract_z
Si Si1 0.035721 0.710517 0.019980
Si Si2 0.677141 0.609209 0.831871
Si Si3 0.945777 0.308276 0.198324
Si Si4 0.500000 0.037695 0.250000
Si Si5 0.710424 0.568659 0.703813
Si Si6 0.000000 0.083783 0.250000
Si Si7 0.014779 0.573362 0.926634
Si Si8 0.747998 0.349733 0.864116
O O1 0.940668 0.801594 0.097198
O O2 0.068599 0.566299 0.033840
O O3 0.980228 0.670946 0.990925
O O4 0.160418 0.798554 0.952230
O O5 0.797044 0.711003 0.771366
O O6 0.653244 0.541566 0.787447
O O7 0.692009 0.487299 0.865729
O O8 0.968714 0.451441 0.215284
O O9 0.999904 0.328766 0.115663
O O10 0.016661 0.182016 0.192092
O O11 0.617231 0.127542 0.176833
O O12 0.621002 0.509556 0.702161
O O13 0.847587 0.505469 0.633952
O O14 0.733730 0.732676 0.687371
#
# Coordination Sequence:
#
# PCOD8137128 Si02
#       8
#     8   8   8   4   8   4   8   8
#     4  10  20  35  61  90 121 152 203 258 298 356
#     4  10  21  35  64  90 119 160 208 253 299 365
#     4   9  20  37  63  86 116 161 204 248 298 369
#     4   9  19  36  60  80 119 153 202 242 302 365
#     4  10  22  34  61  88 118 157 204 257 294 363
#     4  11  21  36  60  94 119 149 208 260 302 353
#     4   9  20  38  61  87 120 158 204 248 309 352
#     4  10  21  38  57  87 119 160 198 253 308 362
#
# _framework density 20.409161999999998
#
# number of rings (size 3 to 8) (size 9 to 14) (size 15 to 20)
#    0.000    2.286    0.000    1.714   12.000    0.000 
#    0.000    0.714    9.429   15.429    0.000    0.000 
#    0.000    0.000    0.000    0.000    0.000    0.000 
#
# Total GULP energy -347039.081412 kJ/mol
# GULP energy per Si atom -12394.252908 kJ/mol
# Density = 2.036271 g / cm^3
# Si number density = 20.409162 Si / 1000 Ang^3
#
#
#
# Elastic Constant Matrix: (Units=GPa)
#
#
# Indices 1 2 3 4 5 6 
#
# 1 76.7279 11.4748 26.7938 0.0000 0.4578 0.0001
# 2 11.4748 59.8951 23.7554 0.0000 -0.9213 0.0003
# 3 26.7938 23.7554 99.9651 0.0000 6.0788 0.0000
# 4 0.0000 0.0000 0.0000 33.9945 0.0000 -0.9319
# 5 0.4578 -0.9213 6.0788 0.0000 26.5885 0.0000
# 6 0.0001 0.0003 0.0000 -0.9319 0.0000 25.8942
#
#
#
# Elastic Compliance Matrix: (Units=1/GPa)
#
#
# Indices 1 2 3 4 5 6 
#
# 1 0.014486 -0.001341 -0.003596 0.000000 0.000526 0.000000
# 2 -0.001341 0.018630 -0.004166 0.000000 0.001621 0.000000
# 3 -0.003596 -0.004166 0.012131 0.000000 -0.002856 0.000000
# 4 0.000000 0.000000 0.000000 0.029446 0.000000 0.001060
# 5 0.000526 0.001621 -0.002856 0.000000 0.038310 0.000000
# 6 0.000000 0.000000 0.000000 0.001060 0.000000 0.038657
#
#
# Mechanical properties :
#
#
# Convention : Reuss Voigt Hill
#
# Bulk Modulus (GPa) = 36.98134 40.07067 38.52601
# Shear Modulus (GPa) = 27.95160 28.93305 28.44233
#
# Velocity S-wave (km/s) = 3.70477 3.76925 3.73715
# Velocity P-wave (km/s) = 6.03819 6.21445 6.12695
#
# Compressibility (1/GPa) = 0.02704066
#
# Stress axis : x y z
#
# Youngs Moduli (GPa) = 69.03094 53.67645 82.43258
#
# Poissons Ratio (x) = 0.07198 0.29644
# Poissons Ratio (y) = 0.09256 0.34345
# Poissons Ratio (z) = 0.24824 0.22364
#
# Static dielectric constant tensor:
#      x y z
#    x 3.667260 0.000000 -0.103010 
#    y 0.000000 3.690050 0.000000 
#    z -0.103010 0.000000 3.694420 
# 
# 
# High freq. dielectric constant tensor:
#      x y z
#    x 1.773820 0.000000 0.005460 
#    y 0.000000 1.806820 0.000000 
#    z 0.005460 0.000000 1.788300 
# 
# From -- ./inp_files/298530.got.cif
#   From: 2010.06.25/outbox.cif.g09.slc.cpg/sg15_150_cif.got.tgz:298530.got - 2010.06.28 07:06:18.
