data_PCOD8137263
_publ_section_title
;
Structure prediction by ZEFSAII (Michael W. Deem and Ramdas Pophale) SiO2 
 PCOD8137263
Probable space group: C 2/C
;
_chemical_formula_sum "Si O2"
_cell_formula_units_Z 40
_cell_length_a 24.766428
_cell_length_b 15.635433
_cell_length_c 9.997505
_cell_angle_alpha 90.000000
_cell_angle_beta 148.314424
_cell_angle_gamma 90.000000
_cell_volume 2033.467026
_symmetry_space_group_name_H-M "C 2/C"
_symmetry_group_IT_number 15
_symmetry_cell_setting 'monoclinic'
loop_
_space_group_symop_operation_xyz
x,y,z
-x,y,1/2-z
-x,-y,-z
x,-y,1/2+z
1/2+x,1/2+y,z
1/2-x,1/2+y,1/2-z
1/2-x,1/2-y,-z
1/2+x,1/2-y,1/2+z
loop_
_atom_site_type_symbol
_atom_site_label
_atom_site_fract_x
_atom_site_fract_y
_atom_site_fract_z
Si Si1 0.772550 0.848789 0.532344
Si Si2 0.039370 0.771040 0.692611
Si Si3 0.661482 0.106157 0.039273
Si Si4 0.382868 0.914523 0.518686
Si Si5 0.842521 0.311901 0.688569
O O1 0.750000 0.750000 0.500000
O O2 0.889016 0.846569 0.719119
O O3 0.765436 0.892835 0.665326
O O4 0.689087 0.896145 0.261403
O O5 0.090991 0.678291 0.823266
O O6 0.000000 0.809030 0.750000
O O7 0.944021 0.747305 0.397437
O O8 0.673925 0.125502 0.220927
O O9 0.610418 0.013511 0.925870
O O10 0.330958 0.865334 0.530486
O O11 0.500000 0.881789 0.750000
O O12 0.750000 0.250000 0.500000
#
# Coordination Sequence:
#
# PCOD8137263 Si02
#       5
#     8   8   8   8   8
#     4  10  20  36  55  78 112 149 179 214 275 341
#     4   9  18  35  57  79 110 148 183 224 277 330
#     4  10  21  36  55  84 116 141 174 229 290 330
#     4  12  22  34  58  88 112 138 181 235 283 327
#     4  11  22  36  57  83 110 145 189 232 270 325
#
# _framework density 19.670839000000001
#
# number of rings (size 3 to 8) (size 9 to 14) (size 15 to 20)
#    0.000    1.600    0.000    9.000    0.000    2.400 
#    0.000    0.000    0.000   13.200    0.000    0.000 
#    0.000    0.000    0.000    0.000    0.000    0.000 
#
# Total GULP energy -247779.942274 kJ/mol
# GULP energy per Si atom -12388.997114 kJ/mol
# Density = 1.962607 g / cm^3
# Si number density = 19.670839 Si / 1000 Ang^3
#
#
#
# Elastic Constant Matrix: (Units=GPa)
#
#
# Indices 1 2 3 4 5 6 
#
# 1 149.4954 35.2725 25.6569 0.0000 7.4792 0.0000
# 2 35.2725 60.6311 20.8874 0.0000 12.2072 0.0000
# 3 25.6569 20.8874 49.6041 0.0000 12.5512 0.0000
# 4 0.0000 0.0000 0.0000 23.2812 0.0000 -2.3511
# 5 7.4792 12.2072 12.5512 0.0000 29.2611 0.0000
# 6 0.0000 0.0000 0.0000 -2.3511 0.0000 34.1944
#
#
#
# Elastic Compliance Matrix: (Units=1/GPa)
#
#
# Indices 1 2 3 4 5 6 
#
# 1 0.008034 -0.003890 -0.002702 0.000000 0.000728 0.000000
# 2 -0.003890 0.021884 -0.005771 0.000000 -0.005660 0.000000
# 3 -0.002702 -0.005771 0.026028 0.000000 -0.008066 0.000000
# 4 0.000000 0.000000 0.000000 0.043253 0.000000 0.002974
# 5 0.000728 -0.005660 -0.008066 0.000000 0.039810 0.000000
# 6 0.000000 0.000000 0.000000 0.002974 0.000000 0.029449
#
#
# Mechanical properties :
#
#
# Convention : Reuss Voigt Hill
#
# Bulk Modulus (GPa) = 32.02961 47.04048 39.53505
# Shear Modulus (GPa) = 24.55913 29.20828 26.88371
#
# Velocity S-wave (km/s) = 3.53725 3.85756 3.70087
# Velocity P-wave (km/s) = 5.74465 6.61867 6.19709
#
# Compressibility (1/GPa) = 0.03122111
#
# Stress axis : x y z
#
# Youngs Moduli (GPa) = 124.46772 45.69626 38.42004
#
# Poissons Ratio (x) = 0.17775 0.10381
# Poissons Ratio (y) = 0.48415 0.22171
# Poissons Ratio (z) = 0.33630 0.26370
#
# Static dielectric constant tensor:
#      x y z
#    x 5.041400 0.000000 0.592900 
#    y 0.000000 3.408170 0.000000 
#    z 0.592900 0.000000 3.329400 
# 
# 
# High freq. dielectric constant tensor:
#      x y z
#    x 1.800060 0.000000 -0.002370 
#    y 0.000000 1.743360 0.000000 
#    z -0.002370 0.000000 1.741460 
# 
# From -- ./inp_files/38606.got.cif
#   From: 2010.06.25/outbox.cif.g09.slc.cpg/sg15_20_cif.got.tgz:38606.got - 2010.06.28 07:06:18.
