data_PCOD8137980
_publ_section_title
;
Structure prediction by ZEFSAII (Michael W. Deem and Ramdas Pophale) SiO2 
 PCOD8137980
Probable space group: C 2/C
;
_chemical_formula_sum "Si O2"
_cell_formula_units_Z 52
_cell_length_a 22.777187
_cell_length_b 14.490313
_cell_length_c 8.249632
_cell_angle_alpha 90.000000
_cell_angle_beta 103.569304
_cell_angle_gamma 90.000000
_cell_volume 2646.777856
_symmetry_space_group_name_H-M "C 2/C"
_symmetry_group_IT_number 15
_symmetry_cell_setting 'monoclinic'
loop_
_space_group_symop_operation_xyz
x,y,z
-x,y,1/2-z
-x,-y,-z
x,-y,1/2+z
1/2+x,1/2+y,z
1/2-x,1/2+y,1/2-z
1/2-x,1/2-y,-z
1/2+x,1/2-y,1/2+z
loop_
_atom_site_type_symbol
_atom_site_label
_atom_site_fract_x
_atom_site_fract_y
_atom_site_fract_z
Si Si1 0.196666 0.430203 0.711981
Si Si2 0.936311 0.113079 0.416938
Si Si3 0.196004 0.821956 0.626785
Si Si4 0.430554 0.900983 0.008798
Si Si5 0.000000 0.963868 0.250000
Si Si6 0.283450 0.118988 0.931665
Si Si7 0.000000 0.258920 0.250000
Si Si8 0.000000 0.550995 0.250000
O O1 0.252778 0.359882 0.714006
O O2 0.141313 0.404065 0.560321
O O3 0.218346 0.536458 0.700085
O O4 0.177362 0.417874 0.888581
O O5 0.865101 0.127250 0.365722
O O6 0.958512 0.101147 0.614142
O O7 0.970232 0.201471 0.372465
O O8 0.952936 0.023806 0.322872
O O9 0.216703 0.852228 0.456932
O O10 0.187732 0.710861 0.630842
O O11 0.446093 0.816621 0.135346
O O12 0.452098 0.992562 0.114767
O O13 0.463018 0.887966 0.855219
#
# Coordination Sequence:
#
# PCOD8137980 Si02
#       8
#     8   8   8   8   4   8   4   4
#     4  10  20  37  62  85 114 160 193 246 294 355
#     4  10  21  41  62  84 117 149 197 248 301 348
#     4   9  22  39  61  87 122 153 193 251 300 350
#     4  10  20  37  55  86 118 148 205 226 291 358
#     4   9  22  40  62  89 106 154 204 241 294 365
#     4   9  21  39  55  91 119 152 200 233 308 346
#     4  10  24  38  54  88 120 154 190 250 288 351
#     4   9  20  34  54  79 114 162 182 237 270 338
#
# _framework density 19.646529999999998
#
# number of rings (size 3 to 8) (size 9 to 14) (size 15 to 20)
#    0.923    1.538    0.000    0.923    2.154    8.000 
#    0.000    4.615    0.000    0.000    0.000    0.000 
#    0.000    0.000    0.000    0.000    0.000    0.000 
#
# Total GULP energy -322221.070415 kJ/mol
# GULP energy per Si atom -12393.118093 kJ/mol
# Density = 1.960181 g / cm^3
# Si number density = 19.646530 Si / 1000 Ang^3
#
#
#
# Elastic Constant Matrix: (Units=GPa)
#
#
# Indices 1 2 3 4 5 6 
#
# 1 117.1928 45.7499 37.2615 0.0000 22.7663 0.0000
# 2 45.7499 125.2303 52.4790 0.0000 12.8603 0.0000
# 3 37.2615 52.4790 90.6197 0.0000 13.5239 0.0000
# 4 0.0000 0.0000 0.0000 22.2521 0.0000 -4.4994
# 5 22.7663 12.8603 13.5239 0.0000 25.3591 0.0000
# 6 0.0000 0.0000 0.0000 -4.4994 0.0000 7.2658
#
#
#
# Elastic Compliance Matrix: (Units=1/GPa)
#
#
# Indices 1 2 3 4 5 6 
#
# 1 0.011803 -0.002576 -0.002146 0.000000 -0.008146 0.000000
# 2 -0.002576 0.011228 -0.005366 0.000000 -0.000520 0.000000
# 3 -0.002146 -0.005366 0.015570 0.000000 -0.003656 0.000000
# 4 0.000000 0.000000 0.000000 0.051372 0.000000 0.031813
# 5 -0.008146 -0.000520 -0.003656 0.000000 0.048960 0.000000
# 6 0.000000 0.000000 0.000000 0.031813 0.000000 0.157332
#
#
# Mechanical properties :
#
#
# Convention : Reuss Voigt Hill
#
# Bulk Modulus (GPa) = 54.26882 67.11373 60.69128
# Shear Modulus (GPa) = 15.49986 24.14555 19.82270
#
# Velocity S-wave (km/s) = 2.81185 3.50951 3.17987
# Velocity P-wave (km/s) = 6.18260 7.11737 6.66639
#
# Compressibility (1/GPa) = 0.01842679
#
# Stress axis : x y z
#
# Youngs Moduli (GPa) = 84.72161 89.06009 64.22480
#
# Poissons Ratio (x) = 0.22945 0.13781
# Poissons Ratio (y) = 0.21828 0.34460
# Poissons Ratio (z) = 0.18179 0.47785
#
# Static dielectric constant tensor:
#      x y z
#    x 3.426350 0.000000 -0.020780 
#    y 0.000000 3.489960 0.000000 
#    z -0.020780 0.000000 3.575200 
# 
# 
# High freq. dielectric constant tensor:
#      x y z
#    x 1.757860 0.000000 -0.002520 
#    y 0.000000 1.761970 0.000000 
#    z -0.002520 0.000000 1.756910 
# 
# From -- ./inp_files/61267.got.cif
#   From: 2010.06.25/outbox.cif.g09.slc.cpg/sg15_31_cif.got.tgz:61267.got - 2010.06.28 07:06:18.
