data_PCOD8137998
_publ_section_title
;
Structure prediction by ZEFSAII (Michael W. Deem and Ramdas Pophale) SiO2 
 PCOD8137998
Probable space group: C 2/C
;
_chemical_formula_sum "Si O2"
_cell_formula_units_Z 48
_cell_length_a 30.722008
_cell_length_b 11.199692
_cell_length_c 15.385743
_cell_angle_alpha 90.000000
_cell_angle_beta 27.550683
_cell_angle_gamma 90.000000
_cell_volume 2448.594894
_symmetry_space_group_name_H-M "C 2/C"
_symmetry_group_IT_number 15
_symmetry_cell_setting 'monoclinic'
loop_
_space_group_symop_operation_xyz
x,y,z
-x,y,1/2-z
-x,-y,-z
x,-y,1/2+z
1/2+x,1/2+y,z
1/2-x,1/2+y,1/2-z
1/2-x,1/2-y,-z
1/2+x,1/2-y,1/2+z
loop_
_atom_site_type_symbol
_atom_site_label
_atom_site_fract_x
_atom_site_fract_y
_atom_site_fract_z
Si Si1 0.803780 0.820195 0.481113
Si Si2 0.185455 0.327662 0.376929
Si Si3 0.223144 0.902726 0.451791
Si Si4 0.612503 0.219468 0.737162
Si Si5 0.421053 0.007347 0.823808
Si Si6 0.500885 0.786827 0.900632
O O1 0.750000 0.750000 0.500000
O O2 0.773212 0.771688 0.630356
O O3 0.917237 0.806562 0.271169
O O4 0.772865 0.957965 0.532721
O O5 0.268049 0.373330 0.166494
O O6 0.162047 0.442787 0.477057
O O7 0.091285 0.272979 0.497715
O O8 0.309191 0.827344 0.336323
O O9 0.130360 0.848504 0.661547
O O10 0.612972 0.128355 0.657546
O O11 0.519107 0.231472 0.961313
O O12 0.500000 0.047335 0.750000
O O13 0.460485 0.920750 0.678844
#
# Coordination Sequence:
#
# PCOD8137998 Si02
#       6
#     8   8   8   8   8   8
#     4  11  22  38  61  89 114 146 198 245 290 341
#     4   9  20  38  59  82 115 156 192 230 289 356
#     4  10  22  36  57  85 115 153 189 237 292 342
#     4  10  20  37  56  82 116 151 190 234 286 345
#     4   9  17  31  57  81 106 145 194 234 272 330
#     4   9  19  38  59  80 112 157 192 228 290 353
#
# _framework density 19.603078
#
# number of rings (size 3 to 8) (size 9 to 14) (size 15 to 20)
#    0.000    2.333    0.000    4.000    2.333    3.333 
#    3.000    1.667    0.000    0.000    0.000    0.000 
#    0.000    0.000    0.000    0.000    0.000    0.000 
#
# Total GULP energy -297425.912454 kJ/mol
# GULP energy per Si atom -12392.746352 kJ/mol
# Density = 1.955846 g / cm^3
# Si number density = 19.603078 Si / 1000 Ang^3
#
#
#
# Elastic Constant Matrix: (Units=GPa)
#
#
# Indices 1 2 3 4 5 6 
#
# 1 75.2962 43.8077 39.2282 0.0000 25.3861 0.0000
# 2 43.8077 114.2584 37.7518 0.0000 25.4335 0.0000
# 3 39.2282 37.7518 97.6162 0.0000 36.3077 0.0000
# 4 0.0000 0.0000 0.0000 404.0267 0.0000 -70.7338
# 5 25.3861 25.4335 36.3077 0.0000 32.7927 0.0000
# 6 0.0000 0.0000 0.0000 -70.7338 0.0000 45.8121
#
#
#
# Elastic Compliance Matrix: (Units=1/GPa)
#
#
# Indices 1 2 3 4 5 6 
#
# 1 0.020765 -0.004974 -0.003191 0.000000 -0.008684 0.000000
# 2 -0.004974 0.011952 -0.001033 0.000000 -0.004275 0.000000
# 3 -0.003191 -0.001033 0.018207 0.000000 -0.016887 0.000000
# 4 0.000000 0.000000 0.000000 0.003392 0.000000 0.005237
# 5 -0.008684 -0.004275 -0.016887 0.000000 0.059231 0.000000
# 6 0.000000 0.000000 0.000000 0.005237 0.000000 0.029915
#
#
# Mechanical properties :
#
#
# Convention : Reuss Voigt Hill
#
# Bulk Modulus (GPa) = 30.74294 58.74958 44.74626
# Shear Modulus (GPa) = 28.95169 107.61849 68.28509
#
# Velocity S-wave (km/s) = 3.84721 7.41741 5.90842
# Velocity P-wave (km/s) = 5.95411 10.16818 8.33197
#
# Compressibility (1/GPa) = 0.03252779
#
# Stress axis : x y z
#
# Youngs Moduli (GPa) = 48.15748 83.66591 54.92316
#
# Poissons Ratio (x) = 0.41617 0.17526
# Poissons Ratio (y) = 0.23954 0.05675
# Poissons Ratio (z) = 0.15367 0.08645
#
# Static dielectric constant tensor:
#      x y z
#    x 3.657190 0.000000 -0.064390 
#    y 0.000000 3.360020 0.000000 
#    z -0.064390 0.000000 1.058780 
# 
# 
# High freq. dielectric constant tensor:
#      x y z
#    x 1.761730 0.000000 0.025110 
#    y 0.000000 1.747450 0.000000 
#    z 0.025110 0.000000 1.760000 
# 
# From -- ./inp_files/152121.got.cif
#   From: 2010.06.25/outbox.cif.g09.slc.cpg/sg15_77_cif.got.tgz:152121.got - 2010.06.28 07:06:18.
