data_PCOD8137733
_publ_section_title
;
Structure prediction by ZEFSAII (Michael W. Deem and Ramdas Pophale) SiO2 
 PCOD8137733
Probable space group: C 2/C
;
_chemical_formula_sum "Si O2"
_cell_formula_units_Z 44
_cell_length_a 10.020539
_cell_length_b 21.168765
_cell_length_c 10.624692
_cell_angle_alpha 90.000000
_cell_angle_beta 69.246495
_cell_angle_gamma 90.000000
_cell_volume 2107.498608
_symmetry_space_group_name_H-M "C 2/C"
_symmetry_group_IT_number 15
_symmetry_cell_setting 'monoclinic'
loop_
_space_group_symop_operation_xyz
x,y,z
-x,y,1/2-z
-x,-y,-z
x,-y,1/2+z
1/2+x,1/2+y,z
1/2-x,1/2+y,1/2-z
1/2-x,1/2-y,-z
1/2+x,1/2-y,1/2+z
loop_
_atom_site_type_symbol
_atom_site_label
_atom_site_fract_x
_atom_site_fract_y
_atom_site_fract_z
Si Si1 0.584015 0.819289 0.374450
Si Si2 0.197836 0.371688 0.075075
Si Si3 0.907391 0.502328 0.403477
Si Si4 0.009656 0.193757 0.005567
Si Si5 0.000000 0.731461 0.250000
Si Si6 0.278689 0.860271 0.930088
O O1 0.647032 0.848110 0.227870
O O2 0.435517 0.852737 0.470401
O O3 0.544949 0.745368 0.375324
O O4 0.704572 0.830136 0.437608
O O5 0.213865 0.447380 0.055682
O O6 0.345330 0.337674 0.991120
O O7 0.830436 0.568310 0.409525
O O8 0.000000 0.487150 0.250000
O O9 0.000000 0.500000 0.500000
O O10 0.028952 0.225323 0.861926
O O11 0.889594 0.139334 0.042744
O O12 0.863448 0.685309 0.306636
#
# Coordination Sequence:
#
# PCOD8137733 Si02
#       6
#     8   8   8   8   4   8
#     4  10  20  38  58  87 120 164 200 244 307 381
#     4  11  21  38  61  86 122 162 201 253 313 358
#     4  12  23  43  67  88 122 167 218 253 298 383
#     4  11  22  35  59  94 126 151 202 261 313 358
#     4  10  20  36  62  86 124 164 200 246 306 382
#     4  11  21  37  61  89 119 161 210 249 302 363
#
# _framework density 20.877832999999999
#
# number of rings (size 3 to 8) (size 9 to 14) (size 15 to 20)
#    0.000    1.091    4.545    4.909    0.000    0.727 
#    0.000    1.818    0.000    2.182    0.000    0.000 
#    0.000    0.000    0.000    0.000    0.000    0.000 
#
# Total GULP energy -272678.005661 kJ/mol
# GULP energy per Si atom -12394.454803 kJ/mol
# Density = 2.083031 g / cm^3
# Si number density = 20.877833 Si / 1000 Ang^3
#
#
#
# Elastic Constant Matrix: (Units=GPa)
#
#
# Indices 1 2 3 4 5 6 
#
# 1 108.3841 30.9328 4.4876 0.0000 -15.2654 0.0000
# 2 30.9328 134.3562 10.8588 0.0000 -7.1690 0.0000
# 3 4.4876 10.8588 62.7854 0.0000 8.1695 0.0000
# 4 0.0000 0.0000 0.0000 8.6838 0.0000 -4.4483
# 5 -15.2654 -7.1690 8.1695 0.0000 18.7132 0.0000
# 6 0.0000 0.0000 0.0000 -4.4483 0.0000 23.6703
#
#
#
# Elastic Compliance Matrix: (Units=1/GPa)
#
#
# Indices 1 2 3 4 5 6 
#
# 1 0.011123 -0.001946 -0.001635 0.000000 0.009042 0.000000
# 2 -0.001946 0.008134 -0.001555 0.000000 0.002207 0.000000
# 3 -0.001635 -0.001555 0.017562 0.000000 -0.009596 0.000000
# 4 0.000000 0.000000 0.000000 0.127423 0.000000 0.023946
# 5 0.009042 0.002207 -0.009596 0.000000 0.065849 0.000000
# 6 0.000000 0.000000 0.000000 0.023946 0.000000 0.046747
#
#
# Mechanical properties :
#
#
# Convention : Reuss Voigt Hill
#
# Bulk Modulus (GPa) = 37.66915 44.23154 40.95035
# Shear Modulus (GPa) = 16.89419 27.49658 22.19539
#
# Velocity S-wave (km/s) = 2.84772 3.63302 3.26407
# Velocity P-wave (km/s) = 5.37536 6.23140 5.81914
#
# Compressibility (1/GPa) = 0.02654692
#
# Stress axis : x y z
#
# Youngs Moduli (GPa) = 89.90284 122.93393 56.94209
#
# Poissons Ratio (x) = 0.23926 0.09310
# Poissons Ratio (y) = 0.17498 0.08854
# Poissons Ratio (z) = 0.14698 0.19116
#
# Static dielectric constant tensor:
#      x y z
#    x 3.995750 0.000000 0.081070 
#    y 0.000000 3.910630 0.000000 
#    z 0.081070 0.000000 3.648890 
# 
# 
# High freq. dielectric constant tensor:
#      x y z
#    x 1.814100 0.000000 0.005180 
#    y 0.000000 1.824240 0.000000 
#    z 0.005180 0.000000 1.805760 
# 
# From -- ./inp_files/78222.got.cif
#   From: 2010.06.25/outbox.cif.g09.slc.cpg/sg15_40_cif.got.tgz:78222.got - 2010.06.28 07:06:18.
