data_PCOD8137368
_publ_section_title
;
Structure prediction by ZEFSAII (Michael W. Deem and Ramdas Pophale) SiO2 
 PCOD8137368
Probable space group: C 2/C
;
_chemical_formula_sum "Si O2"
_cell_formula_units_Z 40
_cell_length_a 9.735027
_cell_length_b 13.962363
_cell_length_c 16.965753
_cell_angle_alpha 90.000000
_cell_angle_beta 126.779752
_cell_angle_gamma 90.000000
_cell_volume 1847.016784
_symmetry_space_group_name_H-M "C 2/C"
_symmetry_group_IT_number 15
_symmetry_cell_setting 'monoclinic'
loop_
_space_group_symop_operation_xyz
x,y,z
-x,y,1/2-z
-x,-y,-z
x,-y,1/2+z
1/2+x,1/2+y,z
1/2-x,1/2+y,1/2-z
1/2-x,1/2-y,-z
1/2+x,1/2-y,1/2+z
loop_
_atom_site_type_symbol
_atom_site_label
_atom_site_fract_x
_atom_site_fract_y
_atom_site_fract_z
Si Si1 0.039777 0.026041 0.673931
Si Si2 0.545883 0.327603 0.898756
Si Si3 0.385481 0.796424 0.934723
Si Si4 0.757225 0.796985 0.240599
Si Si5 0.247748 0.168416 0.935016
O O1 0.875839 0.082588 0.581258
O O2 0.000000 0.999834 0.750000
O O3 0.213392 0.090653 0.725960
O O4 0.064311 0.925955 0.635862
O O5 0.713482 0.350161 0.903380
O O6 0.438911 0.240390 0.821147
O O7 0.596270 0.299251 0.004927
O O8 0.375117 0.765951 0.839496
O O9 0.551946 0.864688 0.004432
O O10 0.819461 0.787058 0.171169
O O11 0.250000 0.250000 0.000000
#
# Coordination Sequence:
#
# PCOD8137368 Si02
#       5
#     8   8   8   8   8
#     4  10  20  36  61  86 117 155 192 239 289 349
#     4  10  22  38  60  89 115 155 194 236 294 345
#     4  10  20  37  60  84 121 153 188 245 287 342
#     4  10  20  36  59  82 121 152 193 240 288 338
#     4  10  20  36  57  88 115 156 192 236 290 342
#
# _framework density 21.656542999999999
#
# number of rings (size 3 to 8) (size 9 to 14) (size 15 to 20)
#    0.000    2.000    2.000    1.800    0.000    1.600 
#    0.000    4.000    0.000    4.800    0.000    0.000 
#    0.000    0.000    0.000    0.000    0.000    0.000 
#
# Total GULP energy -247793.096431 kJ/mol
# GULP energy per Si atom -12389.654822 kJ/mol
# Density = 2.160725 g / cm^3
# Si number density = 21.656543 Si / 1000 Ang^3
#
#
#
# Elastic Constant Matrix: (Units=GPa)
#
#
# Indices 1 2 3 4 5 6 
#
# 1 71.1256 35.9203 28.3202 0.0000 24.3990 0.0000
# 2 35.9203 105.7197 41.0577 0.0000 17.1968 0.0000
# 3 28.3202 41.0577 124.6150 0.0000 4.0278 0.0000
# 4 0.0000 0.0000 0.0000 35.4658 0.0000 8.0498
# 5 24.3990 17.1968 4.0278 0.0000 40.5099 0.0000
# 6 0.0000 0.0000 0.0000 8.0498 0.0000 22.3167
#
#
#
# Elastic Compliance Matrix: (Units=1/GPa)
#
#
# Indices 1 2 3 4 5 6 
#
# 1 0.021041 -0.004250 -0.003040 0.000000 -0.010567 0.000000
# 2 -0.004250 0.012492 -0.003071 0.000000 -0.002438 0.000000
# 3 -0.003040 -0.003071 0.009657 0.000000 0.002175 0.000000
# 4 0.000000 0.000000 0.000000 0.030710 0.000000 -0.011077
# 5 -0.010567 -0.002438 0.002175 0.000000 0.031868 0.000000
# 6 0.000000 0.000000 0.000000 -0.011077 0.000000 0.048805
#
#
# Mechanical properties :
#
#
# Convention : Reuss Voigt Hill
#
# Bulk Modulus (GPa) = 44.50683 56.89519 50.70101
# Shear Modulus (GPa) = 27.35432 32.73595 30.04513
#
# Velocity S-wave (km/s) = 3.55786 3.89214 3.72875
# Velocity P-wave (km/s) = 6.12158 6.82107 6.48077
#
# Compressibility (1/GPa) = 0.02246846
#
# Stress axis : x y z
#
# Youngs Moduli (GPa) = 47.52592 80.04960 103.54895
#
# Poissons Ratio (x) = 0.34018 0.31481
# Poissons Ratio (y) = 0.20197 0.31803
# Poissons Ratio (z) = 0.14449 0.24586
#
# Static dielectric constant tensor:
#      x y z
#    x 4.197970 0.000000 0.416410 
#    y 0.000000 3.659850 0.000000 
#    z 0.416410 0.000000 4.416990 
# 
# 
# High freq. dielectric constant tensor:
#      x y z
#    x 1.832050 0.000000 0.007910 
#    y 0.000000 1.811090 0.000000 
#    z 0.007910 0.000000 1.876030 
# 
# From -- ./inp_files/197476.got.cif
#   From: 2010.06.25/outbox.cif.g09.slc.cpg/sg15_99_cif.got.tgz:197476.got - 2010.06.28 07:06:18.
