data_PCOD8137831
_publ_section_title
;
Structure prediction by ZEFSAII (Michael W. Deem and Ramdas Pophale) SiO2 
 PCOD8137831
Probable space group: C 2/C
;
_chemical_formula_sum "Si O2"
_cell_formula_units_Z 64
_cell_length_a 17.855386
_cell_length_b 18.637037
_cell_length_c 12.505436
_cell_angle_alpha 90.000000
_cell_angle_beta 128.128496
_cell_angle_gamma 90.000000
_cell_volume 3273.515285
_symmetry_space_group_name_H-M "C 2/C"
_symmetry_group_IT_number 15
_symmetry_cell_setting 'monoclinic'
loop_
_space_group_symop_operation_xyz
x,y,z
-x,y,1/2-z
-x,-y,-z
x,-y,1/2+z
1/2+x,1/2+y,z
1/2-x,1/2+y,1/2-z
1/2-x,1/2-y,-z
1/2+x,1/2-y,1/2+z
loop_
_atom_site_type_symbol
_atom_site_label
_atom_site_fract_x
_atom_site_fract_y
_atom_site_fract_z
Si Si1 0.800425 0.165027 0.938641
Si Si2 0.799052 0.186107 0.178903
Si Si3 0.246047 0.361944 0.983056
Si Si4 0.516920 0.851540 0.003211
Si Si5 0.406043 0.252488 0.104290
Si Si6 0.501700 0.274141 0.876809
Si Si7 0.709270 0.072888 0.680326
Si Si8 0.819754 0.415747 0.783464
O O1 0.729827 0.231084 0.857716
O O2 0.769063 0.099862 0.835045
O O3 0.796525 0.145536 0.061614
O O4 0.908355 0.182413 0.998366
O O5 0.903779 0.186744 0.325662
O O6 0.728180 0.150304 0.198880
O O7 0.161610 0.303884 0.894471
O O8 0.220329 0.422606 0.872977
O O9 0.346040 0.325679 0.037667
O O10 0.251501 0.395841 0.106555
O O11 0.557440 0.784499 0.971016
O O12 0.432485 0.898710 0.877718
O O13 0.485145 0.809965 0.081635
O O14 0.599926 0.906973 0.100358
O O15 0.500000 0.273985 0.250000
O O16 0.500000 0.273778 0.750000
O O17 0.709243 0.986969 0.678091
#
# Coordination Sequence:
#
# PCOD8137831 Si02
#       8
#     8   8   8   8   8   8   8   8
#     4  10  21  39  63  90 122 161 204 255 304 356
#     4  10  21  38  65  92 118 161 208 256 302 357
#     4  10  24  40  61  93 118 166 210 246 318 366
#     4  11  21  37  62  95 122 157 201 252 316 362
#     4  10  20  37  66  91 120 149 204 269 295 359
#     4  10  20  36  63  96 118 148 207 260 298 352
#     4  11  26  40  61  88 132 165 203 250 311 381
#     4  12  24  41  62  89 129 169 198 253 313 384
#
# _framework density 19.550848999999999
#
# number of rings (size 3 to 8) (size 9 to 14) (size 15 to 20)
#    0.000    1.500    3.750    1.125    7.000    0.000 
#    0.000    0.625    0.000    0.000    0.000    0.000 
#    0.000    0.000    0.000    0.000    0.000    0.000 
#
# Total GULP energy -396685.210830 kJ/mol
# GULP energy per Si atom -12396.412838 kJ/mol
# Density = 1.950635 g / cm^3
# Si number density = 19.550849 Si / 1000 Ang^3
#
#
#
# Elastic Constant Matrix: (Units=GPa)
#
#
# Indices 1 2 3 4 5 6 
#
# 1 71.6251 21.0833 29.5707 0.0000 19.0521 0.0000
# 2 21.0833 71.3557 29.0577 0.0000 1.4673 0.0000
# 3 29.5707 29.0577 99.5676 0.0000 17.4708 0.0000
# 4 0.0000 0.0000 0.0000 22.8411 0.0000 -6.2164
# 5 19.0521 1.4673 17.4708 0.0000 32.7423 0.0000
# 6 0.0000 0.0000 0.0000 -6.2164 0.0000 18.8694
#
#
#
# Elastic Compliance Matrix: (Units=1/GPa)
#
#
# Indices 1 2 3 4 5 6 
#
# 1 0.018811 -0.004264 -0.002709 0.000000 -0.009309 0.000000
# 2 -0.004264 0.016984 -0.004404 0.000000 0.004070 0.000000
# 3 -0.002709 -0.004404 0.013043 0.000000 -0.005186 0.000000
# 4 0.000000 0.000000 0.000000 0.048093 0.000000 0.015844
# 5 -0.009309 0.004070 -0.005186 0.000000 0.038543 0.000000
# 6 0.000000 0.000000 0.000000 0.015844 0.000000 0.058216
#
#
# Mechanical properties :
#
#
# Convention : Reuss Voigt Hill
#
# Bulk Modulus (GPa) = 38.33694 44.66354 41.50024
# Shear Modulus (GPa) = 22.20850 25.74635 23.97742
#
# Velocity S-wave (km/s) = 3.37402 3.63284 3.50582
# Velocity P-wave (km/s) = 5.90170 6.36326 6.13682
#
# Compressibility (1/GPa) = 0.02608450
#
# Stress axis : x y z
#
# Youngs Moduli (GPa) = 53.15959 58.87911 76.66732
#
# Poissons Ratio (x) = 0.25103 0.20770
# Poissons Ratio (y) = 0.22665 0.33768
# Poissons Ratio (z) = 0.14401 0.25933
#
# Static dielectric constant tensor:
#      x y z
#    x 4.188120 0.000000 0.468560 
#    y 0.000000 3.235010 0.000000 
#    z 0.468560 0.000000 4.079340 
# 
# 
# High freq. dielectric constant tensor:
#      x y z
#    x 1.769110 0.000000 0.005280 
#    y 0.000000 1.726690 0.000000 
#    z 0.005280 0.000000 1.774340 
# 
# From -- ./inp_files/107520.got.cif
#   From: 2010.06.25/outbox.cif.g09.slc.cpg/sg15_54_cif.got.tgz:107520.got - 2010.06.28 07:06:18.
