data_PCOD8137721
_publ_section_title
;
Structure prediction by ZEFSAII (Michael W. Deem and Ramdas Pophale) SiO2 
 PCOD8137721
Probable space group: C 2/C
;
_chemical_formula_sum "Si O2"
_cell_formula_units_Z 48
_cell_length_a 22.116019
_cell_length_b 10.164885
_cell_length_c 16.006427
_cell_angle_alpha 90.000000
_cell_angle_beta 137.679030
_cell_angle_gamma 90.000000
_cell_volume 2422.710831
_symmetry_space_group_name_H-M "C 2/C"
_symmetry_group_IT_number 15
_symmetry_cell_setting 'monoclinic'
loop_
_space_group_symop_operation_xyz
x,y,z
-x,y,1/2-z
-x,-y,-z
x,-y,1/2+z
1/2+x,1/2+y,z
1/2-x,1/2+y,1/2-z
1/2-x,1/2-y,-z
1/2+x,1/2-y,1/2+z
loop_
_atom_site_type_symbol
_atom_site_label
_atom_site_fract_x
_atom_site_fract_y
_atom_site_fract_z
Si Si1 0.543077 0.915788 0.383148
Si Si2 0.867528 0.079607 0.399135
Si Si3 0.288192 0.983717 0.361950
Si Si4 0.042074 0.193751 0.495651
Si Si5 0.398495 0.067302 0.333666
Si Si6 0.752467 0.282738 0.599152
O O1 0.500000 0.945059 0.250000
O O2 0.526993 0.761898 0.389326
O O3 0.648758 0.955664 0.499162
O O4 0.491230 0.007839 0.396696
O O5 0.836843 0.147585 0.454795
O O6 0.949912 0.158139 0.445729
O O7 0.789655 0.084036 0.248692
O O8 0.894143 0.931222 0.450156
O O9 0.237369 0.853789 0.340555
O O10 0.348597 0.957709 0.340362
O O11 0.090864 0.304282 0.599047
O O12 0.335880 0.117398 0.194176
O O13 0.750000 0.250000 0.500000
#
# Coordination Sequence:
#
# PCOD8137721 Si02
#       6
#     8   8   8   8   8   8
#     4  11  22  38  57  89 120 151 188 245 301 350
#     4  10  21  38  62  84 114 157 200 244 283 360
#     4  10  20  38  61  82 112 153 202 232 288 354
#     4  10  20  40  60  85 113 157 207 232 292 356
#     4  10  20  36  62  82 114 157 197 238 285 360
#     4  11  21  36  58  91 119 146 197 251 299 344
#
# _framework density 19.812515999999999
#
# number of rings (size 3 to 8) (size 9 to 14) (size 15 to 20)
#    0.000    1.667    1.667    5.000    0.000    0.000 
#    3.000    0.833    0.000    0.000    0.000    0.000 
#    0.000    0.000    0.000    0.000    0.000    0.000 
#
# Total GULP energy -297444.036963 kJ/mol
# GULP energy per Si atom -12393.501540 kJ/mol
# Density = 1.976742 g / cm^3
# Si number density = 19.812516 Si / 1000 Ang^3
#
#
#
# Elastic Constant Matrix: (Units=GPa)
#
#
# Indices 1 2 3 4 5 6 
#
# 1 70.2866 23.1759 29.7782 0.0000 -0.5589 0.0000
# 2 23.1759 70.2901 10.9297 0.0000 -6.1743 0.0000
# 3 29.7782 10.9297 95.8072 0.0000 -6.7835 0.0000
# 4 0.0000 0.0000 0.0000 26.6574 0.0000 -3.0638
# 5 -0.5589 -6.1743 -6.7835 0.0000 33.0793 0.0000
# 6 0.0000 0.0000 0.0000 -3.0638 0.0000 25.4627
#
#
#
# Elastic Compliance Matrix: (Units=1/GPa)
#
#
# Indices 1 2 3 4 5 6 
#
# 1 0.018160 -0.005339 -0.005159 0.000000 -0.001748 0.000000
# 2 -0.005339 0.016243 0.000015 0.000000 0.002945 0.000000
# 3 -0.005159 0.000015 0.012211 0.000000 0.002420 0.000000
# 4 0.000000 0.000000 0.000000 0.038039 0.000000 0.004577
# 5 -0.001748 0.002945 0.002420 0.000000 0.031247 0.000000
# 6 0.000000 0.000000 0.000000 0.004577 0.000000 0.039824
#
#
# Mechanical properties :
#
#
# Convention : Reuss Voigt Hill
#
# Bulk Modulus (GPa) = 38.98966 40.46129 39.72547
# Shear Modulus (GPa) = 26.99220 28.53988 27.76604
#
# Velocity S-wave (km/s) = 3.69505 3.79951 3.74764
# Velocity P-wave (km/s) = 6.15845 6.30196 6.23062
#
# Compressibility (1/GPa) = 0.02564783
#
# Stress axis : x y z
#
# Youngs Moduli (GPa) = 55.06711 61.56337 81.89514
#
# Poissons Ratio (x) = 0.32868 0.42249
# Poissons Ratio (y) = 0.29400 -0.00121
# Poissons Ratio (z) = 0.28409 -0.00091
#
# Static dielectric constant tensor:
#      x y z
#    x 3.623470 0.000000 0.105360 
#    y 0.000000 3.794600 0.000000 
#    z 0.105360 0.000000 3.694570 
# 
# 
# High freq. dielectric constant tensor:
#      x y z
#    x 1.763080 0.000000 0.016250 
#    y 0.000000 1.774770 0.000000 
#    z 0.016250 0.000000 1.773790 
# 
# From -- ./inp_files/167389.got.cif
#   From: 2010.06.25/outbox.cif.g09.slc.cpg/sg15_84_cif.got.tgz:167389.got - 2010.06.28 07:06:18.
