data_PCOD8137246
_publ_section_title
;
Structure prediction by ZEFSAII (Michael W. Deem and Ramdas Pophale) SiO2 
 PCOD8137246
Probable space group: C 2/C
;
_chemical_formula_sum "Si O2"
_cell_formula_units_Z 48
_cell_length_a 14.342545
_cell_length_b 27.056924
_cell_length_c 5.172531
_cell_angle_alpha 90.000000
_cell_angle_beta 97.519576
_cell_angle_gamma 90.000000
_cell_volume 1990.016835
_symmetry_space_group_name_H-M "C 2/C"
_symmetry_group_IT_number 15
_symmetry_cell_setting 'monoclinic'
loop_
_space_group_symop_operation_xyz
x,y,z
-x,y,1/2-z
-x,-y,-z
x,-y,1/2+z
1/2+x,1/2+y,z
1/2-x,1/2+y,1/2-z
1/2-x,1/2-y,-z
1/2+x,1/2-y,1/2+z
loop_
_atom_site_type_symbol
_atom_site_label
_atom_site_fract_x
_atom_site_fract_y
_atom_site_fract_z
Si Si1 0.102463 0.228918 0.853527
Si Si2 0.915316 0.134095 0.387072
Si Si3 0.902728 0.025895 0.375999
Si Si4 0.790934 0.360237 0.769137
Si Si5 0.704376 0.203964 0.747468
Si Si6 0.180638 0.472028 0.759204
O O1 0.192248 0.232123 0.684875
O O2 0.000000 0.252377 0.750000
O O3 0.092477 0.169835 0.871419
O O4 0.131437 0.252870 0.140331
O O5 0.936875 0.078979 0.490416
O O6 0.000000 0.156051 0.250000
O O7 0.817905 0.131961 0.190049
O O8 0.939652 0.984760 0.595966
O O9 0.791469 0.021707 0.325682
O O10 0.832265 0.324475 0.009501
O O11 0.844144 0.413415 0.778159
O O12 0.797797 0.334655 0.492718
O O13 0.137889 0.496817 0.003415
#
# Coordination Sequence:
#
# PCOD8137246 Si02
#       6
#     8   8   8   8   8   8
#     4  10  22  38  58  82 110 144 188 232 277 330
#     4  10  21  33  53  77 105 146 189 229 273 321
#     4   9  19  33  47  68 101 141 184 226 266 309
#     4  10  20  36  54  78 112 144 181 227 273 326
#     4  10  22  38  58  81 111 148 182 227 280 325
#     4   9  16  28  49  75 104 139 178 219 263 317
#
# _framework density 24.120398000000002
#
# number of rings (size 3 to 8) (size 9 to 14) (size 15 to 20)
#    0.000    2.333    0.000    2.000    0.000   17.333 
#    0.000    0.000    0.000    0.000    0.000    0.000 
#    0.000   13.333    0.000    3.000    0.000    5.667 
#
# Total GULP energy -297396.332905 kJ/mol
# GULP energy per Si atom -12391.513871 kJ/mol
# Density = 2.406550 g / cm^3
# Si number density = 24.120398 Si / 1000 Ang^3
#
#
#
# Elastic Constant Matrix: (Units=GPa)
#
#
# Indices 1 2 3 4 5 6 
#
# 1 46.2765 2.8676 4.4012 0.0000 16.5109 0.0000
# 2 2.8676 131.4313 28.0159 0.0000 10.4097 0.0000
# 3 4.4012 28.0159 83.8860 0.0000 2.1106 0.0000
# 4 0.0000 0.0000 0.0000 37.8017 0.0000 -3.9605
# 5 16.5109 10.4097 2.1106 0.0000 23.4186 0.0000
# 6 0.0000 0.0000 0.0000 -3.9605 0.0000 14.1199
#
#
#
# Elastic Compliance Matrix: (Units=1/GPa)
#
#
# Indices 1 2 3 4 5 6 
#
# 1 0.029166 0.001338 -0.001448 0.000000 -0.021027 0.000000
# 2 0.001338 0.008533 -0.002807 0.000000 -0.004483 0.000000
# 3 -0.001448 -0.002807 0.012907 0.000000 0.001105 0.000000
# 4 0.000000 0.000000 0.000000 0.027255 0.000000 0.007645
# 5 -0.021027 -0.004483 0.001105 0.000000 0.059419 0.000000
# 6 0.000000 0.000000 0.000000 0.007645 0.000000 0.072966
#
#
# Mechanical properties :
#
#
# Convention : Reuss Voigt Hill
#
# Bulk Modulus (GPa) = 22.33592 36.90702 29.62147
# Shear Modulus (GPa) = 21.64464 30.15532 25.89998
#
# Velocity S-wave (km/s) = 2.99884 3.53965 3.28041
# Velocity P-wave (km/s) = 4.61205 5.66038 5.16289
#
# Compressibility (1/GPa) = 0.04477093
#
# Stress axis : x y z
#
# Youngs Moduli (GPa) = 34.28611 117.19508 77.47964
#
# Poissons Ratio (x) = -0.15677 0.11219
# Poissons Ratio (y) = -0.04586 0.21750
# Poissons Ratio (z) = 0.04964 0.32898
#
# Static dielectric constant tensor:
#      x y z
#    x 4.188240 0.000000 -0.045660 
#    y 0.000000 4.597270 0.000000 
#    z -0.045660 0.000000 4.292940 
# 
# 
# High freq. dielectric constant tensor:
#      x y z
#    x 1.921430 0.000000 -0.004290 
#    y 0.000000 1.972380 0.000000 
#    z -0.004290 0.000000 1.949710 
# 
# From -- ./inp_files/13777.got.cif
#   From: 2010.06.25/outbox.cif.g09.slc.cpg/sg15_7_cif.got.tgz:13777.got - 2010.06.28 07:06:18.
