data_PCOD8137491
_publ_section_title
;
Structure prediction by ZEFSAII (Michael W. Deem and Ramdas Pophale) SiO2 
 PCOD8137491
Probable space group: C 2/C
;
_chemical_formula_sum "Si O2"
_cell_formula_units_Z 64
_cell_length_a 8.701698
_cell_length_b 20.483822
_cell_length_c 20.163772
_cell_angle_alpha 90.000000
_cell_angle_beta 115.565766
_cell_angle_gamma 90.000000
_cell_volume 3242.178369
_symmetry_space_group_name_H-M "C 2/C"
_symmetry_group_IT_number 15
_symmetry_cell_setting 'monoclinic'
loop_
_space_group_symop_operation_xyz
x,y,z
-x,y,1/2-z
-x,-y,-z
x,-y,1/2+z
1/2+x,1/2+y,z
1/2-x,1/2+y,1/2-z
1/2-x,1/2-y,-z
1/2+x,1/2-y,1/2+z
loop_
_atom_site_type_symbol
_atom_site_label
_atom_site_fract_x
_atom_site_fract_y
_atom_site_fract_z
Si Si1 0.492898 0.888081 0.564908
Si Si2 0.494363 0.740514 0.413540
Si Si3 0.338149 0.383933 0.406774
Si Si4 0.408747 0.504934 0.335398
Si Si5 0.024598 0.616067 0.593226
Si Si6 0.237949 0.504934 0.164602
Si Si7 0.863081 0.111919 0.435092
Si Si8 0.332721 0.759487 0.913541
O O1 0.516329 0.898066 0.491156
O O2 0.294284 0.889601 0.544283
O O3 0.571925 0.819086 0.604934
O O4 0.585831 0.946108 0.620133
O O5 0.404315 0.810100 0.381840
O O6 0.362060 0.680916 0.395068
O O7 0.593267 0.750003 0.499999
O O8 0.631789 0.723377 0.381786
O O9 0.375969 0.431257 0.352848
O O10 0.148721 0.394885 0.398720
O O11 0.465980 0.398066 0.491156
O O12 0.359370 0.310100 0.381842
O O13 0.298326 0.518699 0.250000
O O14 0.608380 0.515130 0.358380
O O15 0.345563 0.553892 0.379866
O O16 0.170269 0.568742 0.647152
#
# Coordination Sequence:
#
# PCOD8137491 Si02
#       8
#     8   8   8   8   8   8   8   8
#     4  11  21  34  57  85 112 142 179 223 267 317
#     4   8  16  32  54  81 111 141 174 216 267 319
#     4  10  20  36  59  84 111 142 178 221 268 322
#     4  11  24  40  56  76 107 145 184 227 272 319
#     4  10  20  36  59  84 111 142 178 221 268 322
#     4  11  24  40  56  76 107 145 184 227 272 319
#     4  11  21  34  57  85 112 142 179 223 267 317
#     4   8  16  32  54  81 111 141 174 216 267 319
#
# _framework density 19.739815
#
# number of rings (size 3 to 8) (size 9 to 14) (size 15 to 20)
#    0.000    2.000    0.000    6.000    0.000    7.500 
#    0.000    1.250    0.000    1.500    0.000    0.000 
#    0.000    0.000    0.000    0.000    0.000    0.000 
#
# Total GULP energy -396782.152299 kJ/mol
# GULP energy per Si atom -12399.442259 kJ/mol
# Density = 1.969489 g / cm^3
# Si number density = 19.739815 Si / 1000 Ang^3
#
#
#
# Elastic Constant Matrix: (Units=GPa)
#
#
# Indices 1 2 3 4 5 6 
#
# 1 62.1136 20.0621 12.6431 0.0000 0.1465 0.0000
# 2 20.0621 94.2108 5.2396 0.0000 0.6030 0.0000
# 3 12.6431 5.2396 28.3398 0.0000 1.2278 0.0000
# 4 0.0000 0.0000 0.0000 6.2176 0.0000 1.2779
# 5 0.1465 0.6030 1.2278 0.0000 22.9296 0.0000
# 6 0.0000 0.0000 0.0000 1.2779 0.0000 37.6700
#
#
#
# Elastic Compliance Matrix: (Units=1/GPa)
#
#
# Indices 1 2 3 4 5 6 
#
# 1 0.018834 -0.003582 -0.007757 0.000000 0.000389 0.000000
# 2 -0.003582 0.011407 -0.000500 0.000000 -0.000250 0.000000
# 3 -0.007757 -0.000500 0.038927 0.000000 -0.002022 0.000000
# 4 0.000000 0.000000 0.000000 0.161964 0.000000 -0.005494
# 5 0.000389 -0.000250 -0.002022 0.000000 0.043724 0.000000
# 6 0.000000 0.000000 0.000000 -0.005494 0.000000 0.026733
#
#
# Mechanical properties :
#
#
# Convention : Reuss Voigt Hill
#
# Bulk Modulus (GPa) = 21.98303 28.95042 25.46673
# Shear Modulus (GPa) = 14.68731 23.14472 18.91602
#
# Velocity S-wave (km/s) = 2.73068 3.42788 3.09895
# Velocity P-wave (km/s) = 4.59377 5.51044 5.07285
#
# Compressibility (1/GPa) = 0.04548962
#
# Stress axis : x y z
#
# Youngs Moduli (GPa) = 53.09414 87.66807 25.68929
#
# Poissons Ratio (x) = 0.31401 0.19928
# Poissons Ratio (y) = 0.19018 0.01285
# Poissons Ratio (z) = 0.41186 0.04384
#
# Static dielectric constant tensor:
#      x y z
#    x 3.595100 0.000000 0.017630 
#    y 0.000000 4.174430 0.000000 
#    z 0.017630 0.000000 3.160970 
# 
# 
# High freq. dielectric constant tensor:
#      x y z
#    x 1.773160 0.000000 0.001960 
#    y 0.000000 1.790640 0.000000 
#    z 0.001960 0.000000 1.724890 
# 
# From -- ./inp_files/233894.got.cif
#   From: 2010.06.25/outbox.cif.g09.slc.cpg/sg15_117_cif.got.tgz:233894.got - 2010.06.28 07:06:18.
