data_PCOD8137084
_publ_section_title
;
Structure prediction by ZEFSAII (Michael W. Deem and Ramdas Pophale) SiO2 
 PCOD8137084
Probable space group: C 2/C
;
_chemical_formula_sum "Si O2"
_cell_formula_units_Z 64
_cell_length_a 11.446618
_cell_length_b 15.878643
_cell_length_c 27.689178
_cell_angle_alpha 90.000000
_cell_angle_beta 141.041892
_cell_angle_gamma 90.000000
_cell_volume 3164.317287
_symmetry_space_group_name_H-M "C 2/C"
_symmetry_group_IT_number 15
_symmetry_cell_setting 'monoclinic'
loop_
_space_group_symop_operation_xyz
x,y,z
-x,y,1/2-z
-x,-y,-z
x,-y,1/2+z
1/2+x,1/2+y,z
1/2-x,1/2+y,1/2-z
1/2-x,1/2-y,-z
1/2+x,1/2-y,1/2+z
loop_
_atom_site_type_symbol
_atom_site_label
_atom_site_fract_x
_atom_site_fract_y
_atom_site_fract_z
Si Si1 0.363541 0.956726 0.668122
Si Si2 0.793820 0.026608 0.596211
Si Si3 0.473321 0.935801 0.923948
Si Si4 0.981782 0.903976 0.590272
Si Si5 0.451040 0.186529 0.330641
Si Si6 0.346927 0.693177 0.662084
Si Si7 0.633996 0.080095 0.912117
Si Si8 0.600327 0.239170 0.665812
O O1 0.500000 0.002270 0.750000
O O2 0.183399 0.909288 0.630646
O O3 0.508671 0.891272 0.691412
O O4 0.288753 0.027156 0.607986
O O5 0.649419 0.076382 0.515491
O O6 0.876814 0.095382 0.659058
O O7 0.703474 0.951211 0.598488
O O8 0.954449 0.986303 0.614909
O O9 0.443446 0.850628 0.882791
O O10 0.500581 0.020103 0.900928
O O11 0.973213 0.821702 0.621137
O O12 0.816301 0.892158 0.499290
O O13 0.622833 0.251698 0.377240
O O14 0.264232 0.238074 0.256434
O O15 0.500000 0.721369 0.750000
O O16 0.156045 0.713320 0.628418
O O17 0.520948 0.160103 0.854963
#
# Coordination Sequence:
#
# PCOD8137084 Si02
#       8
#     8   8   8   8   8   8   8   8
#     4  11  20  39  63  86 119 161 200 250 305 360
#     4  10  21  38  59  89 119 157 201 246 301 367
#     4   9  20  39  60  84 122 161 197 243 311 359
#     4  11  22  38  61  91 122 155 204 247 306 367
#     4  10  20  37  62  87 114 159 205 247 295 361
#     4  10  20  35  60  87 116 155 210 245 289 362
#     4  10  22  37  63  90 120 159 201 257 298 360
#     4  11  20  39  61  89 118 156 204 244 303 362
#
# _framework density 20.225532000000001
#
# number of rings (size 3 to 8) (size 9 to 14) (size 15 to 20)
#    0.000    1.750    3.750    1.125    0.000    3.500 
#    0.000    2.500    0.000    0.000    0.000    0.000 
#    0.000    0.000    0.000    0.000    0.000    0.000 
#
# Total GULP energy -396606.269200 kJ/mol
# GULP energy per Si atom -12393.945913 kJ/mol
# Density = 2.017950 g / cm^3
# Si number density = 20.225532 Si / 1000 Ang^3
#
#
#
# Elastic Constant Matrix: (Units=GPa)
#
#
# Indices 1 2 3 4 5 6 
#
# 1 58.7961 18.1849 24.2511 0.0000 -4.4250 0.0000
# 2 18.1849 84.2618 21.4661 0.0000 -1.8382 0.0000
# 3 24.2511 21.4661 53.6547 0.0000 1.9325 0.0000
# 4 0.0000 0.0000 0.0000 34.4633 0.0000 -9.0064
# 5 -4.4250 -1.8382 1.9325 0.0000 23.9579 0.0000
# 6 0.0000 0.0000 0.0000 -9.0064 0.0000 25.1251
#
#
#
# Elastic Compliance Matrix: (Units=1/GPa)
#
#
# Indices 1 2 3 4 5 6 
#
# 1 0.021819 -0.002287 -0.009112 0.000000 0.004589 0.000000
# 2 -0.002287 0.013504 -0.004404 0.000000 0.000969 0.000000
# 3 -0.009112 -0.004404 0.024663 0.000000 -0.004010 0.000000
# 4 0.000000 0.000000 0.000000 0.032016 0.000000 0.011476
# 5 0.004589 0.000969 -0.004010 0.000000 0.042985 0.000000
# 6 0.000000 0.000000 0.000000 0.011476 0.000000 0.043915
#
#
# Mechanical properties :
#
#
# Convention : Reuss Voigt Hill
#
# Bulk Modulus (GPa) = 35.23677 36.05743 35.64710
# Shear Modulus (GPa) = 22.73053 25.56328 24.14691
#
# Velocity S-wave (km/s) = 3.35603 3.55901 3.45901
# Velocity P-wave (km/s) = 5.69886 5.89535 5.79794
#
# Compressibility (1/GPa) = 0.02837945
#
# Stress axis : x y z
#
# Youngs Moduli (GPa) = 45.83120 74.04949 40.54725
#
# Poissons Ratio (x) = 0.16938 0.36947
# Poissons Ratio (y) = 0.10484 0.17856
# Poissons Ratio (z) = 0.41762 0.32610
#
# Static dielectric constant tensor:
#      x y z
#    x 3.684450 0.000000 -0.133800 
#    y 0.000000 3.566510 0.000000 
#    z -0.133800 0.000000 3.502060 
# 
# 
# High freq. dielectric constant tensor:
#      x y z
#    x 1.779600 0.000000 -0.000140 
#    y 0.000000 1.789070 0.000000 
#    z -0.000140 0.000000 1.776830 
# 
# From -- ./inp_files/293092.got.cif
#   From: 2010.06.25/outbox.cif.g09.slc.cpg/sg15_147_cif.got.tgz:293092.got - 2010.06.28 07:06:18.
