data_PCOD8137719
_publ_section_title
;
Structure prediction by ZEFSAII (Michael W. Deem and Ramdas Pophale) SiO2 
 PCOD8137719
Probable space group: C 2/C
;
_chemical_formula_sum "Si O2"
_cell_formula_units_Z 56
_cell_length_a 16.485629
_cell_length_b 27.606708
_cell_length_c 8.762252
_cell_angle_alpha 90.000000
_cell_angle_beta 48.034751
_cell_angle_gamma 90.000000
_cell_volume 2965.147965
_symmetry_space_group_name_H-M "C 2/C"
_symmetry_group_IT_number 15
_symmetry_cell_setting 'monoclinic'
loop_
_space_group_symop_operation_xyz
x,y,z
-x,y,1/2-z
-x,-y,-z
x,-y,1/2+z
1/2+x,1/2+y,z
1/2-x,1/2+y,1/2-z
1/2-x,1/2-y,-z
1/2+x,1/2-y,1/2+z
loop_
_atom_site_type_symbol
_atom_site_label
_atom_site_fract_x
_atom_site_fract_y
_atom_site_fract_z
Si Si1 0.894070 0.872257 0.978148
Si Si2 0.709922 0.700528 0.123555
Si Si3 0.930417 0.293941 0.483449
Si Si4 0.709534 0.058290 0.784753
Si Si5 0.993707 0.383012 0.930787
Si Si6 0.010359 0.797549 0.418585
Si Si7 0.610564 0.975880 0.699586
O O1 0.818472 0.837138 0.973128
O O2 0.000000 0.887953 0.750000
O O3 0.830343 0.922085 0.095702
O O4 0.929257 0.845035 0.089989
O O5 0.812397 0.683655 0.094282
O O6 0.609748 0.708413 0.362456
O O7 0.750000 0.750000 0.000000
O O8 0.989282 0.339835 0.476974
O O9 0.921382 0.249958 0.615862
O O10 0.000000 0.274713 0.250000
O O11 0.666172 0.016696 0.728515
O O12 0.628938 0.103305 0.872540
O O13 0.705477 0.038406 0.961966
O O14 0.075356 0.429304 0.846751
O O15 0.000000 0.363817 0.750000
O O16 0.000000 0.801950 0.250000
O O17 0.500000 0.993368 0.750000
#
# Coordination Sequence:
#
# PCOD8137719 Si02
#       7
#     8   8   8   8   8   8   8
#     4  10  22  42  59  80 115 155 197 236 286 336
#     4  11  21  39  58  80 115 157 192 236 282 334
#     4  12  21  34  59  85 117 154 200 230 278 352
#     4  10  20  36  62  81 117 150 185 235 294 347
#     4   9  20  34  53  90 124 149 184 236 286 351
#     4  11  24  39  57  83 119 155 193 242 285 332
#     4   9  19  36  56  87 124 143 181 236 298 343
#
# _framework density 18.886073
#
# number of rings (size 3 to 8) (size 9 to 14) (size 15 to 20)
#    0.000    2.000    2.857    3.429    0.000    6.857 
#    0.000    2.143    0.000    0.000    0.000    0.000 
#    0.000    0.000    0.000    0.000    0.000    0.000 
#
# Total GULP energy -347049.165826 kJ/mol
# GULP energy per Si atom -12394.613065 kJ/mol
# Density = 1.884309 g / cm^3
# Si number density = 18.886073 Si / 1000 Ang^3
#
#
#
# Elastic Constant Matrix: (Units=GPa)
#
#
# Indices 1 2 3 4 5 6 
#
# 1 66.4271 22.8612 36.9283 0.0000 8.3328 0.0000
# 2 22.8612 57.2495 34.1261 0.0000 9.8409 0.0000
# 3 36.9283 34.1261 102.8969 0.0000 3.7030 0.0000
# 4 0.0000 0.0000 0.0000 28.7482 0.0000 -3.3437
# 5 8.3328 9.8409 3.7030 0.0000 29.3281 0.0000
# 6 0.0000 0.0000 0.0000 -3.3437 0.0000 18.8645
#
#
#
# Elastic Compliance Matrix: (Units=1/GPa)
#
#
# Indices 1 2 3 4 5 6 
#
# 1 0.020076 -0.003955 -0.005762 0.000000 -0.003650 0.000000
# 2 -0.003955 0.023826 -0.006264 0.000000 -0.006080 0.000000
# 3 -0.005762 -0.006264 0.013792 0.000000 0.001998 0.000000
# 4 0.000000 0.000000 0.000000 0.035517 0.000000 0.006295
# 5 -0.003650 -0.006080 0.001998 0.000000 0.036922 0.000000
# 6 0.000000 0.000000 0.000000 0.006295 0.000000 0.054125
#
#
# Mechanical properties :
#
#
# Convention : Reuss Voigt Hill
#
# Bulk Modulus (GPa) = 38.86151 46.04497 42.45324
# Shear Modulus (GPa) = 22.24232 24.23201 23.23716
#
# Velocity S-wave (km/s) = 3.43550 3.58587 3.51149
# Velocity P-wave (km/s) = 6.02979 6.44810 6.24245
#
# Compressibility (1/GPa) = 0.02573240
#
# Stress axis : x y z
#
# Youngs Moduli (GPa) = 49.81001 41.97179 72.50631
#
# Poissons Ratio (x) = 0.16599 0.41779
# Poissons Ratio (y) = 0.19699 0.45416
# Poissons Ratio (z) = 0.28701 0.26290
#
# Static dielectric constant tensor:
#      x y z
#    x 4.980790 0.000000 -1.336190 
#    y 0.000000 3.290840 0.000000 
#    z -1.336190 0.000000 5.080090 
# 
# 
# High freq. dielectric constant tensor:
#      x y z
#    x 1.727440 0.000000 0.003740 
#    y 0.000000 1.724380 0.000000 
#    z 0.003740 0.000000 1.737000 
# 
# From -- ./inp_files/52280.got.cif
#   From: 2010.06.25/outbox.cif.g09.slc.cpg/sg15_27_cif.got.tgz:52280.got - 2010.06.28 07:06:18.
