data_PCOD8137644
_publ_section_title
;
Structure prediction by ZEFSAII (Michael W. Deem and Ramdas Pophale) SiO2 
 PCOD8137644
Probable space group: C 2/C
;
_chemical_formula_sum "Si O2"
_cell_formula_units_Z 60
_cell_length_a 7.143639
_cell_length_b 24.255077
_cell_length_c 15.201946
_cell_angle_alpha 90.000000
_cell_angle_beta 82.314631
_cell_angle_gamma 90.000000
_cell_volume 2610.373276
_symmetry_space_group_name_H-M "C 2/C"
_symmetry_group_IT_number 15
_symmetry_cell_setting 'monoclinic'
loop_
_space_group_symop_operation_xyz
x,y,z
-x,y,1/2-z
-x,-y,-z
x,-y,1/2+z
1/2+x,1/2+y,z
1/2-x,1/2+y,1/2-z
1/2-x,1/2-y,-z
1/2+x,1/2-y,1/2+z
loop_
_atom_site_type_symbol
_atom_site_label
_atom_site_fract_x
_atom_site_fract_y
_atom_site_fract_z
Si Si1 0.785587 0.939896 0.959284
Si Si2 0.741738 0.034963 0.829913
Si Si3 0.120958 0.155433 0.654999
Si Si4 0.194472 0.489230 0.141527
Si Si5 0.078133 0.603629 0.093125
Si Si6 0.951161 0.159779 0.029335
Si Si7 0.635132 0.254267 0.823610
Si Si8 0.500000 0.177530 0.250000
O O1 0.565855 0.921693 0.968528
O O2 0.919730 0.887637 0.936603
O O3 0.830758 0.985645 0.882399
O O4 0.818266 0.965816 0.053367
O O5 0.817156 0.092519 0.861097
O O6 0.515837 0.034978 0.848829
O O7 0.803045 0.027904 0.723975
O O8 0.995654 0.172317 0.576292
O O9 0.306473 0.193850 0.646685
O O10 0.000000 0.165347 0.750000
O O11 0.187994 0.555263 0.137743
O O12 0.232511 0.641457 0.036471
O O13 0.955317 0.638884 0.169557
O O14 0.969074 0.213648 0.089834
O O15 0.500000 0.247240 0.750000
O O16 0.818600 0.286248 0.779742
#
# Coordination Sequence:
#
# PCOD8137644 Si02
#       8
#     8   8   8   8   8   8   8   4
#     4  11  21  40  64  96 135 171 217 261 326 400
#     4  10  22  37  62  94 132 175 214 262 327 394
#     4  12  25  45  65  94 136 174 218 275 330 390
#     4  10  20  36  60  97 132 172 213 259 322 395
#     4  10  20  38  65  94 133 171 212 267 324 384
#     4  11  25  43  68  99 129 171 222 276 328 389
#     4  11  25  46  70  95 126 171 226 278 329 382
#     4  10  20  42  66  94 126 166 220 278 326 376
#
# _framework density 22.985218
#
# number of rings (size 3 to 8) (size 9 to 14) (size 15 to 20)
#    0.000    1.333    0.667    6.800    1.867    4.267 
#    2.400    0.667    0.000    0.000    0.000    0.000 
#    0.000    0.000    0.000    0.000    0.000    0.000 
#
# Total GULP energy -372111.890149 kJ/mol
# GULP energy per Si atom -12403.729672 kJ/mol
# Density = 2.293290 g / cm^3
# Si number density = 22.985218 Si / 1000 Ang^3
#
#
#
# Elastic Constant Matrix: (Units=GPa)
#
#
# Indices 1 2 3 4 5 6 
#
# 1 37.6872 32.0200 24.9384 0.0000 13.4731 0.0000
# 2 32.0200 119.9950 49.0447 0.0000 15.8113 0.0000
# 3 24.9384 49.0447 150.2737 0.0000 19.2555 0.0000
# 4 0.0000 0.0000 0.0000 16.5320 0.0000 8.3538
# 5 13.4731 15.8113 19.2555 0.0000 35.2971 0.0000
# 6 0.0000 0.0000 0.0000 8.3538 0.0000 25.3859
#
#
#
# Elastic Compliance Matrix: (Units=1/GPa)
#
#
# Indices 1 2 3 4 5 6 
#
# 1 0.038437 -0.007936 -0.002542 0.000000 -0.009730 0.000000
# 2 -0.007936 0.011517 -0.002332 0.000000 -0.000858 0.000000
# 3 -0.002542 -0.002332 0.008149 0.000000 -0.002431 0.000000
# 4 0.000000 0.000000 0.000000 0.072553 0.000000 -0.023875
# 5 -0.009730 -0.000858 -0.002431 0.000000 0.033755 0.000000
# 6 0.000000 0.000000 0.000000 -0.023875 0.000000 0.047249
#
#
# Mechanical properties :
#
#
# Convention : Reuss Voigt Hill
#
# Bulk Modulus (GPa) = 30.78432 57.77357 44.27894
# Shear Modulus (GPa) = 20.15252 28.90653 24.52952
#
# Velocity S-wave (km/s) = 2.96423 3.55013 3.27033
# Velocity P-wave (km/s) = 5.01375 6.48030 5.79361
#
# Compressibility (1/GPa) = 0.03248407
#
# Stress axis : x y z
#
# Youngs Moduli (GPa) = 26.01648 86.82450 122.71537
#
# Poissons Ratio (x) = 0.68901 0.31195
# Poissons Ratio (y) = 0.20646 0.28618
# Poissons Ratio (z) = 0.06613 0.20248
#
# Static dielectric constant tensor:
#      x y z
#    x 3.989830 0.000000 -0.006080 
#    y 0.000000 4.181120 0.000000 
#    z -0.006080 0.000000 4.377320 
# 
# 
# High freq. dielectric constant tensor:
#      x y z
#    x 1.894750 0.000000 0.000370 
#    y 0.000000 1.909390 0.000000 
#    z 0.000370 0.000000 1.923910 
# 
# From -- ./inp_files/137370.got.cif
#   From: 2010.06.25/outbox.cif.g09.slc.cpg/sg15_69_cif.got.tgz:137370.got - 2010.06.28 07:06:18.
