data_PCOD8137315
_publ_section_title
;
Structure prediction by ZEFSAII (Michael W. Deem and Ramdas Pophale) SiO2 
 PCOD8137315
Probable space group: C 2/C
;
_chemical_formula_sum "Si O2"
_cell_formula_units_Z 60
_cell_length_a 7.362124
_cell_length_b 24.634295
_cell_length_c 17.927528
_cell_angle_alpha 90.000000
_cell_angle_beta 113.995774
_cell_angle_gamma 90.000000
_cell_volume 2970.353231
_symmetry_space_group_name_H-M "C 2/C"
_symmetry_group_IT_number 15
_symmetry_cell_setting 'monoclinic'
loop_
_space_group_symop_operation_xyz
x,y,z
-x,y,1/2-z
-x,-y,-z
x,-y,1/2+z
1/2+x,1/2+y,z
1/2-x,1/2+y,1/2-z
1/2-x,1/2-y,-z
1/2+x,1/2-y,1/2+z
loop_
_atom_site_type_symbol
_atom_site_label
_atom_site_fract_x
_atom_site_fract_y
_atom_site_fract_z
Si Si1 0.486675 0.184782 0.362722
Si Si2 0.500000 0.278820 0.250000
Si Si3 0.113622 0.234321 0.543728
Si Si4 0.393234 0.644521 0.429131
Si Si5 0.271875 0.842425 0.194611
Si Si6 0.565693 0.563323 0.570442
Si Si7 0.227243 0.518810 0.030457
Si Si8 0.638943 0.610995 0.336841
O O1 0.541909 0.238385 0.324735
O O2 0.477586 0.208634 0.444477
O O3 0.658065 0.141213 0.377063
O O4 0.283637 0.151769 0.315013
O O5 0.679137 0.319177 0.256246
O O6 0.250000 0.250000 0.500000
O O7 0.249522 0.203605 0.627813
O O8 0.934695 0.197140 0.486078
O O9 0.448064 0.591815 0.484134
O O10 0.505863 0.647856 0.369413
O O11 0.500000 0.856249 0.250000
O O12 0.160090 0.897347 0.148625
O O13 0.741064 0.533691 0.552258
O O14 0.401418 0.524369 0.581955
O O15 0.245417 0.567467 0.093475
O O16 0.000000 0.500000 0.000000
O O17 0.500000 0.583409 0.250000
#
# Coordination Sequence:
#
# PCOD8137315 Si02
#       8
#     8   4   8   8   8   8   8   8
#     4  11  21  35  59  86 121 167 204 241 306 357
#     4  10  24  36  54  90 128 168 206 246 292 376
#     4  10  20  36  56  88 119 160 210 250 287 360
#     4  10  20  37  59  84 120 157 203 252 299 362
#     4  10  23  41  59  86 129 167 205 254 316 365
#     4   9  21  42  62  90 117 151 209 265 301 381
#     4  10  21  42  69  89 117 157 204 262 325 367
#     4  11  23  38  58  90 124 156 199 256 310 366
#
# _framework density 20.199618999999998
#
# number of rings (size 3 to 8) (size 9 to 14) (size 15 to 20)
#    0.000    1.867    1.333    2.000    1.867    3.200 
#    3.600    0.000    0.000    0.000    0.000    0.000 
#    0.000    0.000    0.000    0.000    0.000    0.000 
#
# Total GULP energy -371694.206594 kJ/mol
# GULP energy per Si atom -12389.806886 kJ/mol
# Density = 2.015364 g / cm^3
# Si number density = 20.199619 Si / 1000 Ang^3
#
#
#
# Elastic Constant Matrix: (Units=GPa)
#
#
# Indices 1 2 3 4 5 6 
#
# 1 162.3563 59.6487 54.7177 0.0000 1.0664 0.0000
# 2 59.6487 82.5435 29.9327 0.0000 1.1775 0.0000
# 3 54.7177 29.9327 81.0613 0.0000 1.7243 0.0000
# 4 0.0000 0.0000 0.0000 21.1730 0.0000 -2.0108
# 5 1.0664 1.1775 1.7243 0.0000 24.5386 0.0000
# 6 0.0000 0.0000 0.0000 -2.0108 0.0000 28.5901
#
#
#
# Elastic Compliance Matrix: (Units=1/GPa)
#
#
# Indices 1 2 3 4 5 6 
#
# 1 0.009648 -0.005324 -0.004550 0.000000 0.000156 0.000000
# 2 -0.005324 0.016928 -0.002649 0.000000 -0.000395 0.000000
# 3 -0.004550 -0.002649 0.016403 0.000000 -0.000828 0.000000
# 4 0.000000 0.000000 0.000000 0.047548 0.000000 0.003344
# 5 0.000156 -0.000395 -0.000828 0.000000 0.040823 0.000000
# 6 0.000000 0.000000 0.000000 0.003344 0.000000 0.035212
#
#
# Mechanical properties :
#
#
# Convention : Reuss Voigt Hill
#
# Bulk Modulus (GPa) = 55.75953 68.28435 62.02194
# Shear Modulus (GPa) = 25.30563 26.97113 26.13838
#
# Velocity S-wave (km/s) = 3.54330 3.65804 3.60113
# Velocity P-wave (km/s) = 6.66364 7.19165 6.93268
#
# Compressibility (1/GPa) = 0.01793416
#
# Stress axis : x y z
#
# Youngs Moduli (GPa) = 103.65230 59.07261 60.96404
#
# Poissons Ratio (x) = 0.31451 0.27737
# Poissons Ratio (y) = 0.55185 0.16148
# Poissons Ratio (z) = 0.47158 0.15647
#
# Static dielectric constant tensor:
#      x y z
#    x 3.915500 0.000000 -0.075660 
#    y 0.000000 4.779430 0.000000 
#    z -0.075660 0.000000 3.396950 
# 
# 
# High freq. dielectric constant tensor:
#      x y z
#    x 1.801630 0.000000 -0.011110 
#    y 0.000000 1.785640 0.000000 
#    z -0.011110 0.000000 1.773090 
# 
# From -- ./inp_files/186765.got.cif
#   From: 2010.06.25/outbox.cif.g09.slc.cpg/sg15_94_cif.got.tgz:186765.got - 2010.06.28 07:06:18.
