data_PCOD8137485
_publ_section_title
;
Structure prediction by ZEFSAII (Michael W. Deem and Ramdas Pophale) SiO2 
 PCOD8137485
Probable space group: C 2/C
;
_chemical_formula_sum "Si O2"
_cell_formula_units_Z 60
_cell_length_a 8.688870
_cell_length_b 12.022618
_cell_length_c 32.008380
_cell_angle_alpha 90.000000
_cell_angle_beta 118.997571
_cell_angle_gamma 90.000000
_cell_volume 2924.526130
_symmetry_space_group_name_H-M "C 2/C"
_symmetry_group_IT_number 15
_symmetry_cell_setting 'monoclinic'
loop_
_space_group_symop_operation_xyz
x,y,z
-x,y,1/2-z
-x,-y,-z
x,-y,1/2+z
1/2+x,1/2+y,z
1/2-x,1/2+y,1/2-z
1/2-x,1/2-y,-z
1/2+x,1/2-y,1/2+z
loop_
_atom_site_type_symbol
_atom_site_label
_atom_site_fract_x
_atom_site_fract_y
_atom_site_fract_z
Si Si1 0.892956 0.471013 0.819410
Si Si2 0.193834 0.701532 0.724346
Si Si3 0.372818 0.328465 0.989394
Si Si4 0.500000 0.864481 0.750000
Si Si5 0.160435 0.744248 0.081272
Si Si6 0.417081 0.217948 0.549209
Si Si7 0.699193 0.743909 0.314474
Si Si8 0.561037 0.031014 0.429495
O O1 0.797026 0.589060 0.801068
O O2 0.738906 0.383678 0.808051
O O3 0.996217 0.441887 0.790445
O O4 0.031371 0.474532 0.875702
O O5 0.329090 0.787602 0.721992
O O6 0.240065 0.679196 0.779549
O O7 0.000890 0.754396 0.697153
O O8 0.415542 0.280331 0.948713
O O9 0.266109 0.441526 0.966638
O O10 0.250000 0.250000 0.000000
O O11 0.550061 0.338136 0.040967
O O12 0.359578 0.741799 0.088193
O O13 0.174905 0.783629 0.131168
O O14 0.069334 0.622262 0.066536
O O15 0.250000 0.250000 0.500000
O O16 0.472416 0.088626 0.554668
#
# Coordination Sequence:
#
# PCOD8137485 Si02
#       8
#     8   8   8   4   8   8   8   8
#     4  10  21  37  58  85 114 150 190 230 284 339
#     4  10  20  36  59  82 115 151 182 235 290 334
#     4   9  20  37  59  83 114 149 186 233 281 328
#     4  10  22  36  58  88 112 144 194 234 278 346
#     4   9  19  36  57  83 112 149 193 233 281 338
#     4  10  21  35  56  82 110 147 190 229 277 333
#     4   9  19  36  57  81 114 149 187 235 284 338
#     4  10  21  38  58  82 117 152 187 236 283 330
#
# _framework density 20.516144000000001
#
# number of rings (size 3 to 8) (size 9 to 14) (size 15 to 20)
#    0.000    2.400    0.000    1.600    0.000   11.200 
#    0.000    1.333    0.000   19.200    0.000    0.000 
#    0.000    0.000    0.000    0.000    0.000    0.000 
#
# Total GULP energy -371746.182921 kJ/mol
# GULP energy per Si atom -12391.539431 kJ/mol
# Density = 2.046945 g / cm^3
# Si number density = 20.516144 Si / 1000 Ang^3
#
#
#
# Elastic Constant Matrix: (Units=GPa)
#
#
# Indices 1 2 3 4 5 6 
#
# 1 72.9476 15.9511 11.4861 0.0000 -7.5656 0.0000
# 2 15.9511 71.9137 23.9864 0.0000 3.4965 0.0000
# 3 11.4861 23.9864 105.2874 0.0000 1.6308 0.0000
# 4 0.0000 0.0000 0.0000 30.0228 0.0000 0.5908
# 5 -7.5656 3.4965 1.6308 0.0000 22.5237 0.0000
# 6 0.0000 0.0000 0.0000 0.5908 0.0000 26.3384
#
#
#
# Elastic Compliance Matrix: (Units=1/GPa)
#
#
# Indices 1 2 3 4 5 6 
#
# 1 0.015178 -0.003313 -0.000989 0.000000 0.005684 0.000000
# 2 -0.003313 0.015871 -0.003203 0.000000 -0.003345 0.000000
# 3 -0.000989 -0.003203 0.010344 0.000000 -0.000584 0.000000
# 4 0.000000 0.000000 0.000000 0.033323 0.000000 -0.000747
# 5 0.005684 -0.003345 -0.000584 0.000000 0.046868 0.000000
# 6 0.000000 0.000000 0.000000 -0.000747 0.000000 0.037984
#
#
# Mechanical properties :
#
#
# Convention : Reuss Voigt Hill
#
# Bulk Modulus (GPa) = 37.90127 39.22176 38.56152
# Shear Modulus (GPa) = 27.26678 29.02533 28.14606
#
# Velocity S-wave (km/s) = 3.64956 3.76540 3.70793
# Velocity P-wave (km/s) = 6.02271 6.16955 6.09657
#
# Compressibility (1/GPa) = 0.02638434
#
# Stress axis : x y z
#
# Youngs Moduli (GPa) = 65.88399 63.00698 96.67107
#
# Poissons Ratio (x) = 0.20875 0.09562
# Poissons Ratio (y) = 0.21828 0.30959
# Poissons Ratio (z) = 0.06516 0.20178
#
# Static dielectric constant tensor:
#      x y z
#    x 4.218600 0.000000 -0.202240 
#    y 0.000000 3.601410 0.000000 
#    z -0.202240 0.000000 4.159630 
# 
# 
# High freq. dielectric constant tensor:
#      x y z
#    x 1.799660 0.000000 -0.011110 
#    y 0.000000 1.784650 0.000000 
#    z -0.011110 0.000000 1.810890 
# 
# From -- ./inp_files/307151.got.cif
#   From: 2010.06.25/outbox.cif.g09.slc.cpg/sg15_154_cif.got.tgz:307151.got - 2010.06.28 07:06:18.
