data_PCOD8137394
_publ_section_title
;
Structure prediction by ZEFSAII (Michael W. Deem and Ramdas Pophale) SiO2 
 PCOD8137394
Probable space group: C 2/C
;
_chemical_formula_sum "Si O2"
_cell_formula_units_Z 32
_cell_length_a 4.984194
_cell_length_b 19.027868
_cell_length_c 16.627024
_cell_angle_alpha 90.000000
_cell_angle_beta 88.011506
_cell_angle_gamma 90.000000
_cell_volume 1575.933862
_symmetry_space_group_name_H-M "C 2/C"
_symmetry_group_IT_number 15
_symmetry_cell_setting 'monoclinic'
loop_
_space_group_symop_operation_xyz
x,y,z
-x,y,1/2-z
-x,-y,-z
x,-y,1/2+z
1/2+x,1/2+y,z
1/2-x,1/2+y,1/2-z
1/2-x,1/2-y,-z
1/2+x,1/2-y,1/2+z
loop_
_atom_site_type_symbol
_atom_site_label
_atom_site_fract_x
_atom_site_fract_y
_atom_site_fract_z
Si Si1 0.583368 0.420756 0.342353
Si Si2 0.749087 0.877244 0.805755
Si Si3 0.252391 0.276722 0.195764
Si Si4 0.584538 0.005505 0.907744
O O1 0.500000 0.425992 0.250000
O O2 0.675015 0.340975 0.364989
O O3 0.325212 0.438231 0.399059
O O4 0.830367 0.473126 0.356009
O O5 0.500000 0.875962 0.750000
O O6 0.807606 0.799467 0.844223
O O7 0.000000 0.902992 0.750000
O O8 0.700251 0.930472 0.879017
O O9 0.500000 0.262076 0.250000
O O10 0.000000 0.303108 0.250000
O O11 0.500000 0.000000 0.000000
#
# Coordination Sequence:
#
# PCOD8137394 Si02
#       4
#     8   8   8   8
#     4  11  21  38  61  82 106 146 192 231 272 328
#     4  10  20  36  58  81 108 144 186 229 275 327
#     4   9  18  33  56  84 106 133 185 240 273 315
#     4  12  24  37  54  85 120 149 182 228 278 330
#
# _framework density 20.305420000000002
#
# number of rings (size 3 to 8) (size 9 to 14) (size 15 to 20)
#    0.000    1.500    0.000    8.250    0.000    0.000 
#    0.000    2.500    0.000    0.000    0.000    0.000 
#    0.000    0.000    0.000    0.000    0.000    0.000 
#
# Total GULP energy -198331.964801 kJ/mol
# GULP energy per Si atom -12395.747800 kJ/mol
# Density = 2.025920 g / cm^3
# Si number density = 20.305420 Si / 1000 Ang^3
#
#
#
# Elastic Constant Matrix: (Units=GPa)
#
#
# Indices 1 2 3 4 5 6 
#
# 1 148.6422 52.1239 43.2153 0.0000 -24.2771 0.0000
# 2 52.1239 160.6759 78.8522 0.0000 -25.7898 0.0000
# 3 43.2153 78.8522 89.1347 0.0000 -29.8922 0.0000
# 4 0.0000 0.0000 0.0000 9.6916 0.0000 -7.1970
# 5 -24.2771 -25.7898 -29.8922 0.0000 34.9857 0.0000
# 6 0.0000 0.0000 0.0000 -7.1970 0.0000 36.6997
#
#
#
# Elastic Compliance Matrix: (Units=1/GPa)
#
#
# Indices 1 2 3 4 5 6 
#
# 1 0.008220 -0.001280 -0.001762 0.000000 0.003256 0.000000
# 2 -0.001280 0.011200 -0.009554 0.000000 -0.000795 0.000000
# 3 -0.001762 -0.009554 0.024883 0.000000 0.012995 0.000000
# 4 0.000000 0.000000 0.000000 0.120769 0.000000 0.023683
# 5 0.003256 -0.000795 0.012995 0.000000 0.041359 0.000000
# 6 0.000000 0.000000 0.000000 0.023683 0.000000 0.031893
#
#
# Mechanical properties :
#
#
# Convention : Reuss Voigt Hill
#
# Bulk Modulus (GPa) = 52.32166 82.98171 67.65168
# Shear Modulus (GPa) = 18.52637 31.22617 24.87627
#
# Velocity S-wave (km/s) = 3.02385 3.92576 3.50395
# Velocity P-wave (km/s) = 6.16562 7.84247 7.05405
#
# Compressibility (1/GPa) = 0.01911254
#
# Stress axis : x y z
#
# Youngs Moduli (GPa) = 121.65201 89.28620 40.18793
#
# Poissons Ratio (x) = 0.11425 0.07079
# Poissons Ratio (y) = 0.15566 0.38396
# Poissons Ratio (z) = 0.21430 0.85306
#
# Static dielectric constant tensor:
#      x y z
#    x 4.010310 0.000000 -0.086500 
#    y 0.000000 4.513120 0.000000 
#    z -0.086500 0.000000 3.068350 
# 
# 
# High freq. dielectric constant tensor:
#      x y z
#    x 1.825220 0.000000 -0.010110 
#    y 0.000000 1.819650 0.000000 
#    z -0.010110 0.000000 1.726150 
# 
# From -- ./inp_files/128117.got.cif
#   From: 2010.06.25/outbox.cif.g09.slc.cpg/sg15_65_cif.got.tgz:128117.got - 2010.06.28 07:06:18.
