data_PCOD8137942
_publ_section_title
;
Structure prediction by ZEFSAII (Michael W. Deem and Ramdas Pophale) SiO2 
 PCOD8137942
Probable space group: C 2/C
;
_chemical_formula_sum "Si O2"
_cell_formula_units_Z 60
_cell_length_a 21.116798
_cell_length_b 8.588311
_cell_length_c 22.497814
_cell_angle_alpha 90.000000
_cell_angle_beta 138.260299
_cell_angle_gamma 90.000000
_cell_volume 2716.349997
_symmetry_space_group_name_H-M "C 2/C"
_symmetry_group_IT_number 15
_symmetry_cell_setting 'monoclinic'
loop_
_space_group_symop_operation_xyz
x,y,z
-x,y,1/2-z
-x,-y,-z
x,-y,1/2+z
1/2+x,1/2+y,z
1/2-x,1/2+y,1/2-z
1/2-x,1/2-y,-z
1/2+x,1/2-y,1/2+z
loop_
_atom_site_type_symbol
_atom_site_label
_atom_site_fract_x
_atom_site_fract_y
_atom_site_fract_z
Si Si1 0.547706 0.657646 0.482519
Si Si2 0.527979 0.910241 0.374930
Si Si3 0.170006 0.927459 0.798002
Si Si4 0.800552 0.942421 0.971744
Si Si5 0.863113 0.026073 0.849211
Si Si6 0.682903 0.069737 0.789769
Si Si7 0.000000 0.817815 0.750000
Si Si8 0.794075 0.588670 0.973416
O O1 0.547071 0.823268 0.450533
O O2 0.601871 0.528237 0.479289
O O3 0.599651 0.671353 0.583785
O O4 0.437775 0.611640 0.415179
O O5 0.423620 0.988591 0.298626
O O6 0.544044 0.791261 0.332072
O O7 0.604390 0.047621 0.426643
O O8 0.185369 0.756142 0.781651
O O9 0.081443 0.928435 0.781079
O O10 0.144320 0.049358 0.726901
O O11 0.265373 0.980318 0.897952
O O12 0.800278 0.762304 0.952151
O O13 0.711674 0.029295 0.877662
O O14 0.786381 0.941826 0.032770
O O15 0.757012 0.983535 0.797863
#
# Coordination Sequence:
#
# PCOD8137942 Si02
#       8
#     8   8   8   8   8   8   4   8
#     4  10  20  41  67  88 122 164 214 258 313 377
#     4  11  21  41  67  99 121 168 220 267 310 380
#     4  11  22  40  64  99 121 167 219 266 309 383
#     4  10  23  42  59  91 130 172 199 262 333 377
#     4  10  21  38  64  91 122 160 203 261 316 369
#     4  10  22  42  66  90 128 165 214 262 316 369
#     4  10  20  36  68  98 126 156 222 272 310 360
#     4  11  23  39  61  93 133 163 211 255 324 394
#
# _framework density 22.088463999999998
#
# number of rings (size 3 to 8) (size 9 to 14) (size 15 to 20)
#    0.000    1.600    2.667    4.000    0.000    3.733 
#    4.800    0.667    0.000    0.000    0.000    0.000 
#    0.000    0.000    0.000    0.000    0.000    0.000 
#
# Total GULP energy -371821.821650 kJ/mol
# GULP energy per Si atom -12394.060722 kJ/mol
# Density = 2.203819 g / cm^3
# Si number density = 22.088464 Si / 1000 Ang^3
#
#
#
# Elastic Constant Matrix: (Units=GPa)
#
#
# Indices 1 2 3 4 5 6 
#
# 1 114.5528 20.4249 41.7761 0.0000 13.9132 0.0000
# 2 20.4249 50.1955 22.8967 0.0000 1.4866 0.0000
# 3 41.7761 22.8967 130.2537 0.0000 -3.3132 0.0000
# 4 0.0000 0.0000 0.0000 27.2855 0.0000 -0.7604
# 5 13.9132 1.4866 -3.3132 0.0000 37.2778 0.0000
# 6 0.0000 0.0000 0.0000 -0.7604 0.0000 15.7684
#
#
#
# Elastic Compliance Matrix: (Units=1/GPa)
#
#
# Indices 1 2 3 4 5 6 
#
# 1 0.010885 -0.002895 -0.003090 0.000000 -0.004222 0.000000
# 2 -0.002895 0.022483 -0.003026 0.000000 -0.000085 0.000000
# 3 -0.003090 -0.003026 0.009254 0.000000 0.002096 0.000000
# 4 0.000000 0.000000 0.000000 0.036699 0.000000 0.001770
# 5 -0.004222 -0.000085 0.002096 0.000000 0.028591 0.000000
# 6 0.000000 0.000000 0.000000 0.001770 0.000000 0.063504
#
#
# Mechanical properties :
#
#
# Convention : Reuss Voigt Hill
#
# Bulk Modulus (GPa) = 40.64926 51.68861 46.16894
# Shear Modulus (GPa) = 25.29900 30.05994 27.67947
#
# Velocity S-wave (km/s) = 3.38797 3.69302 3.54378
# Velocity P-wave (km/s) = 5.80925 6.45260 6.13936
#
# Compressibility (1/GPa) = 0.02460069
#
# Stress axis : x y z
#
# Youngs Moduli (GPa) = 91.86673 44.47842 108.06706
#
# Poissons Ratio (x) = 0.12876 0.33390
# Poissons Ratio (y) = 0.26594 0.32699
# Poissons Ratio (z) = 0.28384 0.13458
#
# Static dielectric constant tensor:
#      x y z
#    x 4.088470 0.000000 -0.002790 
#    y 0.000000 3.535390 0.000000 
#    z -0.002790 0.000000 4.183460 
# 
# 
# High freq. dielectric constant tensor:
#      x y z
#    x 1.873120 0.000000 0.002650 
#    y 0.000000 1.825830 0.000000 
#    z 0.002650 0.000000 1.884950 
# 
# From -- ./inp_files/281693.got.cif
#   From: 2010.06.25/outbox.cif.g09.slc.cpg/sg15_141_cif.got.tgz:281693.got - 2010.06.28 07:06:18.
