data_PCOD8137590
_publ_section_title
;
Structure prediction by ZEFSAII (Michael W. Deem and Ramdas Pophale) SiO2 
 PCOD8137590
Probable space group: C 2/C
;
_chemical_formula_sum "Si O2"
_cell_formula_units_Z 60
_cell_length_a 17.750286
_cell_length_b 17.396783
_cell_length_c 11.733637
_cell_angle_alpha 90.000000
_cell_angle_beta 60.255775
_cell_angle_gamma 90.000000
_cell_volume 3145.945206
_symmetry_space_group_name_H-M "C 2/C"
_symmetry_group_IT_number 15
_symmetry_cell_setting 'monoclinic'
loop_
_space_group_symop_operation_xyz
x,y,z
-x,y,1/2-z
-x,-y,-z
x,-y,1/2+z
1/2+x,1/2+y,z
1/2-x,1/2+y,1/2-z
1/2-x,1/2-y,-z
1/2+x,1/2-y,1/2+z
loop_
_atom_site_type_symbol
_atom_site_label
_atom_site_fract_x
_atom_site_fract_y
_atom_site_fract_z
Si Si1 0.900827 0.138494 0.792871
Si Si2 0.642550 0.110830 0.486033
Si Si3 0.901221 0.015355 0.602881
Si Si4 0.850463 0.512765 0.229065
Si Si5 0.265303 0.387739 0.094872
Si Si6 0.193458 0.255209 0.797955
Si Si7 0.000000 0.551670 0.750000
Si Si8 0.294320 0.380465 0.602679
O O1 0.892820 0.058827 0.729664
O O2 0.866765 0.210641 0.746289
O O3 0.000000 0.155279 0.750000
O O4 0.842358 0.130849 0.948141
O O5 0.643720 0.034677 0.407725
O O6 0.732597 0.112367 0.489210
O O7 0.633531 0.184113 0.410563
O O8 0.560885 0.108219 0.631320
O O9 0.858497 0.069067 0.535675
O O10 0.852448 0.933059 0.644351
O O11 0.000000 0.000000 0.500000
O O12 0.801885 0.431318 0.271537
O O13 0.797584 0.575572 0.344378
O O14 0.945858 0.505159 0.209901
O O15 0.267280 0.301041 0.137242
O O16 0.273995 0.298078 0.675255
#
# Coordination Sequence:
#
# PCOD8137590 Si02
#       8
#     8   8   8   8   8   8   4   8
#     4  11  22  41  62  90 127 157 199 257 309 359
#     4  10  20  40  57  85 119 155 202 243 292 362
#     4  10  20  37  60  89 116 153 204 255 299 351
#     4   9  20  37  61  89 115 151 202 249 297 356
#     4   9  20  36  62  83 116 160 196 250 299 352
#     4  10  22  39  59  86 122 163 199 241 300 373
#     4  10  20  36  60  86 120 152 196 254 294 344
#     4  10  21  39  62  89 119 158 204 245 303 368
#
# _framework density 19.07217
#
# number of rings (size 3 to 8) (size 9 to 14) (size 15 to 20)
#    0.000    2.133    1.333    1.200    0.000   12.800 
#    9.600    0.000    0.000    0.000    0.000    0.000 
#    0.000    0.000    0.000    0.000    0.000    0.000 
#
# Total GULP energy -371939.360921 kJ/mol
# GULP energy per Si atom -12397.978697 kJ/mol
# Density = 1.902876 g / cm^3
# Si number density = 19.072170 Si / 1000 Ang^3
#
#
#
# Elastic Constant Matrix: (Units=GPa)
#
#
# Indices 1 2 3 4 5 6 
#
# 1 142.1962 56.9348 59.0975 0.0000 1.7723 0.0000
# 2 56.9348 106.4495 52.1496 0.0000 7.8180 0.0000
# 3 59.0975 52.1496 140.8433 0.0000 2.9793 0.0000
# 4 0.0000 0.0000 0.0000 32.9859 0.0000 5.8272
# 5 1.7723 7.8180 2.9793 0.0000 27.4032 0.0000
# 6 0.0000 0.0000 0.0000 5.8272 0.0000 25.1135
#
#
#
# Elastic Compliance Matrix: (Units=1/GPa)
#
#
# Indices 1 2 3 4 5 6 
#
# 1 0.009697 -0.003962 -0.002619 0.000000 0.000788 0.000000
# 2 -0.003962 0.013315 -0.003200 0.000000 -0.003195 0.000000
# 3 -0.002619 -0.003200 0.009383 0.000000 0.000062 0.000000
# 4 0.000000 0.000000 0.000000 0.031612 0.000000 -0.007335
# 5 0.000788 -0.003195 0.000062 0.000000 0.037346 0.000000
# 6 0.000000 0.000000 0.000000 -0.007335 0.000000 0.041521
#
#
# Mechanical properties :
#
#
# Convention : Reuss Voigt Hill
#
# Bulk Modulus (GPa) = 77.91897 80.65030 79.28464
# Shear Modulus (GPa) = 29.99154 31.85433 30.92293
#
# Velocity S-wave (km/s) = 3.96981 4.09124 4.03098
# Velocity P-wave (km/s) = 7.87122 8.04341 7.95778
#
# Compressibility (1/GPa) = 0.01283385
#
# Stress axis : x y z
#
# Youngs Moduli (GPa) = 103.12161 75.10047 106.57982
#
# Poissons Ratio (x) = 0.29751 0.27911
# Poissons Ratio (y) = 0.40852 0.34110
# Poissons Ratio (z) = 0.27006 0.24036
#
# Static dielectric constant tensor:
#      x y z
#    x 3.688060 0.000000 0.045280 
#    y 0.000000 3.592740 0.000000 
#    z 0.045280 0.000000 3.460110 
# 
# 
# High freq. dielectric constant tensor:
#      x y z
#    x 1.744680 0.000000 0.002960 
#    y 0.000000 1.741000 0.000000 
#    z 0.002960 0.000000 1.737920 
# 
# From -- ./inp_files/106690.got.cif
#   From: 2010.06.25/outbox.cif.g09.slc.cpg/sg15_54_cif.got.tgz:106690.got - 2010.06.28 07:06:18.
