data_PCOD8137155
_publ_section_title
;
Structure prediction by ZEFSAII (Michael W. Deem and Ramdas Pophale) SiO2 
 PCOD8137155
Probable space group: C 2/C
;
_chemical_formula_sum "Si O2"
_cell_formula_units_Z 52
_cell_length_a 16.784247
_cell_length_b 15.179851
_cell_length_c 13.761497
_cell_angle_alpha 90.000000
_cell_angle_beta 135.258510
_cell_angle_gamma 90.000000
_cell_volume 2468.037268
_symmetry_space_group_name_H-M "C 2/C"
_symmetry_group_IT_number 15
_symmetry_cell_setting 'monoclinic'
loop_
_space_group_symop_operation_xyz
x,y,z
-x,y,1/2-z
-x,-y,-z
x,-y,1/2+z
1/2+x,1/2+y,z
1/2-x,1/2+y,1/2-z
1/2-x,1/2-y,-z
1/2+x,1/2-y,1/2+z
loop_
_atom_site_type_symbol
_atom_site_label
_atom_site_fract_x
_atom_site_fract_y
_atom_site_fract_z
Si Si1 0.202633 0.410217 0.938407
Si Si2 0.681294 0.817858 0.112257
Si Si3 0.000000 0.462162 0.250000
Si Si4 0.018487 0.404753 0.470960
Si Si5 0.864904 0.950294 0.348176
Si Si6 0.238892 0.370184 0.759249
Si Si7 0.063297 0.998210 0.896153
O O1 0.171936 0.382677 0.802650
O O2 0.108199 0.482660 0.882320
O O3 0.194466 0.327732 0.006563
O O4 0.330420 0.447571 0.054052
O O5 0.552664 0.835510 0.028719
O O6 0.760100 0.891619 0.228531
O O7 0.703836 0.724032 0.179239
O O8 0.026012 0.401705 0.178996
O O9 0.000000 0.500000 0.500000
O O10 0.148867 0.373830 0.593543
O O11 0.898038 0.927026 0.489204
O O12 0.831556 0.054234 0.320357
O O13 0.972150 0.936141 0.369945
O O14 0.000000 0.952029 0.750000
#
# Coordination Sequence:
#
# PCOD8137155 Si02
#       7
#     8   8   4   8   8   8   8
#     4  11  20  38  65 104 127 162 215 280 341 396
#     4  12  23  41  67  97 135 168 218 281 330 393
#     4  12  22  42  76  94 124 184 238 268 324 402
#     4  12  22  43  69  95 130 181 222 270 333 393
#     4  10  21  40  61  90 126 175 211 258 329 389
#     4  11  24  40  66  99 133 169 224 270 334 397
#     4  10  20  35  62  90 125 165 201 257 329 393
#
# _framework density 21.069374
#
# number of rings (size 3 to 8) (size 9 to 14) (size 15 to 20)
#    0.000    0.923    6.154    1.385    0.000    3.692 
#    0.000    2.308    3.385    0.000    0.000    0.000 
#    0.000    0.000    0.000    0.000    0.000    0.000 
#
# Total GULP energy -322231.775222 kJ/mol
# GULP energy per Si atom -12393.529816 kJ/mol
# Density = 2.102142 g / cm^3
# Si number density = 21.069374 Si / 1000 Ang^3
#
#
#
# Elastic Constant Matrix: (Units=GPa)
#
#
# Indices 1 2 3 4 5 6 
#
# 1 93.8980 22.9881 31.4995 0.0000 4.7231 0.0000
# 2 22.9881 86.2603 18.2767 0.0000 10.1665 0.0000
# 3 31.4995 18.2767 122.6954 0.0000 -6.2599 0.0000
# 4 0.0000 0.0000 0.0000 33.2093 0.0000 0.2908
# 5 4.7231 10.1665 -6.2599 0.0000 43.9705 0.0000
# 6 0.0000 0.0000 0.0000 0.2908 0.0000 16.1998
#
#
#
# Elastic Compliance Matrix: (Units=1/GPa)
#
#
# Indices 1 2 3 4 5 6 
#
# 1 0.012278 -0.002538 -0.002832 0.000000 -0.001135 0.000000
# 2 -0.002538 0.012914 -0.001421 0.000000 -0.002915 0.000000
# 3 -0.002832 -0.001421 0.009188 0.000000 0.001941 0.000000
# 4 0.000000 0.000000 0.000000 0.030117 0.000000 -0.000541
# 5 -0.001135 -0.002915 0.001941 0.000000 0.023815 0.000000
# 6 0.000000 0.000000 0.000000 -0.000541 0.000000 0.061739
#
#
# Mechanical properties :
#
#
# Convention : Reuss Voigt Hill
#
# Bulk Modulus (GPa) = 48.08126 49.82024 48.95075
# Shear Modulus (GPa) = 29.31423 34.01522 31.66472
#
# Velocity S-wave (km/s) = 3.73409 4.02237 3.88090
# Velocity P-wave (km/s) = 6.43904 6.72828 6.58525
#
# Compressibility (1/GPa) = 0.02079812
#
# Stress axis : x y z
#
# Youngs Moduli (GPa) = 81.44361 77.43586 108.83781
#
# Poissons Ratio (x) = 0.19656 0.30823
# Poissons Ratio (y) = 0.20673 0.15463
# Poissons Ratio (z) = 0.23065 0.11002
#
# Static dielectric constant tensor:
#      x y z
#    x 4.010640 0.000000 -0.053310 
#    y 0.000000 3.462440 0.000000 
#    z -0.053310 0.000000 4.246020 
# 
# 
# High freq. dielectric constant tensor:
#      x y z
#    x 1.837260 0.000000 0.000750 
#    y 0.000000 1.769040 0.000000 
#    z 0.000750 0.000000 1.852310 
# 
# From -- ./inp_files/162624.got.cif
#   From: 2010.06.25/outbox.cif.g09.slc.cpg/sg15_82_cif.got.tgz:162624.got - 2010.06.28 07:06:18.
