data_PCOD8137237
_publ_section_title
;
Structure prediction by ZEFSAII (Michael W. Deem and Ramdas Pophale) SiO2 
 PCOD8137237
Probable space group: C 2/C
;
_chemical_formula_sum "Si O2"
_cell_formula_units_Z 60
_cell_length_a 17.351458
_cell_length_b 28.700623
_cell_length_c 11.703978
_cell_angle_alpha 90.000000
_cell_angle_beta 149.653835
_cell_angle_gamma 90.000000
_cell_volume 2944.720059
_symmetry_space_group_name_H-M "C 2/C"
_symmetry_group_IT_number 15
_symmetry_cell_setting 'monoclinic'
loop_
_space_group_symop_operation_xyz
x,y,z
-x,y,1/2-z
-x,-y,-z
x,-y,1/2+z
1/2+x,1/2+y,z
1/2-x,1/2+y,1/2-z
1/2-x,1/2-y,-z
1/2+x,1/2-y,1/2+z
loop_
_atom_site_type_symbol
_atom_site_label
_atom_site_fract_x
_atom_site_fract_y
_atom_site_fract_z
Si Si1 0.086301 0.068150 0.609100
Si Si2 0.630750 0.514916 0.007905
Si Si3 0.437602 0.831173 0.818572
Si Si4 0.204910 0.710820 0.166056
Si Si5 0.274706 0.206621 0.909015
Si Si6 0.652116 0.930786 0.875648
Si Si7 0.000000 0.767753 0.750000
Si Si8 0.482196 0.666322 0.438105
O O1 0.933837 0.050259 0.478710
O O2 0.033055 0.114166 0.472429
O O3 0.162215 0.033256 0.614670
O O4 0.214178 0.080199 0.864819
O O5 0.500000 0.504511 0.750000
O O6 0.784715 0.532361 0.139295
O O7 0.434881 0.813117 0.944995
O O8 0.332225 0.792329 0.614614
O O9 0.376496 0.883305 0.728953
O O10 0.611457 0.832311 0.999533
O O11 0.298175 0.746762 0.365615
O O12 0.317821 0.667776 0.287106
O O13 0.141126 0.735355 0.970203
O O14 0.102816 0.188925 0.679562
O O15 0.500000 0.948618 0.750000
O O16 0.044781 0.801214 0.704902
#
# Coordination Sequence:
#
# PCOD8137237 Si02
#       8
#     8   8   8   8   8   8   4   8
#     4  10  20  39  59  91 115 151 200 243 302 352
#     4   9  21  37  62  86 119 150 190 252 295 360
#     4  11  20  36  56  84 121 157 187 248 294 349
#     4  11  23  37  58  81 116 159 207 243 290 347
#     4  10  20  36  53  84 118 153 191 241 295 337
#     4  11  20  38  60  90 122 154 193 239 307 359
#     4  10  24  40  54  82 120 160 202 250 294 342
#     4  11  21  37  60  84 110 156 202 246 285 354
#
# _framework density 20.375451999999999
#
# number of rings (size 3 to 8) (size 9 to 14) (size 15 to 20)
#    0.000    1.600    2.667    3.200    0.933    3.200 
#    0.000    0.000    0.000    0.000    8.667    0.000 
#    0.000    0.000    0.000    0.000    0.000    0.000 
#
# Total GULP energy -371774.414391 kJ/mol
# GULP energy per Si atom -12392.480480 kJ/mol
# Density = 2.032908 g / cm^3
# Si number density = 20.375452 Si / 1000 Ang^3
#
#
#
# Elastic Constant Matrix: (Units=GPa)
#
#
# Indices 1 2 3 4 5 6 
#
# 1 88.6839 30.9122 50.3939 0.0000 3.0551 0.0000
# 2 30.9122 99.4751 42.4436 0.0000 -5.0542 0.0000
# 3 50.3939 42.4436 70.0949 0.0000 2.7811 0.0000
# 4 0.0000 0.0000 0.0000 21.2510 0.0000 2.3832
# 5 3.0551 -5.0542 2.7811 0.0000 26.9816 0.0000
# 6 0.0000 0.0000 0.0000 2.3832 0.0000 26.6198
#
#
#
# Elastic Compliance Matrix: (Units=1/GPa)
#
#
# Indices 1 2 3 4 5 6 
#
# 1 0.019082 -0.000175 -0.013581 0.000000 -0.000794 0.000000
# 2 -0.000175 0.013874 -0.008413 0.000000 0.003486 0.000000
# 3 -0.013581 -0.008413 0.029246 0.000000 -0.003053 0.000000
# 4 0.000000 0.000000 0.000000 0.047534 0.000000 -0.004256
# 5 -0.000794 0.003486 -0.003053 0.000000 0.038120 0.000000
# 6 0.000000 0.000000 0.000000 -0.004256 0.000000 0.037947
#
#
# Mechanical properties :
#
#
# Convention : Reuss Voigt Hill
#
# Bulk Modulus (GPa) = 55.98325 56.19482 56.08904
# Shear Modulus (GPa) = 21.17792 23.93744 22.55768
#
# Velocity S-wave (km/s) = 3.22745 3.43128 3.33092
# Velocity P-wave (km/s) = 6.43615 6.58314 6.51006
#
# Compressibility (1/GPa) = 0.01786249
#
# Stress axis : x y z
#
# Youngs Moduli (GPa) = 52.40626 72.07683 34.19320
#
# Poissons Ratio (x) = 0.01264 0.46437
# Poissons Ratio (y) = 0.00919 0.28767
# Poissons Ratio (z) = 0.71172 0.60640
#
# Static dielectric constant tensor:
#      x y z
#    x 4.026900 0.000000 -0.186180 
#    y 0.000000 3.594370 0.000000 
#    z -0.186180 0.000000 3.706520 
# 
# 
# High freq. dielectric constant tensor:
#      x y z
#    x 1.801680 0.000000 0.003270 
#    y 0.000000 1.786700 0.000000 
#    z 0.003270 0.000000 1.782950 
# 
# From -- ./inp_files/108463.got.cif
#   From: 2010.06.25/outbox.cif.g09.slc.cpg/sg15_55_cif.got.tgz:108463.got - 2010.06.28 07:06:18.
