data_PCOD8137446
_publ_section_title
;
Structure prediction by ZEFSAII (Michael W. Deem and Ramdas Pophale) SiO2 
 PCOD8137446
Probable space group: C 2/C
;
_chemical_formula_sum "Si O2"
_cell_formula_units_Z 60
_cell_length_a 17.700820
_cell_length_b 6.012489
_cell_length_c 25.435572
_cell_angle_alpha 90.000000
_cell_angle_beta 97.765165
_cell_angle_gamma 90.000000
_cell_volume 2682.183036
_symmetry_space_group_name_H-M "C 2/C"
_symmetry_group_IT_number 15
_symmetry_cell_setting 'monoclinic'
loop_
_space_group_symop_operation_xyz
x,y,z
-x,y,1/2-z
-x,-y,-z
x,-y,1/2+z
1/2+x,1/2+y,z
1/2-x,1/2+y,1/2-z
1/2-x,1/2-y,-z
1/2+x,1/2-y,1/2+z
loop_
_atom_site_type_symbol
_atom_site_label
_atom_site_fract_x
_atom_site_fract_y
_atom_site_fract_z
Si Si1 0.786893 0.747713 0.947600
Si Si2 0.786553 0.564871 0.638525
Si Si3 0.500000 0.570650 0.250000
Si Si4 0.344533 0.864487 0.888236
Si Si5 0.086223 0.943922 0.020047
Si Si6 0.403786 0.625631 0.095095
Si Si7 0.090475 0.748515 0.327071
Si Si8 0.029144 0.621030 0.659155
O O1 0.786144 0.509668 0.918477
O O2 0.737565 0.931699 0.914498
O O3 0.874452 0.827008 0.958928
O O4 0.750000 0.750000 0.000000
O O5 0.709673 0.694523 0.651093
O O6 0.849253 0.742289 0.628664
O O7 0.831068 0.387458 0.680814
O O8 0.569419 0.424886 0.280001
O O9 0.457465 0.717933 0.289885
O O10 0.403208 0.737765 0.932753
O O11 0.389942 0.026564 0.853399
O O12 0.122209 0.859129 0.968033
O O13 0.000000 0.000000 0.000000
O O14 0.401384 0.371171 0.115505
O O15 0.488241 0.734502 0.109485
O O16 0.019809 0.584941 0.325831
#
# Coordination Sequence:
#
# PCOD8137446 Si02
#       8
#     8   8   4   8   8   8   8   8
#     4  11  22  36  55  85 127 179 217 247 293 366
#     4  10  21  36  58  89 122 168 205 246 310 374
#     4  10  22  40  68 100 114 150 206 284 334 406
#     4  11  23  37  57  93 135 170 208 258 315 377
#     4  11  22  34  53  86 132 169 214 257 299 353
#     4  10  20  36  58  87 124 170 215 255 300 368
#     4  10  20  39  65  95 117 153 210 265 321 391
#     4  10  22  39  62  97 120 157 209 269 332 381
#
# _framework density 22.369838000000001
#
# number of rings (size 3 to 8) (size 9 to 14) (size 15 to 20)
#    0.000    1.600    0.000    5.200    0.000    9.600 
#    0.000    0.000    0.000    0.000  156.000    0.000 
#    0.000    0.000    0.000    0.000    0.000    0.000 
#
# Total GULP energy -371791.923609 kJ/mol
# GULP energy per Si atom -12393.064120 kJ/mol
# Density = 2.231892 g / cm^3
# Si number density = 22.369838 Si / 1000 Ang^3
#
#
#
# Elastic Constant Matrix: (Units=GPa)
#
#
# Indices 1 2 3 4 5 6 
#
# 1 108.1095 57.3846 36.1284 0.0000 12.0013 0.0000
# 2 57.3846 125.7659 41.2540 0.0000 5.8617 0.0000
# 3 36.1284 41.2540 85.6147 0.0000 5.1328 0.0000
# 4 0.0000 0.0000 0.0000 36.1464 0.0000 10.3006
# 5 12.0013 5.8617 5.1328 0.0000 19.0912 0.0000
# 6 0.0000 0.0000 0.0000 10.3006 0.0000 39.3888
#
#
#
# Elastic Compliance Matrix: (Units=1/GPa)
#
#
# Indices 1 2 3 4 5 6 
#
# 1 0.013541 -0.004914 -0.002974 0.000000 -0.006204 0.000000
# 2 -0.004914 0.011282 -0.003395 0.000000 0.000538 0.000000
# 3 -0.002974 -0.003395 0.014633 0.000000 -0.001022 0.000000
# 4 0.000000 0.000000 0.000000 0.029893 0.000000 -0.007817
# 5 -0.006204 0.000538 -0.001022 0.000000 0.056390 0.000000
# 6 0.000000 0.000000 0.000000 -0.007817 0.000000 0.027432
#
#
# Mechanical properties :
#
#
# Convention : Reuss Voigt Hill
#
# Bulk Modulus (GPa) = 59.20977 65.44714 62.32845
# Shear Modulus (GPa) = 27.56862 31.24015 29.40439
#
# Velocity S-wave (km/s) = 3.51437 3.74107 3.62949
# Velocity P-wave (km/s) = 6.55696 6.92685 6.74444
#
# Compressibility (1/GPa) = 0.01688910
#
# Stress axis : x y z
#
# Youngs Moduli (GPa) = 73.85153 88.63825 68.34059
#
# Poissons Ratio (x) = 0.43553 0.20328
# Poissons Ratio (y) = 0.36287 0.23202
# Poissons Ratio (z) = 0.21967 0.30093
#
# Static dielectric constant tensor:
#      x y z
#    x 4.025150 0.000000 0.357490 
#    y 0.000000 4.449360 0.000000 
#    z 0.357490 0.000000 3.916140 
# 
# 
# High freq. dielectric constant tensor:
#      x y z
#    x 1.876120 0.000000 0.024620 
#    y 0.000000 1.903420 0.000000 
#    z 0.024620 0.000000 1.854330 
# 
# From -- ./inp_files/314893.got.cif
#   From: 2010.06.25/outbox.cif.g09.slc.cpg/sg15_158_cif.got.tgz:314893.got - 2010.06.28 07:06:18.
