data_PCOD8137172
_publ_section_title
;
Structure prediction by ZEFSAII (Michael W. Deem and Ramdas Pophale) SiO2 
 PCOD8137172
Probable space group: C 2/C
;
_chemical_formula_sum "Si O2"
_cell_formula_units_Z 40
_cell_length_a 22.687773
_cell_length_b 6.906619
_cell_length_c 18.530968
_cell_angle_alpha 90.000000
_cell_angle_beta 46.724113
_cell_angle_gamma 90.000000
_cell_volume 2114.089808
_symmetry_space_group_name_H-M "C 2/C"
_symmetry_group_IT_number 15
_symmetry_cell_setting 'monoclinic'
loop_
_space_group_symop_operation_xyz
x,y,z
-x,y,1/2-z
-x,-y,-z
x,-y,1/2+z
1/2+x,1/2+y,z
1/2-x,1/2+y,1/2-z
1/2-x,1/2-y,-z
1/2+x,1/2-y,1/2+z
loop_
_atom_site_type_symbol
_atom_site_label
_atom_site_fract_x
_atom_site_fract_y
_atom_site_fract_z
Si Si1 0.852685 0.114898 0.474644
Si Si2 0.959206 0.795836 0.017198
Si Si3 0.568142 0.773337 0.637508
Si Si4 0.163476 0.418847 0.134126
Si Si5 0.552231 0.008146 0.357155
O O1 0.890109 0.208373 0.514571
O O2 0.867727 0.241148 0.389701
O O3 0.758164 0.092092 0.568246
O O4 0.896256 0.909404 0.432950
O O5 0.918853 0.699968 0.122919
O O6 0.033223 0.661532 0.929351
O O7 0.000000 0.000000 0.000000
O O8 0.500000 0.699033 0.750000
O O9 0.528600 0.930882 0.617856
O O10 0.642932 0.877246 0.614129
O O11 0.119731 0.417594 0.248126
#
# Coordination Sequence:
#
# PCOD8137172 Si02
#       5
#     8   8   8   8   8
#     4  11  22  38  62  90 117 156 196 246 299 356
#     4  11  22  39  61  85 118 158 200 238 293 361
#     4  10  20  35  63  88 113 153 198 242 287 351
#     4  10  23  40  59  89 123 149 195 253 299 346
#     4  10  22  40  59  85 120 156 197 246 292 350
#
# _framework density 18.920670999999999
#
# number of rings (size 3 to 8) (size 9 to 14) (size 15 to 20)
#    0.000    1.600    4.000    0.600    2.800    0.000 
#    3.600    0.000    0.000    0.000    0.000    0.000 
#    0.000    0.000    0.000    0.000    0.000    0.000 
#
# Total GULP energy -247964.136042 kJ/mol
# GULP energy per Si atom -12398.206802 kJ/mol
# Density = 1.887761 g / cm^3
# Si number density = 18.920671 Si / 1000 Ang^3
#
#
#
# Elastic Constant Matrix: (Units=GPa)
#
#
# Indices 1 2 3 4 5 6 
#
# 1 94.7526 32.6106 51.1974 -0.0387 2.5910 0.0366
# 2 32.6106 88.7792 56.2962 0.0781 -3.5276 -0.1204
# 3 51.1974 56.2962 111.5602 -0.0193 10.3005 -0.0273
# 4 -0.0387 0.0781 -0.0193 26.7917 0.0001 5.8744
# 5 2.5910 -3.5276 10.3005 0.0001 25.9721 0.0292
# 6 0.0366 -0.1204 -0.0273 5.8744 0.0292 24.8729
#
#
#
# Elastic Compliance Matrix: (Units=1/GPa)
#
#
# Indices 1 2 3 4 5 6 
#
# 1 0.014196 -0.001493 -0.005825 0.000030 0.000691 -0.000042
# 2 -0.001493 0.017601 -0.008751 -0.000079 0.006010 0.000089
# 3 -0.005825 -0.008751 0.016722 0.000032 -0.007239 -0.000015
# 4 0.000030 -0.000079 0.000032 0.039364 -0.000016 -0.009297
# 5 0.000691 0.006010 -0.007239 -0.000016 0.042121 -0.000026
# 6 -0.000042 0.000089 -0.000015 -0.009297 -0.000026 0.042401
#
#
# Mechanical properties :
#
#
# Convention : Reuss Voigt Hill
#
# Bulk Modulus (GPa) = 61.05442 63.92229 62.48836
# Shear Modulus (GPa) = 23.80896 25.85986 24.83441
#
# Velocity S-wave (km/s) = 3.55118 3.70097 3.62685
# Velocity P-wave (km/s) = 7.01093 7.21946 7.11596
#
# Compressibility (1/GPa) = 0.01637883
#
# Stress axis : x y z
#
# Youngs Moduli (GPa) = 70.44012 56.81532 59.80233
#
# Poissons Ratio (x) = 0.08485 0.34837
# Poissons Ratio (y) = 0.10519 0.52336
# Poissons Ratio (z) = 0.41033 0.49722
#
# Static dielectric constant tensor:
#      x y z
#    x 3.532660 -0.000040 0.194520 
#    y -0.000040 3.504370 0.000030 
#    z 0.194520 0.000030 3.396720 
# 
# 
# High freq. dielectric constant tensor:
#      x y z
#    x 1.738910 0.000000 0.014400 
#    y 0.000000 1.745830 0.000000 
#    z 0.014400 0.000000 1.724330 
# 
# From -- ./inp_files/217409.got.cif
#   From: 2010.06.25/outbox.cif.g09.slc.cpg/sg15_109_cif.got.tgz:217409.got - 2010.06.28 07:06:18.
