data_PCOD8137163
_publ_section_title
;
Structure prediction by ZEFSAII (Michael W. Deem and Ramdas Pophale) SiO2 
 PCOD8137163
Probable space group: C 2/C
;
_chemical_formula_sum "Si O2"
_cell_formula_units_Z 60
_cell_length_a 28.128852
_cell_length_b 19.453131
_cell_length_c 15.072551
_cell_angle_alpha 90.000000
_cell_angle_beta 160.372309
_cell_angle_gamma 90.000000
_cell_volume 2770.429550
_symmetry_space_group_name_H-M "C 2/C"
_symmetry_group_IT_number 15
_symmetry_cell_setting 'monoclinic'
loop_
_space_group_symop_operation_xyz
x,y,z
-x,y,1/2-z
-x,-y,-z
x,-y,1/2+z
1/2+x,1/2+y,z
1/2-x,1/2+y,1/2-z
1/2-x,1/2-y,-z
1/2+x,1/2-y,1/2+z
loop_
_atom_site_type_symbol
_atom_site_label
_atom_site_fract_x
_atom_site_fract_y
_atom_site_fract_z
Si Si1 0.000000 0.572669 0.250000
Si Si2 0.919959 0.826406 0.017358
Si Si3 0.095980 0.690461 0.994406
Si Si4 0.975895 0.547645 0.574302
Si Si5 0.027034 0.986063 0.399273
Si Si6 0.279025 0.400530 0.178367
Si Si7 0.391937 0.268087 0.303998
Si Si8 0.723940 0.986574 0.922004
O O1 0.012750 0.523970 0.356410
O O2 0.139412 0.620637 0.489648
O O3 0.935567 0.906369 0.016619
O O4 0.000000 0.812075 0.250000
O O5 0.983353 0.779151 0.049079
O O6 0.757894 0.805247 0.747708
O O7 0.072460 0.713045 0.056179
O O8 0.034637 0.613212 0.882063
O O9 0.000000 0.729577 0.750000
O O10 0.828163 0.545922 0.261552
O O11 0.118760 0.549233 0.764557
O O12 0.000000 0.000788 0.250000
O O13 0.152827 0.033205 0.655176
O O14 0.886141 0.011222 0.202648
O O15 0.379456 0.335846 0.343610
O O16 0.220539 0.421269 0.980106
O O17 0.250000 0.250000 0.000000
#
# Coordination Sequence:
#
# PCOD8137163 Si02
#       8
#     4   8   8   8   8   8   8   8
#     4  10  20  38  66  92 126 162 206 278 346 378
#     4  11  23  45  76  98 131 183 241 281 341 417
#     4  12  26  43  69 102 140 184 232 282 337 418
#     4  10  20  39  62  96 133 165 211 266 341 404
#     4  11  22  38  67  99 129 169 220 277 344 407
#     4  11  23  38  62  95 128 166 217 276 335 392
#     4  12  26  46  69  96 136 190 239 278 331 414
#     4  10  20  35  62  96 125 161 211 277 330 392
#
# _framework density 21.657292000000002
#
# number of rings (size 3 to 8) (size 9 to 14) (size 15 to 20)
#    0.000    1.067    3.333    4.400    1.867    2.133 
#    0.000    1.333    0.000    0.000    0.000    0.000 
#    0.000    0.000    0.000    0.000    0.000    0.000 
#
# Total GULP energy -371762.245970 kJ/mol
# GULP energy per Si atom -12392.074866 kJ/mol
# Density = 2.160800 g / cm^3
# Si number density = 21.657292 Si / 1000 Ang^3
#
#
#
# Elastic Constant Matrix: (Units=GPa)
#
#
# Indices 1 2 3 4 5 6 
#
# 1 116.7451 26.2989 53.8005 0.0000 13.4312 0.0000
# 2 26.2989 43.0204 18.0573 0.0000 5.1453 0.0000
# 3 53.8005 18.0573 128.7128 0.0000 12.2733 0.0000
# 4 0.0000 0.0000 0.0000 20.5879 0.0000 0.8074
# 5 13.4312 5.1453 12.2733 0.0000 55.9699 0.0000
# 6 0.0000 0.0000 0.0000 0.8074 0.0000 37.6328
#
#
#
# Elastic Compliance Matrix: (Units=1/GPa)
#
#
# Indices 1 2 3 4 5 6 
#
# 1 0.011800 -0.005342 -0.004044 0.000000 -0.001454 0.000000
# 2 -0.005342 0.027249 -0.001505 0.000000 -0.000893 0.000000
# 3 -0.004044 -0.001505 0.009769 0.000000 -0.001033 0.000000
# 4 0.000000 0.000000 0.000000 0.048613 0.000000 -0.001043
# 5 -0.001454 -0.000893 -0.001033 0.000000 0.018524 0.000000
# 6 0.000000 0.000000 0.000000 -0.001043 0.000000 0.026595
#
#
# Mechanical properties :
#
#
# Convention : Reuss Voigt Hill
#
# Bulk Modulus (GPa) = 36.98747 53.86574 45.42661
# Shear Modulus (GPa) = 28.84426 35.52622 32.18524
#
# Velocity S-wave (km/s) = 3.65341 4.05456 3.85920
# Velocity P-wave (km/s) = 5.90865 6.84435 6.39364
#
# Compressibility (1/GPa) = 0.02703618
#
# Stress axis : x y z
#
# Youngs Moduli (GPa) = 84.74536 36.69877 102.36140
#
# Poissons Ratio (x) = 0.19605 0.41397
# Poissons Ratio (y) = 0.45272 0.15402
# Poissons Ratio (z) = 0.34273 0.05522
#
# Static dielectric constant tensor:
#      x y z
#    x 4.458100 0.000000 0.190270 
#    y 0.000000 3.707710 0.000000 
#    z 0.190270 0.000000 4.074610 
# 
# 
# High freq. dielectric constant tensor:
#      x y z
#    x 1.872150 0.000000 0.002420 
#    y 0.000000 1.816500 0.000000 
#    z 0.002420 0.000000 1.858500 
# 
# From -- ./inp_files/179130.got.cif
#   From: 2010.06.25/outbox.cif.g09.slc.cpg/sg15_90_cif.got.tgz:179130.got - 2010.06.28 07:06:18.
