data_PCOD8137056
_publ_section_title
;
Structure prediction by ZEFSAII (Michael W. Deem and Ramdas Pophale) SiO2 
 PCOD8137056
Probable space group: C 2/C
;
_chemical_formula_sum "Si O2"
_cell_formula_units_Z 56
_cell_length_a 23.179785
_cell_length_b 18.756095
_cell_length_c 8.738219
_cell_angle_alpha 90.000000
_cell_angle_beta 136.125173
_cell_angle_gamma 90.000000
_cell_volume 2633.063716
_symmetry_space_group_name_H-M "C 2/C"
_symmetry_group_IT_number 15
_symmetry_cell_setting 'monoclinic'
loop_
_space_group_symop_operation_xyz
x,y,z
-x,y,1/2-z
-x,-y,-z
x,-y,1/2+z
1/2+x,1/2+y,z
1/2-x,1/2+y,1/2-z
1/2-x,1/2-y,-z
1/2+x,1/2-y,1/2+z
loop_
_atom_site_type_symbol
_atom_site_label
_atom_site_fract_x
_atom_site_fract_y
_atom_site_fract_z
Si Si1 0.743769 0.776303 0.739668
Si Si2 0.871323 0.744897 0.217372
Si Si3 0.960298 0.391288 0.334989
Si Si4 0.822018 0.533218 0.744056
Si Si5 0.878926 0.413342 0.673346
Si Si6 0.211569 0.847223 0.962692
Si Si7 0.462076 0.274282 0.836627
O O1 0.654466 0.764872 0.652167
O O2 0.748024 0.841691 0.629694
O O3 0.760742 0.705125 0.672365
O O4 0.811009 0.794217 0.001527
O O5 0.856650 0.668936 0.108837
O O6 0.964219 0.777404 0.393766
O O7 0.877802 0.434671 0.213079
O O8 0.933950 0.308052 0.279847
O O9 0.000000 0.414370 0.250000
O O10 0.024905 0.413129 0.591746
O O11 0.819918 0.449369 0.693649
O O12 0.730981 0.572044 0.558635
O O13 0.864974 0.545364 0.988580
O O14 0.113575 0.827074 0.764468
O O15 0.500000 0.301281 0.750000
#
# Coordination Sequence:
#
# PCOD8137056 Si02
#       7
#     8   8   8   8   8   8   8
#     4  10  20  36  59  89 117 154 195 263 318 364
#     4  10  21  38  60  87 123 153 202 255 312 372
#     4  10  21  37  60  85 121 163 202 253 308 376
#     4  12  24  39  56  85 126 167 213 249 299 377
#     4  11  24  37  57  84 120 168 211 246 302 367
#     4  11  22  36  60  89 124 161 204 253 316 372
#     4  10  20  35  59  89 123 161 197 250 319 364
#
# _framework density 21.268000000000001
#
# number of rings (size 3 to 8) (size 9 to 14) (size 15 to 20)
#    0.000    1.429    2.857    3.429    6.000    0.571 
#    0.000    0.000    0.000    0.000    0.000    9.000 
#    0.000    0.000    0.000    0.000    0.000    0.000 
#
# Total GULP energy -346924.312967 kJ/mol
# GULP energy per Si atom -12390.154035 kJ/mol
# Density = 2.121959 g / cm^3
# Si number density = 21.268000 Si / 1000 Ang^3
#
#
#
# Elastic Constant Matrix: (Units=GPa)
#
#
# Indices 1 2 3 4 5 6 
#
# 1 78.4159 3.2058 41.8305 0.0000 -4.3992 0.0000
# 2 3.2058 40.1088 21.9919 0.0000 13.2998 0.0000
# 3 41.8305 21.9919 108.0439 0.0000 10.7141 0.0000
# 4 0.0000 0.0000 0.0000 18.9322 0.0000 4.0515
# 5 -4.3992 13.2998 10.7141 0.0000 33.8122 0.0000
# 6 0.0000 0.0000 0.0000 4.0515 0.0000 24.5337
#
#
#
# Elastic Compliance Matrix: (Units=1/GPa)
#
#
# Indices 1 2 3 4 5 6 
#
# 1 0.016720 0.001263 -0.007121 0.000000 0.003935 0.000000
# 2 0.001263 0.031485 -0.005870 0.000000 -0.010360 0.000000
# 3 -0.007121 -0.005870 0.013494 0.000000 -0.002893 0.000000
# 4 0.000000 0.000000 0.000000 0.054755 0.000000 -0.009042
# 5 0.003935 -0.010360 -0.002893 0.000000 0.035079 0.000000
# 6 0.000000 0.000000 0.000000 -0.009042 0.000000 0.042254
#
#
# Mechanical properties :
#
#
# Convention : Reuss Voigt Hill
#
# Bulk Modulus (GPa) = 26.14812 40.06944 33.10878
# Shear Modulus (GPa) = 21.74000 26.09165 23.91582
#
# Velocity S-wave (km/s) = 3.20064 3.50637 3.35699
# Velocity P-wave (km/s) = 5.09707 5.93919 5.53417
#
# Compressibility (1/GPa) = 0.03824366
#
# Stress axis : x y z
#
# Youngs Moduli (GPa) = 59.80813 31.76086 74.10604
#
# Poissons Ratio (x) = -0.04012 0.52769
# Poissons Ratio (y) = -0.07555 0.43503
# Poissons Ratio (z) = 0.42588 0.18645
#
# Static dielectric constant tensor:
#      x y z
#    x 3.787250 0.000000 -0.091920 
#    y 0.000000 3.644480 0.000000 
#    z -0.091920 0.000000 3.867860 
# 
# 
# High freq. dielectric constant tensor:
#      x y z
#    x 1.823170 0.000000 -0.015590 
#    y 0.000000 1.788170 0.000000 
#    z -0.015590 0.000000 1.849890 
# 
# From -- ./inp_files/62781.got.cif
#   From: 2010.06.25/outbox.cif.g09.slc.cpg/sg15_32_cif.got.tgz:62781.got - 2010.06.28 07:06:18.
