data_PCOD8137854
_publ_section_title
;
Structure prediction by ZEFSAII (Michael W. Deem and Ramdas Pophale) SiO2 
 PCOD8137854
Probable space group: C 2/C
;
_chemical_formula_sum "Si O2"
_cell_formula_units_Z 60
_cell_length_a 14.384225
_cell_length_b 13.962762
_cell_length_c 15.460438
_cell_angle_alpha 90.000000
_cell_angle_beta 106.979879
_cell_angle_gamma 90.000000
_cell_volume 2969.767918
_symmetry_space_group_name_H-M "C 2/C"
_symmetry_group_IT_number 15
_symmetry_cell_setting 'monoclinic'
loop_
_space_group_symop_operation_xyz
x,y,z
-x,y,1/2-z
-x,-y,-z
x,-y,1/2+z
1/2+x,1/2+y,z
1/2-x,1/2+y,1/2-z
1/2-x,1/2-y,-z
1/2+x,1/2-y,1/2+z
loop_
_atom_site_type_symbol
_atom_site_label
_atom_site_fract_x
_atom_site_fract_y
_atom_site_fract_z
Si Si1 0.713976 0.690822 0.570866
Si Si2 0.683962 0.307818 0.755075
Si Si3 0.214913 0.349284 0.897163
Si Si4 0.500000 0.188850 0.750000
Si Si5 0.847734 0.543636 0.663982
Si Si6 0.198981 0.978882 0.262723
Si Si7 0.149680 0.145099 0.911398
Si Si8 0.953502 0.076541 0.922908
O O1 0.750000 0.750000 0.500000
O O2 0.743386 0.742836 0.668582
O O3 0.766114 0.588061 0.579266
O O4 0.599067 0.664609 0.539270
O O5 0.722050 0.319355 0.668572
O O6 0.576913 0.258165 0.722373
O O7 0.682799 0.414200 0.797187
O O8 0.135821 0.433357 0.858716
O O9 0.153486 0.259666 0.911376
O O10 0.288282 0.389715 0.989676
O O11 0.440868 0.112694 0.674699
O O12 0.806553 0.539623 0.751888
O O13 0.189796 0.901079 0.334821
O O14 0.121808 0.970574 0.163914
O O15 0.037654 0.120227 0.887802
O O16 0.000000 0.000000 0.000000
#
# Coordination Sequence:
#
# PCOD8137854 Si02
#       8
#     8   8   8   4   8   8   8   8
#     4  10  22  38  60  88 123 158 198 249 313 368
#     4  10  22  38  62  88 123 162 201 250 315 365
#     4  10  22  42  60  84 124 167 196 251 316 367
#     4  10  20  36  64  88 114 158 208 248 292 380
#     4   9  20  40  57  85 121 155 197 248 303 361
#     4  10  22  39  61  91 122 163 199 253 316 366
#     4  11  22  37  65  86 121 159 211 247 305 376
#     4  11  23  38  61  92 127 153 207 264 304 362
#
# _framework density 20.203599000000001
#
# number of rings (size 3 to 8) (size 9 to 14) (size 15 to 20)
#    0.000    1.867    0.000    5.200    5.600    3.200 
#    7.200    0.000    0.000    3.200    0.000    0.000 
#    0.000    0.000    0.000    0.000    0.000    0.000 
#
# Total GULP energy -371732.495865 kJ/mol
# GULP energy per Si atom -12391.083195 kJ/mol
# Density = 2.015761 g / cm^3
# Si number density = 20.203599 Si / 1000 Ang^3
#
#
#
# Elastic Constant Matrix: (Units=GPa)
#
#
# Indices 1 2 3 4 5 6 
#
# 1 67.6374 35.7092 17.5588 0.0000 2.2239 0.0000
# 2 35.7092 118.4151 29.9241 0.0000 0.1424 0.0000
# 3 17.5588 29.9241 100.1080 0.0000 -5.8874 0.0000
# 4 0.0000 0.0000 0.0000 34.0541 0.0000 -0.5573
# 5 2.2239 0.1424 -5.8874 0.0000 22.0975 0.0000
# 6 0.0000 0.0000 0.0000 -0.5573 0.0000 35.7602
#
#
#
# Elastic Compliance Matrix: (Units=1/GPa)
#
#
# Indices 1 2 3 4 5 6 
#
# 1 0.017941 -0.004953 -0.001799 0.000000 -0.002253 0.000000
# 2 -0.004953 0.010516 -0.002285 0.000000 -0.000178 0.000000
# 3 -0.001799 -0.002285 0.011174 0.000000 0.003173 0.000000
# 4 0.000000 0.000000 0.000000 0.029373 0.000000 0.000458
# 5 -0.002253 -0.000178 0.003173 0.000000 0.046327 0.000000
# 6 0.000000 0.000000 0.000000 0.000458 0.000000 0.027971
#
#
# Mechanical properties :
#
#
# Convention : Reuss Voigt Hill
#
# Bulk Modulus (GPa) = 46.38764 50.28274 48.33519
# Shear Modulus (GPa) = 29.66272 31.91357 30.78815
#
# Velocity S-wave (km/s) = 3.83585 3.97873 3.90794
# Velocity P-wave (km/s) = 6.52903 6.78595 6.65873
#
# Compressibility (1/GPa) = 0.02155747
#
# Stress axis : x y z
#
# Youngs Moduli (GPa) = 55.73942 95.09172 89.49018
#
# Poissons Ratio (x) = 0.47098 0.16097
# Poissons Ratio (y) = 0.27607 0.20450
# Poissons Ratio (z) = 0.10026 0.21731
#
# Static dielectric constant tensor:
#      x y z
#    x 3.824320 0.000000 0.070190 
#    y 0.000000 4.096680 0.000000 
#    z 0.070190 0.000000 3.525830 
# 
# 
# High freq. dielectric constant tensor:
#      x y z
#    x 1.777740 0.000000 -0.001610 
#    y 0.000000 1.814120 0.000000 
#    z -0.001610 0.000000 1.773060 
# 
# From -- ./inp_files/154015.got.cif
#   From: 2010.06.25/outbox.cif.g09.slc.cpg/sg15_78_cif.got.tgz:154015.got - 2010.06.28 07:06:18.
