data_PCOD8137147
_publ_section_title
;
Structure prediction by ZEFSAII (Michael W. Deem and Ramdas Pophale) SiO2 
 PCOD8137147
Probable space group: C 2/C
;
_chemical_formula_sum "Si O2"
_cell_formula_units_Z 56
_cell_length_a 18.444038
_cell_length_b 8.209889
_cell_length_c 18.695094
_cell_angle_alpha 90.000000
_cell_angle_beta 108.920829
_cell_angle_gamma 90.000000
_cell_volume 2677.917428
_symmetry_space_group_name_H-M "C 2/C"
_symmetry_group_IT_number 15
_symmetry_cell_setting 'monoclinic'
loop_
_space_group_symop_operation_xyz
x,y,z
-x,y,1/2-z
-x,-y,-z
x,-y,1/2+z
1/2+x,1/2+y,z
1/2-x,1/2+y,1/2-z
1/2-x,1/2-y,-z
1/2+x,1/2-y,1/2+z
loop_
_atom_site_type_symbol
_atom_site_label
_atom_site_fract_x
_atom_site_fract_y
_atom_site_fract_z
Si Si1 0.036724 0.000405 0.184476
Si Si2 0.023006 0.338382 0.840247
Si Si3 0.199521 0.334517 0.086055
Si Si4 0.688105 0.922826 0.928863
Si Si5 0.315568 0.863900 0.197319
Si Si6 0.059736 0.659278 0.649616
Si Si7 0.212733 0.981643 0.772036
O O1 0.013168 0.167688 0.134584
O O2 0.127686 0.990442 0.218387
O O3 0.000000 0.009483 0.250000
O O4 0.010243 0.831872 0.137867
O O5 0.114047 0.319916 0.879444
O O6 0.000000 0.354819 0.750000
O O7 0.992613 0.497420 0.874918
O O8 0.230880 0.162543 0.065903
O O9 0.120678 0.325856 0.104769
O O10 0.267039 0.394584 0.158807
O O11 0.185753 0.452249 0.013389
O O12 0.680546 0.095353 0.885517
O O13 0.268726 0.005863 0.222185
O O14 0.399645 0.852321 0.259520
O O15 0.270755 0.696356 0.191737
#
# Coordination Sequence:
#
# PCOD8137147 Si02
#       7
#     8   8   8   8   8   8   8
#     4  10  21  33  59  92 117 146 197 249 299 353
#     4  11  21  36  65  87 116 155 201 246 308 354
#     4  10  23  40  58  82 125 154 199 243 301 350
#     4  11  22  40  59  85 117 163 193 245 298 362
#     4  10  20  35  62  86 115 146 197 244 295 343
#     4  10  21  38  60  90 118 152 195 257 291 355
#     4  10  21  35  60  90 113 149 193 247 294 353
#
# _framework density 20.911773
#
# number of rings (size 3 to 8) (size 9 to 14) (size 15 to 20)
#    0.000    1.714    1.429    4.714    6.000    1.143 
#    0.000    0.714    0.000    0.000    0.000    0.000 
#    0.000    0.000    0.000    0.000    0.000    0.000 
#
# Total GULP energy -347007.988168 kJ/mol
# GULP energy per Si atom -12393.142435 kJ/mol
# Density = 2.086418 g / cm^3
# Si number density = 20.911773 Si / 1000 Ang^3
#
#
#
# Elastic Constant Matrix: (Units=GPa)
#
#
# Indices 1 2 3 4 5 6 
#
# 1 72.9744 50.2101 8.2012 0.0000 2.3327 0.0000
# 2 50.2101 144.9734 -8.4919 0.0000 -7.8133 0.0000
# 3 8.2012 -8.4919 43.8564 0.0000 -11.9417 0.0000
# 4 0.0000 0.0000 0.0000 9.7782 0.0000 -2.2330
# 5 2.3327 -7.8133 -11.9417 0.0000 23.9409 0.0000
# 6 0.0000 0.0000 0.0000 -2.2330 0.0000 31.6198
#
#
#
# Elastic Compliance Matrix: (Units=1/GPa)
#
#
# Indices 1 2 3 4 5 6 
#
# 1 0.020270 -0.007915 -0.007596 0.000000 -0.008347 0.000000
# 2 -0.007915 0.010318 0.005328 0.000000 0.006796 0.000000
# 3 -0.007596 0.005328 0.030004 0.000000 0.017445 0.000000
# 4 0.000000 0.000000 0.000000 0.103944 0.000000 0.007341
# 5 -0.008347 0.006796 0.017445 0.000000 0.053502 0.000000
# 6 0.000000 0.000000 0.000000 0.007341 0.000000 0.032144
#
#
# Mechanical properties :
#
#
# Convention : Reuss Voigt Hill
#
# Bulk Modulus (GPa) = 24.85927 40.18253 32.52090
# Shear Modulus (GPa) = 17.60837 27.19343 22.40090
#
# Velocity S-wave (km/s) = 2.90493 3.61000 3.27649
# Velocity P-wave (km/s) = 4.81300 6.05253 5.46800
#
# Compressibility (1/GPa) = 0.04022643
#
# Stress axis : x y z
#
# Youngs Moduli (GPa) = 49.33430 96.92253 33.32892
#
# Poissons Ratio (x) = 0.76715 0.25316
# Poissons Ratio (y) = 0.39048 -0.17759
# Poissons Ratio (z) = 0.37474 -0.51645
#
# Static dielectric constant tensor:
#      x y z
#    x 3.575640 0.000000 -0.111330 
#    y 0.000000 4.211890 0.000000 
#    z -0.111330 0.000000 3.573680 
# 
# 
# High freq. dielectric constant tensor:
#      x y z
#    x 1.825900 0.000000 -0.004390 
#    y 0.000000 1.822940 0.000000 
#    z -0.004390 0.000000 1.781230 
# 
# From -- ./inp_files/247576.got.cif
#   From: 2010.06.25/outbox.cif.g09.slc.cpg/sg15_124_cif.got.tgz:247576.got - 2010.06.28 07:06:18.
