data_PCOD8137687
_publ_section_title
;
Structure prediction by ZEFSAII (Michael W. Deem and Ramdas Pophale) SiO2 
 PCOD8137687
Probable space group: C 2/C
;
_chemical_formula_sum "Si O2"
_cell_formula_units_Z 64
_cell_length_a 8.546584
_cell_length_b 32.685638
_cell_length_c 22.110114
_cell_angle_alpha 90.000000
_cell_angle_beta 31.858717
_cell_angle_gamma 90.000000
_cell_volume 3260.105830
_symmetry_space_group_name_H-M "C 2/C"
_symmetry_group_IT_number 15
_symmetry_cell_setting 'monoclinic'
loop_
_space_group_symop_operation_xyz
x,y,z
-x,y,1/2-z
-x,-y,-z
x,-y,1/2+z
1/2+x,1/2+y,z
1/2-x,1/2+y,1/2-z
1/2-x,1/2-y,-z
1/2+x,1/2-y,1/2+z
loop_
_atom_site_type_symbol
_atom_site_label
_atom_site_fract_x
_atom_site_fract_y
_atom_site_fract_z
Si Si1 0.410362 0.728909 0.175248
Si Si2 0.783128 0.020486 0.988131
Si Si3 0.335568 0.790385 0.936395
Si Si4 0.282385 0.956207 0.121301
Si Si5 0.796809 0.804749 0.038509
Si Si6 0.703139 0.549769 0.383616
Si Si7 0.741573 0.659368 0.128425
Si Si8 0.303504 0.112547 0.986063
O O1 0.480987 0.712460 0.085548
O O2 0.616726 0.703909 0.152616
O O3 0.066251 0.722461 0.306824
O O4 0.513385 0.776158 0.145316
O O5 0.730043 0.047456 0.066052
O O6 0.516190 0.990880 0.059782
O O7 0.803442 0.049021 0.921720
O O8 0.080660 0.993818 0.900255
O O9 0.456659 0.828352 0.936623
O O10 0.022016 0.809065 0.019494
O O11 0.250000 0.750000 0.000000
O O12 0.397935 0.913854 0.111924
O O13 0.000000 0.970818 0.250000
O O14 0.656663 0.848811 0.070502
O O15 0.477801 0.586409 0.443290
O O16 0.000000 0.560117 0.250000
O O17 0.500000 0.637003 0.250000
O O18 0.774637 0.627894 0.063772
#
# Coordination Sequence:
#
# PCOD8137687 Si02
#       8
#     8   8   8   8   8   8   8   8
#     4   9  19  36  56  76 103 144 189 236 287 338
#     4   9  20  37  63  89 115 150 198 237 268 333
#     4  11  20  33  58  81  99 138 194 247 282 333
#     4  10  20  39  61  85 119 155 192 231 284 338
#     4  10  20  37  54  77 112 143 187 235 286 348
#     4  10  20  36  61  91 118 150 192 233 283 339
#     4   9  19  36  55  78 111 145 186 240 289 336
#     4  10  23  37  52  83 120 152 180 231 293 349
#
# _framework density 19.631266
#
# number of rings (size 3 to 8) (size 9 to 14) (size 15 to 20)
#    0.000    2.250    1.250    1.125    0.000    5.000 
#    2.250    1.250    2.750    0.000    0.000    0.000 
#    0.000    0.000    0.000    0.000    0.000    0.000 
#
# Total GULP energy -396563.990966 kJ/mol
# GULP energy per Si atom -12392.624718 kJ/mol
# Density = 1.958658 g / cm^3
# Si number density = 19.631266 Si / 1000 Ang^3
#
#
#
# Elastic Constant Matrix: (Units=GPa)
#
#
# Indices 1 2 3 4 5 6 
#
# 1 120.4158 29.8899 17.0444 0.0016 3.8183 -0.0007
# 2 29.8899 68.5122 4.0658 0.0061 0.4132 -0.0019
# 3 17.0444 4.0658 47.2955 0.0178 7.0567 -0.0096
# 4 0.0016 0.0061 0.0178 -10.0105 -0.0033 3.8408
# 5 3.8183 0.4132 7.0567 -0.0033 24.9408 0.0015
# 6 -0.0007 -0.0019 -0.0096 3.8408 0.0015 11.6402
#
#
#
# Elastic Compliance Matrix: (Units=1/GPa)
#
#
# Indices 1 2 3 4 5 6 
#
# 1 0.009771 -0.004076 -0.003088 -0.000006 -0.000555 0.000000
# 2 -0.004076 0.016372 0.000009 0.000009 0.000350 -0.000001
# 3 -0.003088 0.000009 0.023163 0.000045 -0.006081 0.000005
# 4 -0.000006 0.000009 0.000045 -0.088670 -0.000025 0.029257
# 5 -0.000555 0.000350 -0.006081 -0.000025 0.041895 -0.000002
# 6 0.000000 -0.000001 0.000005 0.029257 -0.000002 0.076255
#
#
# Mechanical properties :
#
#
# Convention : Reuss Voigt Hill
#
# Bulk Modulus (GPa) = 28.57493 37.58041 33.07767
# Shear Modulus (GPa) = 47.72757 17.66233 32.69495
#
# Velocity S-wave (km/s) = 4.93607 3.00276 4.08542
# Velocity P-wave (km/s) = 6.86104 5.58630 6.25622
#
# Compressibility (1/GPa) = 0.03499571
#
# Stress axis : x y z
#
# Youngs Moduli (GPa) = 102.34290 61.08135 43.17218
#
# Poissons Ratio (x) = 0.24898 0.13332
# Poissons Ratio (y) = 0.41717 -0.00040
# Poissons Ratio (z) = 0.31605 -0.00057
#
# Static dielectric constant tensor:
#      x y z
#    x 3.659570 0.000000 -0.245620 
#    y 0.000000 3.452340 -0.000020 
#    z -0.245620 -0.000020 3.134370 
# 
# 
# High freq. dielectric constant tensor:
#      x y z
#    x 1.783520 0.000000 -0.001910 
#    y 0.000000 1.750920 0.000000 
#    z -0.001910 0.000000 1.750960 
# 
# From -- ./inp_files/266712.got.cif
#   From: 2010.06.25/outbox.cif.g09.slc.cpg/sg15_134_cif.got.tgz:266712.got - 2010.06.28 07:06:18.
