data_PCOD8137264
_publ_section_title
;
Structure prediction by ZEFSAII (Michael W. Deem and Ramdas Pophale) SiO2 
 PCOD8137264
Probable space group: C 2/C
;
_chemical_formula_sum "Si O2"
_cell_formula_units_Z 40
_cell_length_a 9.322320
_cell_length_b 19.949383
_cell_length_c 14.973322
_cell_angle_alpha 90.000000
_cell_angle_beta 39.007531
_cell_angle_gamma 90.000000
_cell_volume 1752.725585
_symmetry_space_group_name_H-M "C 2/C"
_symmetry_group_IT_number 15
_symmetry_cell_setting 'monoclinic'
loop_
_space_group_symop_operation_xyz
x,y,z
-x,y,1/2-z
-x,-y,-z
x,-y,1/2+z
1/2+x,1/2+y,z
1/2-x,1/2+y,1/2-z
1/2-x,1/2-y,-z
1/2+x,1/2-y,1/2+z
loop_
_atom_site_type_symbol
_atom_site_label
_atom_site_fract_x
_atom_site_fract_y
_atom_site_fract_z
Si Si1 0.965118 0.805429 0.164392
Si Si2 0.708686 0.570369 0.831276
Si Si3 0.953234 0.340366 0.870035
Si Si4 0.680074 0.959276 0.845123
Si Si5 0.348834 0.472775 0.952085
O O1 0.893453 0.727277 0.190025
O O2 0.000000 0.826228 0.250000
O O3 0.771879 0.853564 0.214359
O O4 0.193979 0.817590 0.998586
O O5 0.879667 0.521682 0.692880
O O6 0.444254 0.544592 0.942620
O O7 0.764062 0.568313 0.910700
O O8 0.000000 0.371479 0.750000
O O9 0.010274 0.396995 0.915162
O O10 0.673327 0.984171 0.953235
O O11 0.934073 0.933287 0.694748
#
# Coordination Sequence:
#
# PCOD8137264 Si02
#       5
#     8   8   8   8   8
#     4  10  20  36  55  78 113 144 180 226 289 319
#     4   9  16  32  55  74 109 145 175 222 277 328
#     4  10  21  34  56  84 105 144 189 231 265 336
#     4   9  16  32  53  81 107 138 189 224 269 329
#     4   8  16  28  56  81 104 144 177 222 281 321
#
# _framework density 22.821598000000002
#
# number of rings (size 3 to 8) (size 9 to 14) (size 15 to 20)
#    1.200    1.600    0.000    2.400    0.000    0.000 
#    0.000    5.000    0.000    0.000    0.000    0.000 
#    0.000    0.000    0.000    0.000    0.000    0.000 
#
# Total GULP energy -247875.759857 kJ/mol
# GULP energy per Si atom -12393.787993 kJ/mol
# Density = 2.276966 g / cm^3
# Si number density = 22.821598 Si / 1000 Ang^3
#
#
#
# Elastic Constant Matrix: (Units=GPa)
#
#
# Indices 1 2 3 4 5 6 
#
# 1 129.3793 50.0647 23.4221 -0.0009 37.0745 -0.0006
# 2 50.0647 142.4161 14.9977 0.0006 20.3229 -0.0012
# 3 23.4221 14.9977 104.4707 0.0186 42.1092 -0.0076
# 4 -0.0009 0.0006 0.0186 24.0561 -0.0083 4.7045
# 5 37.0745 20.3229 42.1092 -0.0083 37.4694 0.0041
# 6 -0.0006 -0.0012 -0.0076 4.7045 0.0041 33.9723
#
#
#
# Elastic Compliance Matrix: (Units=1/GPa)
#
#
# Indices 1 2 3 4 5 6 
#
# 1 0.012332 -0.002598 0.003580 -0.000008 -0.014817 0.000004
# 2 -0.002598 0.008221 0.000299 -0.000001 -0.002224 0.000001
# 3 0.003580 0.000299 0.018683 -0.000025 -0.024701 0.000011
# 4 -0.000008 -0.000001 -0.000025 0.042727 0.000047 -0.005917
# 5 -0.014817 -0.002224 -0.024701 0.000047 0.070315 -0.000021
# 6 0.000004 0.000001 0.000011 -0.005917 -0.000021 0.030255
#
#
# Mechanical properties :
#
#
# Convention : Reuss Voigt Hill
#
# Bulk Modulus (GPa) = 23.92451 61.47057 42.69754
# Shear Modulus (GPa) = 25.78611 38.28500 32.03555
#
# Velocity S-wave (km/s) = 3.36504 4.10027 3.75071
# Velocity P-wave (km/s) = 5.06005 7.02922 6.12430
#
# Compressibility (1/GPa) = 0.04179813
#
# Stress axis : x y z
#
# Youngs Moduli (GPa) = 81.08837 121.64181 53.52563
#
# Poissons Ratio (x) = 0.31601 -0.19164
# Poissons Ratio (y) = 0.21066 -0.01599
# Poissons Ratio (z) = -0.29033 -0.03634
#
# Static dielectric constant tensor:
#      x y z
#    x 3.799340 0.000020 0.144430 
#    y 0.000020 4.030790 -0.000010 
#    z 0.144430 -0.000010 4.127710 
# 
# 
# High freq. dielectric constant tensor:
#      x y z
#    x 1.875990 0.000000 0.012920 
#    y 0.000000 1.872710 0.000000 
#    z 0.012920 0.000000 1.928140 
# 
# From -- ./inp_files/135773.got.cif
#   From: 2010.06.25/outbox.cif.g09.slc.cpg/sg15_68_cif.got.tgz:135773.got - 2010.06.28 07:06:18.
