data_PCOD8137062
_publ_section_title
;
Structure prediction by ZEFSAII (Michael W. Deem and Ramdas Pophale) SiO2 
 PCOD8137062
Probable space group: C 2/C
;
_chemical_formula_sum "Si O2"
_cell_formula_units_Z 36
_cell_length_a 19.611542
_cell_length_b 10.344823
_cell_length_c 23.608805
_cell_angle_alpha 90.000000
_cell_angle_beta 158.422231
_cell_angle_gamma 90.000000
_cell_volume 1761.480144
_symmetry_space_group_name_H-M "C 2/C"
_symmetry_group_IT_number 15
_symmetry_cell_setting 'monoclinic'
loop_
_space_group_symop_operation_xyz
x,y,z
-x,y,1/2-z
-x,-y,-z
x,-y,1/2+z
1/2+x,1/2+y,z
1/2-x,1/2+y,1/2-z
1/2-x,1/2-y,-z
1/2+x,1/2-y,1/2+z
loop_
_atom_site_type_symbol
_atom_site_label
_atom_site_fract_x
_atom_site_fract_y
_atom_site_fract_z
Si Si1 0.429254 0.874929 0.379996
Si Si2 0.101214 0.634171 0.518120
Si Si3 0.561065 0.385119 0.151180
Si Si4 0.388508 0.352838 0.545370
Si Si5 0.500000 0.265349 0.750000
O O1 0.504249 0.851361 0.502338
O O2 0.205375 0.891969 0.209581
O O3 0.480513 0.755350 0.380657
O O4 0.524179 0.004780 0.428124
O O5 0.322198 0.621798 0.699879
O O6 0.063992 0.757353 0.450101
O O7 0.429730 0.509394 0.049092
O O8 0.436636 0.356431 0.649259
O O9 0.172984 0.325348 0.366763
#
# Coordination Sequence:
#
# PCOD8137062 Si02
#       5
#     8   8   8   8   4
#     4   9  20  35  61  90 125 151 182 260 311 358
#     4   9  20  33  53  96 123 146 182 226 352 337
#     4  10  20  35  59  91 121 154 182 261 301 359
#     4  11  22  42  64  83 126 151 219 235 291 360
#     4  10  26  40  60  88 110 184 202 244 270 352
#
# _framework density 20.437356000000001
#
# number of rings (size 3 to 8) (size 9 to 14) (size 15 to 20)
#    1.333    0.889    0.000    2.667    3.111    2.667 
#    0.000    0.000    0.000   22.667    0.000    0.000 
#    0.000    0.000    0.000    0.000    0.000    0.000 
#
# Total GULP energy -223105.886203 kJ/mol
# GULP energy per Si atom -12394.771456 kJ/mol
# Density = 2.039084 g / cm^3
# Si number density = 20.437356 Si / 1000 Ang^3
#
#
#
# Elastic Constant Matrix: (Units=GPa)
#
#
# Indices 1 2 3 4 5 6 
#
# 1 19.1859 9.7422 5.9166 0.0046 13.7489 -0.0010
# 2 9.7422 149.0773 23.0862 0.0063 10.3941 0.0036
# 3 5.9166 23.0862 72.8964 0.0032 19.8556 0.0054
# 4 0.0046 0.0063 0.0032 29.6569 0.0028 -2.1657
# 5 13.7489 10.3941 19.8556 0.0028 28.4184 0.0023
# 6 -0.0010 0.0036 0.0054 -2.1657 0.0023 9.6894
#
#
#
# Elastic Compliance Matrix: (Units=1/GPa)
#
#
# Indices 1 2 3 4 5 6 
#
# 1 0.082830 -0.003349 0.006076 -0.000008 -0.043094 0.000015
# 2 -0.003349 0.007226 -0.002147 -0.000001 0.000477 -0.000002
# 3 0.006076 -0.002147 0.017898 -0.000001 -0.014659 -0.000005
# 4 -0.000008 -0.000001 -0.000001 0.034278 0.000001 0.007662
# 5 -0.043094 0.000477 -0.014659 0.000001 0.066105 -0.000012
# 6 0.000015 -0.000002 -0.000005 0.007662 -0.000012 0.104918
#
#
# Mechanical properties :
#
#
# Convention : Reuss Voigt Hill
#
# Bulk Modulus (GPa) = 9.16475 35.40551 22.28513
# Shear Modulus (GPa) = 14.34855 27.04725 20.69790
#
# Velocity S-wave (km/s) = 2.65254 3.64183 3.18582
# Velocity P-wave (km/s) = 3.72497 5.91992 4.94575
#
# Compressibility (1/GPa) = 0.10911368
#
# Stress axis : x y z
#
# Youngs Moduli (GPa) = 12.07288 138.39007 55.87306
#
# Poissons Ratio (x) = 0.46350 -0.33947
# Poissons Ratio (y) = 0.04043 0.11994
# Poissons Ratio (z) = -0.07335 0.29707
#
# Static dielectric constant tensor:
#      x y z
#    x 3.345250 -0.000010 0.064680 
#    y -0.000010 3.468270 -0.000020 
#    z 0.064680 -0.000020 3.574240 
# 
# 
# High freq. dielectric constant tensor:
#      x y z
#    x 1.755830 0.000000 0.004260 
#    y 0.000000 1.796150 0.000000 
#    z 0.004260 0.000000 1.797220 
# 
# From -- ./inp_files/283273.got.cif
#   From: 2010.06.25/outbox.cif.g09.slc.cpg/sg15_142_cif.got.tgz:283273.got - 2010.06.28 07:06:18.
