data_PCOD8137481
_publ_section_title
;
Structure prediction by ZEFSAII (Michael W. Deem and Ramdas Pophale) SiO2 
 PCOD8137481
Probable space group: C 2/C
;
_chemical_formula_sum "Si O2"
_cell_formula_units_Z 40
_cell_length_a 22.307665
_cell_length_b 13.916606
_cell_length_c 11.738549
_cell_angle_alpha 90.000000
_cell_angle_beta 145.229218
_cell_angle_gamma 90.000000
_cell_volume 2078.266491
_symmetry_space_group_name_H-M "C 2/C"
_symmetry_group_IT_number 15
_symmetry_cell_setting 'monoclinic'
loop_
_space_group_symop_operation_xyz
x,y,z
-x,y,1/2-z
-x,-y,-z
x,-y,1/2+z
1/2+x,1/2+y,z
1/2-x,1/2+y,1/2-z
1/2-x,1/2-y,-z
1/2+x,1/2-y,1/2+z
loop_
_atom_site_type_symbol
_atom_site_label
_atom_site_fract_x
_atom_site_fract_y
_atom_site_fract_z
Si Si1 0.173717 0.991148 0.266745
Si Si2 0.988878 0.108640 0.357855
Si Si3 0.000000 0.290109 0.250000
Si Si4 0.181958 0.347882 0.884341
Si Si5 0.641958 0.068287 0.077930
Si Si6 0.500000 0.087063 0.250000
O O1 0.248204 0.938154 0.471231
O O2 0.116337 0.076168 0.243998
O O3 0.239713 0.036471 0.266155
O O4 0.090884 0.914771 0.090673
O O5 0.982268 0.223881 0.334200
O O6 0.000000 0.059200 0.250000
O O7 0.104061 0.354302 0.425174
O O8 0.140065 0.375975 0.694459
O O9 0.081418 0.342863 0.811561
O O10 0.250000 0.250000 0.000000
O O11 0.561592 0.977801 0.941084
#
# Coordination Sequence:
#
# PCOD8137481 Si02
#       6
#     8   8   4   8   8   4
#     4  10  20  36  59  82 110 156 193 230 292 342
#     4   9  19  36  54  78 116 148 187 236 284 337
#     4   9  20  36  55  82 112 144 187 238 272 343
#     4  11  22  39  58  90 118 146 196 244 284 337
#     4  10  20  38  61  83 112 153 191 234 286 339
#     4   9  22  42  61  82 116 160 191 228 292 351
#
# _framework density 19.24681
#
# number of rings (size 3 to 8) (size 9 to 14) (size 15 to 20)
#    0.600    1.600    0.000    3.000    0.000    0.800 
#   12.600    0.000    0.000    0.000    0.000    0.000 
#    0.000    0.000    0.000    0.000    0.000    0.000 
#
# Total GULP energy -247869.750720 kJ/mol
# GULP energy per Si atom -12393.487536 kJ/mol
# Density = 1.920300 g / cm^3
# Si number density = 19.246810 Si / 1000 Ang^3
#
#
#
# Elastic Constant Matrix: (Units=GPa)
#
#
# Indices 1 2 3 4 5 6 
#
# 1 106.8494 47.4177 49.5283 0.0000 18.3486 0.0000
# 2 47.4177 95.4443 27.6888 0.0000 13.5377 0.0000
# 3 49.5283 27.6888 78.1797 0.0000 11.6434 0.0000
# 4 0.0000 0.0000 0.0000 20.1717 0.0000 -5.1267
# 5 18.3486 13.5377 11.6434 0.0000 35.8604 0.0000
# 6 0.0000 0.0000 0.0000 -5.1267 0.0000 16.3839
#
#
#
# Elastic Compliance Matrix: (Units=1/GPa)
#
#
# Indices 1 2 3 4 5 6 
#
# 1 0.015807 -0.005111 -0.007657 0.000000 -0.003672 0.000000
# 2 -0.005111 0.013695 -0.001295 0.000000 -0.002135 0.000000
# 3 -0.007657 -0.001295 0.018330 0.000000 -0.001545 0.000000
# 4 0.000000 0.000000 0.000000 0.053858 0.000000 0.016853
# 5 -0.003672 -0.002135 -0.001545 0.000000 0.031072 0.000000
# 6 0.000000 0.000000 0.000000 0.016853 0.000000 0.066309
#
#
# Mechanical properties :
#
#
# Convention : Reuss Voigt Hill
#
# Bulk Modulus (GPa) = 50.74214 58.86033 54.80123
# Shear Modulus (GPa) = 21.38898 24.87243 23.13071
#
# Velocity S-wave (km/s) = 3.33723 3.59874 3.47045
# Velocity P-wave (km/s) = 6.42422 6.92215 6.67783
#
# Compressibility (1/GPa) = 0.01970749
#
# Stress axis : x y z
#
# Youngs Moduli (GPa) = 63.26327 73.02071 54.55395
#
# Poissons Ratio (x) = 0.37320 0.41772
# Poissons Ratio (y) = 0.32333 0.07062
# Poissons Ratio (z) = 0.48440 0.09453
#
# Static dielectric constant tensor:
#      x y z
#    x 3.376890 0.000000 0.063860 
#    y 0.000000 3.402280 0.000000 
#    z 0.063860 0.000000 3.604510 
# 
# 
# High freq. dielectric constant tensor:
#      x y z
#    x 1.735990 0.000000 0.003510 
#    y 0.000000 1.741090 0.000000 
#    z 0.003510 0.000000 1.764360 
# 
# From -- ./inp_files/86283.got.cif
#   From: 2010.06.25/outbox.cif.g09.slc.cpg/sg15_44_cif.got.tgz:86283.got - 2010.06.28 07:06:18.
