data_PCOD8137369
_publ_section_title
;
Structure prediction by ZEFSAII (Michael W. Deem and Ramdas Pophale) SiO2 
 PCOD8137369
Probable space group: C 2/C
;
_chemical_formula_sum "Si O2"
_cell_formula_units_Z 56
_cell_length_a 29.927228
_cell_length_b 8.870976
_cell_length_c 21.789510
_cell_angle_alpha 90.000000
_cell_angle_beta 150.185151
_cell_angle_gamma 90.000000
_cell_volume 2876.176049
_symmetry_space_group_name_H-M "C 2/C"
_symmetry_group_IT_number 15
_symmetry_cell_setting 'monoclinic'
loop_
_space_group_symop_operation_xyz
x,y,z
-x,y,1/2-z
-x,-y,-z
x,-y,1/2+z
1/2+x,1/2+y,z
1/2-x,1/2+y,1/2-z
1/2-x,1/2-y,-z
1/2+x,1/2-y,1/2+z
loop_
_atom_site_type_symbol
_atom_site_label
_atom_site_fract_x
_atom_site_fract_y
_atom_site_fract_z
Si Si1 0.175698 0.358598 0.735494
Si Si2 0.334254 0.464672 0.465585
Si Si3 0.625418 0.146251 0.038099
Si Si4 0.234316 0.574786 0.970449
Si Si5 0.047589 0.781324 0.367588
Si Si6 0.776758 0.403633 0.420604
Si Si7 0.056597 0.477809 0.694935
O O1 0.259993 0.472234 0.829718
O O2 0.141127 0.314319 0.627516
O O3 0.201290 0.207505 0.803467
O O4 0.097607 0.450394 0.676782
O O5 0.357781 0.293081 0.482218
O O6 0.297005 0.485570 0.490485
O O7 0.423121 0.566729 0.561948
O O8 0.696222 0.021276 0.100322
O O9 0.523092 0.098016 0.905060
O O10 0.129806 0.544160 0.829560
O O11 0.250000 0.750000 0.000000
O O12 0.261868 0.486555 0.065219
O O13 0.135672 0.687175 0.454492
O O14 0.000000 0.836550 0.250000
O O15 0.979920 0.683537 0.327173
#
# Coordination Sequence:
#
# PCOD8137369 Si02
#       7
#     8   8   8   8   8   8   8
#     4  10  22  40  62  85 117 163 206 238 286 362
#     4  10  23  36  60  91 115 155 199 244 297 357
#     4  11  21  41  59  88 122 157 198 246 300 350
#     4  11  21  39  61  92 119 149 200 246 304 352
#     4  10  20  36  57  88 120 150 189 241 299 358
#     4  10  21  37  64  85 119 160 194 244 296 356
#     4  10  23  38  62  86 120 157 195 247 305 344
#
# _framework density 19.470296000000001
#
# number of rings (size 3 to 8) (size 9 to 14) (size 15 to 20)
#    0.000    1.714    2.857    1.286    2.000    2.857 
#    0.000    0.714    0.000    0.000    0.000    0.000 
#    0.000    0.000    0.000    0.000    0.000    0.000 
#
# Total GULP energy -347250.269696 kJ/mol
# GULP energy per Si atom -12401.795346 kJ/mol
# Density = 1.942598 g / cm^3
# Si number density = 19.470296 Si / 1000 Ang^3
#
#
#
# Elastic Constant Matrix: (Units=GPa)
#
#
# Indices 1 2 3 4 5 6 
#
# 1 69.7930 26.6587 44.5189 0.0000 -7.6760 0.0000
# 2 26.6587 115.5489 40.8558 0.0000 8.8731 0.0000
# 3 44.5189 40.8558 92.8293 0.0000 -0.6931 0.0000
# 4 0.0000 0.0000 0.0000 20.7568 0.0000 2.6191
# 5 -7.6760 8.8731 -0.6931 0.0000 27.3986 0.0000
# 6 0.0000 0.0000 0.0000 2.6191 0.0000 33.9221
#
#
#
# Elastic Compliance Matrix: (Units=1/GPa)
#
#
# Indices 1 2 3 4 5 6 
#
# 1 0.021971 -0.002215 -0.009513 0.000000 0.006632 0.000000
# 2 -0.002215 0.010806 -0.003725 0.000000 -0.004214 0.000000
# 3 -0.009513 -0.003725 0.016966 0.000000 -0.001029 0.000000
# 4 0.000000 0.000000 0.000000 0.048651 0.000000 -0.003756
# 5 0.006632 -0.004214 -0.001029 0.000000 0.039695 0.000000
# 6 0.000000 0.000000 0.000000 -0.003756 0.000000 0.029769
#
#
# Mechanical properties :
#
#
# Convention : Reuss Voigt Hill
#
# Bulk Modulus (GPa) = 53.08328 55.80424 54.44376
# Shear Modulus (GPa) = 24.38498 27.49135 25.93816
#
# Velocity S-wave (km/s) = 3.54279 3.76169 3.65388
# Velocity P-wave (km/s) = 6.63763 6.89859 6.76936
#
# Compressibility (1/GPa) = 0.01883832
#
# Stress axis : x y z
#
# Youngs Moduli (GPa) = 45.51386 92.53991 58.94011
#
# Poissons Ratio (x) = 0.20497 0.56068
# Poissons Ratio (y) = 0.10081 0.21957
# Poissons Ratio (z) = 0.43296 0.34473
#
# Static dielectric constant tensor:
#      x y z
#    x 3.476410 0.000000 0.060650 
#    y 0.000000 3.615430 0.000000 
#    z 0.060650 0.000000 3.543010 
# 
# 
# High freq. dielectric constant tensor:
#      x y z
#    x 1.752720 0.000000 0.000320 
#    y 0.000000 1.766370 0.000000 
#    z 0.000320 0.000000 1.755970 
# 
# From -- ./inp_files/171808.got.cif
#   From: 2010.06.25/outbox.cif.g09.slc.cpg/sg15_86_cif.got.tgz:171808.got - 2010.06.28 07:06:18.
