data_PCOD8137580
_publ_section_title
;
Structure prediction by ZEFSAII (Michael W. Deem and Ramdas Pophale) SiO2 
 PCOD8137580
Probable space group: C 2/C
;
_chemical_formula_sum "Si O2"
_cell_formula_units_Z 64
_cell_length_a 16.980597
_cell_length_b 12.064690
_cell_length_c 21.271434
_cell_angle_alpha 90.000000
_cell_angle_beta 50.665366
_cell_angle_gamma 90.000000
_cell_volume 3370.560909
_symmetry_space_group_name_H-M "C 2/C"
_symmetry_group_IT_number 15
_symmetry_cell_setting 'monoclinic'
loop_
_space_group_symop_operation_xyz
x,y,z
-x,y,1/2-z
-x,-y,-z
x,-y,1/2+z
1/2+x,1/2+y,z
1/2-x,1/2+y,1/2-z
1/2-x,1/2-y,-z
1/2+x,1/2-y,1/2+z
loop_
_atom_site_type_symbol
_atom_site_label
_atom_site_fract_x
_atom_site_fract_y
_atom_site_fract_z
Si Si1 0.657473 0.183793 0.971552
Si Si2 0.421361 0.151674 0.085364
Si Si3 0.548816 0.205014 0.567121
Si Si4 0.230335 0.161534 0.825242
Si Si5 0.252283 0.911424 0.949623
Si Si6 0.609385 0.897378 0.165107
Si Si7 0.350909 0.084018 0.653494
Si Si8 0.086038 0.941757 0.496105
O O1 0.718182 0.298793 0.931727
O O2 0.686764 0.109159 0.897283
O O3 0.534780 0.200878 0.040278
O O4 0.697653 0.115719 0.009764
O O5 0.332375 0.227600 0.159908
O O6 0.408044 0.034017 0.125794
O O7 0.406064 0.142647 0.017432
O O8 0.610319 0.165979 0.597539
O O9 0.431011 0.175851 0.636091
O O10 0.551905 0.336801 0.554500
O O11 0.331950 0.183366 0.815583
O O12 0.256212 0.093277 0.748758
O O13 0.161419 0.084785 0.902010
O O14 0.334655 0.983173 0.868785
O O15 0.146726 0.978699 0.013454
O O16 0.500000 0.922039 0.250000
O O17 0.000000 0.000000 0.500000
#
# Coordination Sequence:
#
# PCOD8137580 Si02
#       8
#     8   8   8   8   8   8   8   8
#     4  10  21  38  60  86 114 153 205 243 289 365
#     4  10  21  37  60  84 116 153 198 249 296 355
#     4  10  20  36  60  86 112 154 197 243 290 356
#     4  10  23  35  55  89 113 151 198 238 299 359
#     4  10  21  37  61  85 113 158 202 240 292 360
#     4  11  21  37  56  85 122 150 197 250 303 353
#     4  11  20  36  58  85 118 151 193 245 305 350
#     4  10  21  39  63  84 118 156 196 241 297 354
#
# _framework density 18.987936000000001
#
# number of rings (size 3 to 8) (size 9 to 14) (size 15 to 20)
#    0.000    1.750    1.250    5.250    0.000    8.500 
#    0.000    0.000    0.000    0.000    0.000    0.000 
#    0.000    0.000    0.000    0.000    0.000    0.000 
#
# Total GULP energy -396584.447801 kJ/mol
# GULP energy per Si atom -12393.263994 kJ/mol
# Density = 1.894472 g / cm^3
# Si number density = 18.987936 Si / 1000 Ang^3
#
#
#
# Elastic Constant Matrix: (Units=GPa)
#
#
# Indices 1 2 3 4 5 6 
#
# 1 123.6189 55.6248 40.4661 0.0000 -7.1273 0.0000
# 2 55.6248 101.8645 40.9481 0.0000 -3.9871 0.0000
# 3 40.4661 40.9481 79.9545 0.0000 -3.5164 0.0000
# 4 0.0000 0.0000 0.0000 19.4773 0.0000 -6.1188
# 5 -7.1273 -3.9871 -3.5164 0.0000 22.5019 0.0000
# 6 0.0000 0.0000 0.0000 -6.1188 0.0000 35.1871
#
#
#
# Elastic Compliance Matrix: (Units=1/GPa)
#
#
# Indices 1 2 3 4 5 6 
#
# 1 0.011466 -0.004886 -0.003201 0.000000 0.002266 0.000000
# 2 -0.004886 0.014477 -0.004930 0.000000 0.000247 0.000000
# 3 -0.003201 -0.004930 0.016684 0.000000 0.000720 0.000000
# 4 0.000000 0.000000 0.000000 0.054309 0.000000 0.009444
# 5 0.002266 0.000247 0.000720 0.000000 0.045315 0.000000
# 6 0.000000 0.000000 0.000000 0.009444 0.000000 0.030062
#
#
# Mechanical properties :
#
#
# Convention : Reuss Voigt Hill
#
# Bulk Modulus (GPa) = 60.27075 64.39065 62.33070
# Shear Modulus (GPa) = 24.52443 26.65984 25.59214
#
# Velocity S-wave (km/s) = 3.59775 3.75112 3.67524
# Velocity P-wave (km/s) = 7.00492 7.26265 7.13495
#
# Compressibility (1/GPa) = 0.01659180
#
# Stress axis : x y z
#
# Youngs Moduli (GPa) = 87.21081 69.07711 59.93719
#
# Poissons Ratio (x) = 0.33750 0.19189
# Poissons Ratio (y) = 0.42610 0.29552
# Poissons Ratio (z) = 0.27920 0.34058
#
# Static dielectric constant tensor:
#      x y z
#    x 3.100300 0.000000 0.213870 
#    y 0.000000 3.456700 0.000000 
#    z 0.213870 0.000000 3.300220 
# 
# 
# High freq. dielectric constant tensor:
#      x y z
#    x 1.750580 0.000000 -0.002170 
#    y 0.000000 1.736060 0.000000 
#    z -0.002170 0.000000 1.724150 
# 
# From -- ./inp_files/248601.got.cif
#   From: 2010.06.25/outbox.cif.g09.slc.cpg/sg15_125_cif.got.tgz:248601.got - 2010.06.28 07:06:18.
