data_PCOD8137251
_publ_section_title
;
Structure prediction by ZEFSAII (Michael W. Deem and Ramdas Pophale) SiO2 
 PCOD8137251
Probable space group: C 2/C
;
_chemical_formula_sum "Si O2"
_cell_formula_units_Z 52
_cell_length_a 15.492610
_cell_length_b 8.671776
_cell_length_c 24.650830
_cell_angle_alpha 90.000000
_cell_angle_beta 48.588879
_cell_angle_gamma 90.000000
_cell_volume 2483.793176
_symmetry_space_group_name_H-M "C 2/C"
_symmetry_group_IT_number 15
_symmetry_cell_setting 'monoclinic'
loop_
_space_group_symop_operation_xyz
x,y,z
-x,y,1/2-z
-x,-y,-z
x,-y,1/2+z
1/2+x,1/2+y,z
1/2-x,1/2+y,1/2-z
1/2-x,1/2-y,-z
1/2+x,1/2-y,1/2+z
loop_
_atom_site_type_symbol
_atom_site_label
_atom_site_fract_x
_atom_site_fract_y
_atom_site_fract_z
Si Si1 0.168528 0.657350 0.325498
Si Si2 0.610830 0.489423 0.559066
Si Si3 0.263568 0.019595 0.895411
Si Si4 0.053457 0.292127 0.630572
Si Si5 0.500000 0.423999 0.250000
Si Si6 0.652651 0.480118 0.831167
Si Si7 0.694446 0.361122 0.633319
O O1 0.274465 0.601018 0.245606
O O2 0.186324 0.614874 0.381992
O O3 0.043834 0.597190 0.356480
O O4 0.159558 0.838950 0.321032
O O5 0.663534 0.439539 0.479929
O O6 0.611595 0.676376 0.562776
O O7 0.480470 0.423334 0.617657
O O8 0.693800 0.419386 0.571652
O O9 0.331598 0.177546 0.853247
O O10 0.351974 0.899165 0.882852
O O11 0.205992 0.937599 0.867560
O O12 0.992725 0.182681 0.700354
O O13 0.393062 0.538970 0.294958
#
# Coordination Sequence:
#
# PCOD8137251 Si02
#       7
#     8   8   8   8   4   8   8
#     4  10  20  36  54  84 109 141 187 231 287 326
#     4  10  21  40  57  80 116 157 185 221 283 339
#     4  11  22  37  58  87 112 148 194 230 269 333
#     4  10  21  36  58  82 114 146 184 237 278 332
#     4  10  20  38  56  80 112 150 182 228 300 328
#     4  10  22  37  60  81 112 147 186 236 278 333
#     4  10  21  36  58  80 113 148 184 232 277 336
#
# _framework density 20.935721000000001
#
# number of rings (size 3 to 8) (size 9 to 14) (size 15 to 20)
#    0.000    1.846    0.000    5.077    0.000    5.538 
#    0.000    0.769    0.000    0.000    0.000    0.000 
#    0.000    0.000    0.000    0.000    0.000    0.000 
#
# Total GULP energy -322225.800668 kJ/mol
# GULP energy per Si atom -12393.300026 kJ/mol
# Density = 2.088807 g / cm^3
# Si number density = 20.935721 Si / 1000 Ang^3
#
#
#
# Elastic Constant Matrix: (Units=GPa)
#
#
# Indices 1 2 3 4 5 6 
#
# 1 175.8385 28.9247 28.0419 0.0000 1.6636 0.0000
# 2 28.9247 40.2436 4.4133 0.0000 -10.4107 0.0003
# 3 28.0419 4.4133 48.2569 0.0000 3.0187 0.0001
# 4 0.0000 0.0000 0.0000 14.1087 0.0000 0.0828
# 5 1.6636 -10.4107 3.0187 0.0000 24.8629 0.0000
# 6 0.0000 0.0003 0.0001 0.0828 0.0000 29.7856
#
#
#
# Elastic Compliance Matrix: (Units=1/GPa)
#
#
# Indices 1 2 3 4 5 6 
#
# 1 0.007150 -0.005344 -0.003523 0.000000 -0.002289 0.000000
# 2 -0.005344 0.032395 -0.000733 0.000000 0.014011 0.000000
# 3 -0.003523 -0.000733 0.023016 0.000000 -0.002866 0.000000
# 4 0.000000 0.000000 0.000000 0.070880 0.000000 -0.000197
# 5 -0.002289 0.014011 -0.002866 0.000000 0.046588 0.000000
# 6 0.000000 0.000000 0.000000 -0.000197 0.000000 0.033574
#
#
# Mechanical properties :
#
#
# Convention : Reuss Voigt Hill
#
# Bulk Modulus (GPa) = 23.06318 43.01096 33.03707
# Shear Modulus (GPa) = 20.22192 27.28205 23.75199
#
# Velocity S-wave (km/s) = 3.11127 3.61381 3.37192
# Velocity P-wave (km/s) = 4.89355 6.16455 5.56545
#
# Compressibility (1/GPa) = 0.04335916
#
# Stress axis : x y z
#
# Youngs Moduli (GPa) = 139.86789 30.86903 43.44839
#
# Poissons Ratio (x) = 0.16498 0.15305
# Poissons Ratio (y) = 0.74751 0.03187
# Poissons Ratio (z) = 0.49271 0.02264
#
# Static dielectric constant tensor:
#      x y z
#    x 4.551360 0.000000 0.056460 
#    y 0.000000 3.677870 0.000000 
#    z 0.056460 0.000000 3.666170 
# 
# 
# High freq. dielectric constant tensor:
#      x y z
#    x 1.850560 0.000000 0.012630 
#    y 0.000000 1.805030 0.000000 
#    z 0.012630 0.000000 1.799100 
# 
# From -- ./inp_files/242408.got.cif
#   From: 2010.06.25/outbox.cif.g09.slc.cpg/sg15_122_cif.got.tgz:242408.got - 2010.06.28 07:06:18.
