data_PCOD8137596
_publ_section_title
;
Structure prediction by ZEFSAII (Michael W. Deem and Ramdas Pophale) SiO2 
 PCOD8137596
Probable space group: C 2/C
;
_chemical_formula_sum "Si O2"
_cell_formula_units_Z 56
_cell_length_a 15.185022
_cell_length_b 8.104822
_cell_length_c 25.742277
_cell_angle_alpha 90.000000
_cell_angle_beta 59.375992
_cell_angle_gamma 90.000000
_cell_volume 2726.284672
_symmetry_space_group_name_H-M "C 2/C"
_symmetry_group_IT_number 15
_symmetry_cell_setting 'monoclinic'
loop_
_space_group_symop_operation_xyz
x,y,z
-x,y,1/2-z
-x,-y,-z
x,-y,1/2+z
1/2+x,1/2+y,z
1/2-x,1/2+y,1/2-z
1/2-x,1/2-y,-z
1/2+x,1/2-y,1/2+z
loop_
_atom_site_type_symbol
_atom_site_label
_atom_site_fract_x
_atom_site_fract_y
_atom_site_fract_z
Si Si1 0.392821 0.168646 0.049412
Si Si2 0.882384 0.276627 0.283359
Si Si3 0.794805 0.962179 0.356447
Si Si4 0.535449 0.957436 0.072402
Si Si5 0.346755 0.229746 0.675287
Si Si6 0.297943 0.513839 0.620281
Si Si7 0.301252 0.190662 0.431737
O O1 0.375919 0.347032 0.078720
O O2 0.298239 0.048320 0.086258
O O3 0.491994 0.100783 0.048796
O O4 0.411565 0.177534 0.981590
O O5 0.835204 0.260697 0.240293
O O6 0.813671 0.412341 0.332899
O O7 0.000000 0.335107 0.250000
O O8 0.876208 0.098438 0.313417
O O9 0.751517 0.863646 0.319403
O O10 0.847836 0.841815 0.383242
O O11 0.451666 0.866445 0.132221
O O12 0.615610 0.046995 0.085819
O O13 0.348501 0.417024 0.653412
O O14 0.289531 0.385128 0.575627
O O15 0.250000 0.250000 0.500000
#
# Coordination Sequence:
#
# PCOD8137596 Si02
#       7
#     8   8   8   8   8   8   8
#     4   9  19  37  57  86 119 155 192 245 284 354
#     4  11  22  40  60  87 119 152 201 249 290 348
#     4   9  20  39  59  82 119 157 199 239 301 351
#     4  10  20  36  60  87 120 155 199 237 295 348
#     4  10  21  39  61  85 117 160 195 243 294 354
#     4  10  23  39  60  90 117 156 199 238 300 351
#     4  11  21  39  59  87 119 158 194 246 300 349
#
# _framework density 20.540776000000001
#
# number of rings (size 3 to 8) (size 9 to 14) (size 15 to 20)
#    0.000    2.000    1.429    1.714    2.000    2.286 
#    2.571    7.143    0.000    0.000    0.000    0.000 
#    0.000    0.000    0.000    0.000    0.000    0.000 
#
# Total GULP energy -347210.161391 kJ/mol
# GULP energy per Si atom -12400.362907 kJ/mol
# Density = 2.049402 g / cm^3
# Si number density = 20.540776 Si / 1000 Ang^3
#
#
#
# Elastic Constant Matrix: (Units=GPa)
#
#
# Indices 1 2 3 4 5 6 
#
# 1 55.6285 14.7650 22.9375 0.0001 6.2104 0.0001
# 2 14.7650 98.1357 33.4796 0.0002 6.4845 0.0003
# 3 22.9375 33.4796 96.3832 0.0000 15.1236 0.0000
# 4 0.0001 0.0002 0.0000 31.7973 0.0000 8.3150
# 5 6.2104 6.4845 15.1236 0.0000 31.5118 0.0001
# 6 0.0001 0.0003 0.0000 8.3150 0.0001 32.2156
#
#
#
# Elastic Compliance Matrix: (Units=1/GPa)
#
#
# Indices 1 2 3 4 5 6 
#
# 1 0.020235 -0.001565 -0.003998 0.000000 -0.001747 0.000000
# 2 -0.001565 0.011688 -0.003632 0.000000 -0.000354 0.000000
# 3 -0.003998 -0.003632 0.013353 0.000000 -0.004873 0.000000
# 4 0.000000 0.000000 0.000000 0.033725 0.000000 -0.008705
# 5 -0.001747 -0.000354 -0.004873 0.000000 0.034490 0.000000
# 6 0.000000 0.000000 0.000000 -0.008705 0.000000 0.033288
#
#
# Mechanical properties :
#
#
# Convention : Reuss Voigt Hill
#
# Bulk Modulus (GPa) = 37.19366 43.61241 40.40303
# Shear Modulus (GPa) = 28.71398 31.03595 29.87497
#
# Velocity S-wave (km/s) = 3.74291 3.89130 3.81783
# Velocity P-wave (km/s) = 6.06842 6.43955 6.25674
#
# Compressibility (1/GPa) = 0.02688630
#
# Stress axis : x y z
#
# Youngs Moduli (GPa) = 49.41856 85.55875 74.89001
#
# Poissons Ratio (x) = 0.13391 0.29940
# Poissons Ratio (y) = 0.07735 0.27200
# Poissons Ratio (z) = 0.19757 0.31074
#
# Static dielectric constant tensor:
#      x y z
#    x 3.514270 0.000000 0.154130 
#    y 0.000000 3.866790 0.000000 
#    z 0.154130 0.000000 3.724730 
# 
# 
# High freq. dielectric constant tensor:
#      x y z
#    x 1.788690 0.000000 0.013560 
#    y 0.000000 1.808240 0.000000 
#    z 0.013560 0.000000 1.807850 
# 
# From -- ./inp_files/273040.got.cif
#   From: 2010.06.25/outbox.cif.g09.slc.cpg/sg15_137_cif.got.tgz:273040.got - 2010.06.28 07:06:18.
