data_PCOD8137895
_publ_section_title
;
Structure prediction by ZEFSAII (Michael W. Deem and Ramdas Pophale) SiO2 
 PCOD8137895
Probable space group: C 2/C
;
_chemical_formula_sum "Si O2"
_cell_formula_units_Z 40
_cell_length_a 17.527274
_cell_length_b 25.357836
_cell_length_c 9.549955
_cell_angle_alpha 90.000000
_cell_angle_beta 28.821587
_cell_angle_gamma 90.000000
_cell_volume 2046.211063
_symmetry_space_group_name_H-M "C 2/C"
_symmetry_group_IT_number 15
_symmetry_cell_setting 'monoclinic'
loop_
_space_group_symop_operation_xyz
x,y,z
-x,y,1/2-z
-x,-y,-z
x,-y,1/2+z
1/2+x,1/2+y,z
1/2-x,1/2+y,1/2-z
1/2-x,1/2-y,-z
1/2+x,1/2-y,1/2+z
loop_
_atom_site_type_symbol
_atom_site_label
_atom_site_fract_x
_atom_site_fract_y
_atom_site_fract_z
Si Si1 0.813991 0.840015 0.046105
Si Si2 0.310914 0.844122 0.561427
Si Si3 0.313400 0.747743 0.054778
Si Si4 0.381573 0.050281 0.057599
Si Si5 0.395183 0.064197 0.554409
O O1 0.762665 0.792368 0.226909
O O2 0.744255 0.893677 0.220499
O O3 0.760499 0.829319 0.973400
O O4 0.000000 0.845321 0.750000
O O5 0.233916 0.808066 0.803427
O O6 0.266136 0.904622 0.679713
O O7 0.500000 0.837629 0.250000
O O8 0.500000 0.755086 0.750000
O O9 0.250000 0.750000 0.000000
O O10 0.307761 0.993279 0.218608
O O11 0.500000 0.030124 0.750000
O O12 0.482178 0.076884 0.018923
O O13 0.500000 0.071619 0.250000
#
# Coordination Sequence:
#
# PCOD8137895 Si02
#       5
#     8   8   8   8   8
#     4  12  24  41  61  90 125 164 201 248 310 368
#     4  11  21  42  65  86 119 167 205 243 303 373
#     4  12  26  42  62  92 121 156 207 261 307 356
#     4   9  18  37  65  92 119 161 207 244 299 365
#     4  10  20  36  65  95 122 158 210 251 294 359
#
# _framework density 19.548325999999999
#
# number of rings (size 3 to 8) (size 9 to 14) (size 15 to 20)
#    0.000    1.200    4.000    4.200    2.800    0.000 
#    0.000    2.000    0.000    0.000    0.000    0.000 
#    0.000    0.000    0.000    0.000    0.000    0.000 
#
# Total GULP energy -247888.104222 kJ/mol
# GULP energy per Si atom -12394.405211 kJ/mol
# Density = 1.950383 g / cm^3
# Si number density = 19.548326 Si / 1000 Ang^3
#
#
#
# Elastic Constant Matrix: (Units=GPa)
#
#
# Indices 1 2 3 4 5 6 
#
# 1 150.8038 33.8755 50.4260 -0.0002 15.7575 0.0002
# 2 33.8755 143.9106 47.2007 -0.0001 5.7578 0.0002
# 3 50.4260 47.2007 103.4691 -0.0003 -4.1108 0.0006
# 4 -0.0002 -0.0001 -0.0003 36.7619 0.0001 5.8040
# 5 15.7575 5.7578 -4.1108 0.0001 36.1082 -0.0003
# 6 0.0002 0.0002 0.0006 5.8040 -0.0003 28.0824
#
#
#
# Elastic Compliance Matrix: (Units=1/GPa)
#
#
# Indices 1 2 3 4 5 6 
#
# 1 0.008544 -0.000502 -0.004098 0.000000 -0.004115 0.000000
# 2 -0.000502 0.008311 -0.003607 0.000000 -0.001517 0.000000
# 3 -0.004098 -0.003607 0.013462 0.000000 0.003896 0.000000
# 4 0.000000 0.000000 0.000000 0.028120 0.000000 -0.005812
# 5 -0.004115 -0.001517 0.003896 0.000000 0.030176 0.000000
# 6 0.000000 0.000000 0.000000 -0.005812 0.000000 0.036811
#
#
# Mechanical properties :
#
#
# Convention : Reuss Voigt Hill
#
# Bulk Modulus (GPa) = 71.93025 73.46533 72.69779
# Shear Modulus (GPa) = 34.13615 37.96925 36.05270
#
# Velocity S-wave (km/s) = 4.18334 4.41197 4.29917
# Velocity P-wave (km/s) = 7.75950 7.97602 7.86850
#
# Compressibility (1/GPa) = 0.01390236
#
# Stress axis : x y z
#
# Youngs Moduli (GPa) = 117.03506 120.32837 74.28232
#
# Poissons Ratio (x) = 0.06045 0.30444
# Poissons Ratio (y) = 0.05880 0.26790
# Poissons Ratio (z) = 0.47966 0.43397
#
# Static dielectric constant tensor:
#      x y z
#    x 3.929500 0.000000 0.034070 
#    y 0.000000 3.991870 0.000000 
#    z 0.034070 0.000000 3.478020 
# 
# 
# High freq. dielectric constant tensor:
#      x y z
#    x 1.770150 0.000000 0.028900 
#    y 0.000000 1.786550 0.000000 
#    z 0.028900 0.000000 1.741420 
# 
# From -- ./inp_files/52101.got.cif
#   From: 2010.06.25/outbox.cif.g09.slc.cpg/sg15_27_cif.got.tgz:52101.got - 2010.06.28 07:06:18.
