data_PCOD8137505
_publ_section_title
;
Structure prediction by ZEFSAII (Michael W. Deem and Ramdas Pophale) SiO2 
 PCOD8137505
Probable space group: C 2/C
;
_chemical_formula_sum "Si O2"
_cell_formula_units_Z 48
_cell_length_a 9.363787
_cell_length_b 30.651403
_cell_length_c 17.045100
_cell_angle_alpha 90.000000
_cell_angle_beta 30.290735
_cell_angle_gamma 90.000000
_cell_volume 2467.551271
_symmetry_space_group_name_H-M "C 2/C"
_symmetry_group_IT_number 15
_symmetry_cell_setting 'monoclinic'
loop_
_space_group_symop_operation_xyz
x,y,z
-x,y,1/2-z
-x,-y,-z
x,-y,1/2+z
1/2+x,1/2+y,z
1/2-x,1/2+y,1/2-z
1/2-x,1/2-y,-z
1/2+x,1/2-y,1/2+z
loop_
_atom_site_type_symbol
_atom_site_label
_atom_site_fract_x
_atom_site_fract_y
_atom_site_fract_z
Si Si1 0.601663 0.163198 0.791308
Si Si2 0.481211 0.590996 0.851796
Si Si3 0.543761 0.742574 0.319979
Si Si4 0.986868 0.149304 0.348318
Si Si5 0.263136 0.512930 0.674275
Si Si6 0.593983 0.919833 0.793233
O O1 0.500000 0.159033 0.750000
O O2 0.720716 0.212940 0.751728
O O3 0.866094 0.132579 0.683002
O O4 0.341873 0.151084 0.971165
O O5 0.500000 0.591400 0.750000
O O6 0.625773 0.547616 0.816426
O O7 0.152013 0.593237 0.030019
O O8 0.500000 0.735977 0.250000
O O9 0.653218 0.694521 0.295626
O O10 0.250000 0.750000 0.500000
O O11 0.000000 0.140651 0.250000
O O12 0.128944 0.108799 0.323956
O O13 0.500000 0.500000 0.500000
O O14 0.169326 0.470667 0.768443
O O15 0.000000 0.532696 0.750000
O O16 0.500000 0.910594 0.750000
#
# Coordination Sequence:
#
# PCOD8137505 Si02
#       6
#     8   8   8   8   8   8
#     4  10  20  36  62  85 110 157 200 230 280 350
#     4  12  25  39  58  90 121 146 189 246 291 339
#     4   8  16  32  54  83 112 145 194 237 274 335
#     4  10  20  36  59  85 116 151 192 242 286 333
#     4  11  23  44  65  83 114 157 196 236 286 352
#     4  11  23  40  58  84 117 150 192 237 288 348
#
# _framework density 19.452482
#
# number of rings (size 3 to 8) (size 9 to 14) (size 15 to 20)
#    0.000    1.667    3.333    2.500    2.333    1.333 
#    0.000    1.667    0.000    0.000    0.000    0.000 
#    0.000    0.000    0.000    0.000    0.000    0.000 
#
# Total GULP energy -297420.172666 kJ/mol
# GULP energy per Si atom -12392.507194 kJ/mol
# Density = 1.940821 g / cm^3
# Si number density = 19.452482 Si / 1000 Ang^3
#
#
#
# Elastic Constant Matrix: (Units=GPa)
#
#
# Indices 1 2 3 4 5 6 
#
# 1 51.1486 20.0969 -3.1946 0.0000 8.0545 0.0000
# 2 20.0969 113.7012 -2.1452 0.0000 -13.6274 0.0000
# 3 -3.1946 -2.1452 74.0908 0.0000 11.3095 0.0000
# 4 0.0000 0.0000 0.0000 12.8324 0.0000 -10.0779
# 5 8.0545 -13.6274 11.3095 0.0000 35.8721 0.0000
# 6 0.0000 0.0000 0.0000 -10.0779 0.0000 7.1895
#
#
#
# Elastic Compliance Matrix: (Units=1/GPa)
#
#
# Indices 1 2 3 4 5 6 
#
# 1 0.022803 -0.004905 0.002004 0.000000 -0.007615 0.000000
# 2 -0.004905 0.010275 -0.000712 0.000000 0.005229 0.000000
# 3 0.002004 -0.000712 0.014364 0.000000 -0.005249 0.000000
# 4 0.000000 0.000000 0.000000 -0.772551 0.000000 -1.082927
# 5 -0.007615 0.005229 -0.005249 0.000000 0.033228 0.000000
# 6 0.000000 0.000000 0.000000 -1.082927 0.000000 -1.378906
#
#
# Mechanical properties :
#
#
# Convention : Reuss Voigt Hill
#
# Bulk Modulus (GPa) = 24.86704 29.82832 27.34768
# Shear Modulus (GPa) = -2.43884 26.12437 11.84276
#
# Velocity S-wave (km/s) = -1.12092 3.66865 2.47007
# Velocity P-wave (km/s) = 3.33706 5.77170 4.71426
#
# Compressibility (1/GPa) = 0.04021388
#
# Stress axis : x y z
#
# Youngs Moduli (GPa) = 43.85484 97.32056 69.61871
#
# Poissons Ratio (x) = 0.47738 -0.13949
# Poissons Ratio (y) = 0.21512 0.04959
# Poissons Ratio (z) = -0.08787 0.06932
#
# Static dielectric constant tensor:
#      x y z
#    x 3.152510 0.000000 0.251080 
#    y 0.000000 4.459600 0.000000 
#    z 0.251080 0.000000 3.687740 
# 
# 
# High freq. dielectric constant tensor:
#      x y z
#    x 1.733080 0.000000 0.026180 
#    y 0.000000 1.782890 0.000000 
#    z 0.026180 0.000000 1.762610 
# 
# From -- ./inp_files/34849.got.cif
#   From: 2010.06.25/outbox.cif.g09.slc.cpg/sg15_18_cif.got.tgz:34849.got - 2010.06.28 07:06:18.
