data_PCOD8137021
_publ_section_title
;
Structure prediction by ZEFSAII (Michael W. Deem and Ramdas Pophale) SiO2 
 PCOD8137021
Probable space group: C 2/C
;
_chemical_formula_sum "Si O2"
_cell_formula_units_Z 52
_cell_length_a 26.740556
_cell_length_b 17.381488
_cell_length_c 13.573505
_cell_angle_alpha 90.000000
_cell_angle_beta 159.666337
_cell_angle_gamma 90.000000
_cell_volume 2192.236943
_symmetry_space_group_name_H-M "C 2/C"
_symmetry_group_IT_number 15
_symmetry_cell_setting 'monoclinic'
loop_
_space_group_symop_operation_xyz
x,y,z
-x,y,1/2-z
-x,-y,-z
x,-y,1/2+z
1/2+x,1/2+y,z
1/2-x,1/2+y,1/2-z
1/2-x,1/2-y,-z
1/2+x,1/2-y,1/2+z
loop_
_atom_site_type_symbol
_atom_site_label
_atom_site_fract_x
_atom_site_fract_y
_atom_site_fract_z
Si Si1 0.000000 0.083717 0.250000
Si Si2 0.198053 0.959495 0.656559
Si Si3 0.688893 0.619205 0.418325
Si Si4 0.764085 0.948801 0.002687
Si Si5 0.500000 0.330402 0.250000
Si Si6 0.952269 0.194638 0.869222
Si Si7 0.990142 0.352773 0.016614
Si Si8 0.000000 0.589001 0.750000
O O1 0.100690 0.129884 0.358770
O O2 0.104033 0.033198 0.515042
O O3 0.192695 0.963534 0.529069
O O4 0.116915 0.879894 0.529056
O O5 0.358014 0.964369 0.997145
O O6 0.703768 0.533736 0.392630
O O7 0.851203 0.648299 0.737345
O O8 0.615266 0.674349 0.202723
O O9 0.596309 0.923260 0.694523
O O10 0.856848 0.879885 0.222406
O O11 0.566190 0.282605 0.281496
O O12 0.906095 0.272720 0.839652
O O13 0.988768 0.358739 0.132462
#
# Coordination Sequence:
#
# PCOD8137021 Si02
#       8
#     4   8   8   8   4   8   8   4
#     4   9  20  39  58  88 126 156 200 252 296 356
#     4   8  16  33  58  84 114 160 200 239 295 358
#     4  11  22  39  64  93 122 157 202 253 303 356
#     4   9  20  39  62  87 120 161 204 247 297 366
#     4   9  18  36  58  80 116 161 206 238 286 375
#     4  11  22  38  63  90 120 163 206 247 302 361
#     4  11  23  39  61  93 125 161 200 250 310 359
#     4  10  20  35  58  88 126 157 198 248 300 369
#
# _framework density 23.720064000000001
#
# number of rings (size 3 to 8) (size 9 to 14) (size 15 to 20)
#    0.000    2.154    0.000    3.692    0.000    1.846 
#    0.000    4.615    0.000    5.538    0.000    0.000 
#    0.000    0.000    0.000    0.000    0.000    0.000 
#
# Total GULP energy -322111.576558 kJ/mol
# GULP energy per Si atom -12388.906791 kJ/mol
# Density = 2.366608 g / cm^3
# Si number density = 23.720064 Si / 1000 Ang^3
#
#
#
# Elastic Constant Matrix: (Units=GPa)
#
#
# Indices 1 2 3 4 5 6 
#
# 1 90.7811 13.8926 15.9761 0.0000 8.6423 0.0000
# 2 13.8926 78.2938 2.7312 0.0000 -6.8924 0.0000
# 3 15.9761 2.7312 96.3314 0.0000 14.8539 0.0000
# 4 0.0000 0.0000 0.0000 31.3097 0.0000 2.8373
# 5 8.6423 -6.8924 14.8539 0.0000 29.4037 0.0000
# 6 0.0000 0.0000 0.0000 2.8373 0.0000 11.6522
#
#
#
# Elastic Compliance Matrix: (Units=1/GPa)
#
#
# Indices 1 2 3 4 5 6 
#
# 1 0.011943 -0.002366 -0.001396 0.000000 -0.003360 0.000000
# 2 -0.002366 0.013585 -0.000641 0.000000 0.004204 0.000000
# 3 -0.001396 -0.000641 0.011485 0.000000 -0.005542 0.000000
# 4 0.000000 0.000000 0.000000 0.032660 0.000000 -0.007953
# 5 -0.003360 0.004204 -0.005542 0.000000 0.038782 0.000000
# 6 0.000000 0.000000 0.000000 -0.007953 0.000000 0.087757
#
#
# Mechanical properties :
#
#
# Convention : Reuss Voigt Hill
#
# Bulk Modulus (GPa) = 35.45175 36.73399 36.09287
# Shear Modulus (GPa) = 23.31883 29.99356 26.65620
#
# Velocity S-wave (km/s) = 3.13882 3.55981 3.35592
# Velocity P-wave (km/s) = 5.30232 5.69354 5.50141
#
# Compressibility (1/GPa) = 0.02820735
#
# Stress axis : x y z
#
# Youngs Moduli (GPa) = 83.73036 73.61226 87.07018
#
# Poissons Ratio (x) = 0.17419 0.12151
# Poissons Ratio (y) = 0.19813 0.05580
# Poissons Ratio (z) = 0.11685 0.04718
#
# Static dielectric constant tensor:
#      x y z
#    x 4.344700 0.000000 0.119820 
#    y 0.000000 4.230320 0.000000 
#    z 0.119820 0.000000 4.419510 
# 
# 
# High freq. dielectric constant tensor:
#      x y z
#    x 1.932980 0.000000 0.005210 
#    y 0.000000 1.905840 0.000000 
#    z 0.005210 0.000000 1.950610 
# 
# From -- ./inp_files/183049.got.cif
#   From: 2010.06.25/outbox.cif.g09.slc.cpg/sg15_92_cif.got.tgz:183049.got - 2010.06.28 07:06:18.
