data_PCOD8137213
_publ_section_title
;
Structure prediction by ZEFSAII (Michael W. Deem and Ramdas Pophale) SiO2 
 PCOD8137213
Probable space group: C 2/C
;
_chemical_formula_sum "Si O2"
_cell_formula_units_Z 56
_cell_length_a 31.601075
_cell_length_b 9.571050
_cell_length_c 23.105823
_cell_angle_alpha 90.000000
_cell_angle_beta 155.679480
_cell_angle_gamma 90.000000
_cell_volume 2878.141842
_symmetry_space_group_name_H-M "C 2/C"
_symmetry_group_IT_number 15
_symmetry_cell_setting 'monoclinic'
loop_
_space_group_symop_operation_xyz
x,y,z
-x,y,1/2-z
-x,-y,-z
x,-y,1/2+z
1/2+x,1/2+y,z
1/2-x,1/2+y,1/2-z
1/2-x,1/2-y,-z
1/2+x,1/2-y,1/2+z
loop_
_atom_site_type_symbol
_atom_site_label
_atom_site_fract_x
_atom_site_fract_y
_atom_site_fract_z
Si Si1 0.702940 0.777119 0.606859
Si Si2 0.585072 0.320631 0.575698
Si Si3 0.617217 0.648202 0.613045
Si Si4 0.720966 0.087492 0.595024
Si Si5 0.059649 0.202800 0.914678
Si Si6 0.328817 0.631478 0.613744
Si Si7 0.611883 0.561057 0.411420
O O1 0.821830 0.754427 0.771839
O O2 0.631187 0.725955 0.569708
O O3 0.676361 0.691449 0.515759
O O4 0.680431 0.938819 0.566469
O O5 0.597978 0.484739 0.581160
O O6 0.482147 0.282030 0.481695
O O7 0.579023 0.253449 0.504934
O O8 0.716671 0.670159 0.777322
O O9 0.622005 0.181795 0.454748
O O10 0.799327 0.066248 0.639130
O O11 0.101883 0.050155 0.950997
O O12 0.939538 0.205805 0.750743
O O13 0.250000 0.750000 0.500000
O O14 0.324866 0.505636 0.562857
O O15 0.500000 0.611137 0.250000
#
# Coordination Sequence:
#
# PCOD8137213 Si02
#       7
#     8   8   8   8   8   8   8
#     4  11  23  40  62  98 130 160 204 265 325 364
#     4  10  20  35  67  89 121 165 203 248 310 376
#     4  10  20  38  61  93 126 159 201 252 311 384
#     4  11  23  39  64  95 125 161 207 268 317 360
#     4  11  20  40  65  91 117 164 214 250 312 372
#     4  11  23  42  65  89 122 168 219 254 300 385
#     4  10  23  41  65  88 127 175 210 249 308 387
#
# _framework density 19.456999
#
# number of rings (size 3 to 8) (size 9 to 14) (size 15 to 20)
#    0.000    1.429    5.714    0.000    0.000    0.571 
#    5.143    0.714    0.000    0.000    0.000    0.000 
#    0.000    0.000    0.000    0.000    0.000    0.000 
#
# Total GULP energy -347254.782767 kJ/mol
# GULP energy per Si atom -12401.956527 kJ/mol
# Density = 1.941271 g / cm^3
# Si number density = 19.456999 Si / 1000 Ang^3
#
#
#
# Elastic Constant Matrix: (Units=GPa)
#
#
# Indices 1 2 3 4 5 6 
#
# 1 108.9398 27.1857 40.8022 0.0000 8.8218 0.0000
# 2 27.1857 65.7624 56.1495 0.0000 8.8815 0.0000
# 3 40.8022 56.1495 104.6163 0.0000 3.2611 0.0000
# 4 0.0000 0.0000 0.0000 35.9249 0.0000 -3.9715
# 5 8.8218 8.8815 3.2611 0.0000 34.5019 0.0000
# 6 0.0000 0.0000 0.0000 -3.9715 0.0000 28.0332
#
#
#
# Elastic Compliance Matrix: (Units=1/GPa)
#
#
# Indices 1 2 3 4 5 6 
#
# 1 0.010993 -0.001198 -0.003577 0.000000 -0.002164 0.000000
# 2 -0.001198 0.029415 -0.015139 0.000000 -0.005835 0.000000
# 3 -0.003577 -0.015139 0.018985 0.000000 0.003017 0.000000
# 4 0.000000 0.000000 0.000000 0.028279 0.000000 0.004006
# 5 -0.002164 -0.005835 0.003017 0.000000 0.030754 0.000000
# 6 0.000000 0.000000 0.000000 0.004006 0.000000 0.036240
#
#
# Mechanical properties :
#
#
# Convention : Reuss Voigt Hill
#
# Bulk Modulus (GPa) = 51.10871 58.62146 54.86509
# Shear Modulus (GPa) = 24.87372 30.03741 27.45557
#
# Velocity S-wave (km/s) = 3.57934 3.93336 3.76052
# Velocity P-wave (km/s) = 6.58838 7.12900 6.86402
#
# Compressibility (1/GPa) = 0.01956614
#
# Stress axis : x y z
#
# Youngs Moduli (GPa) = 90.96369 33.99607 52.67330
#
# Poissons Ratio (x) = 0.04073 0.18842
# Poissons Ratio (y) = 0.10898 0.79740
# Poissons Ratio (z) = 0.32539 0.51465
#
# Static dielectric constant tensor:
#      x y z
#    x 3.811520 0.000000 0.001090 
#    y 0.000000 3.223780 0.000000 
#    z 0.001090 0.000000 3.575960 
# 
# 
# High freq. dielectric constant tensor:
#      x y z
#    x 1.772040 0.000000 -0.002280 
#    y 0.000000 1.730850 0.000000 
#    z -0.002280 0.000000 1.762990 
# 
# From -- ./inp_files/111121.got.cif
#   From: 2010.06.25/outbox.cif.g09.slc.cpg/sg15_56_cif.got.tgz:111121.got - 2010.06.28 07:06:18.
