data_PCOD8137694
_publ_section_title
;
Structure prediction by ZEFSAII (Michael W. Deem and Ramdas Pophale) SiO2 
 PCOD8137694
Probable space group: C 2/C
;
_chemical_formula_sum "Si O2"
_cell_formula_units_Z 48
_cell_length_a 8.661344
_cell_length_b 23.742535
_cell_length_c 11.663642
_cell_angle_alpha 90.000000
_cell_angle_beta 108.362627
_cell_angle_gamma 90.000000
_cell_volume 2276.408277
_symmetry_space_group_name_H-M "C 2/C"
_symmetry_group_IT_number 15
_symmetry_cell_setting 'monoclinic'
loop_
_space_group_symop_operation_xyz
x,y,z
-x,y,1/2-z
-x,-y,-z
x,-y,1/2+z
1/2+x,1/2+y,z
1/2-x,1/2+y,1/2-z
1/2-x,1/2-y,-z
1/2+x,1/2-y,1/2+z
loop_
_atom_site_type_symbol
_atom_site_label
_atom_site_fract_x
_atom_site_fract_y
_atom_site_fract_z
Si Si1 0.408197 0.004109 0.604789
Si Si2 0.803936 0.199091 0.589291
Si Si3 0.682561 0.714939 0.661943
Si Si4 0.182424 0.898070 0.559539
Si Si5 0.196605 0.890028 0.018701
Si Si6 0.314017 0.665967 0.208203
O O1 0.500000 0.997146 0.750000
O O2 0.269116 0.957395 0.574918
O O3 0.500000 0.000000 0.500000
O O4 0.320067 0.063922 0.594476
O O5 0.750000 0.250000 0.500000
O O6 0.724455 0.204163 0.696021
O O7 0.748338 0.138550 0.529370
O O8 0.996340 0.201698 0.637037
O O9 0.746539 0.670962 0.582683
O O10 0.708438 0.780721 0.640471
O O11 0.232368 0.860171 0.680795
O O12 0.989564 0.907964 0.500779
O O13 0.217288 0.884932 0.887050
O O14 0.500000 0.686424 0.250000
#
# Coordination Sequence:
#
# PCOD8137694 Si02
#       6
#     8   8   8   8   8   8
#     4  12  28  47  67  99 130 168 225 283 333 378
#     4  10  20  36  61  91 126 163 210 259 315 382
#     4  10  21  37  60  96 126 163 211 256 320 383
#     4  10  22  43  68  88 127 177 216 258 321 399
#     4  10  23  43  64  93 128 171 216 264 322 388
#     4  10  20  39  65  94 127 169 212 256 318 394
#
# _framework density 21.085847000000001
#
# number of rings (size 3 to 8) (size 9 to 14) (size 15 to 20)
#    0.000    1.667    1.667    2.000    2.333    3.333 
#    0.000    1.667    0.000    0.000    0.000    0.000 
#    0.000    0.000    0.000    0.000    0.000    0.000 
#
# Total GULP energy -297340.064116 kJ/mol
# GULP energy per Si atom -12389.169338 kJ/mol
# Density = 2.103785 g / cm^3
# Si number density = 21.085847 Si / 1000 Ang^3
#
#
#
# Elastic Constant Matrix: (Units=GPa)
#
#
# Indices 1 2 3 4 5 6 
#
# 1 42.7278 30.0332 28.4633 0.0000 -10.8030 0.0000
# 2 30.0332 96.7419 20.8923 0.0000 -0.2423 0.0000
# 3 28.4633 20.8923 115.4415 0.0000 -10.6058 0.0000
# 4 0.0000 0.0000 0.0000 39.7232 0.0000 11.6228
# 5 -10.8030 -0.2423 -10.6058 0.0000 24.2495 0.0000
# 6 0.0000 0.0000 0.0000 11.6228 0.0000 23.8633
#
#
#
# Elastic Compliance Matrix: (Units=1/GPa)
#
#
# Indices 1 2 3 4 5 6 
#
# 1 0.038698 -0.010617 -0.006299 0.000000 0.014379 0.000000
# 2 -0.010617 0.013684 -0.000292 0.000000 -0.004721 0.000000
# 3 -0.006299 -0.000292 0.010429 0.000000 0.001752 0.000000
# 4 0.000000 0.000000 0.000000 0.029358 0.000000 -0.014299
# 5 0.014379 -0.004721 0.001752 0.000000 0.048363 0.000000
# 6 0.000000 0.000000 0.000000 -0.014299 0.000000 0.048870
#
#
# Mechanical properties :
#
#
# Convention : Reuss Voigt Hill
#
# Bulk Modulus (GPa) = 35.21824 45.96541 40.59183
# Shear Modulus (GPa) = 21.43297 29.26868 25.35082
#
# Velocity S-wave (km/s) = 3.19166 3.72973 3.47113
# Velocity P-wave (km/s) = 5.50643 6.35565 5.94622
#
# Compressibility (1/GPa) = 0.02839437
#
# Stress axis : x y z
#
# Youngs Moduli (GPa) = 25.84084 73.07666 95.88285
#
# Poissons Ratio (x) = 0.77589 0.60396
# Poissons Ratio (y) = 0.27436 0.02804
# Poissons Ratio (z) = 0.16277 0.02137
#
# Static dielectric constant tensor:
#      x y z
#    x 3.723090 0.000000 -0.216740 
#    y 0.000000 3.714240 0.000000 
#    z -0.216740 0.000000 4.667780 
# 
# 
# High freq. dielectric constant tensor:
#      x y z
#    x 1.808000 0.000000 -0.004960 
#    y 0.000000 1.830340 0.000000 
#    z -0.004960 0.000000 1.848070 
# 
# From -- ./inp_files/79871.got.cif
#   From: 2010.06.25/outbox.cif.g09.slc.cpg/sg15_40_cif.got.tgz:79871.got - 2010.06.28 07:06:18.
