data_PCOD8137992
_publ_section_title
;
Structure prediction by ZEFSAII (Michael W. Deem and Ramdas Pophale) SiO2 
 PCOD8137992
Probable space group: C 2/C
;
_chemical_formula_sum "Si O2"
_cell_formula_units_Z 60
_cell_length_a 8.571435
_cell_length_b 12.217383
_cell_length_c 27.871834
_cell_angle_alpha 90.000000
_cell_angle_beta 99.569202
_cell_angle_gamma 90.000000
_cell_volume 2878.139638
_symmetry_space_group_name_H-M "C 2/C"
_symmetry_group_IT_number 15
_symmetry_cell_setting 'monoclinic'
loop_
_space_group_symop_operation_xyz
x,y,z
-x,y,1/2-z
-x,-y,-z
x,-y,1/2+z
1/2+x,1/2+y,z
1/2-x,1/2+y,1/2-z
1/2-x,1/2-y,-z
1/2+x,1/2-y,1/2+z
loop_
_atom_site_type_symbol
_atom_site_label
_atom_site_fract_x
_atom_site_fract_y
_atom_site_fract_z
Si Si1 0.253482 0.246736 0.775558
Si Si2 0.000000 0.412120 0.250000
Si Si3 0.596895 0.719093 0.572362
Si Si4 0.542180 0.309854 0.180044
Si Si5 0.602279 0.965064 0.550745
Si Si6 0.720571 0.474907 0.684207
Si Si7 0.304701 0.006377 0.583108
Si Si8 0.638439 0.425001 0.487857
O O1 0.397473 0.162273 0.780622
O O2 0.163995 0.257411 0.719893
O O3 0.329427 0.363120 0.792840
O O4 0.135825 0.207491 0.811463
O O5 0.891016 0.487638 0.211768
O O6 0.560674 0.730595 0.626878
O O7 0.647516 0.836682 0.555110
O O8 0.735610 0.629012 0.570695
O O9 0.437903 0.687670 0.534679
O O10 0.583171 0.438131 0.187970
O O11 0.497902 0.006214 0.591303
O O12 0.500000 0.000000 0.500000
O O13 0.771865 0.024583 0.554285
O O14 0.738696 0.456941 0.628564
O O15 0.255864 0.917466 0.539471
O O16 0.500000 0.500000 0.500000
#
# Coordination Sequence:
#
# PCOD8137992 Si02
#       8
#     8   4   8   8   8   8   8   8
#     4  10  20  37  56  79 110 140 179 226 269 325
#     4  10  22  34  54  84 104 142 188 214 274 336
#     4  10  20  39  58  78 115 144 177 233 268 318
#     4   9  20  37  58  83 108 145 183 217 279 330
#     4  10  21  35  55  82 107 143 186 219 270 322
#     4  10  20  38  57  78 113 143 176 232 273 319
#     4   9  20  37  56  82 110 142 185 225 273 325
#     4   9  20  37  56  80 109 146 186 220 270 326
#
# _framework density 20.846799000000001
#
# number of rings (size 3 to 8) (size 9 to 14) (size 15 to 20)
#    0.000    2.400    0.000    1.600    0.000   10.133 
#    0.000   18.667    0.000    0.000    0.000    0.000 
#    0.000    0.000    0.000    0.000    0.000    0.000 
#
# Total GULP energy -371829.632416 kJ/mol
# GULP energy per Si atom -12394.321081 kJ/mol
# Density = 2.079935 g / cm^3
# Si number density = 20.846799 Si / 1000 Ang^3
#
#
#
# Elastic Constant Matrix: (Units=GPa)
#
#
# Indices 1 2 3 4 5 6 
#
# 1 67.6374 16.4143 0.6108 0.0000 -10.6085 0.0000
# 2 16.4143 88.2727 29.1654 0.0000 -0.3332 0.0000
# 3 0.6108 29.1654 83.7640 0.0000 -0.8153 0.0000
# 4 0.0000 0.0000 0.0000 30.4182 0.0000 2.6699
# 5 -10.6085 -0.3332 -0.8153 0.0000 20.5640 0.0000
# 6 0.0000 0.0000 0.0000 2.6699 0.0000 23.2764
#
#
#
# Elastic Compliance Matrix: (Units=1/GPa)
#
#
# Indices 1 2 3 4 5 6 
#
# 1 0.017003 -0.003521 0.001187 0.000000 0.008761 0.000000
# 2 -0.003521 0.013530 -0.004703 0.000000 -0.001784 0.000000
# 3 0.001187 -0.004703 0.013578 0.000000 0.001075 0.000000
# 4 0.000000 0.000000 0.000000 0.033209 0.000000 -0.003809
# 5 0.008761 -0.001784 0.001075 0.000000 0.053162 0.000000
# 6 0.000000 0.000000 0.000000 -0.003809 0.000000 0.043399
#
#
# Mechanical properties :
#
#
# Convention : Reuss Voigt Hill
#
# Bulk Modulus (GPa) = 33.29148 36.89502 35.09325
# Shear Modulus (GPa) = 25.25683 27.75062 26.50372
#
# Velocity S-wave (km/s) = 3.48450 3.65248 3.56948
# Velocity P-wave (km/s) = 5.67391 5.96020 5.81882
#
# Compressibility (1/GPa) = 0.03003771
#
# Stress axis : x y z
#
# Youngs Moduli (GPa) = 58.81449 73.90828 73.65107
#
# Poissons Ratio (x) = 0.26022 -0.08744
# Poissons Ratio (y) = 0.20708 0.34636
# Poissons Ratio (z) = -0.06982 0.34757
#
# Static dielectric constant tensor:
#      x y z
#    x 4.359870 0.000000 -0.071940 
#    y 0.000000 3.696840 0.000000 
#    z -0.071940 0.000000 3.946790 
# 
# 
# High freq. dielectric constant tensor:
#      x y z
#    x 1.818040 0.000000 -0.012200 
#    y 0.000000 1.804760 0.000000 
#    z -0.012200 0.000000 1.814780 
# 
# From -- ./inp_files/307154.got.cif
#   From: 2010.06.25/outbox.cif.g09.slc.cpg/sg15_154_cif.got.tgz:307154.got - 2010.06.28 07:06:18.
