data_PCOD8137015
_publ_section_title
;
Structure prediction by ZEFSAII (Michael W. Deem and Ramdas Pophale) SiO2 
 PCOD8137015
Probable space group: C 2/C
;
_chemical_formula_sum "Si O2"
_cell_formula_units_Z 48
_cell_length_a 18.123935
_cell_length_b 8.647609
_cell_length_c 14.289158
_cell_angle_alpha 90.000000
_cell_angle_beta 108.854639
_cell_angle_gamma 90.000000
_cell_volume 2119.351874
_symmetry_space_group_name_H-M "C 2/C"
_symmetry_group_IT_number 15
_symmetry_cell_setting 'monoclinic'
loop_
_space_group_symop_operation_xyz
x,y,z
-x,y,1/2-z
-x,-y,-z
x,-y,1/2+z
1/2+x,1/2+y,z
1/2-x,1/2+y,1/2-z
1/2-x,1/2-y,-z
1/2+x,1/2-y,1/2+z
loop_
_atom_site_type_symbol
_atom_site_label
_atom_site_fract_x
_atom_site_fract_y
_atom_site_fract_z
Si Si1 0.791790 0.829928 0.737799
Si Si2 0.219905 0.009630 0.946254
Si Si3 0.851494 0.258937 0.688842
Si Si4 0.427997 0.466214 0.350734
Si Si5 0.862498 0.577485 0.631032
Si Si6 0.929013 0.836902 0.551182
O O1 0.719390 0.773563 0.767607
O O2 0.833014 0.686477 0.702526
O O3 0.757813 0.950686 0.648416
O O4 0.854780 0.915834 0.831151
O O5 0.184145 0.182759 0.921162
O O6 0.156569 0.894491 0.961559
O O7 0.292248 0.997930 0.043759
O O8 0.916128 0.141587 0.755943
O O9 0.896991 0.420135 0.689989
O O10 0.440890 0.353235 0.445027
O O11 0.505064 0.568858 0.366295
O O12 0.926623 0.660004 0.589859
#
# Coordination Sequence:
#
# PCOD8137015 Si02
#       6
#     8   8   8   8   8   8
#     4  10  20  35  58  86 119 157 200 243 286 348
#     4  10  20  35  59  88 123 159 195 238 290 351
#     4  11  21  35  59  90 121 153 195 248 295 347
#     4  10  22  40  61  83 117 161 200 241 297 354
#     4  11  21  35  60  92 122 154 196 246 289 347
#     4  10  21  40  61  83 117 162 201 239 294 356
#
# _framework density 22.648434999999999
#
# number of rings (size 3 to 8) (size 9 to 14) (size 15 to 20)
#    0.000    1.667    0.000    7.500    0.000    6.000 
#    0.000    3.333    0.000    5.000    0.000    0.000 
#    0.000    0.000    0.000    0.000    0.000    0.000 
#
# Total GULP energy -297486.834634 kJ/mol
# GULP energy per Si atom -12395.284776 kJ/mol
# Density = 2.259689 g / cm^3
# Si number density = 22.648435 Si / 1000 Ang^3
#
#
#
# Elastic Constant Matrix: (Units=GPa)
#
#
# Indices 1 2 3 4 5 6 
#
# 1 51.4075 24.7236 21.5285 0.0000 13.1055 0.0000
# 2 24.7236 163.2200 47.0618 0.0000 4.7753 0.0000
# 3 21.5285 47.0618 80.9235 0.0000 14.2768 0.0000
# 4 0.0000 0.0000 0.0000 25.4043 0.0000 -2.7524
# 5 13.1055 4.7753 14.2768 0.0000 26.8501 0.0000
# 6 0.0000 0.0000 0.0000 -2.7524 0.0000 32.4156
#
#
#
# Elastic Compliance Matrix: (Units=1/GPa)
#
#
# Indices 1 2 3 4 5 6 
#
# 1 0.024532 -0.002457 -0.003379 0.000000 -0.009740 0.000000
# 2 -0.002457 0.007635 -0.004148 0.000000 0.002047 0.000000
# 3 -0.003379 -0.004148 0.016826 0.000000 -0.006559 0.000000
# 4 0.000000 0.000000 0.000000 0.039729 0.000000 0.003373
# 5 -0.009740 0.002047 -0.006559 0.000000 0.045122 0.000000
# 6 0.000000 0.000000 0.000000 0.003373 0.000000 0.031136
#
#
# Mechanical properties :
#
#
# Convention : Reuss Voigt Hill
#
# Bulk Modulus (GPa) = 34.45235 53.57542 44.01388
# Shear Modulus (GPa) = 25.69086 30.41648 28.05367
#
# Velocity S-wave (km/s) = 3.37164 3.66865 3.52328
# Velocity P-wave (km/s) = 5.51381 6.45383 6.00225
#
# Compressibility (1/GPa) = 0.02902560
#
# Stress axis : x y z
#
# Youngs Moduli (GPa) = 40.76262 130.97848 59.43286
#
# Poissons Ratio (x) = 0.32177 0.20084
# Poissons Ratio (y) = 0.10014 0.24650
# Poissons Ratio (z) = 0.13775 0.54325
#
# Static dielectric constant tensor:
#      x y z
#    x 3.772230 0.000000 0.003860 
#    y 0.000000 4.643230 0.000000 
#    z 0.003860 0.000000 4.275950 
# 
# 
# High freq. dielectric constant tensor:
#      x y z
#    x 1.862520 0.000000 0.002480 
#    y 0.000000 1.904260 0.000000 
#    z 0.002480 0.000000 1.897710 
# 
# From -- ./inp_files/166417.got.cif
#   From: 2010.06.25/outbox.cif.g09.slc.cpg/sg15_84_cif.got.tgz:166417.got - 2010.06.28 07:06:18.
