data_PCOD8137909
_publ_section_title
;
Structure prediction by ZEFSAII (Michael W. Deem and Ramdas Pophale) SiO2 
 PCOD8137909
Probable space group: C 2/C
;
_chemical_formula_sum "Si O2"
_cell_formula_units_Z 60
_cell_length_a 8.512324
_cell_length_b 28.358671
_cell_length_c 11.905891
_cell_angle_alpha 90.000000
_cell_angle_beta 95.998995
_cell_angle_gamma 90.000000
_cell_volume 2858.321471
_symmetry_space_group_name_H-M "C 2/C"
_symmetry_group_IT_number 15
_symmetry_cell_setting 'monoclinic'
loop_
_space_group_symop_operation_xyz
x,y,z
-x,y,1/2-z
-x,-y,-z
x,-y,1/2+z
1/2+x,1/2+y,z
1/2-x,1/2+y,1/2-z
1/2-x,1/2-y,-z
1/2+x,1/2-y,1/2+z
loop_
_atom_site_type_symbol
_atom_site_label
_atom_site_fract_x
_atom_site_fract_y
_atom_site_fract_z
Si Si1 0.951794 0.552206 0.121249
Si Si2 0.040628 0.817285 0.628661
Si Si3 0.059524 0.115898 0.572432
Si Si4 0.733531 0.360520 0.306067
Si Si5 0.500000 0.080292 0.750000
Si Si6 0.097909 0.660162 0.366831
Si Si7 0.702112 0.963315 0.453532
Si Si8 0.623153 0.222405 0.561120
O O1 0.890692 0.604945 0.113196
O O2 0.806020 0.520641 0.058758
O O3 0.000000 0.536705 0.250000
O O4 0.112961 0.550114 0.060847
O O5 0.225575 0.822617 0.630445
O O6 0.004073 0.761167 0.606761
O O7 0.000000 0.833820 0.750000
O O8 0.942608 0.850130 0.535747
O O9 0.174046 0.139377 0.673247
O O10 0.127195 0.063656 0.540746
O O11 0.886791 0.113669 0.616512
O O12 0.774242 0.306734 0.339959
O O13 0.896251 0.388675 0.327331
O O14 0.392034 0.048779 0.665074
O O15 0.025843 0.686690 0.471393
O O16 0.000000 0.674563 0.250000
O O17 0.750000 0.250000 0.500000
#
# Coordination Sequence:
#
# PCOD8137909 Si02
#       8
#     8   8   8   8   4   8   8   8
#     4  10  21  39  65  94 130 167 217 260 312 387
#     4  11  25  42  60  90 135 169 216 272 326 396
#     4  10  22  40  65  93 130 168 209 276 334 374
#     4  10  20  39  64  92 125 166 214 271 325 379
#     4  10  20  36  66  90 124 160 214 262 312 378
#     4  10  22  40  66  89 125 175 215 260 323 385
#     4  10  21  38  65  96 124 167 215 260 320 385
#     4  10  20  40  60  88 124 172 218 263 328 380
#
# _framework density 20.991339
#
# number of rings (size 3 to 8) (size 9 to 14) (size 15 to 20)
#    0.000    1.867    3.333    0.800    4.667    2.133 
#    0.000    2.000    5.867    0.000    0.000    0.000 
#    0.000    0.000    0.000    0.000    0.000    0.000 
#
# Total GULP energy -371696.068575 kJ/mol
# GULP energy per Si atom -12389.868953 kJ/mol
# Density = 2.094356 g / cm^3
# Si number density = 20.991339 Si / 1000 Ang^3
#
#
#
# Elastic Constant Matrix: (Units=GPa)
#
#
# Indices 1 2 3 4 5 6 
#
# 1 63.8687 41.3689 24.3398 0.0000 -4.0412 0.0000
# 2 41.3689 116.9541 47.6525 0.0000 2.3856 0.0000
# 3 24.3398 47.6525 122.0103 0.0000 -7.0396 0.0000
# 4 0.0000 0.0000 0.0000 39.8708 0.0000 -0.1311
# 5 -4.0412 2.3856 -7.0396 0.0000 29.6678 0.0000
# 6 0.0000 0.0000 0.0000 -0.1311 0.0000 31.0234
#
#
#
# Elastic Compliance Matrix: (Units=1/GPa)
#
#
# Indices 1 2 3 4 5 6 
#
# 1 0.020811 -0.006904 -0.001277 0.000000 0.003087 0.000000
# 2 -0.006904 0.012553 -0.003688 0.000000 -0.002825 0.000000
# 3 -0.001277 -0.003688 0.010036 0.000000 0.002504 0.000000
# 4 0.000000 0.000000 0.000000 0.025081 0.000000 0.000106
# 5 0.003087 -0.002825 0.002504 0.000000 0.034948 0.000000
# 6 0.000000 0.000000 0.000000 0.000106 0.000000 0.032234
#
#
# Mechanical properties :
#
#
# Convention : Reuss Voigt Hill
#
# Bulk Modulus (GPa) = 50.86242 58.83949 54.85096
# Shear Modulus (GPa) = 30.12855 32.74387 31.43621
#
# Velocity S-wave (km/s) = 3.79263 3.95381 3.87406
# Velocity P-wave (km/s) = 6.59253 6.99533 6.79692
#
# Compressibility (1/GPa) = 0.01966088
#
# Stress axis : x y z
#
# Youngs Moduli (GPa) = 48.05191 79.66340 99.64324
#
# Poissons Ratio (x) = 0.54998 0.12725
# Poissons Ratio (y) = 0.33174 0.36752
# Poissons Ratio (z) = 0.06137 0.29383
#
# Static dielectric constant tensor:
#      x y z
#    x 4.993630 0.000000 -2.642650 
#    y 0.000000 5.450770 0.000000 
#    z -2.642650 0.000000 8.866490 
# 
# 
# High freq. dielectric constant tensor:
#      x y z
#    x 1.789640 0.000000 -0.007530 
#    y 0.000000 1.832690 0.000000 
#    z -0.007530 0.000000 1.839440 
# 
# From -- ./inp_files/82247.got.cif
#   From: 2010.06.25/outbox.cif.g09.slc.cpg/sg15_42_cif.got.tgz:82247.got - 2010.06.28 07:06:18.
