data_PCOD8137039
_publ_section_title
;
Structure prediction by ZEFSAII (Michael W. Deem and Ramdas Pophale) SiO2 
 PCOD8137039
Probable space group: C 2/C
;
_chemical_formula_sum "Si O2"
_cell_formula_units_Z 56
_cell_length_a 19.765807
_cell_length_b 9.297385
_cell_length_c 15.877916
_cell_angle_alpha 90.000000
_cell_angle_beta 118.159152
_cell_angle_gamma 90.000000
_cell_volume 2572.528608
_symmetry_space_group_name_H-M "C 2/C"
_symmetry_group_IT_number 15
_symmetry_cell_setting 'monoclinic'
loop_
_space_group_symop_operation_xyz
x,y,z
-x,y,1/2-z
-x,-y,-z
x,-y,1/2+z
1/2+x,1/2+y,z
1/2-x,1/2+y,1/2-z
1/2-x,1/2-y,-z
1/2+x,1/2-y,1/2+z
loop_
_atom_site_type_symbol
_atom_site_label
_atom_site_fract_x
_atom_site_fract_y
_atom_site_fract_z
Si Si1 0.708456 0.967301 0.061998
Si Si2 0.842744 0.174237 0.101328
Si Si3 0.500000 0.918201 0.750000
Si Si4 0.500000 0.563024 0.250000
Si Si5 0.333177 0.991730 0.139387
Si Si6 0.214042 0.741767 0.287421
Si Si7 0.449765 0.315705 0.330703
Si Si8 0.146630 0.747363 0.078948
O O1 0.789505 0.051342 0.107872
O O2 0.641890 0.076496 0.055201
O O3 0.717030 0.830142 0.128581
O O4 0.684857 0.914403 0.955255
O O5 0.927548 0.163512 0.189329
O O6 0.805682 0.328044 0.106228
O O7 0.843326 0.160770 0.999802
O O8 0.575663 0.016107 0.789648
O O9 0.494936 0.814921 0.664556
O O10 0.487037 0.467040 0.326454
O O11 0.284751 0.071394 0.185337
O O12 0.130296 0.798381 0.269254
O O13 0.218213 0.761239 0.188173
O O14 0.431454 0.301875 0.420094
#
# Coordination Sequence:
#
# PCOD8137039 Si02
#       8
#     8   8   4   4   8   8   8   8
#     4  11  21  37  59  86 118 153 200 238 292 356
#     4  11  22  36  58  89 117 153 193 245 298 345
#     4   9  17  36  60  80 108 154 194 228 298 346
#     4  11  19  38  66  82 120 160 206 236 288 374
#     4  10  20  35  59  84 112 153 193 238 289 355
#     4   9  19  39  59  80 115 154 199 234 289 350
#     4   8  18  37  59  81 111 159 188 244 289 340
#     4   9  20  36  56  83 121 147 186 250 297 334
#
# _framework density 21.768466
#
# number of rings (size 3 to 8) (size 9 to 14) (size 15 to 20)
#    0.857    1.429    1.429    2.571    0.000    2.857 
#    0.000    2.857    3.143    0.000    0.000    0.000 
#    0.000    0.000    0.000    0.000    0.000    0.000 
#
# Total GULP energy -346885.762988 kJ/mol
# GULP energy per Si atom -12388.777250 kJ/mol
# Density = 2.171892 g / cm^3
# Si number density = 21.768466 Si / 1000 Ang^3
#
#
#
# Elastic Constant Matrix: (Units=GPa)
#
#
# Indices 1 2 3 4 5 6 
#
# 1 66.6405 18.3054 15.2831 0.0000 -14.9720 0.0000
# 2 18.3054 62.7477 21.3856 0.0000 -14.4076 0.0000
# 3 15.2831 21.3856 88.6636 0.0000 -8.4052 0.0000
# 4 0.0000 0.0000 0.0000 25.7172 0.0000 0.6858
# 5 -14.9720 -14.4076 -8.4052 0.0000 33.5271 0.0000
# 6 0.0000 0.0000 0.0000 0.6858 0.0000 27.3612
#
#
#
# Elastic Compliance Matrix: (Units=1/GPa)
#
#
# Indices 1 2 3 4 5 6 
#
# 1 0.017633 -0.003168 -0.001698 0.000000 0.006087 0.000000
# 2 -0.003168 0.019470 -0.003576 0.000000 0.006056 0.000000
# 3 -0.001698 -0.003576 0.012514 0.000000 0.000842 0.000000
# 4 0.000000 0.000000 0.000000 0.038910 0.000000 -0.000975
# 5 0.006087 0.006056 0.000842 0.000000 0.035358 0.000000
# 6 0.000000 0.000000 0.000000 -0.000975 0.000000 0.036573
#
#
# Mechanical properties :
#
#
# Convention : Reuss Voigt Hill
#
# Bulk Modulus (GPa) = 30.55022 36.44443 33.49732
# Shear Modulus (GPa) = 26.55991 28.19294 27.37643
#
# Velocity S-wave (km/s) = 3.49680 3.60269 3.55014
# Velocity P-wave (km/s) = 5.51072 5.83815 5.67680
#
# Compressibility (1/GPa) = 0.03273299
#
# Stress axis : x y z
#
# Youngs Moduli (GPa) = 56.71147 51.36046 79.91237
#
# Poissons Ratio (x) = 0.16269 0.13572
# Poissons Ratio (y) = 0.17964 0.28578
# Poissons Ratio (z) = 0.09632 0.18367
#
# Static dielectric constant tensor:
#      x y z
#    x 3.700790 0.000000 -0.129660 
#    y 0.000000 3.622020 0.000000 
#    z -0.129660 0.000000 3.749350 
# 
# 
# High freq. dielectric constant tensor:
#      x y z
#    x 1.837070 0.000000 -0.011070 
#    y 0.000000 1.840670 0.000000 
#    z -0.011070 0.000000 1.841150 
# 
# From -- ./inp_files/218353.got.cif
#   From: 2010.06.25/outbox.cif.g09.slc.cpg/sg15_110_cif.got.tgz:218353.got - 2010.06.28 07:06:18.
