data_PCOD8137050
_publ_section_title
;
Structure prediction by ZEFSAII (Michael W. Deem and Ramdas Pophale) SiO2 
 PCOD8137050
Probable space group: C 2/C
;
_chemical_formula_sum "Si O2"
_cell_formula_units_Z 48
_cell_length_a 13.819002
_cell_length_b 22.890946
_cell_length_c 10.611024
_cell_angle_alpha 90.000000
_cell_angle_beta 41.895841
_cell_angle_gamma 90.000000
_cell_volume 2241.455732
_symmetry_space_group_name_H-M "C 2/C"
_symmetry_group_IT_number 15
_symmetry_cell_setting 'monoclinic'
loop_
_space_group_symop_operation_xyz
x,y,z
-x,y,1/2-z
-x,-y,-z
x,-y,1/2+z
1/2+x,1/2+y,z
1/2-x,1/2+y,1/2-z
1/2-x,1/2-y,-z
1/2+x,1/2-y,1/2+z
loop_
_atom_site_type_symbol
_atom_site_label
_atom_site_fract_x
_atom_site_fract_y
_atom_site_fract_z
Si Si1 0.780368 0.509045 0.677735
Si Si2 0.950909 0.428737 0.664524
Si Si3 0.669062 0.183631 0.311333
Si Si4 0.510297 0.709330 0.589569
Si Si5 0.282962 0.401107 0.899705
Si Si6 0.085109 0.897938 0.466443
O O1 0.805943 0.463415 0.766548
O O2 0.781248 0.467167 0.551837
O O3 0.631374 0.543796 0.845556
O O4 0.911262 0.556212 0.557341
O O5 0.909564 0.360803 0.707984
O O6 0.000000 0.451266 0.750000
O O7 0.560220 0.238098 0.422640
O O8 0.685106 0.150303 0.431164
O O9 0.822036 0.205067 0.109371
O O10 0.500000 0.717703 0.750000
O O11 0.419150 0.652989 0.633437
O O12 0.430231 0.405969 0.678206
O O13 0.302370 0.384994 0.027734
#
# Coordination Sequence:
#
# PCOD8137050 Si02
#       6
#     8   8   8   8   8   8
#     4  10  20  35  59  87 119 160 199 235 303 355
#     4  10  21  35  57  85 121 155 195 247 295 352
#     4  10  23  40  62  85 121 157 199 253 301 349
#     4  11  24  40  62  89 118 157 205 249 302 357
#     4   9  20  41  58  90 123 156 195 252 296 354
#     4  10  21  37  62  87 124 156 201 242 298 360
#
# _framework density 21.414655
#
# number of rings (size 3 to 8) (size 9 to 14) (size 15 to 20)
#    0.000    2.000    0.000    2.500    4.667    0.667 
#    6.000    0.000    0.000    0.000    0.000    0.000 
#    0.000    0.000    0.000    0.000    0.000    0.000 
#
# Total GULP energy -297404.302580 kJ/mol
# GULP energy per Si atom -12391.845941 kJ/mol
# Density = 2.136591 g / cm^3
# Si number density = 21.414655 Si / 1000 Ang^3
#
#
#
# Elastic Constant Matrix: (Units=GPa)
#
#
# Indices 1 2 3 4 5 6 
#
# 1 111.1200 42.0233 12.1554 0.0000 2.1069 0.0000
# 2 42.0233 129.4553 31.5911 0.0000 -15.4817 0.0000
# 3 12.1554 31.5911 41.4830 0.0000 -7.7112 0.0000
# 4 0.0000 0.0000 0.0000 25.8806 0.0000 -13.5167
# 5 2.1069 -15.4817 -7.7112 0.0000 26.0558 0.0000
# 6 0.0000 0.0000 0.0000 -13.5167 0.0000 36.1920
#
#
#
# Elastic Compliance Matrix: (Units=1/GPa)
#
#
# Indices 1 2 3 4 5 6 
#
# 1 0.010516 -0.003566 -0.000971 0.000000 -0.003257 0.000000
# 2 -0.003566 0.011047 -0.006449 0.000000 0.004944 0.000000
# 3 -0.000971 -0.006449 0.030270 0.000000 0.005205 0.000000
# 4 0.000000 0.000000 0.000000 0.048002 0.000000 0.017928
# 5 -0.003257 0.004944 0.005205 0.000000 0.043120 0.000000
# 6 0.000000 0.000000 0.000000 0.017928 0.000000 0.034326
#
#
# Mechanical properties :
#
#
# Convention : Reuss Voigt Hill
#
# Bulk Modulus (GPa) = 33.48915 50.39978 41.94446
# Shear Modulus (GPa) = 23.89979 30.71157 27.30568
#
# Velocity S-wave (km/s) = 3.34436 3.79111 3.57472
# Velocity P-wave (km/s) = 5.53040 6.53832 6.05537
#
# Compressibility (1/GPa) = 0.02986042
#
# Stress axis : x y z
#
# Youngs Moduli (GPa) = 95.09426 90.51983 33.03647
#
# Poissons Ratio (x) = 0.32281 0.03208
# Poissons Ratio (y) = 0.33912 0.21305
# Poissons Ratio (z) = 0.09233 0.58377
#
# Static dielectric constant tensor:
#      x y z
#    x 4.238090 0.000000 -0.278340 
#    y 0.000000 3.985320 0.000000 
#    z -0.278340 0.000000 3.619290 
# 
# 
# High freq. dielectric constant tensor:
#      x y z
#    x 1.855600 0.000000 -0.013190 
#    y 0.000000 1.845220 0.000000 
#    z -0.013190 0.000000 1.811950 
# 
# From -- ./inp_files/99957.got.cif
#   From: 2010.06.25/outbox.cif.g09.slc.cpg/sg15_50_cif.got.tgz:99957.got - 2010.06.28 07:06:18.
