data_PCOD8137699
_publ_section_title
;
Structure prediction by ZEFSAII (Michael W. Deem and Ramdas Pophale) SiO2 
 PCOD8137699
Probable space group: C 2/C
;
_chemical_formula_sum "Si O2"
_cell_formula_units_Z 64
_cell_length_a 26.509632
_cell_length_b 9.918595
_cell_length_c 22.493473
_cell_angle_alpha 90.000000
_cell_angle_beta 146.163112
_cell_angle_gamma 90.000000
_cell_volume 3293.315888
_symmetry_space_group_name_H-M "C 2/C"
_symmetry_group_IT_number 15
_symmetry_cell_setting 'monoclinic'
loop_
_space_group_symop_operation_xyz
x,y,z
-x,y,1/2-z
-x,-y,-z
x,-y,1/2+z
1/2+x,1/2+y,z
1/2-x,1/2+y,1/2-z
1/2-x,1/2-y,-z
1/2+x,1/2-y,1/2+z
loop_
_atom_site_type_symbol
_atom_site_label
_atom_site_fract_x
_atom_site_fract_y
_atom_site_fract_z
Si Si1 0.795335 0.112164 0.615823
Si Si2 0.097528 0.939661 0.588172
Si Si3 0.749473 0.425987 0.162111
Si Si4 0.467255 0.174184 0.030923
Si Si5 0.719762 0.625750 0.308330
Si Si6 0.004190 0.782257 0.187693
Si Si7 0.309427 0.379053 0.994042
Si Si8 0.872484 0.556240 0.372664
O O1 0.901556 0.140890 0.731480
O O2 0.730546 0.237141 0.569823
O O3 0.776976 0.086140 0.528654
O O4 0.764606 0.982951 0.624261
O O5 0.093051 0.805681 0.542758
O O6 0.124804 0.901866 0.682516
O O7 0.164353 0.049220 0.623182
O O8 0.000000 0.000000 0.500000
O O9 0.766786 0.275822 0.154154
O O10 0.735317 0.506418 0.088333
O O11 0.841641 0.469735 0.285388
O O12 0.492564 0.168921 0.125695
O O13 0.558952 0.173271 0.081329
O O14 0.414763 0.038118 0.964794
O O15 0.788007 0.626213 0.319679
O O16 0.000000 0.716757 0.250000
O O17 0.918935 0.884197 0.098326
#
# Coordination Sequence:
#
# PCOD8137699 Si02
#       8
#     8   8   8   8   8   8   8   8
#     4  10  22  39  62  89 122 164 209 260 311 376
#     4  11  22  35  59  84 116 162 203 238 306 370
#     4  11  22  38  58  88 121 154 200 253 303 367
#     4  11  19  38  58  84 117 162 198 255 305 357
#     4  11  23  37  56  88 122 154 201 255 307 364
#     4  10  20  36  61  93 119 156 214 262 301 371
#     4  10  21  39  64  88 119 165 212 256 314 369
#     4  10  23  36  56  84 122 158 200 251 303 369
#
# _framework density 19.433301
#
# number of rings (size 3 to 8) (size 9 to 14) (size 15 to 20)
#    0.000    1.500    2.500    3.000    0.000    2.500 
#    0.000    0.000    0.000    0.000    0.000    0.000 
#    0.000    0.000    0.000    0.000    0.000    0.000 
#
# Total GULP energy -396684.752715 kJ/mol
# GULP energy per Si atom -12396.398522 kJ/mol
# Density = 1.938907 g / cm^3
# Si number density = 19.433301 Si / 1000 Ang^3
#
#
#
# Elastic Constant Matrix: (Units=GPa)
#
#
# Indices 1 2 3 4 5 6 
#
# 1 52.4045 34.0765 42.6960 0.0000 -9.8659 0.0000
# 2 34.0765 106.8683 54.5812 0.0000 -17.4227 0.0000
# 3 42.6960 54.5812 106.4820 0.0000 -14.9359 0.0000
# 4 0.0000 0.0000 0.0000 25.8692 0.0000 -7.0812
# 5 -9.8659 -17.4227 -14.9359 0.0000 43.9585 0.0000
# 6 0.0000 0.0000 0.0000 -7.0812 0.0000 31.7574
#
#
#
# Elastic Compliance Matrix: (Units=1/GPa)
#
#
# Indices 1 2 3 4 5 6 
#
# 1 0.030064 -0.004429 -0.009539 0.000000 0.001751 0.000000
# 2 -0.004429 0.013705 -0.004858 0.000000 0.002787 0.000000
# 3 -0.009539 -0.004858 0.015893 0.000000 0.001334 0.000000
# 4 0.000000 0.000000 0.000000 0.041169 0.000000 0.009180
# 5 0.001751 0.002787 0.001334 0.000000 0.024700 0.000000
# 6 0.000000 0.000000 0.000000 0.009180 0.000000 0.033536
#
#
# Mechanical properties :
#
#
# Convention : Reuss Voigt Hill
#
# Bulk Modulus (GPa) = 45.43349 58.71800 52.07575
# Shear Modulus (GPa) = 24.50324 29.27710 26.89017
#
# Velocity S-wave (km/s) = 3.55475 3.88563 3.72387
# Velocity P-wave (km/s) = 6.34652 7.10011 6.73387
#
# Compressibility (1/GPa) = 0.02201019
#
# Stress axis : x y z
#
# Youngs Moduli (GPa) = 33.26289 72.96483 62.91943
#
# Poissons Ratio (x) = 0.32316 0.60017
# Poissons Ratio (y) = 0.14732 0.30568
# Poissons Ratio (z) = 0.31728 0.35448
#
# Static dielectric constant tensor:
#      x y z
#    x 3.553340 0.000000 0.020020 
#    y 0.000000 3.429490 0.000000 
#    z 0.020020 0.000000 3.867150 
# 
# 
# High freq. dielectric constant tensor:
#      x y z
#    x 1.757220 0.000000 0.001790 
#    y 0.000000 1.729930 0.000000 
#    z 0.001790 0.000000 1.776520 
# 
# From -- ./inp_files/284458.got.cif
#   From: 2010.06.25/outbox.cif.g09.slc.cpg/sg15_143_cif.got.tgz:284458.got - 2010.06.28 07:06:18.
