data_PCOD8137769
_publ_section_title
;
Structure prediction by ZEFSAII (Michael W. Deem and Ramdas Pophale) SiO2 
 PCOD8137769
Probable space group: C 2/C
;
_chemical_formula_sum "Si O2"
_cell_formula_units_Z 44
_cell_length_a 16.938737
_cell_length_b 15.577474
_cell_length_c 8.979953
_cell_angle_alpha 90.000000
_cell_angle_beta 71.216569
_cell_angle_gamma 90.000000
_cell_volume 2243.282445
_symmetry_space_group_name_H-M "C 2/C"
_symmetry_group_IT_number 15
_symmetry_cell_setting 'monoclinic'
loop_
_space_group_symop_operation_xyz
x,y,z
-x,y,1/2-z
-x,-y,-z
x,-y,1/2+z
1/2+x,1/2+y,z
1/2-x,1/2+y,1/2-z
1/2-x,1/2-y,-z
1/2+x,1/2-y,1/2+z
loop_
_atom_site_type_symbol
_atom_site_label
_atom_site_fract_x
_atom_site_fract_y
_atom_site_fract_z
Si Si1 0.161825 0.430358 0.328282
Si Si2 0.588577 0.394118 0.944969
Si Si3 0.500000 0.500266 0.750000
Si Si4 0.937968 0.587598 0.151497
Si Si5 0.536934 0.787440 0.385571
Si Si6 0.726432 0.071553 0.105803
O O1 0.083466 0.495232 0.414150
O O2 0.123428 0.338680 0.308269
O O3 0.215911 0.470505 0.159795
O O4 0.223397 0.421078 0.430219
O O5 0.557671 0.441242 0.111560
O O6 0.560273 0.441865 0.812615
O O7 0.553777 0.297823 0.969577
O O8 0.688335 0.389939 0.884349
O O9 0.850773 0.624168 0.273863
O O10 0.000000 0.572053 0.250000
O O11 0.970048 0.655944 0.014234
O O12 0.500000 0.760867 0.250000
#
# Coordination Sequence:
#
# PCOD8137769 Si02
#       6
#     8   8   4   8   8   8
#     4  10  20  36  62  91 132 162 189 255 309 375
#     4  11  24  44  67  90 120 164 218 257 303 368
#     4  10  24  48  66  80 122 178 208 252 314 366
#     4  10  21  38  61  94 133 166 193 241 323 378
#     4  12  22  38  64  95 121 162 214 252 306 368
#     4  10  22  37  61  94 124 167 203 249 309 375
#
# _framework density 19.614114000000001
#
# number of rings (size 3 to 8) (size 9 to 14) (size 15 to 20)
#    1.091    0.364    2.727    3.273    1.273    0.727 
#    0.000    4.545    0.000    0.000    0.000    0.000 
#    0.000    0.000    0.000    0.000    0.000    0.000 
#
# Total GULP energy -272751.702732 kJ/mol
# GULP energy per Si atom -12397.804670 kJ/mol
# Density = 1.956947 g / cm^3
# Si number density = 19.614114 Si / 1000 Ang^3
#
#
#
# Elastic Constant Matrix: (Units=GPa)
#
#
# Indices 1 2 3 4 5 6 
#
# 1 134.1707 34.6922 35.4197 0.0000 9.4186 0.0000
# 2 34.6922 103.6960 20.8496 0.0000 1.6170 0.0000
# 3 35.4197 20.8496 65.4669 0.0000 12.1892 0.0000
# 4 0.0000 0.0000 0.0000 16.0212 0.0000 3.7720
# 5 9.4186 1.6170 12.1892 0.0000 25.3222 0.0000
# 6 0.0000 0.0000 0.0000 3.7720 0.0000 20.9510
#
#
#
# Elastic Compliance Matrix: (Units=1/GPa)
#
#
# Indices 1 2 3 4 5 6 
#
# 1 0.009186 -0.002247 -0.004003 0.000000 -0.001346 0.000000
# 2 -0.002247 0.010877 -0.002498 0.000000 0.001344 0.000000
# 3 -0.004003 -0.002498 0.019695 0.000000 -0.007832 0.000000
# 4 0.000000 0.000000 0.000000 0.065180 0.000000 -0.011735
# 5 -0.001346 0.001344 -0.007832 0.000000 0.043676 0.000000
# 6 0.000000 0.000000 0.000000 -0.011735 0.000000 0.049843
#
#
# Mechanical properties :
#
#
# Convention : Reuss Voigt Hill
#
# Bulk Modulus (GPa) = 44.92550 53.91740 49.42145
# Shear Modulus (GPa) = 22.38402 26.61703 24.50053
#
# Velocity S-wave (km/s) = 3.38186 3.68779 3.53813
# Velocity P-wave (km/s) = 6.18091 6.75883 6.47632
#
# Compressibility (1/GPa) = 0.02225907
#
# Stress axis : x y z
#
# Youngs Moduli (GPa) = 108.86618 91.93906 50.77502
#
# Poissons Ratio (x) = 0.20660 0.20327
# Poissons Ratio (y) = 0.24464 0.12686
# Poissons Ratio (z) = 0.43584 0.22970
#
# Static dielectric constant tensor:
#      x y z
#    x 3.532030 0.000000 0.075130 
#    y 0.000000 3.365200 0.000000 
#    z 0.075130 0.000000 3.501150 
# 
# 
# High freq. dielectric constant tensor:
#      x y z
#    x 1.771400 0.000000 0.013710 
#    y 0.000000 1.743580 0.000000 
#    z 0.013710 0.000000 1.761420 
# 
# From -- ./inp_files/47021.got.cif
#   From: 2010.06.25/outbox.cif.g09.slc.cpg/sg15_24_cif.got.tgz:47021.got - 2010.06.28 07:06:18.
