data_PCOD8137540
_publ_section_title
;
Structure prediction by ZEFSAII (Michael W. Deem and Ramdas Pophale) SiO2 
 PCOD8137540
Probable space group: C 2/C
;
_chemical_formula_sum "Si O2"
_cell_formula_units_Z 56
_cell_length_a 21.449902
_cell_length_b 13.848935
_cell_length_c 18.671937
_cell_angle_alpha 90.000000
_cell_angle_beta 150.521610
_cell_angle_gamma 90.000000
_cell_volume 2729.482044
_symmetry_space_group_name_H-M "C 2/C"
_symmetry_group_IT_number 15
_symmetry_cell_setting 'monoclinic'
loop_
_space_group_symop_operation_xyz
x,y,z
-x,y,1/2-z
-x,-y,-z
x,-y,1/2+z
1/2+x,1/2+y,z
1/2-x,1/2+y,1/2-z
1/2-x,1/2-y,-z
1/2+x,1/2-y,1/2+z
loop_
_atom_site_type_symbol
_atom_site_label
_atom_site_fract_x
_atom_site_fract_y
_atom_site_fract_z
Si Si1 0.636343 0.144312 0.886327
Si Si2 0.250010 0.750005 0.122763
Si Si3 0.642245 0.322080 0.500494
Si Si4 0.642674 0.511128 0.892668
Si Si5 0.357499 0.677814 0.715788
Si Si6 0.144806 0.105128 0.630735
Si Si7 0.855230 0.105173 0.341204
O O1 0.500000 0.090196 0.750000
O O2 0.638937 0.211760 0.818197
O O3 0.639000 0.211721 0.959722
O O4 0.754968 0.072795 0.004905
O O5 0.211035 0.840837 0.131846
O O6 0.288931 0.659227 0.209812
O O7 0.662913 0.425145 0.483983
O O8 0.499838 0.283692 0.339459
O O9 0.749808 0.249881 0.578537
O O10 0.657502 0.331006 0.600567
O O11 0.500000 0.467483 0.750000
O O12 0.662983 0.574685 0.841820
O O13 0.342308 0.668943 0.785418
O O14 0.999998 0.089487 0.463278
O O15 0.208016 0.999967 0.707980
#
# Coordination Sequence:
#
# PCOD8137540 Si02
#       7
#     8   8   8   8   8   8   8
#     4  11  25  40  61  91 121 160 203 256 314 362
#     4  11  22  40  62  85 126 160 200 253 310 366
#     4  10  20  36  59  89 122 161 206 251 307 361
#     4  10  22  40  63  90 122 163 209 251 299 371
#     4  10  20  36  59  89 122 161 206 251 307 361
#     4  10  20  36  60  87 119 162 207 247 296 364
#     4  10  20  36  60  87 119 162 207 247 296 364
#
# _framework density 20.516712999999999
#
# number of rings (size 3 to 8) (size 9 to 14) (size 15 to 20)
#    0.000    1.714    1.429    3.000    0.000    6.857 
#    0.000    0.000    0.000    4.286    0.000    0.000 
#    0.000    0.000    0.000    0.000    0.000    0.000 
#
# Total GULP energy -347097.945881 kJ/mol
# GULP energy per Si atom -12396.355210 kJ/mol
# Density = 2.047002 g / cm^3
# Si number density = 20.516713 Si / 1000 Ang^3
#
#
#
# Elastic Constant Matrix: (Units=GPa)
#
#
# Indices 1 2 3 4 5 6 
#
# 1 99.8593 48.6933 70.0175 0.0000 -15.7033 0.0000
# 2 48.6933 119.0411 64.4221 0.0000 14.2409 0.0000
# 3 70.0175 64.4221 104.0047 0.0000 19.6057 0.0000
# 4 0.0000 0.0000 0.0000 34.9810 0.0000 1.6563
# 5 -15.7033 14.2409 19.6057 0.0000 38.0589 0.0000
# 6 0.0000 0.0000 0.0000 1.6563 0.0000 33.1472
#
#
#
# Elastic Compliance Matrix: (Units=1/GPa)
#
#
# Indices 1 2 3 4 5 6 
#
# 1 0.036000 -0.003229 -0.027981 0.000000 0.030476 0.000000
# 2 -0.003229 0.012946 -0.005184 0.000000 -0.003506 0.000000
# 3 -0.027981 -0.005184 0.037074 0.000000 -0.028703 0.000000
# 4 0.000000 0.000000 0.000000 0.028655 0.000000 -0.001432
# 5 0.030476 -0.003506 -0.028703 0.000000 0.054948 0.000000
# 6 0.000000 0.000000 0.000000 -0.001432 0.000000 0.030240
#
#
# Mechanical properties :
#
#
# Convention : Reuss Voigt Hill
#
# Bulk Modulus (GPa) = 75.57295 76.57454 76.07374
# Shear Modulus (GPa) = 18.04647 30.55558 24.30102
#
# Velocity S-wave (km/s) = 2.96902 3.86333 3.44532
# Velocity P-wave (km/s) = 6.97626 7.56997 7.27917
#
# Compressibility (1/GPa) = 0.01323225
#
# Stress axis : x y z
#
# Youngs Moduli (GPa) = 27.77761 77.24147 26.97301
#
# Poissons Ratio (x) = 0.24943 0.75472
# Poissons Ratio (y) = 0.08970 0.13984
# Poissons Ratio (z) = 0.77724 0.40045
#
# Static dielectric constant tensor:
#      x y z
#    x 3.849270 0.000000 -0.138920 
#    y 0.000000 3.593340 0.000000 
#    z -0.138920 0.000000 3.694940 
# 
# 
# High freq. dielectric constant tensor:
#      x y z
#    x 1.815840 0.000000 -0.018700 
#    y 0.000000 1.793100 0.000000 
#    z -0.018700 0.000000 1.795090 
# 
# From -- ./inp_files/215774.got.cif
#   From: 2010.06.25/outbox.cif.g09.slc.cpg/sg15_108_cif.got.tgz:215774.got - 2010.06.28 07:06:18.
