data_PCOD8137301
_publ_section_title
;
Structure prediction by ZEFSAII (Michael W. Deem and Ramdas Pophale) SiO2 
 PCOD8137301
Probable space group: C 2/C
;
_chemical_formula_sum "Si O2"
_cell_formula_units_Z 60
_cell_length_a 10.152830
_cell_length_b 16.460108
_cell_length_c 19.325839
_cell_angle_alpha 90.000000
_cell_angle_beta 104.051420
_cell_angle_gamma 90.000000
_cell_volume 3133.032554
_symmetry_space_group_name_H-M "C 2/C"
_symmetry_group_IT_number 15
_symmetry_cell_setting 'monoclinic'
loop_
_space_group_symop_operation_xyz
x,y,z
-x,y,1/2-z
-x,-y,-z
x,-y,1/2+z
1/2+x,1/2+y,z
1/2-x,1/2+y,1/2-z
1/2-x,1/2-y,-z
1/2+x,1/2-y,1/2+z
loop_
_atom_site_type_symbol
_atom_site_label
_atom_site_fract_x
_atom_site_fract_y
_atom_site_fract_z
Si Si1 0.201868 0.774230 0.416364
Si Si2 0.125951 0.468610 0.807075
Si Si3 0.611511 0.746985 0.633053
Si Si4 0.412731 0.909567 0.431152
Si Si5 0.338158 0.134508 0.629432
Si Si6 0.749862 0.312545 0.716616
Si Si7 0.035628 0.416797 0.591205
Si Si8 0.500000 0.754132 0.250000
O O1 0.250000 0.750000 0.500000
O O2 0.281468 0.854608 0.400599
O O3 0.234986 0.708039 0.362336
O O4 0.040376 0.787884 0.394074
O O5 0.206918 0.544701 0.849799
O O6 0.215136 0.408886 0.770051
O O7 0.000000 0.508561 0.750000
O O8 0.063394 0.408319 0.856302
O O9 0.700080 0.684704 0.597082
O O10 0.656931 0.756995 0.719825
O O11 0.629499 0.836675 0.600941
O O12 0.554452 0.872819 0.419403
O O13 0.431816 0.919064 0.514649
O O14 0.380483 0.998462 0.394368
O O15 0.402843 0.187147 0.697065
O O16 0.591370 0.303769 0.713963
#
# Coordination Sequence:
#
# PCOD8137301 Si02
#       8
#     8   8   8   8   8   8   8   4
#     4  12  21  38  63  90 119 163 200 246 301 356
#     4  11  18  35  61  83 111 159 197 241 293 359
#     4  11  22  37  59  94 119 151 200 252 300 348
#     4  10  21  38  61  86 118 153 202 241 288 363
#     4  10  22  36  59  86 119 154 194 244 296 356
#     4  11  21  37  61  88 121 155 201 253 293 362
#     4  10  20  36  59  89 111 155 200 241 287 359
#     4  10  20  36  56  84 116 156 194 240 308 346
#
# _framework density 19.150776
#
# number of rings (size 3 to 8) (size 9 to 14) (size 15 to 20)
#    0.000    1.333    6.000    0.400    0.000    0.533 
#    0.000    2.667    0.000    8.000    0.000    0.000 
#    0.000    0.000    0.000    0.000    0.000    0.000 
#
# Total GULP energy -371680.882059 kJ/mol
# GULP energy per Si atom -12389.362735 kJ/mol
# Density = 1.910719 g / cm^3
# Si number density = 19.150776 Si / 1000 Ang^3
#
#
#
# Elastic Constant Matrix: (Units=GPa)
#
#
# Indices 1 2 3 4 5 6 
#
# 1 126.9095 64.7381 23.8154 0.0000 -1.0452 0.0000
# 2 64.7381 132.8746 10.3036 0.0000 -0.2143 0.0000
# 3 23.8154 10.3036 67.0099 0.0000 -0.4905 0.0000
# 4 0.0000 0.0000 0.0000 25.2866 0.0000 -0.8849
# 5 -1.0452 -0.2143 -0.4905 0.0000 18.7051 0.0000
# 6 0.0000 0.0000 0.0000 -0.8849 0.0000 35.8416
#
#
#
# Elastic Compliance Matrix: (Units=1/GPa)
#
#
# Indices 1 2 3 4 5 6 
#
# 1 0.011111 -0.005168 -0.003151 0.000000 0.000479 0.000000
# 2 -0.005168 0.010021 0.000295 0.000000 -0.000166 0.000000
# 3 -0.003151 0.000295 0.015999 0.000000 0.000247 0.000000
# 4 0.000000 0.000000 0.000000 0.039581 0.000000 0.000977
# 5 0.000479 -0.000166 0.000247 0.000000 0.053493 0.000000
# 6 0.000000 0.000000 0.000000 0.000977 0.000000 0.027925
#
#
# Mechanical properties :
#
#
# Convention : Reuss Voigt Hill
#
# Bulk Modulus (GPa) = 47.43195 58.27871 52.85533
# Shear Modulus (GPa) = 27.59286 31.16246 29.37766
#
# Velocity S-wave (km/s) = 3.79993 4.03825 3.92090
# Velocity P-wave (km/s) = 6.63883 7.22779 6.93956
#
# Compressibility (1/GPa) = 0.02108284
#
# Stress axis : x y z
#
# Youngs Moduli (GPa) = 89.99815 99.79137 62.50226
#
# Poissons Ratio (x) = 0.51577 0.19693
# Poissons Ratio (y) = 0.46515 -0.01843
# Poissons Ratio (z) = 0.28356 -0.02942
#
# Static dielectric constant tensor:
#      x y z
#    x 3.225130 0.000000 -0.093750 
#    y 0.000000 3.745560 0.000000 
#    z -0.093750 0.000000 3.564030 
# 
# 
# High freq. dielectric constant tensor:
#      x y z
#    x 1.722330 0.000000 -0.009540 
#    y 0.000000 1.750140 0.000000 
#    z -0.009540 0.000000 1.747110 
# 
# From -- ./inp_files/197914.got.cif
#   From: 2010.06.25/outbox.cif.g09.slc.cpg/sg15_99_cif.got.tgz:197914.got - 2010.06.28 07:06:18.
