data_PCOD8137533
_publ_section_title
;
Structure prediction by ZEFSAII (Michael W. Deem and Ramdas Pophale) SiO2 
 PCOD8137533
Probable space group: C 2/C
;
_chemical_formula_sum "Si O2"
_cell_formula_units_Z 40
_cell_length_a 14.303549
_cell_length_b 17.657820
_cell_length_c 8.574306
_cell_angle_alpha 90.000000
_cell_angle_beta 87.712627
_cell_angle_gamma 90.000000
_cell_volume 2163.882601
_symmetry_space_group_name_H-M "C 2/C"
_symmetry_group_IT_number 15
_symmetry_cell_setting 'monoclinic'
loop_
_space_group_symop_operation_xyz
x,y,z
-x,y,1/2-z
-x,-y,-z
x,-y,1/2+z
1/2+x,1/2+y,z
1/2-x,1/2+y,1/2-z
1/2-x,1/2-y,-z
1/2+x,1/2-y,1/2+z
loop_
_atom_site_type_symbol
_atom_site_label
_atom_site_fract_x
_atom_site_fract_y
_atom_site_fract_z
Si Si1 0.500000 0.283326 0.250000
Si Si2 0.504674 0.155613 0.002318
Si Si3 0.067161 0.962263 0.620587
Si Si4 0.131574 0.390066 0.235702
Si Si5 0.349071 0.596061 0.680879
Si Si6 0.500000 0.027649 0.250000
O O1 0.513218 0.232145 0.097871
O O2 0.591835 0.334074 0.258878
O O3 0.486907 0.080215 0.102057
O O4 0.415804 0.162160 0.893702
O O5 0.602112 0.145120 0.903879
O O6 0.135478 0.911593 0.508781
O O7 0.000000 0.917160 0.750000
O O8 0.125087 0.022565 0.718716
O O9 0.000000 0.000000 0.500000
O O10 0.241614 0.386230 0.213289
O O11 0.092227 0.475712 0.224699
#
# Coordination Sequence:
#
# PCOD8137533 Si02
#       6
#     4   8   8   8   8   4
#     4  11  22  42  54  76 125 164 190 226 283 344
#     4   9  21  39  57  81 119 157 187 233 288 349
#     4   9  18  38  54  86 113 148 191 231 291 328
#     4  10  20  36  59  89 110 142 202 240 289 327
#     4  11  22  35  63  87 117 148 190 248 280 345
#     4   9  18  36  60  84 115 146 186 248 297 324
#
# _framework density 18.485291
#
# number of rings (size 3 to 8) (size 9 to 14) (size 15 to 20)
#    0.000    2.400    3.000    2.400    5.600    1.600 
#    3.600    0.000    0.000    0.000    0.000    0.000 
#    0.000    0.000    0.000    0.000    0.000    0.000 
#
# Total GULP energy -247835.706009 kJ/mol
# GULP energy per Si atom -12391.785300 kJ/mol
# Density = 1.844322 g / cm^3
# Si number density = 18.485291 Si / 1000 Ang^3
#
#
#
# Elastic Constant Matrix: (Units=GPa)
#
#
# Indices 1 2 3 4 5 6 
#
# 1 157.6033 44.2754 59.5961 0.0000 -26.9500 0.0000
# 2 44.2754 92.0717 38.2799 0.0000 -2.3931 0.0000
# 3 59.5961 38.2799 125.7575 0.0000 -7.6356 0.0000
# 4 0.0000 0.0000 0.0000 17.8390 0.0000 0.0915
# 5 -26.9500 -2.3931 -7.6356 0.0000 19.9517 0.0000
# 6 0.0000 0.0000 0.0000 0.0915 0.0000 8.3713
#
#
#
# Elastic Compliance Matrix: (Units=1/GPa)
#
#
# Indices 1 2 3 4 5 6 
#
# 1 0.010754 -0.003484 -0.003255 0.000000 0.012863 0.000000
# 2 -0.003484 0.013563 -0.002728 0.000000 -0.004123 0.000000
# 3 -0.003255 -0.002728 0.010277 0.000000 -0.000791 0.000000
# 4 0.000000 0.000000 0.000000 0.056060 0.000000 -0.000613
# 5 0.012863 -0.004123 -0.000791 0.000000 0.066698 0.000000
# 6 0.000000 0.000000 0.000000 -0.000613 0.000000 0.119462
#
#
# Mechanical properties :
#
#
# Convention : Reuss Voigt Hill
#
# Bulk Modulus (GPa) = 63.85393 73.30393 68.57893
# Shear Modulus (GPa) = 16.61306 24.78449 20.69878
#
# Velocity S-wave (km/s) = 3.00111 3.66562 3.34989
# Velocity P-wave (km/s) = 6.82840 7.59323 7.22094
#
# Compressibility (1/GPa) = 0.01566074
#
# Stress axis : x y z
#
# Youngs Moduli (GPa) = 92.98824 73.72768 97.30793
#
# Poissons Ratio (x) = 0.25685 0.31673
# Poissons Ratio (y) = 0.32395 0.26546
# Poissons Ratio (z) = 0.30267 0.20113
#
# Static dielectric constant tensor:
#      x y z
#    x 3.250700 0.000000 -0.158920 
#    y 0.000000 3.097700 0.000000 
#    z -0.158920 0.000000 4.348340 
# 
# 
# High freq. dielectric constant tensor:
#      x y z
#    x 1.705810 0.000000 -0.002300 
#    y 0.000000 1.693720 0.000000 
#    z -0.002300 0.000000 1.744620 
# 
# From -- ./inp_files/38618.got.cif
#   From: 2010.06.25/outbox.cif.g09.slc.cpg/sg15_20_cif.got.tgz:38618.got - 2010.06.28 07:06:18.
