data_PCOD8137691
_publ_section_title
;
Structure prediction by ZEFSAII (Michael W. Deem and Ramdas Pophale) SiO2 
 PCOD8137691
Probable space group: C 2/C
;
_chemical_formula_sum "Si O2"
_cell_formula_units_Z 64
_cell_length_a 10.916991
_cell_length_b 18.659037
_cell_length_c 25.880310
_cell_angle_alpha 90.000000
_cell_angle_beta 35.653513
_cell_angle_gamma 90.000000
_cell_volume 3072.857327
_symmetry_space_group_name_H-M "C 2/C"
_symmetry_group_IT_number 15
_symmetry_cell_setting 'monoclinic'
loop_
_space_group_symop_operation_xyz
x,y,z
-x,y,1/2-z
-x,-y,-z
x,-y,1/2+z
1/2+x,1/2+y,z
1/2-x,1/2+y,1/2-z
1/2-x,1/2-y,-z
1/2+x,1/2-y,1/2+z
loop_
_atom_site_type_symbol
_atom_site_label
_atom_site_fract_x
_atom_site_fract_y
_atom_site_fract_z
Si Si1 0.790078 0.659929 0.884907
Si Si2 0.566173 0.225425 0.121746
Si Si3 0.859974 0.559288 0.075652
Si Si4 0.064769 0.570634 0.329247
Si Si5 0.996009 0.286842 0.977258
Si Si6 0.970991 0.995395 0.655860
Si Si7 0.324470 0.525692 0.523052
Si Si8 0.721549 0.644211 0.791078
O O1 0.701299 0.740098 0.920728
O O2 0.709097 0.631746 0.857006
O O3 0.038947 0.657123 0.806505
O O4 0.697978 0.611089 0.962256
O O5 0.506559 0.148713 0.166529
O O6 0.572692 0.209902 0.058677
O O7 0.392532 0.285598 0.191489
O O8 0.784231 0.251924 0.073955
O O9 0.872208 0.565848 0.132649
O O10 0.616693 0.539585 0.149830
O O11 0.942482 0.634482 0.023057
O O12 0.000000 0.500000 0.000000
O O13 0.259249 0.551259 0.225125
O O14 0.883857 0.512373 0.384276
O O15 0.116526 0.993818 0.555279
O O16 0.895808 0.076420 0.694650
O O17 0.500000 0.500000 0.500000
#
# Coordination Sequence:
#
# PCOD8137691 Si02
#       8
#     8   8   8   8   8   8   8   8
#     4  10  20  37  58  91 123 160 203 260 311 363
#     4   9  19  35  61  89 120 157 213 258 306 360
#     4  11  22  40  66  93 127 165 214 255 315 375
#     4  11  24  41  62  97 127 164 209 262 309 373
#     4   9  19  35  61  91 120 162 207 260 306 370
#     4  12  24  39  64  94 126 166 206 259 318 375
#     4  12  23  39  65  92 125 162 207 259 317 372
#     4  10  20  36  61  91 122 158 210 260 306 367
#
# _framework density 20.827521000000001
#
# number of rings (size 3 to 8) (size 9 to 14) (size 15 to 20)
#    0.000    1.500    3.750    1.875    5.250    0.500 
#    0.000    0.625    2.750    0.000    3.250    0.000 
#    0.000    0.000    0.000    0.000    0.000    0.000 
#
# Total GULP energy -396603.571746 kJ/mol
# GULP energy per Si atom -12393.861617 kJ/mol
# Density = 2.078012 g / cm^3
# Si number density = 20.827521 Si / 1000 Ang^3
#
#
#
# Elastic Constant Matrix: (Units=GPa)
#
#
# Indices 1 2 3 4 5 6 
#
# 1 54.6689 29.2032 20.7173 -0.0123 -26.1069 -0.0014
# 2 29.2032 176.0155 55.5532 0.0201 -22.1152 -0.0001
# 3 20.7173 55.5532 105.0634 0.0214 -31.5515 -0.0015
# 4 -0.0123 0.0201 0.0214 39.4772 0.0111 -9.1995
# 5 -26.1069 -22.1152 -31.5515 0.0111 29.5806 -0.0075
# 6 -0.0014 -0.0001 -0.0015 -9.1995 -0.0075 29.2054
#
#
#
# Elastic Compliance Matrix: (Units=1/GPa)
#
#
# Indices 1 2 3 4 5 6 
#
# 1 0.033587 -0.002979 0.004687 0.000003 0.032414 0.000011
# 2 -0.002979 0.007153 -0.003499 -0.000003 -0.001014 -0.000001
# 3 0.004687 -0.003499 0.016038 -0.000010 0.018627 0.000003
# 4 0.000003 -0.000003 -0.000010 0.027338 -0.000018 0.008611
# 5 0.032414 -0.001014 0.018627 -0.000018 0.081523 0.000018
# 6 0.000011 -0.000001 0.000003 0.008611 0.000018 0.036953
#
#
# Mechanical properties :
#
#
# Convention : Reuss Voigt Hill
#
# Bulk Modulus (GPa) = 18.79911 60.74390 39.77151
# Shear Modulus (GPa) = 22.33089 35.00423 28.66756
#
# Velocity S-wave (km/s) = 3.27797 4.10405 3.71405
# Velocity P-wave (km/s) = 4.83451 7.18931 6.12612
#
# Compressibility (1/GPa) = 0.05319400
#
# Stress axis : x y z
#
# Youngs Moduli (GPa) = 29.77386 139.81079 62.35253
#
# Poissons Ratio (x) = 0.41649 -0.29222
# Poissons Ratio (y) = 0.08869 0.21817
# Poissons Ratio (z) = -0.13954 0.48920
#
# Static dielectric constant tensor:
#      x y z
#    x 3.321620 0.000060 -0.561400 
#    y 0.000060 3.888970 0.000140 
#    z -0.561400 0.000140 3.567140 
# 
# 
# High freq. dielectric constant tensor:
#      x y z
#    x 1.787800 0.000000 -0.033410 
#    y 0.000000 1.828550 0.000000 
#    z -0.033410 0.000000 1.814900 
# 
# From -- ./inp_files/311609.got.cif
#   From: 2010.06.25/outbox.cif.g09.slc.cpg/sg15_156_cif.got.tgz:311609.got - 2010.06.28 07:06:18.
