data_PCOD8137066
_publ_section_title
;
Structure prediction by ZEFSAII (Michael W. Deem and Ramdas Pophale) SiO2 
 PCOD8137066
Probable space group: C 2/C
;
_chemical_formula_sum "Si O2"
_cell_formula_units_Z 52
_cell_length_a 24.923720
_cell_length_b 6.087669
_cell_length_c 19.918862
_cell_angle_alpha 90.000000
_cell_angle_beta 123.351861
_cell_angle_gamma 90.000000
_cell_volume 2524.504425
_symmetry_space_group_name_H-M "C 2/C"
_symmetry_group_IT_number 15
_symmetry_cell_setting 'monoclinic'
loop_
_space_group_symop_operation_xyz
x,y,z
-x,y,1/2-z
-x,-y,-z
x,-y,1/2+z
1/2+x,1/2+y,z
1/2-x,1/2+y,1/2-z
1/2-x,1/2-y,-z
1/2+x,1/2-y,1/2+z
loop_
_atom_site_type_symbol
_atom_site_label
_atom_site_fract_x
_atom_site_fract_y
_atom_site_fract_z
Si Si1 0.895627 0.861586 0.230478
Si Si2 0.393743 0.974896 0.121706
Si Si3 0.294063 0.716860 0.130332
Si Si4 0.170207 0.469066 0.054902
Si Si5 0.730530 0.579518 0.165466
Si Si6 0.342484 0.771577 0.825860
Si Si7 0.000000 0.175134 0.250000
O O1 0.896626 0.688626 0.170693
O O2 0.894736 0.732132 0.301481
O O3 0.831224 0.007597 0.186799
O O4 0.956916 0.021132 0.268181
O O5 0.334094 0.814195 0.096033
O O6 0.458377 0.832359 0.173232
O O7 0.385774 0.054877 0.039272
O O8 0.222327 0.642040 0.061594
O O9 0.286057 0.915583 0.176991
O O10 0.207362 0.240901 0.090465
O O11 0.139499 0.547765 0.105126
O O12 0.663912 0.466707 0.143603
O O13 0.767943 0.699015 0.251378
#
# Coordination Sequence:
#
# PCOD8137066 Si02
#       7
#     8   8   8   8   8   8   4
#     4  11  22  41  66  87 118 166 215 255 306 359
#     4  11  23  42  61  89 121 161 211 264 306 357
#     4  10  20  35  59  92 126 162 198 240 299 374
#     4  11  23  34  59  96 134 162 194 247 308 372
#     4  11  19  34  55  92 134 162 196 230 297 378
#     4  11  20  35  58  91 127 168 199 239 299 375
#     4  10  26  44  68  82 110 160 226 270 310 352
#
# _framework density 20.598102000000001
#
# number of rings (size 3 to 8) (size 9 to 14) (size 15 to 20)
#    0.000    1.231    4.615    1.846    0.000    7.385 
#    0.000    0.769    0.000    4.615    0.000    0.000 
#    0.000    0.000    0.000    0.000    0.000    0.000 
#
# Total GULP energy -322259.086307 kJ/mol
# GULP energy per Si atom -12394.580243 kJ/mol
# Density = 2.055122 g / cm^3
# Si number density = 20.598102 Si / 1000 Ang^3
#
#
#
# Elastic Constant Matrix: (Units=GPa)
#
#
# Indices 1 2 3 4 5 6 
#
# 1 87.7377 41.4689 62.0000 0.0002 -7.9183 0.0002
# 2 41.4689 111.4194 52.7118 -0.0004 -6.3044 -0.0008
# 3 62.0000 52.7118 124.6420 -0.0008 -15.8311 -0.0002
# 4 0.0002 -0.0004 -0.0008 22.0396 0.0000 -0.0254
# 5 -7.9183 -6.3044 -15.8311 0.0000 20.9559 -0.0001
# 6 0.0002 -0.0008 -0.0002 -0.0254 -0.0001 36.8365
#
#
#
# Elastic Compliance Matrix: (Units=1/GPa)
#
#
# Indices 1 2 3 4 5 6 
#
# 1 0.018420 -0.003152 -0.007816 0.000000 0.000107 0.000000
# 2 -0.003152 0.011760 -0.003437 0.000000 -0.000250 0.000000
# 3 -0.007816 -0.003437 0.014223 0.000000 0.006757 0.000000
# 4 0.000000 0.000000 0.000000 0.045373 0.000000 0.000031
# 5 0.000107 -0.000250 0.006757 0.000000 0.052789 0.000000
# 6 0.000000 0.000000 0.000000 0.000031 0.000000 0.027147
#
#
# Mechanical properties :
#
#
# Convention : Reuss Voigt Hill
#
# Bulk Modulus (GPa) = 64.13312 70.68451 67.40881
# Shear Modulus (GPa) = 24.54338 27.14097 25.84217
#
# Velocity S-wave (km/s) = 3.45561 3.63387 3.54586
# Velocity P-wave (km/s) = 6.86474 7.21091 7.03996
#
# Compressibility (1/GPa) = 0.01559257
#
# Stress axis : x y z
#
# Youngs Moduli (GPa) = 54.28782 85.03202 70.30967
#
# Poissons Ratio (x) = 0.26802 0.54955
# Poissons Ratio (y) = 0.17112 0.24168
# Poissons Ratio (z) = 0.42432 0.29228
#
# Static dielectric constant tensor:
#      x y z
#    x 3.566010 0.000000 -0.121270 
#    y 0.000000 3.978270 0.000000 
#    z -0.121270 0.000000 3.421080 
# 
# 
# High freq. dielectric constant tensor:
#      x y z
#    x 1.784300 0.000000 -0.019950 
#    y 0.000000 1.827220 0.000000 
#    z -0.019950 0.000000 1.774400 
# 
# From -- ./inp_files/254413.got.cif
#   From: 2010.06.25/outbox.cif.g09.slc.cpg/sg15_128_cif.got.tgz:254413.got - 2010.06.28 07:06:18.
