data_PCOD8137027
_publ_section_title
;
Structure prediction by ZEFSAII (Michael W. Deem and Ramdas Pophale) SiO2 
 PCOD8137027
Probable space group: C 2/C
;
_chemical_formula_sum "Si O2"
_cell_formula_units_Z 56
_cell_length_a 22.557420
_cell_length_b 19.897639
_cell_length_c 12.218728
_cell_angle_alpha 90.000000
_cell_angle_beta 146.918293
_cell_angle_gamma 90.000000
_cell_volume 2993.490817
_symmetry_space_group_name_H-M "C 2/C"
_symmetry_group_IT_number 15
_symmetry_cell_setting 'monoclinic'
loop_
_space_group_symop_operation_xyz
x,y,z
-x,y,1/2-z
-x,-y,-z
x,-y,1/2+z
1/2+x,1/2+y,z
1/2-x,1/2+y,1/2-z
1/2-x,1/2-y,-z
1/2+x,1/2-y,1/2+z
loop_
_atom_site_type_symbol
_atom_site_label
_atom_site_fract_x
_atom_site_fract_y
_atom_site_fract_z
Si Si1 0.324865 0.405249 0.350628
Si Si2 0.837082 0.945062 0.915812
Si Si3 0.500000 0.326854 0.750000
Si Si4 0.329922 0.790394 0.353691
Si Si5 0.065605 0.900066 0.214114
Si Si6 0.549153 0.797029 0.183420
Si Si7 0.500000 0.279353 0.250000
Si Si8 0.325522 0.832426 0.920296
O O1 0.290429 0.480640 0.328138
O O2 0.404814 0.376152 0.565645
O O3 0.214912 0.362767 0.181871
O O4 0.377690 0.401407 0.313616
O O5 0.753747 0.893109 0.731943
O O6 0.851820 0.929128 0.067047
O O7 0.953989 0.942558 0.036399
O O8 0.458601 0.279782 0.785125
O O9 0.409868 0.797927 0.375521
O O10 0.397281 0.765804 0.562193
O O11 0.232979 0.739319 0.179230
O O12 0.032245 0.824385 0.195163
O O13 0.632118 0.838972 0.389133
O O14 0.429985 0.831323 0.001748
#
# Coordination Sequence:
#
# PCOD8137027 Si02
#       8
#     8   8   4   8   8   8   4   8
#     4  12  24  35  60  93 115 150 194 244 288 336
#     4  10  22  40  59  84 119 158 190 230 301 344
#     4  10  20  35  58  91 122 138 192 254 290 335
#     4  12  22  38  60  89 118 150 197 240 284 343
#     4  10  21  40  59  86 120 150 192 240 290 349
#     4  10  22  37  60  92 113 149 198 244 282 332
#     4  10  22  37  58  85 118 158 188 232 292 349
#     4  10  20  39  60  82 117 159 188 232 294 345
#
# _framework density 18.707256999999998
#
# number of rings (size 3 to 8) (size 9 to 14) (size 15 to 20)
#    0.000    1.714    5.714    2.571    0.000    2.857 
#    0.000    2.143    0.000    0.000    0.000    0.000 
#    0.000    0.000    0.000    0.000    0.000    0.000 
#
# Total GULP energy -347227.321705 kJ/mol
# GULP energy per Si atom -12400.975775 kJ/mol
# Density = 1.866468 g / cm^3
# Si number density = 18.707257 Si / 1000 Ang^3
#
#
#
# Elastic Constant Matrix: (Units=GPa)
#
#
# Indices 1 2 3 4 5 6 
#
# 1 69.2293 20.8229 7.3593 0.0000 1.8999 0.0000
# 2 20.8229 124.4159 34.3011 0.0000 5.9179 0.0000
# 3 7.3593 34.3011 74.2304 0.0000 10.9220 0.0000
# 4 0.0000 0.0000 0.0000 32.3750 0.0000 6.4387
# 5 1.8999 5.9179 10.9220 0.0000 15.8656 0.0000
# 6 0.0000 0.0000 0.0000 6.4387 0.0000 3.5067
#
#
#
# Elastic Compliance Matrix: (Units=1/GPa)
#
#
# Indices 1 2 3 4 5 6 
#
# 1 0.015227 -0.002438 -0.000277 0.000000 -0.000724 0.000000
# 2 -0.002438 0.009606 -0.004131 0.000000 -0.000447 0.000000
# 3 -0.000277 -0.004131 0.016887 0.000000 -0.010051 0.000000
# 4 0.000000 0.000000 0.000000 0.048655 0.000000 -0.089336
# 5 -0.000724 -0.000447 -0.010051 0.000000 0.070202 0.000000
# 6 0.000000 0.000000 0.000000 -0.089336 0.000000 0.449200
#
#
# Mechanical properties :
#
#
# Convention : Reuss Voigt Hill
#
# Bulk Modulus (GPa) = 35.67809 43.64915 39.66362
# Shear Modulus (GPa) = 7.90125 24.04229 15.97177
#
# Velocity S-wave (km/s) = 2.05738 3.58884 2.92511
# Velocity P-wave (km/s) = 4.97563 6.36839 5.71460
#
# Compressibility (1/GPa) = 0.02802841
#
# Stress axis : x y z
#
# Youngs Moduli (GPa) = 65.67162 104.10364 59.21749
#
# Poissons Ratio (x) = 0.25379 0.01638
# Poissons Ratio (y) = 0.16010 0.24464
# Poissons Ratio (z) = 0.01817 0.43008
#
# Static dielectric constant tensor:
#      x y z
#    x 3.247860 0.000000 0.030660 
#    y 0.000000 3.399540 0.000000 
#    z 0.030660 0.000000 3.542360 
# 
# 
# High freq. dielectric constant tensor:
#      x y z
#    x 1.715530 0.000000 -0.001220 
#    y 0.000000 1.715750 0.000000 
#    z -0.001220 0.000000 1.734240 
# 
# From -- ./inp_files/119892.got.cif
#   From: 2010.06.25/outbox.cif.g09.slc.cpg/sg15_60_cif.got.tgz:119892.got - 2010.06.28 07:06:18.
