data_PCOD8137754
_publ_section_title
;
Structure prediction by ZEFSAII (Michael W. Deem and Ramdas Pophale) SiO2 
 PCOD8137754
Probable space group: C 2/C
;
_chemical_formula_sum "Si O2"
_cell_formula_units_Z 60
_cell_length_a 27.031074
_cell_length_b 19.980916
_cell_length_c 12.610089
_cell_angle_alpha 90.000000
_cell_angle_beta 26.073820
_cell_angle_gamma 90.000000
_cell_volume 2993.533864
_symmetry_space_group_name_H-M "C 2/C"
_symmetry_group_IT_number 15
_symmetry_cell_setting 'monoclinic'
loop_
_space_group_symop_operation_xyz
x,y,z
-x,y,1/2-z
-x,-y,-z
x,-y,1/2+z
1/2+x,1/2+y,z
1/2-x,1/2+y,1/2-z
1/2-x,1/2-y,-z
1/2+x,1/2-y,1/2+z
loop_
_atom_site_type_symbol
_atom_site_label
_atom_site_fract_x
_atom_site_fract_y
_atom_site_fract_z
Si Si1 0.175860 0.018586 0.647966
Si Si2 0.000000 0.825900 0.750000
Si Si3 0.722120 0.844738 0.526798
Si Si4 0.866893 0.310062 0.028947
Si Si5 0.708434 0.381842 0.477883
Si Si6 0.462606 0.442346 0.434858
Si Si7 0.872841 0.194491 0.168469
Si Si8 0.421489 0.741318 0.604733
O O1 0.273108 0.074570 0.474164
O O2 0.064074 0.054598 0.821956
O O3 0.215856 0.959856 0.493223
O O4 0.143128 0.987838 0.825181
O O5 0.091638 0.870632 0.637327
O O6 0.065807 0.778072 0.542417
O O7 0.693408 0.817119 0.466224
O O8 0.630937 0.816218 0.786147
O O9 0.843453 0.812373 0.317100
O O10 0.820800 0.369498 0.193117
O O11 0.821921 0.242460 0.174996
O O12 0.000000 0.313274 0.750000
O O13 0.711087 0.335175 0.579470
O O14 0.500000 0.469814 0.250000
O O15 0.426358 0.365617 0.498901
O O16 0.961560 0.241209 0.058602
#
# Coordination Sequence:
#
# PCOD8137754 Si02
#       8
#     8   4   8   8   8   8   8   8
#     4  10  23  39  56  91 124 163 201 248 306 368
#     4  10  20  38  66  96 122 156 200 248 318 366
#     4  11  22  38  60  89 124 165 199 246 305 365
#     4  12  23  38  64  91 120 165 211 247 303 357
#     4  10  23  39  64  90 127 164 198 250 306 368
#     4  10  21  33  61  92 128 153 190 257 320 366
#     4  10  20  39  58  95 123 152 198 258 313 354
#     4  10  20  36  62  90 124 154 198 252 300 364
#
# _framework density 20.043201
#
# number of rings (size 3 to 8) (size 9 to 14) (size 15 to 20)
#    0.000    1.600    4.000    0.800    4.667    0.000 
#    0.000    0.667    1.467    0.000    0.000    0.000 
#    0.000    0.000    0.000    0.000    0.000    0.000 
#
# Total GULP energy -371825.348904 kJ/mol
# GULP energy per Si atom -12394.178297 kJ/mol
# Density = 1.999758 g / cm^3
# Si number density = 20.043201 Si / 1000 Ang^3
#
#
#
# Elastic Constant Matrix: (Units=GPa)
#
#
# Indices 1 2 3 4 5 6 
#
# 1 69.6804 44.3881 12.8790 0.0000 14.5580 0.0001
# 2 44.3881 137.4476 43.5581 0.0000 10.4831 0.0000
# 3 12.8790 43.5581 89.8511 0.0000 18.6332 0.0001
# 4 0.0000 0.0000 0.0000 21.1231 0.0000 -1.4823
# 5 14.5580 10.4831 18.6332 0.0000 27.4369 -0.0001
# 6 0.0001 0.0000 0.0001 -1.4823 -0.0001 22.6331
#
#
#
# Elastic Compliance Matrix: (Units=1/GPa)
#
#
# Indices 1 2 3 4 5 6 
#
# 1 0.020081 -0.006463 0.002272 0.000000 -0.009729 0.000000
# 2 -0.006463 0.010683 -0.004792 0.000000 0.002602 0.000000
# 3 0.002272 -0.004792 0.015128 0.000000 -0.009649 0.000000
# 4 0.000000 0.000000 0.000000 0.047560 0.000000 0.003115
# 5 -0.009729 0.002602 -0.009649 0.000000 0.047168 0.000000
# 6 0.000000 0.000000 0.000000 0.003115 0.000000 0.044387
#
#
# Mechanical properties :
#
#
# Convention : Reuss Voigt Hill
#
# Bulk Modulus (GPa) = 35.80887 55.40328 45.60607
# Shear Modulus (GPa) = 23.55365 27.31554 25.43459
#
# Velocity S-wave (km/s) = 3.43176 3.69566 3.56615
# Velocity P-wave (km/s) = 5.79717 6.77588 6.30554
#
# Compressibility (1/GPa) = 0.02792604
#
# Stress axis : x y z
#
# Youngs Moduli (GPa) = 49.79823 93.60704 66.10344
#
# Poissons Ratio (x) = 0.60500 -0.15022
# Poissons Ratio (y) = 0.32186 0.31677
# Poissons Ratio (z) = -0.11316 0.44857
#
# Static dielectric constant tensor:
#      x y z
#    x 3.583400 0.000000 0.178590 
#    y 0.000000 3.615960 0.000000 
#    z 0.178590 0.000000 3.757760 
# 
# 
# High freq. dielectric constant tensor:
#      x y z
#    x 1.770980 0.000000 0.022020 
#    y 0.000000 1.775300 0.000000 
#    z 0.022020 0.000000 1.773910 
# 
# From -- ./inp_files/123980.got.cif
#   From: 2010.06.25/outbox.cif.g09.slc.cpg/sg15_62_cif.got.tgz:123980.got - 2010.06.28 07:06:18.
