data_PCOD8137958
_publ_section_title
;
Structure prediction by ZEFSAII (Michael W. Deem and Ramdas Pophale) SiO2 
 PCOD8137958
Probable space group: C 2/C
;
_chemical_formula_sum "Si O2"
_cell_formula_units_Z 64
_cell_length_a 27.791656
_cell_length_b 12.916301
_cell_length_c 15.303156
_cell_angle_alpha 90.000000
_cell_angle_beta 142.824021
_cell_angle_gamma 90.000000
_cell_volume 3319.411654
_symmetry_space_group_name_H-M "C 2/C"
_symmetry_group_IT_number 15
_symmetry_cell_setting 'monoclinic'
loop_
_space_group_symop_operation_xyz
x,y,z
-x,y,1/2-z
-x,-y,-z
x,-y,1/2+z
1/2+x,1/2+y,z
1/2-x,1/2+y,1/2-z
1/2-x,1/2-y,-z
1/2+x,1/2-y,1/2+z
loop_
_atom_site_type_symbol
_atom_site_label
_atom_site_fract_x
_atom_site_fract_y
_atom_site_fract_z
Si Si1 0.155340 0.739996 0.359585
Si Si2 0.729555 0.478754 0.216152
Si Si3 0.613580 0.301308 0.987913
Si Si4 0.185345 0.342981 0.730148
Si Si5 0.109999 0.149362 0.107019
Si Si6 0.963111 0.083176 0.789228
Si Si7 0.670292 0.805221 0.062279
Si Si8 0.562840 0.348178 0.731026
O O1 0.250000 0.750000 0.500000
O O2 0.129705 0.675783 0.235135
O O3 0.113380 0.851220 0.293131
O O4 0.122628 0.684133 0.401096
O O5 0.791520 0.536043 0.240859
O O6 0.682519 0.568728 0.199869
O O7 0.787619 0.414571 0.362656
O O8 0.670552 0.400914 0.081690
O O9 0.603210 0.282845 0.868702
O O10 0.529832 0.322535 0.912636
O O11 0.647804 0.199183 0.084800
O O12 0.265948 0.282689 0.864913
O O13 0.118430 0.259257 0.067665
O O14 0.106732 0.178496 0.204365
O O15 0.029725 0.092303 0.960637
O O16 0.000000 0.118936 0.750000
O O17 0.929604 0.968065 0.732924
#
# Coordination Sequence:
#
# PCOD8137958 Si02
#       8
#     8   8   8   8   8   8   8   8
#     4  10  21  33  55  83 112 151 189 228 287 343
#     4  10  20  37  56  79 116 152 187 236 284 339
#     4  10  20  37  52  83 115 143 187 231 285 338
#     4   9  20  35  55  76 113 151 186 229 279 342
#     4  11  21  34  55  86 116 147 188 234 294 338
#     4  12  20  34  56  88 120 144 184 249 293 334
#     4   9  20  35  52  81 115 147 187 238 278 332
#     4  11  22  31  57  83 115 148 181 235 289 346
#
# _framework density 19.280525000000001
#
# number of rings (size 3 to 8) (size 9 to 14) (size 15 to 20)
#    0.000    1.750    3.750    1.125    8.750    0.000 
#    0.000    6.875    0.000    6.000    0.000    0.000 
#    0.000    0.000    0.000    0.000    0.000    0.000 
#
# Total GULP energy -396516.298618 kJ/mol
# GULP energy per Si atom -12391.134332 kJ/mol
# Density = 1.923664 g / cm^3
# Si number density = 19.280525 Si / 1000 Ang^3
#
#
#
# Elastic Constant Matrix: (Units=GPa)
#
#
# Indices 1 2 3 4 5 6 
#
# 1 102.3742 29.7506 39.1030 0.0000 -28.0603 0.0000
# 2 29.7506 62.7411 34.5967 0.0000 -1.7584 0.0000
# 3 39.1030 34.5967 85.2423 0.0000 -21.5906 0.0000
# 4 0.0000 0.0000 0.0000 18.7024 0.0000 7.0801
# 5 -28.0603 -1.7584 -21.5906 0.0000 36.4606 0.0000
# 6 0.0000 0.0000 0.0000 7.0801 0.0000 21.7957
#
#
#
# Elastic Compliance Matrix: (Units=1/GPa)
#
#
# Indices 1 2 3 4 5 6 
#
# 1 0.014940 -0.005702 -0.001996 0.000000 0.010041 0.000000
# 2 -0.005702 0.023400 -0.009067 0.000000 -0.008629 0.000000
# 3 -0.001996 -0.009067 0.018620 0.000000 0.009053 0.000000
# 4 0.000000 0.000000 0.000000 0.060966 0.000000 -0.019804
# 5 0.010041 -0.008629 0.009053 0.000000 0.040099 0.000000
# 6 0.000000 0.000000 0.000000 -0.019804 0.000000 0.052314
#
#
# Mechanical properties :
#
#
# Convention : Reuss Voigt Hill
#
# Bulk Modulus (GPa) = 42.68133 50.80644 46.74389
# Shear Modulus (GPa) = 19.86663 25.18559 22.52611
#
# Velocity S-wave (km/s) = 3.21347 3.61816 3.42180
# Velocity P-wave (km/s) = 5.99613 6.62292 6.31731
#
# Compressibility (1/GPa) = 0.02342945
#
# Stress axis : x y z
#
# Youngs Moduli (GPa) = 66.93624 42.73433 53.70647
#
# Poissons Ratio (x) = 0.24368 0.10718
# Poissons Ratio (y) = 0.38168 0.48697
# Poissons Ratio (z) = 0.13359 0.38748
#
# Static dielectric constant tensor:
#      x y z
#    x 3.960390 0.000000 -0.378230 
#    y 0.000000 6.768800 0.000000 
#    z -0.378230 0.000000 3.689530 
# 
# 
# High freq. dielectric constant tensor:
#      x y z
#    x 1.748040 0.000000 -0.016380 
#    y 0.000000 1.716650 0.000000 
#    z -0.016380 0.000000 1.749760 
# 
# From -- ./inp_files/177802.got.cif
#   From: 2010.06.25/outbox.cif.g09.slc.cpg/sg15_89_cif.got.tgz:177802.got - 2010.06.28 07:06:18.
