data_PCOD8137578
_publ_section_title
;
Structure prediction by ZEFSAII (Michael W. Deem and Ramdas Pophale) SiO2 
 PCOD8137578
Probable space group: C 2/C
;
_chemical_formula_sum "Si O2"
_cell_formula_units_Z 52
_cell_length_a 16.772718
_cell_length_b 18.157391
_cell_length_c 16.685092
_cell_angle_alpha 90.000000
_cell_angle_beta 30.177747
_cell_angle_gamma 90.000000
_cell_volume 2554.352100
_symmetry_space_group_name_H-M "C 2/C"
_symmetry_group_IT_number 15
_symmetry_cell_setting 'monoclinic'
loop_
_space_group_symop_operation_xyz
x,y,z
-x,y,1/2-z
-x,-y,-z
x,-y,1/2+z
1/2+x,1/2+y,z
1/2-x,1/2+y,1/2-z
1/2-x,1/2-y,-z
1/2+x,1/2-y,1/2+z
loop_
_atom_site_type_symbol
_atom_site_label
_atom_site_fract_x
_atom_site_fract_y
_atom_site_fract_z
Si Si1 0.500000 0.751836 0.250000
Si Si2 0.637288 0.907246 0.434692
Si Si3 0.353943 0.651047 0.065513
Si Si4 0.706179 0.060690 0.318125
Si Si5 0.306543 0.191721 0.054236
Si Si6 0.194002 0.783274 0.290363
Si Si7 0.179837 0.668324 0.065964
O O1 0.454537 0.803076 0.365019
O O2 0.644466 0.698423 0.145876
O O3 0.454697 0.931830 0.594334
O O4 0.666699 0.843643 0.342466
O O5 0.694110 0.875959 0.470555
O O6 0.740421 0.978551 0.319709
O O7 0.349534 0.584675 0.134297
O O8 0.231144 0.712911 0.203705
O O9 0.287760 0.624611 0.037051
O O10 0.529602 0.682275 0.903023
O O11 0.692404 0.112005 0.407485
O O12 0.319618 0.259220 0.105745
O O13 0.000000 0.672170 0.250000
O O14 0.250000 0.750000 0.000000
#
# Coordination Sequence:
#
# PCOD8137578 Si02
#       7
#     4   8   8   8   8   8   8
#     4  10  20  36  60  86 110 144 208 250 300 346
#     4  11  23  39  60  88 124 164 206 252 307 381
#     4  11  21  37  62  91 122 159 202 254 310 374
#     4  10  22  42  59  83 123 167 204 246 310 377
#     4  10  20  37  59  85 112 152 196 256 296 357
#     4  11  21  37  64  91 117 157 205 252 311 372
#     4  12  23  38  61  94 125 157 202 266 314 363
#
# _framework density 20.357413000000001
#
# number of rings (size 3 to 8) (size 9 to 14) (size 15 to 20)
#    0.000    1.231    3.077    5.538    0.000    0.615 
#    1.385    4.615    0.000    0.000    0.000    0.000 
#    0.000    0.000    0.000    0.000    0.000    0.000 
#
# Total GULP energy -322449.339266 kJ/mol
# GULP energy per Si atom -12401.897664 kJ/mol
# Density = 2.031108 g / cm^3
# Si number density = 20.357413 Si / 1000 Ang^3
#
#
#
# Elastic Constant Matrix: (Units=GPa)
#
#
# Indices 1 2 3 4 5 6 
#
# 1 93.0989 34.3374 14.7450 0.0146 15.2589 -0.0057
# 2 34.3374 108.5634 12.0217 0.0097 24.0828 -0.0020
# 3 14.7450 12.0217 66.3391 0.0164 12.0557 -0.0122
# 4 0.0146 0.0097 0.0164 19.6067 -0.0078 -0.6115
# 5 15.2589 24.0828 12.0557 -0.0078 39.2428 0.0035
# 6 -0.0057 -0.0020 -0.0122 -0.6115 0.0035 27.6517
#
#
#
# Elastic Compliance Matrix: (Units=1/GPa)
#
#
# Indices 1 2 3 4 5 6 
#
# 1 0.012616 -0.003271 -0.001784 -0.000007 -0.002350 0.000002
# 2 -0.003271 0.011550 -0.000327 -0.000005 -0.005716 0.000001
# 3 -0.001784 -0.000327 0.016276 -0.000014 -0.004106 0.000007
# 4 -0.000007 -0.000005 -0.000014 0.051038 0.000020 0.001129
# 5 -0.002350 -0.005716 -0.004106 0.000020 0.031165 -0.000006
# 6 0.000002 0.000001 0.000007 0.001129 -0.000006 0.036189
#
#
# Mechanical properties :
#
#
# Convention : Reuss Voigt Hill
#
# Bulk Modulus (GPa) = 33.69731 43.35663 38.52697
# Shear Modulus (GPa) = 27.85650 31.09339 29.47495
#
# Velocity S-wave (km/s) = 3.70316 3.91240 3.80922
# Velocity P-wave (km/s) = 5.90537 6.46167 6.18977
#
# Compressibility (1/GPa) = 0.02967596
#
# Stress axis : x y z
#
# Youngs Moduli (GPa) = 79.26753 86.57993 61.43995
#
# Poissons Ratio (x) = 0.28323 0.10962
# Poissons Ratio (y) = 0.25931 0.02011
# Poissons Ratio (z) = 0.14143 0.02833
#
# Static dielectric constant tensor:
#      x y z
#    x 3.844940 -0.000010 0.180160 
#    y -0.000010 3.648650 0.000030 
#    z 0.180160 0.000030 3.872780 
# 
# 
# High freq. dielectric constant tensor:
#      x y z
#    x 1.801290 0.000000 0.004710 
#    y 0.000000 1.769710 0.000000 
#    z 0.004710 0.000000 1.804990 
# 
# From -- ./inp_files/48636.got.cif
#   From: 2010.06.25/outbox.cif.g09.slc.cpg/sg15_25_cif.got.tgz:48636.got - 2010.06.28 07:06:18.
