data_PCOD8137835
_publ_section_title
;
Structure prediction by ZEFSAII (Michael W. Deem and Ramdas Pophale) SiO2 
 PCOD8137835
Probable space group: C 2/C
;
_chemical_formula_sum "Si O2"
_cell_formula_units_Z 28
_cell_length_a 9.224785
_cell_length_b 22.694978
_cell_length_c 5.506699
_cell_angle_alpha 90.000000
_cell_angle_beta 117.157146
_cell_angle_gamma 90.000000
_cell_volume 1025.768274
_symmetry_space_group_name_H-M "C 2/C"
_symmetry_group_IT_number 15
_symmetry_cell_setting 'monoclinic'
loop_
_space_group_symop_operation_xyz
x,y,z
-x,y,1/2-z
-x,-y,-z
x,-y,1/2+z
1/2+x,1/2+y,z
1/2-x,1/2+y,1/2-z
1/2-x,1/2-y,-z
1/2+x,1/2-y,1/2+z
loop_
_atom_site_type_symbol
_atom_site_label
_atom_site_fract_x
_atom_site_fract_y
_atom_site_fract_z
Si Si1 0.184537 0.482947 0.516398
Si Si2 0.000000 0.061349 0.750000
Si Si3 0.500000 0.192240 0.250000
Si Si4 0.500000 0.734538 0.250000
Si Si5 0.709427 0.634839 0.251833
O O1 0.090806 0.505268 0.202563
O O2 0.350719 0.518957 0.710506
O O3 0.209838 0.412854 0.506093
O O4 0.948783 0.104359 0.490575
O O5 0.503036 0.229176 0.502545
O O6 0.338069 0.152329 0.138679
O O7 0.659668 0.692374 0.368572
#
# Coordination Sequence:
#
# PCOD8137835 Si02
#       5
#     8   4   4   4   8
#     4  10  20  36  63  97 124 159 214 259 311 392
#     4  10  20  40  68 100 126 170 218 256 320 410
#     4  12  29  44  64 100 134 170 225 278 330 374
#     4  12  25  46  68  92 128 182 229 266 318 396
#     4  11  23  44  70  97 133 174 216 278 327 381
#
# _framework density 27.296612
#
# number of rings (size 3 to 8) (size 9 to 14) (size 15 to 20)
#    0.000    1.143    0.000    8.571    0.000    9.143 
#    0.000    5.714    0.000    0.000    0.000    0.000 
#    0.000    0.000    0.000    0.000    0.000    0.000 
#
# Total GULP energy -173562.756801 kJ/mol
# GULP energy per Si atom -12397.339771 kJ/mol
# Density = 2.723448 g / cm^3
# Si number density = 27.296612 Si / 1000 Ang^3
#
#
#
# Elastic Constant Matrix: (Units=GPa)
#
#
# Indices 1 2 3 4 5 6 
#
# 1 156.3809 46.7230 62.2349 0.0000 -7.2563 0.0000
# 2 46.7230 155.8661 81.0282 0.0000 -8.7526 0.0000
# 3 62.2349 81.0282 197.0984 0.0000 -6.9413 0.0000
# 4 0.0000 0.0000 0.0000 45.0520 0.0000 22.8473
# 5 -7.2563 -8.7526 -6.9413 0.0000 35.3313 0.0000
# 6 0.0000 0.0000 0.0000 22.8473 0.0000 134.4433
#
#
#
# Elastic Compliance Matrix: (Units=1/GPa)
#
#
# Indices 1 2 3 4 5 6 
#
# 1 0.007541 -0.001258 -0.001833 0.000000 0.000877 0.000000
# 2 -0.001258 0.008436 -0.003027 0.000000 0.001237 0.000000
# 3 -0.001833 -0.003027 0.006905 0.000000 0.000230 0.000000
# 4 0.000000 0.000000 0.000000 0.024290 0.000000 -0.004128
# 5 0.000877 0.001237 0.000230 0.000000 0.028835 0.000000
# 6 0.000000 0.000000 0.000000 -0.004128 0.000000 0.008140
#
#
# Mechanical properties :
#
#
# Convention : Reuss Voigt Hill
#
# Bulk Modulus (GPa) = 93.94148 98.81307 96.37728
# Shear Modulus (GPa) = 50.03415 64.25593 57.14504
#
# Velocity S-wave (km/s) = 4.28598 4.85706 4.58043
# Velocity P-wave (km/s) = 7.68001 8.23001 7.95976
#
# Compressibility (1/GPa) = 0.01064493
#
# Stress axis : x y z
#
# Youngs Moduli (GPa) = 132.61342 118.53717 144.82343
#
# Poissons Ratio (x) = 0.14917 0.26543
# Poissons Ratio (y) = 0.16688 0.43842
# Poissons Ratio (z) = 0.24305 0.35884
#
# Static dielectric constant tensor:
#      x y z
#    x 5.541430 0.000000 -0.229970 
#    y 0.000000 5.189340 0.000000 
#    z -0.229970 0.000000 4.832830 
# 
# 
# High freq. dielectric constant tensor:
#      x y z
#    x 2.152100 0.000000 -0.014090 
#    y 0.000000 2.105820 0.000000 
#    z -0.014090 0.000000 2.100770 
# 
# From -- ./inp_files/1991.got.cif
#   From: 2010.06.25/outbox.cif.g09.slc.cpg/sg15_1_cif.got.tgz:1991.got - 2010.06.28 07:06:18.
