data_PCOD8137703
_publ_section_title
;
Structure prediction by ZEFSAII (Michael W. Deem and Ramdas Pophale) SiO2 
 PCOD8137703
Probable space group: C 2/C
;
_chemical_formula_sum "Si O2"
_cell_formula_units_Z 64
_cell_length_a 9.061553
_cell_length_b 20.179903
_cell_length_c 22.908443
_cell_angle_alpha 90.000000
_cell_angle_beta 129.425852
_cell_angle_gamma 90.000000
_cell_volume 3235.832486
_symmetry_space_group_name_H-M "C 2/C"
_symmetry_group_IT_number 15
_symmetry_cell_setting 'monoclinic'
loop_
_space_group_symop_operation_xyz
x,y,z
-x,y,1/2-z
-x,-y,-z
x,-y,1/2+z
1/2+x,1/2+y,z
1/2-x,1/2+y,1/2-z
1/2-x,1/2-y,-z
1/2+x,1/2-y,1/2+z
loop_
_atom_site_type_symbol
_atom_site_label
_atom_site_fract_x
_atom_site_fract_y
_atom_site_fract_z
Si Si1 0.373096 0.787029 0.576793
Si Si2 0.526950 0.300316 0.564451
Si Si3 0.913024 0.843383 0.799669
Si Si4 0.287736 0.472770 0.710426
Si Si5 0.596108 0.900511 0.210397
Si Si6 0.377845 0.839096 0.050915
Si Si7 0.825808 0.621458 0.405596
Si Si8 0.864719 0.778918 0.271694
O O1 0.250000 0.750000 0.500000
O O2 0.493916 0.844094 0.577561
O O3 0.503558 0.731420 0.639191
O O4 0.220246 0.820686 0.580916
O O5 0.529064 0.351129 0.618316
O O6 0.526786 0.222112 0.582319
O O7 0.329174 0.311934 0.479429
O O8 0.787891 0.906445 0.750188
O O9 0.805275 0.774162 0.766656
O O10 0.130461 0.844088 0.827188
O O11 0.500000 0.499685 0.750000
O O12 0.171002 0.525849 0.718020
O O13 0.185440 0.453962 0.622413
O O14 0.500000 0.895569 0.250000
O O15 0.449255 0.886037 0.120723
O O16 0.776592 0.851742 0.252018
O O17 0.353093 0.876855 0.982441
O O18 0.000000 0.767747 0.250000
#
# Coordination Sequence:
#
# PCOD8137703 Si02
#       8
#     8   8   8   8   8   8   8   8
#     4  12  23  33  59 100 130 162 206 266 319 372
#     4  10  20  36  61  93 133 164 202 268 313 381
#     4  10  20  40  68  92 122 169 215 261 318 378
#     4  10  23  45  66  92 124 171 222 263 319 386
#     4  12  28  41  65  92 130 173 214 273 323 383
#     4  10  21  41  60  91 130 167 209 253 332 381
#     4  10  22  38  68  94 125 169 211 264 316 393
#     4  12  24  39  63  99 130 171 210 270 324 380
#
# _framework density 19.778528000000001
#
# number of rings (size 3 to 8) (size 9 to 14) (size 15 to 20)
#    0.000    1.250    5.000    0.375    3.500    2.000 
#    0.000    0.000    0.000    7.500    0.000    0.000 
#    0.000    0.000    0.000    0.000    0.000    0.000 
#
# Total GULP energy -396539.596822 kJ/mol
# GULP energy per Si atom -12391.862401 kJ/mol
# Density = 1.973351 g / cm^3
# Si number density = 19.778528 Si / 1000 Ang^3
#
#
#
# Elastic Constant Matrix: (Units=GPa)
#
#
# Indices 1 2 3 4 5 6 
#
# 1 110.2066 52.6377 40.5243 0.0000 10.7520 0.0000
# 2 52.6377 90.5251 48.7018 0.0000 -7.1774 0.0000
# 3 40.5243 48.7018 120.7616 0.0000 -1.4126 0.0000
# 4 0.0000 0.0000 0.0000 27.8446 0.0000 -0.9897
# 5 10.7520 -7.1774 -1.4126 0.0000 26.1286 0.0000
# 6 0.0000 0.0000 0.0000 -0.9897 0.0000 29.7140
#
#
#
# Elastic Compliance Matrix: (Units=1/GPa)
#
#
# Indices 1 2 3 4 5 6 
#
# 1 0.014357 -0.008118 -0.001640 0.000000 -0.008227 0.000000
# 2 -0.008118 0.019039 -0.004857 0.000000 0.008308 0.000000
# 3 -0.001640 -0.004857 0.010789 0.000000 -0.000076 0.000000
# 4 0.000000 0.000000 0.000000 0.035956 0.000000 0.001198
# 5 -0.008227 0.008308 -0.000076 0.000000 0.043935 0.000000
# 6 0.000000 0.000000 0.000000 0.001198 0.000000 0.033694
#
#
# Mechanical properties :
#
#
# Convention : Reuss Voigt Hill
#
# Bulk Modulus (GPa) = 66.86813 67.24675 67.05744
# Shear Modulus (GPa) = 26.04374 28.71276 27.37825
#
# Velocity S-wave (km/s) = 3.63267 3.81427 3.72458
# Velocity P-wave (km/s) = 7.17474 7.31245 7.24392
#
# Compressibility (1/GPa) = 0.01495481
#
# Stress axis : x y z
#
# Youngs Moduli (GPa) = 69.65260 52.52486 92.68771
#
# Poissons Ratio (x) = 0.42640 0.15202
# Poissons Ratio (y) = 0.56544 0.45015
# Poissons Ratio (z) = 0.11424 0.25510
#
# Static dielectric constant tensor:
#      x y z
#    x 2.814590 0.000000 0.205240 
#    y 0.000000 2.432480 0.000000 
#    z 0.205240 0.000000 3.926370 
# 
# 
# High freq. dielectric constant tensor:
#      x y z
#    x 1.780550 0.000000 0.002140 
#    y 0.000000 1.734860 0.000000 
#    z 0.002140 0.000000 1.793790 
# 
# From -- ./inp_files/266136.got.cif
#   From: 2010.06.25/outbox.cif.g09.slc.cpg/sg15_134_cif.got.tgz:266136.got - 2010.06.28 07:06:18.
