data_PCOD8137229
_publ_section_title
;
Structure prediction by ZEFSAII (Michael W. Deem and Ramdas Pophale) SiO2 
 PCOD8137229
Probable space group: C 2/C
;
_chemical_formula_sum "Si O2"
_cell_formula_units_Z 56
_cell_length_a 18.085668
_cell_length_b 19.453830
_cell_length_c 8.565809
_cell_angle_alpha 90.000000
_cell_angle_beta 74.900344
_cell_angle_gamma 90.000000
_cell_volume 2909.703439
_symmetry_space_group_name_H-M "C 2/C"
_symmetry_group_IT_number 15
_symmetry_cell_setting 'monoclinic'
loop_
_space_group_symop_operation_xyz
x,y,z
-x,y,1/2-z
-x,-y,-z
x,-y,1/2+z
1/2+x,1/2+y,z
1/2-x,1/2+y,1/2-z
1/2-x,1/2-y,-z
1/2+x,1/2-y,1/2+z
loop_
_atom_site_type_symbol
_atom_site_label
_atom_site_fract_x
_atom_site_fract_y
_atom_site_fract_z
Si Si1 0.425194 0.045796 0.995819
Si Si2 0.409419 0.419205 0.813360
Si Si3 0.282262 0.052052 0.626283
Si Si4 0.604247 0.859651 0.278799
Si Si5 0.028197 0.323517 0.904713
Si Si6 0.420457 0.271062 0.881660
Si Si7 0.675739 0.476294 0.921098
O O1 0.424295 0.079025 0.821295
O O2 0.417802 0.108637 0.125864
O O3 0.500000 0.000000 0.000000
O O4 0.348768 0.002004 0.051140
O O5 0.500000 0.425273 0.750000
O O6 0.380506 0.345555 0.898095
O O7 0.373415 0.425661 0.660439
O O8 0.381334 0.478635 0.942953
O O9 0.320000 0.121919 0.666505
O O10 0.231696 0.068214 0.501115
O O11 0.227312 0.026001 0.791099
O O12 0.536771 0.846066 0.437281
O O13 0.626897 0.789812 0.176112
O O14 0.000000 0.305069 0.750000
O O15 0.068080 0.253850 0.945472
O O16 0.500000 0.280250 0.750000
#
# Coordination Sequence:
#
# PCOD8137229 Si02
#       7
#     8   8   8   8   8   8   8
#     4  11  21  30  54  83 117 174 211 234 266 326
#     4  10  20  43  70  88 108 141 192 254 318 367
#     4  11  21  35  52  82 130 158 189 248 290 332
#     4  10  20  36  52  81 124 165 201 235 282 335
#     4  10  21  31  52  89 122 153 214 240 269 333
#     4   8  18  38  60  82 116 156 192 248 294 346
#     4  10  23  37  59  91 116 142 193 248 313 362
#
# _framework density 19.245946
#
# number of rings (size 3 to 8) (size 9 to 14) (size 15 to 20)
#    0.000    2.000    2.857    1.714    4.000    0.000 
#    0.000   10.714    0.000    0.000    0.000    0.000 
#    0.000    0.000    0.000    0.000    0.000    0.000 
#
# Total GULP energy -346969.509199 kJ/mol
# GULP energy per Si atom -12391.768186 kJ/mol
# Density = 1.920214 g / cm^3
# Si number density = 19.245946 Si / 1000 Ang^3
#
#
#
# Elastic Constant Matrix: (Units=GPa)
#
#
# Indices 1 2 3 4 5 6 
#
# 1 113.6627 52.8058 45.7925 0.0000 27.4219 0.0000
# 2 52.8058 115.4828 41.5561 0.0000 31.3150 0.0000
# 3 45.7925 41.5561 106.8361 0.0000 33.8767 0.0000
# 4 0.0000 0.0000 0.0000 18.1476 0.0000 6.2520
# 5 27.4219 31.3150 33.8767 0.0000 41.5231 0.0000
# 6 0.0000 0.0000 0.0000 6.2520 0.0000 16.9917
#
#
#
# Elastic Compliance Matrix: (Units=1/GPa)
#
#
# Indices 1 2 3 4 5 6 
#
# 1 0.012475 -0.003855 -0.002910 0.000000 -0.002957 0.000000
# 2 -0.003855 0.012474 -0.001381 0.000000 -0.005735 0.000000
# 3 -0.002910 -0.001381 0.013766 0.000000 -0.008268 0.000000
# 4 0.000000 0.000000 0.000000 0.063103 0.000000 -0.023218
# 5 -0.002957 -0.005735 -0.008268 0.000000 0.037106 0.000000
# 6 0.000000 0.000000 0.000000 -0.023218 0.000000 0.067396
#
#
# Mechanical properties :
#
#
# Convention : Reuss Voigt Hill
#
# Bulk Modulus (GPa) = 44.59795 68.47670 56.53733
# Shear Modulus (GPa) = 21.73098 28.38763 25.05930
#
# Velocity S-wave (km/s) = 3.36388 3.84473 3.61232
# Velocity P-wave (km/s) = 6.18955 7.44085 6.84386
#
# Compressibility (1/GPa) = 0.02242256
#
# Stress axis : x y z
#
# Youngs Moduli (GPa) = 80.16200 80.16509 72.64135
#
# Poissons Ratio (x) = 0.30906 0.21137
# Poissons Ratio (y) = 0.30905 0.10034
# Poissons Ratio (z) = 0.23325 0.11073
#
# Static dielectric constant tensor:
#      x y z
#    x 3.686610 0.000000 0.343530 
#    y 0.000000 3.756330 0.000000 
#    z 0.343530 0.000000 3.672890 
# 
# 
# High freq. dielectric constant tensor:
#      x y z
#    x 1.739020 0.000000 0.017360 
#    y 0.000000 1.736670 0.000000 
#    z 0.017360 0.000000 1.750740 
# 
# From -- ./inp_files/49700.got.cif
#   From: 2010.06.25/outbox.cif.g09.slc.cpg/sg15_25_cif.got.tgz:49700.got - 2010.06.28 07:06:18.
