data_PCOD8137957
_publ_section_title
;
Structure prediction by ZEFSAII (Michael W. Deem and Ramdas Pophale) SiO2 
 PCOD8137957
Probable space group: C 2/C
;
_chemical_formula_sum "Si O2"
_cell_formula_units_Z 56
_cell_length_a 29.625051
_cell_length_b 13.464849
_cell_length_c 8.922359
_cell_angle_alpha 90.000000
_cell_angle_beta 131.659913
_cell_angle_gamma 90.000000
_cell_volume 2659.016405
_symmetry_space_group_name_H-M "C 2/C"
_symmetry_group_IT_number 15
_symmetry_cell_setting 'monoclinic'
loop_
_space_group_symop_operation_xyz
x,y,z
-x,y,1/2-z
-x,-y,-z
x,-y,1/2+z
1/2+x,1/2+y,z
1/2-x,1/2+y,1/2-z
1/2-x,1/2-y,-z
1/2+x,1/2-y,1/2+z
loop_
_atom_site_type_symbol
_atom_site_label
_atom_site_fract_x
_atom_site_fract_y
_atom_site_fract_z
Si Si1 0.917022 0.785617 0.809880
Si Si2 0.789198 0.192361 0.961041
Si Si3 0.377210 0.937789 0.237450
Si Si4 0.000000 0.745710 0.250000
Si Si5 0.073490 0.642057 0.162886
Si Si6 0.500000 0.751614 0.250000
Si Si7 0.700531 0.187448 0.308687
Si Si8 0.795037 0.484082 0.301592
O O1 0.852361 0.841438 0.679545
O O2 0.907621 0.666553 0.767287
O O3 0.953583 0.818650 0.740764
O O4 0.958295 0.811468 0.046093
O O5 0.811659 0.267480 0.882334
O O6 0.757561 0.098760 0.810364
O O7 0.750000 0.250000 0.000000
O O8 0.427790 0.022590 0.335402
O O9 0.353210 0.931448 0.354945
O O10 0.317900 0.970092 0.008848
O O11 0.952650 0.679713 0.237864
O O12 0.141229 0.683608 0.282365
O O13 0.032967 0.676704 0.937629
O O14 0.750000 0.250000 0.500000
O O15 0.727099 0.076670 0.347725
#
# Coordination Sequence:
#
# PCOD8137957 Si02
#       8
#     8   8   8   4   8   4   8   8
#     4  11  21  37  54  85 117 166 202 253 307 360
#     4  12  22  37  62  87 122 162 202 250 314 361
#     4  11  20  35  56  83 127 152 195 253 301 373
#     4  10  24  35  56  86 121 166 216 246 293 379
#     4  10  21  36  55  83 119 162 199 248 301 364
#     4  10  20  37  52  76 121 156 214 238 305 367
#     4  11  23  39  62  90 124 159 196 254 312 363
#     4  11  21  37  56  90 123 157 194 247 305 374
#
# _framework density 21.060419
#
# number of rings (size 3 to 8) (size 9 to 14) (size 15 to 20)
#    0.000    1.143    4.286    3.429    2.000    3.429 
#    0.000    0.000    0.000    0.000    0.000    6.000 
#    0.000    0.000    0.000    0.000    0.000    0.000 
#
# Total GULP energy -346967.310024 kJ/mol
# GULP energy per Si atom -12391.689644 kJ/mol
# Density = 2.101248 g / cm^3
# Si number density = 21.060419 Si / 1000 Ang^3
#
#
#
# Elastic Constant Matrix: (Units=GPa)
#
#
# Indices 1 2 3 4 5 6 
#
# 1 115.0030 14.1807 24.4052 0.0000 -0.2243 0.0000
# 2 14.1807 43.1222 10.5311 0.0000 5.9471 0.0000
# 3 24.4052 10.5311 94.6767 0.0000 12.7878 0.0000
# 4 0.0000 0.0000 0.0000 26.9811 0.0000 6.9951
# 5 -0.2243 5.9471 12.7878 0.0000 38.1040 0.0000
# 6 0.0000 0.0000 0.0000 6.9951 0.0000 19.4343
#
#
#
# Elastic Compliance Matrix: (Units=1/GPa)
#
#
# Indices 1 2 3 4 5 6 
#
# 1 0.009529 -0.002741 -0.002322 0.000000 0.001263 0.000000
# 2 -0.002741 0.024950 -0.001614 0.000000 -0.003369 0.000000
# 3 -0.002322 -0.001614 0.011845 0.000000 -0.003737 0.000000
# 4 0.000000 0.000000 0.000000 0.040878 0.000000 -0.014713
# 5 0.001263 -0.003369 -0.003737 0.000000 0.028031 0.000000
# 6 0.000000 0.000000 0.000000 -0.014713 0.000000 0.056751
#
#
# Mechanical properties :
#
#
# Convention : Reuss Voigt Hill
#
# Bulk Modulus (GPa) = 30.32994 39.00400 34.66697
# Shear Modulus (GPa) = 25.46779 30.48288 27.97533
#
# Velocity S-wave (km/s) = 3.48123 3.80860 3.64859
# Velocity P-wave (km/s) = 5.53094 6.15637 5.85201
#
# Compressibility (1/GPa) = 0.03297073
#
# Stress axis : x y z
#
# Youngs Moduli (GPa) = 104.94740 40.08047 84.42329
#
# Poissons Ratio (x) = 0.10984 0.19603
# Poissons Ratio (y) = 0.28762 0.13624
# Poissons Ratio (z) = 0.24369 0.06468
#
# Static dielectric constant tensor:
#      x y z
#    x 4.415300 0.000000 -0.065060 
#    y 0.000000 3.448320 0.000000 
#    z -0.065060 0.000000 4.147630 
# 
# 
# High freq. dielectric constant tensor:
#      x y z
#    x 1.839250 0.000000 -0.008320 
#    y 0.000000 1.770690 0.000000 
#    z -0.008320 0.000000 1.842660 
# 
# From -- ./inp_files/55684.got.cif
#   From: 2010.06.25/outbox.cif.g09.slc.cpg/sg15_28_cif.got.tgz:55684.got - 2010.06.28 07:06:18.
