data_PCOD8137044
_publ_section_title
;
Structure prediction by ZEFSAII (Michael W. Deem and Ramdas Pophale) SiO2 
 PCOD8137044
Probable space group: C 2/C
;
_chemical_formula_sum "Si O2"
_cell_formula_units_Z 32
_cell_length_a 5.213193
_cell_length_b 28.648678
_cell_length_c 9.779260
_cell_angle_alpha 90.000000
_cell_angle_beta 76.127958
_cell_angle_gamma 90.000000
_cell_volume 1417.944314
_symmetry_space_group_name_H-M "C 2/C"
_symmetry_group_IT_number 15
_symmetry_cell_setting 'monoclinic'
loop_
_space_group_symop_operation_xyz
x,y,z
-x,y,1/2-z
-x,-y,-z
x,-y,1/2+z
1/2+x,1/2+y,z
1/2-x,1/2+y,1/2-z
1/2-x,1/2-y,-z
1/2+x,1/2-y,1/2+z
loop_
_atom_site_type_symbol
_atom_site_label
_atom_site_fract_x
_atom_site_fract_y
_atom_site_fract_z
Si Si1 0.046255 0.594521 0.593684
Si Si2 0.265490 0.684409 0.873740
Si Si3 0.547697 0.453991 0.081387
Si Si4 0.292794 0.709923 0.170355
O O1 0.355574 0.584093 0.530998
O O2 0.000000 0.574314 0.750000
O O3 0.985564 0.649949 0.595717
O O4 0.844977 0.566015 0.520227
O O5 0.500000 0.662536 0.750000
O O6 0.177095 0.734175 0.827295
O O7 0.373136 0.690522 0.013020
O O8 0.500000 0.461783 0.250000
O O9 0.500000 0.500000 0.000000
O O10 0.500000 0.688011 0.250000
O O11 0.000000 0.693995 0.250000
#
# Coordination Sequence:
#
# PCOD8137044 Si02
#       4
#     8   8   8   8
#     4  10  20  35  59  86 111 145 194 245 283 343
#     4  10  21  38  63  88 118 163 212 250 293 354
#     4  10  21  38  59  83 112 145 185 236 297 358
#     4  10  23  39  57  86 126 165 202 252 306 350
#
# _framework density 22.567881
#
# number of rings (size 3 to 8) (size 9 to 14) (size 15 to 20)
#    0.000    2.000    0.000    3.750    0.000   15.000 
#    0.000    3.750    0.000    0.000    0.000    0.000 
#    0.000    0.000    0.000    0.000    0.000    0.000 
#
# Total GULP energy -198296.414767 kJ/mol
# GULP energy per Si atom -12393.525923 kJ/mol
# Density = 2.251652 g / cm^3
# Si number density = 22.567881 Si / 1000 Ang^3
#
#
#
# Elastic Constant Matrix: (Units=GPa)
#
#
# Indices 1 2 3 4 5 6 
#
# 1 174.4592 33.0547 50.2937 0.0000 22.5638 0.0000
# 2 33.0547 61.0589 11.1377 0.0000 -7.1278 0.0000
# 3 50.2937 11.1377 92.2757 0.0000 6.4876 0.0000
# 4 0.0000 0.0000 0.0000 6.6110 0.0000 0.7653
# 5 22.5638 -7.1278 6.4876 0.0000 20.6855 0.0000
# 6 0.0000 0.0000 0.0000 0.7653 0.0000 13.1123
#
#
#
# Elastic Compliance Matrix: (Units=1/GPa)
#
#
# Indices 1 2 3 4 5 6 
#
# 1 0.009240 -0.005618 -0.003593 0.000000 -0.010889 0.000000
# 2 -0.005618 0.021077 -0.000433 0.000000 0.013527 0.000000
# 3 -0.003593 -0.000433 0.012866 0.000000 -0.000265 0.000000
# 4 0.000000 0.000000 0.000000 0.152292 0.000000 -0.008888
# 5 -0.010889 0.013527 -0.000265 0.000000 0.064965 0.000000
# 6 0.000000 0.000000 0.000000 -0.008888 0.000000 0.076783
#
#
# Mechanical properties :
#
#
# Convention : Reuss Voigt Hill
#
# Bulk Modulus (GPa) = 41.84781 57.41844 49.63313
# Shear Modulus (GPa) = 13.71831 23.63562 18.67696
#
# Velocity S-wave (km/s) = 2.46817 3.23973 2.87991
# Velocity P-wave (km/s) = 5.16777 6.28429 5.75318
#
# Compressibility (1/GPa) = 0.02389611
#
# Stress axis : x y z
#
# Youngs Moduli (GPa) = 108.21926 47.44478 77.72314
#
# Poissons Ratio (x) = 0.26655 0.27924
# Poissons Ratio (y) = 0.60800 0.03365
# Poissons Ratio (z) = 0.38881 0.02054
#
# Static dielectric constant tensor:
#      x y z
#    x 4.469140 0.000000 0.145700 
#    y 0.000000 3.764820 0.000000 
#    z 0.145700 0.000000 3.884940 
# 
# 
# High freq. dielectric constant tensor:
#      x y z
#    x 1.910030 0.000000 0.021450 
#    y 0.000000 1.870670 0.000000 
#    z 0.021450 0.000000 1.858000 
# 
# From -- ./inp_files/20107.got.cif
#   From: 2010.06.25/outbox.cif.g09.slc.cpg/sg15_11_cif.got.tgz:20107.got - 2010.06.28 07:06:18.
