data_PCOD8137740
_publ_section_title
;
Structure prediction by ZEFSAII (Michael W. Deem and Ramdas Pophale) SiO2 
 PCOD8137740
Probable space group: C 2/C
;
_chemical_formula_sum "Si O2"
_cell_formula_units_Z 56
_cell_length_a 12.697399
_cell_length_b 32.018809
_cell_length_c 9.360894
_cell_angle_alpha 90.000000
_cell_angle_beta 49.879753
_cell_angle_gamma 90.000000
_cell_volume 2910.213158
_symmetry_space_group_name_H-M "C 2/C"
_symmetry_group_IT_number 15
_symmetry_cell_setting 'monoclinic'
loop_
_space_group_symop_operation_xyz
x,y,z
-x,y,1/2-z
-x,-y,-z
x,-y,1/2+z
1/2+x,1/2+y,z
1/2-x,1/2+y,1/2-z
1/2-x,1/2-y,-z
1/2+x,1/2-y,1/2+z
loop_
_atom_site_type_symbol
_atom_site_label
_atom_site_fract_x
_atom_site_fract_y
_atom_site_fract_z
Si Si1 0.024027 0.819371 0.385151
Si Si2 0.741492 0.369167 0.828252
Si Si3 0.894367 0.755877 0.954507
Si Si4 0.727197 0.124286 0.875557
Si Si5 0.019114 0.663286 0.571988
Si Si6 0.361128 0.459251 0.562935
Si Si7 0.827153 0.963530 0.259686
O O1 0.109591 0.787105 0.408125
O O2 0.116399 0.860465 0.282998
O O3 0.000000 0.798404 0.250000
O O4 0.878567 0.834130 0.578708
O O5 0.854273 0.359857 0.610896
O O6 0.688628 0.414854 0.837706
O O7 0.810019 0.370718 0.925085
O O8 0.955013 0.712543 0.958582
O O9 0.000000 0.776019 0.750000
O O10 0.750000 0.750000 0.000000
O O11 0.622228 0.153107 0.883273
O O12 0.726556 0.076236 0.819937
O O13 0.000000 0.647622 0.750000
O O14 0.332260 0.469265 0.424095
O O15 0.524633 0.457319 0.443899
O O16 0.276326 0.493577 0.730477
#
# Coordination Sequence:
#
# PCOD8137740 Si02
#       7
#     8   8   8   8   8   8   8
#     4  10  20  36  62  88 110 143 196 242 279 337
#     4  10  20  37  59  84 113 149 190 236 282 336
#     4  11  23  41  58  80 117 155 187 237 297 345
#     4  10  20  37  58  84 116 149 183 237 289 332
#     4  11  24  39  55  79 114 152 191 231 283 347
#     4   9  17  32  55  84 114 145 182 230 281 333
#     4   9  17  32  55  83 116 144 180 229 284 332
#
# _framework density 19.242577000000001
#
# number of rings (size 3 to 8) (size 9 to 14) (size 15 to 20)
#    0.000    2.000    1.429    3.000    0.000    2.286 
#    0.000    4.286    0.000    0.000    0.000    0.000 
#    0.000    0.000    0.000    0.000    0.000    0.000 
#
# Total GULP energy -347096.555339 kJ/mol
# GULP energy per Si atom -12396.305548 kJ/mol
# Density = 1.919878 g / cm^3
# Si number density = 19.242577 Si / 1000 Ang^3
#
#
#
# Elastic Constant Matrix: (Units=GPa)
#
#
# Indices 1 2 3 4 5 6 
#
# 1 95.1352 44.9115 26.8355 0.0000 3.7928 0.0000
# 2 44.9115 107.0525 40.5015 0.0000 18.2525 0.0000
# 3 26.8355 40.5015 115.0632 0.0000 0.6514 0.0000
# 4 0.0000 0.0000 0.0000 30.0896 0.0000 5.5526
# 5 3.7928 18.2525 0.6514 0.0000 21.3161 0.0000
# 6 0.0000 0.0000 0.0000 5.5526 0.0000 27.3944
#
#
#
# Elastic Compliance Matrix: (Units=1/GPa)
#
#
# Indices 1 2 3 4 5 6 
#
# 1 0.013381 -0.005588 -0.001168 0.000000 0.002440 0.000000
# 2 -0.005588 0.015228 -0.003989 0.000000 -0.011923 0.000000
# 3 -0.001168 -0.003989 0.010349 0.000000 0.003307 0.000000
# 4 0.000000 0.000000 0.000000 0.034525 0.000000 -0.006998
# 5 0.002440 -0.011923 0.003307 0.000000 0.056587 0.000000
# 6 0.000000 0.000000 0.000000 -0.006998 0.000000 0.037922
#
#
# Mechanical properties :
#
#
# Convention : Reuss Voigt Hill
#
# Bulk Modulus (GPa) = 57.24843 60.19420 58.72131
# Shear Modulus (GPa) = 25.60095 29.42685 27.51390
#
# Velocity S-wave (km/s) = 3.65147 3.91481 3.78543
# Velocity P-wave (km/s) = 6.89878 7.19611 7.04901
#
# Compressibility (1/GPa) = 0.01746773
#
# Stress axis : x y z
#
# Youngs Moduli (GPa) = 74.73004 65.66985 96.63056
#
# Poissons Ratio (x) = 0.36697 0.11284
# Poissons Ratio (y) = 0.41760 0.38549
# Poissons Ratio (z) = 0.08726 0.26198
#
# Static dielectric constant tensor:
#      x y z
#    x 3.392980 0.000000 0.102900 
#    y 0.000000 3.551830 0.000000 
#    z 0.102900 0.000000 3.625210 
# 
# 
# High freq. dielectric constant tensor:
#      x y z
#    x 1.735460 0.000000 0.005020 
#    y 0.000000 1.751580 0.000000 
#    z 0.005020 0.000000 1.749580 
# 
# From -- ./inp_files/35558.got.cif
#   From: 2010.06.25/outbox.cif.g09.slc.cpg/sg15_18_cif.got.tgz:35558.got - 2010.06.28 07:06:18.
