data_PCOD8137269
_publ_section_title
;
Structure prediction by ZEFSAII (Michael W. Deem and Ramdas Pophale) SiO2 
 PCOD8137269
Probable space group: C 2/C
;
_chemical_formula_sum "Si O2"
_cell_formula_units_Z 56
_cell_length_a 18.561302
_cell_length_b 13.991865
_cell_length_c 17.306530
_cell_angle_alpha 90.000000
_cell_angle_beta 41.863128
_cell_angle_gamma 90.000000
_cell_volume 2999.507389
_symmetry_space_group_name_H-M "C 2/C"
_symmetry_group_IT_number 15
_symmetry_cell_setting 'monoclinic'
loop_
_space_group_symop_operation_xyz
x,y,z
-x,y,1/2-z
-x,-y,-z
x,-y,1/2+z
1/2+x,1/2+y,z
1/2-x,1/2+y,1/2-z
1/2-x,1/2-y,-z
1/2+x,1/2-y,1/2+z
loop_
_atom_site_type_symbol
_atom_site_label
_atom_site_fract_x
_atom_site_fract_y
_atom_site_fract_z
Si Si1 0.820104 0.166087 0.728747
Si Si2 0.793609 0.494013 0.088480
Si Si3 0.388549 0.483890 0.385117
Si Si4 0.884359 0.022411 0.557325
Si Si5 0.708927 0.112856 0.258136
Si Si6 0.462615 0.291604 0.362975
Si Si7 0.986705 0.414033 0.851645
O O1 0.737436 0.106931 0.847841
O O2 0.828808 0.115671 0.638587
O O3 0.777180 0.273065 0.753628
O O4 0.939117 0.159963 0.669863
O O5 0.706913 0.521075 0.092174
O O6 0.796436 0.577998 0.149154
O O7 0.909369 0.491498 0.953679
O O8 0.500000 0.491364 0.250000
O O9 0.392715 0.546237 0.459649
O O10 0.370102 0.372505 0.427704
O O11 0.812095 0.929096 0.631721
O O12 0.000000 0.000000 0.500000
O O13 0.603758 0.078836 0.296296
O O14 0.500000 0.257185 0.250000
O O15 0.429746 0.187798 0.422075
O O16 0.000000 0.435415 0.750000
#
# Coordination Sequence:
#
# PCOD8137269 Si02
#       7
#     8   8   8   8   8   8   8
#     4  10  20  36  55  83 115 146 188 238 289 336
#     4  11  21  35  58  78 109 160 183 232 294 345
#     4  11  19  34  55  86 117 139 189 247 291 338
#     4  11  21  36  61  87 112 151 196 242 293 339
#     4  10  23  38  53  83 116 147 191 237 285 350
#     4   9  16  31  50  82 116 136 177 239 288 341
#     4  10  21  35  52  81 113 148 187 226 291 352
#
# _framework density 18.669732
#
# number of rings (size 3 to 8) (size 9 to 14) (size 15 to 20)
#    0.000    1.714    4.286    2.143    2.000    0.571 
#    0.000    0.714    0.000    0.857    0.000    0.000 
#    0.000    0.000    0.000    0.000    0.000    0.000 
#
# Total GULP energy -347046.227588 kJ/mol
# GULP energy per Si atom -12394.508128 kJ/mol
# Density = 1.862724 g / cm^3
# Si number density = 18.669732 Si / 1000 Ang^3
#
#
#
# Elastic Constant Matrix: (Units=GPa)
#
#
# Indices 1 2 3 4 5 6 
#
# 1 140.3322 40.3304 49.2586 0.0000 13.2756 0.0000
# 2 40.3304 66.2709 25.5608 0.0000 7.8467 0.0000
# 3 49.2586 25.5608 100.2255 0.0000 15.9257 0.0000
# 4 0.0000 0.0000 0.0000 23.5821 0.0000 -1.5240
# 5 13.2756 7.8467 15.9257 0.0000 32.2611 0.0000
# 6 0.0000 0.0000 0.0000 -1.5240 0.0000 25.3398
#
#
#
# Elastic Compliance Matrix: (Units=1/GPa)
#
#
# Indices 1 2 3 4 5 6 
#
# 1 0.009732 -0.004445 -0.003456 0.000000 -0.001217 0.000000
# 2 -0.004445 0.018902 -0.002383 0.000000 -0.001592 0.000000
# 3 -0.003456 -0.002383 0.012984 0.000000 -0.004408 0.000000
# 4 0.000000 0.000000 0.000000 0.042570 0.000000 0.002560
# 5 -0.001217 -0.001592 -0.004408 0.000000 0.034061 0.000000
# 6 0.000000 0.000000 0.000000 0.002560 0.000000 0.039618
#
#
# Mechanical properties :
#
#
# Convention : Reuss Voigt Hill
#
# Bulk Modulus (GPa) = 47.50585 59.68094 53.59339
# Shear Modulus (GPa) = 26.96109 29.01519 27.98814
#
# Velocity S-wave (km/s) = 3.80426 3.94652 3.87605
# Velocity P-wave (km/s) = 6.69307 7.26655 6.98570
#
# Compressibility (1/GPa) = 0.02105004
#
# Stress axis : x y z
#
# Youngs Moduli (GPa) = 102.75695 52.90307 77.01731
#
# Poissons Ratio (x) = 0.23517 0.26615
# Poissons Ratio (y) = 0.45679 0.18353
# Poissons Ratio (z) = 0.35510 0.12607
#
# Static dielectric constant tensor:
#      x y z
#    x 3.531820 0.000000 0.139910 
#    y 0.000000 3.270390 0.000000 
#    z 0.139910 0.000000 3.366260 
# 
# 
# High freq. dielectric constant tensor:
#      x y z
#    x 1.732010 0.000000 0.008890 
#    y 0.000000 1.697310 0.000000 
#    z 0.008890 0.000000 1.726590 
# 
# From -- ./inp_files/105283.got.cif
#   From: 2010.06.25/outbox.cif.g09.slc.cpg/sg15_53_cif.got.tgz:105283.got - 2010.06.28 07:06:18.
