data_PCOD8137284
_publ_section_title
;
Structure prediction by ZEFSAII (Michael W. Deem and Ramdas Pophale) SiO2 
 PCOD8137284
Probable space group: C 2/C
;
_chemical_formula_sum "Si O2"
_cell_formula_units_Z 36
_cell_length_a 14.019864
_cell_length_b 9.798602
_cell_length_c 20.230324
_cell_angle_alpha 90.000000
_cell_angle_beta 44.199457
_cell_angle_gamma 90.000000
_cell_volume 1937.502022
_symmetry_space_group_name_H-M "C 2/C"
_symmetry_group_IT_number 15
_symmetry_cell_setting 'monoclinic'
loop_
_space_group_symop_operation_xyz
x,y,z
-x,y,1/2-z
-x,-y,-z
x,-y,1/2+z
1/2+x,1/2+y,z
1/2-x,1/2+y,1/2-z
1/2-x,1/2-y,-z
1/2+x,1/2-y,1/2+z
loop_
_atom_site_type_symbol
_atom_site_label
_atom_site_fract_x
_atom_site_fract_y
_atom_site_fract_z
Si Si1 0.363621 0.373895 0.199914
Si Si2 0.656467 0.659011 0.349861
Si Si3 0.000000 0.982251 0.750000
Si Si4 0.366229 0.639139 0.438306
Si Si5 0.154953 0.156216 0.503055
O O1 0.307226 0.502888 0.186461
O O2 0.248776 0.258572 0.259587
O O3 0.403399 0.422317 0.253680
O O4 0.496513 0.311953 0.097575
O O5 0.498465 0.691087 0.412687
O O6 0.686501 0.686880 0.411334
O O7 0.905433 0.886491 0.842497
O O8 0.250000 0.750000 0.500000
O O9 0.310336 0.500756 0.498734
O O10 0.250000 0.250000 0.500000
#
# Coordination Sequence:
#
# PCOD8137284 Si02
#       5
#     8   8   4   8   8
#     4  10  20  36  56  80 108 144 183 225 270 324
#     4  10  21  37  57  81 111 145 181 224 273 323
#     4   8  18  36  54  76 110 144 180 224 272 322
#     4  10  21  36  56  82 110 143 183 230 272 317
#     4  10  21  38  58  80 110 147 182 222 272 328
#
# _framework density 18.580625000000001
#
# number of rings (size 3 to 8) (size 9 to 14) (size 15 to 20)
#    0.000    2.667    0.000    5.333    0.000    8.889 
#    0.000    3.333    0.000    0.000    0.000    0.000 
#    0.000    0.000    0.000    0.000    0.000    0.000 
#
# Total GULP energy -223200.853828 kJ/mol
# GULP energy per Si atom -12400.047435 kJ/mol
# Density = 1.853834 g / cm^3
# Si number density = 18.580625 Si / 1000 Ang^3
#
#
#
# Elastic Constant Matrix: (Units=GPa)
#
#
# Indices 1 2 3 4 5 6 
#
# 1 87.3190 52.6359 39.1496 0.0000 4.4493 0.0000
# 2 52.6359 107.7702 69.3293 0.0000 -33.5788 0.0000
# 3 39.1496 69.3293 97.3643 0.0000 -3.7834 0.0000
# 4 0.0000 0.0000 0.0000 45.7726 0.0000 -13.3267
# 5 4.4493 -33.5788 -3.7834 0.0000 38.4267 0.0000
# 6 0.0000 0.0000 0.0000 -13.3267 0.0000 35.7318
#
#
#
# Elastic Compliance Matrix: (Units=1/GPa)
#
#
# Indices 1 2 3 4 5 6 
#
# 1 0.022461 -0.019839 0.004337 0.000000 -0.019509 0.000000
# 2 -0.019839 0.047387 -0.024159 0.000000 0.041327 0.000000
# 3 0.004337 -0.024159 0.024986 0.000000 -0.019154 0.000000
# 4 0.000000 0.000000 0.000000 0.024508 0.000000 0.009141
# 5 -0.019509 0.041327 -0.019154 0.000000 0.062510 0.000000
# 6 0.000000 0.000000 0.000000 0.009141 0.000000 0.031395
#
#
# Mechanical properties :
#
#
# Convention : Reuss Voigt Hill
#
# Bulk Modulus (GPa) = 64.47144 68.29813 66.38478
# Shear Modulus (GPa) = 16.79322 32.74213 24.76767
#
# Velocity S-wave (km/s) = 3.00959 4.20237 3.65497
# Velocity P-wave (km/s) = 6.84473 7.77072 7.32238
#
# Compressibility (1/GPa) = 0.01551074
#
# Stress axis : x y z
#
# Youngs Moduli (GPa) = 44.52239 21.10291 40.02321
#
# Poissons Ratio (x) = 0.41865 -0.17358
# Poissons Ratio (y) = 0.88326 0.96694
# Poissons Ratio (z) = -0.19309 0.50983
#
# Static dielectric constant tensor:
#      x y z
#    x 3.366130 0.000000 0.139370 
#    y 0.000000 3.338640 0.000000 
#    z 0.139370 0.000000 3.460490 
# 
# 
# High freq. dielectric constant tensor:
#      x y z
#    x 1.722950 0.000000 0.012490 
#    y 0.000000 1.713920 0.000000 
#    z 0.012490 0.000000 1.727640 
# 
# From -- ./inp_files/150280.got.cif
#   From: 2010.06.25/outbox.cif.g09.slc.cpg/sg15_76_cif.got.tgz:150280.got - 2010.06.28 07:06:18.
