data_PCOD8137387
_publ_section_title
;
Structure prediction by ZEFSAII (Michael W. Deem and Ramdas Pophale) SiO2 
 PCOD8137387
Probable space group: C 2/C
;
_chemical_formula_sum "Si O2"
_cell_formula_units_Z 48
_cell_length_a 13.360873
_cell_length_b 13.434962
_cell_length_c 13.764398
_cell_angle_alpha 90.000000
_cell_angle_beta 89.999916
_cell_angle_gamma 90.000000
_cell_volume 2470.748271
_symmetry_space_group_name_H-M "C 2/C"
_symmetry_group_IT_number 15
_symmetry_cell_setting 'monoclinic'
loop_
_space_group_symop_operation_xyz
x,y,z
-x,y,1/2-z
-x,-y,-z
x,-y,1/2+z
1/2+x,1/2+y,z
1/2-x,1/2+y,1/2-z
1/2-x,1/2-y,-z
1/2+x,1/2-y,1/2+z
loop_
_atom_site_type_symbol
_atom_site_label
_atom_site_fract_x
_atom_site_fract_y
_atom_site_fract_z
Si Si1 0.634168 0.358390 0.094574
Si Si2 0.136567 0.562573 0.306944
Si Si3 0.056269 0.644873 0.115067
Si Si4 0.636567 0.437427 0.693055
Si Si5 0.634166 0.858390 0.405425
Si Si6 0.056269 0.855127 0.884933
O O1 0.578480 0.260837 0.133954
O O2 0.617693 0.446353 0.171090
O O3 0.750001 0.331707 0.080355
O O4 0.589207 0.391133 0.990941
O O5 0.115322 0.577745 0.193044
O O6 0.250000 0.593317 0.332924
O O7 0.117692 0.446354 0.328909
O O8 0.062929 0.630086 0.371974
O O9 0.089203 0.608867 0.009058
O O10 0.615320 0.422255 0.806954
O O11 0.562929 0.369915 0.628023
O O12 0.578478 0.760837 0.366044
#
# Coordination Sequence:
#
# PCOD8137387 Si02
#       6
#     8   8   8   8   8   8
#     4  10  20  37  59  80 107 147 186 218 266 329
#     4  10  21  35  55  83 110 138 180 230 270 312
#     4  10  20  36  58  80 110 146 182 219 268 328
#     4  10  21  35  55  83 110 138 180 230 270 312
#     4  10  20  37  59  80 107 147 186 218 266 329
#     4  10  20  36  58  80 110 146 182 219 268 328
#
# _framework density 19.427313000000002
#
# number of rings (size 3 to 8) (size 9 to 14) (size 15 to 20)
#    0.000    2.000    0.000    5.000    0.000    5.333 
#    0.000    3.333    0.000    8.000    0.000    0.000 
#    0.000    0.000    0.000    0.000    0.000    0.000 
#
# Total GULP energy -297640.350577 kJ/mol
# GULP energy per Si atom -12401.681274 kJ/mol
# Density = 1.938310 g / cm^3
# Si number density = 19.427313 Si / 1000 Ang^3
#
#
#
# Elastic Constant Matrix: (Units=GPa)
#
#
# Indices 1 2 3 4 5 6 
#
# 1 163.5968 72.7999 35.2440 0.0000 0.0012 0.0000
# 2 72.7999 124.0952 77.5620 0.0000 0.0008 0.0000
# 3 35.2440 77.5620 107.7397 0.0000 0.0006 0.0000
# 4 0.0000 0.0000 0.0000 42.5592 0.0000 0.0003
# 5 0.0012 0.0008 0.0006 0.0000 24.7482 0.0000
# 6 0.0000 0.0000 0.0000 0.0003 0.0000 35.6178
#
#
#
# Elastic Compliance Matrix: (Units=1/GPa)
#
#
# Indices 1 2 3 4 5 6 
#
# 1 0.008395 -0.005833 0.001453 0.000000 0.000000 0.000000
# 2 -0.005833 0.018703 -0.011556 0.000000 0.000000 0.000000
# 3 0.001453 -0.011556 0.017126 0.000000 0.000000 0.000000
# 4 0.000000 0.000000 0.000000 0.023497 0.000000 0.000000
# 5 0.000000 0.000000 0.000000 0.000000 0.040407 0.000000
# 6 0.000000 0.000000 0.000000 0.000000 0.000000 0.028076
#
#
# Mechanical properties :
#
#
# Convention : Reuss Voigt Hill
#
# Bulk Modulus (GPa) = 80.96317 85.18258 83.07288
# Shear Modulus (GPa) = 29.03696 34.57343 31.80519
#
# Velocity S-wave (km/s) = 3.87026 4.22314 4.05055
# Velocity P-wave (km/s) = 7.85731 8.22933 8.04547
#
# Compressibility (1/GPa) = 0.01235130
#
# Stress axis : x y z
#
# Youngs Moduli (GPa) = 119.11362 53.46617 58.39154
#
# Poissons Ratio (x) = 0.31189 -0.08485
# Poissons Ratio (y) = 0.69483 0.67480
# Poissons Ratio (z) = -0.17309 0.61788
#
# Static dielectric constant tensor:
#      x y z
#    x 3.783830 0.000000 0.000010 
#    y 0.000000 3.464270 0.000000 
#    z 0.000010 0.000000 3.478960 
# 
# 
# High freq. dielectric constant tensor:
#      x y z
#    x 1.768810 0.000000 0.000000 
#    y 0.000000 1.753280 0.000000 
#    z 0.000000 0.000000 1.753170 
# 
# From -- ./inp_files/153028.got.cif
#   From: 2010.06.25/outbox.cif.g09.slc.cpg/sg15_77_cif.got.tgz:153028.got - 2010.06.28 07:06:18.
