data_PCOD8137048
_publ_section_title
;
Structure prediction by ZEFSAII (Michael W. Deem and Ramdas Pophale) SiO2 
 PCOD8137048
Probable space group: C 2/C
;
_chemical_formula_sum "Si O2"
_cell_formula_units_Z 64
_cell_length_a 16.037026
_cell_length_b 29.816685
_cell_length_c 10.118745
_cell_angle_alpha 90.000000
_cell_angle_beta 138.281455
_cell_angle_gamma 90.000000
_cell_volume 3219.879503
_symmetry_space_group_name_H-M "C 2/C"
_symmetry_group_IT_number 15
_symmetry_cell_setting 'monoclinic'
loop_
_space_group_symop_operation_xyz
x,y,z
-x,y,1/2-z
-x,-y,-z
x,-y,1/2+z
1/2+x,1/2+y,z
1/2-x,1/2+y,1/2-z
1/2-x,1/2-y,-z
1/2+x,1/2-y,1/2+z
loop_
_atom_site_type_symbol
_atom_site_label
_atom_site_fract_x
_atom_site_fract_y
_atom_site_fract_z
Si Si1 0.052920 0.034456 0.456562
Si Si2 0.831039 0.471404 0.224201
Si Si3 0.895801 0.806624 0.233097
Si Si4 0.454291 0.059437 0.332169
Si Si5 0.172947 0.377850 0.371934
Si Si6 0.425992 0.637295 0.031342
Si Si7 0.596468 0.860543 0.554027
Si Si8 0.378489 0.200711 0.186122
O O1 0.198625 0.024812 0.636899
O O2 0.026075 0.087463 0.455457
O O3 0.000000 0.022354 0.250000
O O4 0.000000 0.000000 0.500000
O O5 0.863242 0.517910 0.190294
O O6 0.832533 0.431857 0.117272
O O7 0.926333 0.459477 0.451958
O O8 0.938233 0.827737 0.424267
O O9 0.893077 0.753273 0.224721
O O10 0.000000 0.823963 0.250000
O O11 0.750162 0.818731 0.030749
O O12 0.500000 0.081945 0.250000
O O13 0.378116 0.095912 0.325749
O O14 0.280956 0.363476 0.400367
O O15 0.192047 0.359811 0.543285
O O16 0.045961 0.358906 0.162001
O O17 0.500000 0.654026 0.250000
O O18 0.622173 0.816103 0.665147
O O19 0.500000 0.182396 0.250000
#
# Coordination Sequence:
#
# PCOD8137048 Si02
#       8
#     8   8   8   8   8   8   8   8
#     4  10  23  40  58  80 115 162 206 247 294 352
#     4   9  21  36  53  76 117 149 192 241 301 348
#     4  10  23  42  66  94 124 161 197 252 311 368
#     4  10  21  31  55  85 110 150 193 248 299 354
#     4   9  20  37  56  82 121 155 191 248 298 343
#     4  10  22  41  62  85 124 161 203 250 301 360
#     4  10  20  35  59  87 114 154 198 243 300 366
#     4  10  21  41  67  90 126 155 200 250 313 366
#
# _framework density 19.876519999999999
#
# number of rings (size 3 to 8) (size 9 to 14) (size 15 to 20)
#    0.000    2.250    0.000    1.125    8.750    4.500 
#    2.250    0.625    0.000    0.000    0.000    0.000 
#    0.000    0.000    0.000    0.000    0.000    0.000 
#
# Total GULP energy -396584.732764 kJ/mol
# GULP energy per Si atom -12393.272899 kJ/mol
# Density = 1.983128 g / cm^3
# Si number density = 19.876520 Si / 1000 Ang^3
#
#
#
# Elastic Constant Matrix: (Units=GPa)
#
#
# Indices 1 2 3 4 5 6 
#
# 1 98.8498 28.3106 50.4280 0.0000 -11.5174 0.0000
# 2 28.3106 35.3638 37.7077 0.0000 -8.5141 0.0000
# 3 50.4280 37.7077 67.8621 0.0000 -13.4675 0.0000
# 4 0.0000 0.0000 0.0000 31.4363 0.0000 -8.3796
# 5 -11.5174 -8.5141 -13.4675 0.0000 39.5959 0.0000
# 6 0.0000 0.0000 0.0000 -8.3796 0.0000 29.4063
#
#
#
# Elastic Compliance Matrix: (Units=1/GPa)
#
#
# Indices 1 2 3 4 5 6 
#
# 1 0.016310 -0.000281 -0.011833 0.000000 0.000659 0.000000
# 2 -0.000281 0.069533 -0.038044 0.000000 0.001930 0.000000
# 3 -0.011833 -0.038044 0.045428 0.000000 0.003829 0.000000
# 4 0.000000 0.000000 0.000000 0.034425 0.000000 0.009810
# 5 0.000659 0.001930 0.003829 0.000000 0.027164 0.000000
# 6 0.000000 0.000000 0.000000 0.009810 0.000000 0.036802
#
#
# Mechanical properties :
#
#
# Convention : Reuss Voigt Hill
#
# Bulk Modulus (GPa) = 32.30559 48.32980 40.31770
# Shear Modulus (GPa) = 14.69302 25.79632 20.24467
#
# Velocity S-wave (km/s) = 2.72180 3.60645 3.19489
# Velocity P-wave (km/s) = 5.11527 6.45831 5.82562
#
# Compressibility (1/GPa) = 0.03095439
#
# Stress axis : x y z
#
# Youngs Moduli (GPa) = 61.31097 14.38163 22.01283
#
# Poissons Ratio (x) = 0.00404 0.26048
# Poissons Ratio (y) = 0.01724 0.83746
# Poissons Ratio (z) = 0.72549 0.54714
#
# Static dielectric constant tensor:
#      x y z
#    x 5.066850 0.000000 1.667940 
#    y 0.000000 3.580280 0.000000 
#    z 1.667940 0.000000 5.587600 
# 
# 
# High freq. dielectric constant tensor:
#      x y z
#    x 1.780370 0.000000 0.002450 
#    y 0.000000 1.763740 0.000000 
#    z 0.002450 0.000000 1.775400 
# 
# From -- ./inp_files/44858.got.cif
#   From: 2010.06.25/outbox.cif.g09.slc.cpg/sg15_23_cif.got.tgz:44858.got - 2010.06.28 07:06:18.
