data_PCOD8137342
_publ_section_title
;
Structure prediction by ZEFSAII (Michael W. Deem and Ramdas Pophale) SiO2 
 PCOD8137342
Probable space group: C 2/C
;
_chemical_formula_sum "Si O2"
_cell_formula_units_Z 56
_cell_length_a 11.636129
_cell_length_b 8.540316
_cell_length_c 30.319823
_cell_angle_alpha 90.000000
_cell_angle_beta 112.906447
_cell_angle_gamma 90.000000
_cell_volume 2775.463577
_symmetry_space_group_name_H-M "C 2/C"
_symmetry_group_IT_number 15
_symmetry_cell_setting 'monoclinic'
loop_
_space_group_symop_operation_xyz
x,y,z
-x,y,1/2-z
-x,-y,-z
x,-y,1/2+z
1/2+x,1/2+y,z
1/2-x,1/2+y,1/2-z
1/2-x,1/2-y,-z
1/2+x,1/2-y,1/2+z
loop_
_atom_site_type_symbol
_atom_site_label
_atom_site_fract_x
_atom_site_fract_y
_atom_site_fract_z
Si Si1 0.332830 0.606474 0.807948
Si Si2 0.284007 0.654276 0.558855
Si Si3 0.994601 0.347665 0.626324
Si Si4 0.257465 0.430520 0.634280
Si Si5 0.857754 0.946695 0.979793
Si Si6 0.794212 0.586132 0.620824
Si Si7 0.137709 0.141499 0.261260
O O1 0.453917 0.718486 0.831262
O O2 0.289532 0.541665 0.849181
O O3 0.223631 0.706168 0.768346
O O4 0.366305 0.458454 0.783755
O O5 0.402434 0.770362 0.576936
O O6 0.285718 0.569996 0.605813
O O7 0.159770 0.762083 0.535467
O O8 0.300344 0.533690 0.520663
O O9 0.922655 0.487061 0.641377
O O10 0.108481 0.414896 0.614873
O O11 0.312644 0.466969 0.691009
O O12 0.323251 0.271110 0.626854
O O13 0.782404 0.055459 0.935101
O O14 0.000000 0.000000 0.000000
O O15 0.000000 0.204829 0.250000
#
# Coordination Sequence:
#
# PCOD8137342 Si02
#       7
#     8   8   8   8   8   8   8
#     4  10  22  37  55  81 111 143 182 226 271 326
#     4  10  21  37  58  82 111 145 184 229 274 326
#     4   9  19  39  57  78 113 144 179 228 275 326
#     4  10  22  38  57  84 112 144 186 228 273 327
#     4  10  20  36  57  83 112 146 186 227 275 328
#     4   9  20  38  57  80 113 146 181 228 276 326
#     4  10  22  37  56  83 111 141 183 227 270 325
#
# _framework density 20.176808999999999
#
# number of rings (size 3 to 8) (size 9 to 14) (size 15 to 20)
#    0.000    2.571    0.000    2.571    0.000    9.714 
#    0.000   10.000    0.000    0.000    0.000    0.000 
#    0.000    0.000    0.000    0.000    0.000    0.000 
#
# Total GULP energy -347100.990508 kJ/mol
# GULP energy per Si atom -12396.463947 kJ/mol
# Density = 2.013089 g / cm^3
# Si number density = 20.176809 Si / 1000 Ang^3
#
#
#
# Elastic Constant Matrix: (Units=GPa)
#
#
# Indices 1 2 3 4 5 6 
#
# 1 100.6973 39.9764 23.8639 0.0000 17.2502 0.0000
# 2 39.9764 50.6692 16.1086 0.0000 0.5039 0.0000
# 3 23.8639 16.1086 67.6740 0.0000 1.7839 0.0000
# 4 0.0000 0.0000 0.0000 37.2431 0.0000 -0.2296
# 5 17.2502 0.5039 1.7839 0.0000 30.9456 0.0000
# 6 0.0000 0.0000 0.0000 -0.2296 0.0000 32.7129
#
#
#
# Elastic Compliance Matrix: (Units=1/GPa)
#
#
# Indices 1 2 3 4 5 6 
#
# 1 0.017156 -0.012547 -0.002821 0.000000 -0.009196 0.000000
# 2 -0.012547 0.030528 -0.003018 0.000000 0.006671 0.000000
# 3 -0.002821 -0.003018 0.016472 0.000000 0.000672 0.000000
# 4 0.000000 0.000000 0.000000 0.026852 0.000000 0.000188
# 5 -0.009196 0.006671 0.000672 0.000000 0.037294 0.000000
# 6 0.000000 0.000000 0.000000 0.000188 0.000000 0.030570
#
#
# Mechanical properties :
#
#
# Convention : Reuss Voigt Hill
#
# Bulk Modulus (GPa) = 36.51708 42.10426 39.31067
# Shear Modulus (GPa) = 24.41740 29.45309 26.93524
#
# Velocity S-wave (km/s) = 3.48253 3.82481 3.65767
# Velocity P-wave (km/s) = 5.85734 6.35756 6.11257
#
# Compressibility (1/GPa) = 0.02738444
#
# Stress axis : x y z
#
# Youngs Moduli (GPa) = 58.28929 32.75643 60.70900
#
# Poissons Ratio (x) = 0.41100 0.17123
# Poissons Ratio (y) = 0.73137 0.18322
# Poissons Ratio (z) = 0.16441 0.09886
#
# Static dielectric constant tensor:
#      x y z
#    x 3.668550 0.000000 0.115860 
#    y 0.000000 3.506520 0.000000 
#    z 0.115860 0.000000 3.758460 
# 
# 
# High freq. dielectric constant tensor:
#      x y z
#    x 1.785220 0.000000 0.010020 
#    y 0.000000 1.772700 0.000000 
#    z 0.010020 0.000000 1.798280 
# 
# From -- ./inp_files/310028.got.cif
#   From: 2010.06.25/outbox.cif.g09.slc.cpg/sg15_156_cif.got.tgz:310028.got - 2010.06.28 07:06:18.
