data_PCOD8137164
_publ_section_title
;
Structure prediction by ZEFSAII (Michael W. Deem and Ramdas Pophale) SiO2 
 PCOD8137164
Probable space group: C 2/C
;
_chemical_formula_sum "Si O2"
_cell_formula_units_Z 60
_cell_length_a 12.106347
_cell_length_b 26.085171
_cell_length_c 17.650706
_cell_angle_alpha 90.000000
_cell_angle_beta 150.202160
_cell_angle_gamma 90.000000
_cell_volume 2769.962772
_symmetry_space_group_name_H-M "C 2/C"
_symmetry_group_IT_number 15
_symmetry_cell_setting 'monoclinic'
loop_
_space_group_symop_operation_xyz
x,y,z
-x,y,1/2-z
-x,-y,-z
x,-y,1/2+z
1/2+x,1/2+y,z
1/2-x,1/2+y,1/2-z
1/2-x,1/2-y,-z
1/2+x,1/2-y,1/2+z
loop_
_atom_site_type_symbol
_atom_site_label
_atom_site_fract_x
_atom_site_fract_y
_atom_site_fract_z
Si Si1 0.084154 0.786448 0.445513
Si Si2 0.375959 0.934809 0.788267
Si Si3 0.306493 0.596979 0.483031
Si Si4 0.675665 0.464620 0.146071
Si Si5 0.142833 0.752625 0.647667
Si Si6 0.500000 0.895332 0.250000
Si Si7 0.302570 0.654612 0.226520
Si Si8 0.316819 0.826037 0.007722
O O1 0.250000 0.750000 0.500000
O O2 0.185485 0.842570 0.504325
O O3 0.047509 0.768108 0.509882
O O4 0.842414 0.788894 0.260962
O O5 0.289755 0.918812 0.655003
O O6 0.640466 0.923362 0.949976
O O7 0.230819 0.902124 0.760988
O O8 0.346031 0.995657 0.787624
O O9 0.551967 0.571063 0.634987
O O10 0.794044 0.430364 0.152405
O O11 0.500000 0.500000 0.000000
O O12 0.278240 0.800924 0.764859
O O13 0.938043 0.729957 0.576973
O O14 0.441714 0.860936 0.142915
O O15 0.558111 0.672683 0.372539
O O16 0.162480 0.653154 0.065741
#
# Coordination Sequence:
#
# PCOD8137164 Si02
#       8
#     8   8   8   8   8   4   8   8
#     4  12  25  40  64  97 137 182 225 272 334 405
#     4  10  20  37  68  92 129 170 220 273 335 400
#     4  10  20  35  62  96 129 170 221 273 330 390
#     4  10  20  38  64 100 126 168 223 279 337 401
#     4  12  24  42  63  95 135 180 225 274 332 405
#     4  12  24  42  68  96 134 172 226 288 334 406
#     4  11  23  44  61  96 134 178 223 274 345 404
#     4  11  26  40  66  94 131 178 221 278 338 408
#
# _framework density 21.660941999999999
#
# number of rings (size 3 to 8) (size 9 to 14) (size 15 to 20)
#    0.000    1.067    2.667    5.600    3.733    1.067 
#    0.000    0.667    0.000    1.600    0.000    0.000 
#    0.000    0.000    0.000    0.000    0.000    0.000 
#
# Total GULP energy -371794.360628 kJ/mol
# GULP energy per Si atom -12393.145354 kJ/mol
# Density = 2.161164 g / cm^3
# Si number density = 21.660942 Si / 1000 Ang^3
#
#
#
# Elastic Constant Matrix: (Units=GPa)
#
#
# Indices 1 2 3 4 5 6 
#
# 1 95.1183 63.9129 33.4999 -0.0018 17.0131 -0.0011
# 2 63.9129 147.0796 32.1076 0.0007 6.8776 0.0002
# 3 33.4999 32.1076 79.0120 -0.0025 6.7503 -0.0022
# 4 -0.0018 0.0007 -0.0025 21.1114 -0.0018 13.1429
# 5 17.0131 6.8776 6.7503 -0.0018 42.7381 -0.0012
# 6 -0.0011 0.0002 -0.0022 13.1429 -0.0012 43.5785
#
#
#
# Elastic Compliance Matrix: (Units=1/GPa)
#
#
# Indices 1 2 3 4 5 6 
#
# 1 0.017164 -0.006283 -0.004285 0.000001 -0.005145 0.000000
# 2 -0.006283 0.009783 -0.001410 -0.000001 0.001149 0.000000
# 3 -0.004285 -0.001410 0.015084 0.000001 -0.000450 0.000000
# 4 0.000001 -0.000001 0.000001 0.058317 0.000002 -0.017588
# 5 -0.005145 0.001149 -0.000450 0.000002 0.025333 0.000000
# 6 0.000000 0.000000 0.000000 -0.017588 0.000000 0.028251
#
#
# Mechanical properties :
#
#
# Convention : Reuss Voigt Hill
#
# Bulk Modulus (GPa) = 55.31915 64.47229 59.89572
# Shear Modulus (GPa) = 27.18679 34.26490 30.72585
#
# Velocity S-wave (km/s) = 3.54659 3.98159 3.77037
# Velocity P-wave (km/s) = 6.50885 7.13907 6.83124
#
# Compressibility (1/GPa) = 0.01807692
#
# Stress axis : x y z
#
# Youngs Moduli (GPa) = 58.26167 102.21625 66.29385
#
# Poissons Ratio (x) = 0.64218 0.28405
# Poissons Ratio (y) = 0.36603 0.09347
# Poissons Ratio (z) = 0.24963 0.14412
#
# Static dielectric constant tensor:
#      x y z
#    x 4.260470 -0.000010 0.593830 
#    y -0.000010 4.289140 -0.000050 
#    z 0.593830 -0.000050 4.599630 
# 
# 
# High freq. dielectric constant tensor:
#      x y z
#    x 1.845960 0.000000 0.028130 
#    y 0.000000 1.858370 0.000000 
#    z 0.028130 0.000000 1.838960 
# 
# From -- ./inp_files/201265.got.cif
#   From: 2010.06.25/outbox.cif.g09.slc.cpg/sg15_101_cif.got.tgz:201265.got - 2010.06.28 07:06:18.
