data_PCOD8137139
_publ_section_title
;
Structure prediction by ZEFSAII (Michael W. Deem and Ramdas Pophale) SiO2 
 PCOD8137139
Probable space group: C 2/C
;
_chemical_formula_sum "Si O2"
_cell_formula_units_Z 60
_cell_length_a 13.774528
_cell_length_b 20.796463
_cell_length_c 11.194543
_cell_angle_alpha 90.000000
_cell_angle_beta 66.012375
_cell_angle_gamma 90.000000
_cell_volume 2929.843927
_symmetry_space_group_name_H-M "C 2/C"
_symmetry_group_IT_number 15
_symmetry_cell_setting 'monoclinic'
loop_
_space_group_symop_operation_xyz
x,y,z
-x,y,1/2-z
-x,-y,-z
x,-y,1/2+z
1/2+x,1/2+y,z
1/2-x,1/2+y,1/2-z
1/2-x,1/2-y,-z
1/2+x,1/2-y,1/2+z
loop_
_atom_site_type_symbol
_atom_site_label
_atom_site_fract_x
_atom_site_fract_y
_atom_site_fract_z
Si Si1 0.211546 0.409811 0.772382
Si Si2 0.000000 0.881782 0.250000
Si Si3 0.336372 0.317811 0.162523
Si Si4 0.180726 0.934828 0.013327
Si Si5 0.602662 0.962646 0.259095
Si Si6 0.149397 0.361033 0.408926
Si Si7 0.227537 0.917603 0.493607
Si Si8 0.459515 0.197269 0.143636
O O1 0.302336 0.401925 0.625440
O O2 0.175768 0.483757 0.782512
O O3 0.108085 0.366911 0.799295
O O4 0.262719 0.394508 0.874799
O O5 0.915764 0.840134 0.223718
O O6 0.936811 0.922821 0.379474
O O7 0.219758 0.317686 0.282547
O O8 0.340654 0.363444 0.043415
O O9 0.380220 0.246110 0.112004
O O10 0.178380 0.011779 0.009062
O O11 0.274680 0.904770 0.046427
O O12 0.500000 0.994815 0.250000
O O13 0.574709 0.911248 0.375224
O O14 0.658407 0.922474 0.125656
O O15 0.068393 0.314474 0.516879
O O16 0.500000 0.224979 0.250000
#
# Coordination Sequence:
#
# PCOD8137139 Si02
#       8
#     8   4   8   8   8   8   8   8
#     4  11  22  36  60  96 130 156 204 264 311 369
#     4  10  22  42  66  86 118 162 210 258 312 372
#     4  10  24  43  61  86 125 171 206 250 313 374
#     4  10  21  39  64  93 122 157 206 264 321 361
#     4  10  20  35  61  93 129 166 196 253 328 377
#     4  10  21  40  63  92 125 160 207 261 316 364
#     4  10  22  40  60  89 130 165 198 253 321 377
#     4  12  23  37  62  96 124 163 216 257 296 368
#
# _framework density 20.478905000000001
#
# number of rings (size 3 to 8) (size 9 to 14) (size 15 to 20)
#    0.000    1.600    3.333    1.200    3.733    3.733 
#    0.000    0.000    0.000    3.200    0.000    0.000 
#    0.000    0.000    0.000    0.000    0.000    0.000 
#
# Total GULP energy -371771.242271 kJ/mol
# GULP energy per Si atom -12392.374742 kJ/mol
# Density = 2.043229 g / cm^3
# Si number density = 20.478905 Si / 1000 Ang^3
#
#
#
# Elastic Constant Matrix: (Units=GPa)
#
#
# Indices 1 2 3 4 5 6 
#
# 1 71.5010 34.6445 46.2295 0.0000 -0.4229 0.0000
# 2 34.6445 87.5249 46.1876 0.0000 -8.6058 0.0000
# 3 46.2295 46.1876 125.9016 0.0000 -4.1805 0.0000
# 4 0.0000 0.0000 0.0000 19.0356 0.0000 4.1193
# 5 -0.4229 -8.6058 -4.1805 0.0000 38.0836 0.0000
# 6 0.0000 0.0000 0.0000 4.1193 0.0000 33.4803
#
#
#
# Elastic Compliance Matrix: (Units=1/GPa)
#
#
# Indices 1 2 3 4 5 6 
#
# 1 0.020052 -0.005180 -0.005514 0.000000 -0.001553 0.000000
# 2 -0.005180 0.015776 -0.003783 0.000000 0.003092 0.000000
# 3 -0.005514 -0.003783 0.011366 0.000000 0.000332 0.000000
# 4 0.000000 0.000000 0.000000 0.053970 0.000000 -0.006640
# 5 -0.001553 0.003092 0.000332 0.000000 0.026976 0.000000
# 6 0.000000 0.000000 0.000000 -0.006640 0.000000 0.030685
#
#
# Mechanical properties :
#
#
# Convention : Reuss Voigt Hill
#
# Bulk Modulus (GPa) = 54.82370 59.89450 57.35910
# Shear Modulus (GPa) = 25.79204 28.64429 27.21817
#
# Velocity S-wave (km/s) = 3.55272 3.74401 3.64961
# Velocity P-wave (km/s) = 6.60742 6.92824 6.76973
#
# Compressibility (1/GPa) = 0.01824029
#
# Stress axis : x y z
#
# Youngs Moduli (GPa) = 49.87148 63.38793 87.98054
#
# Poissons Ratio (x) = 0.32834 0.48513
# Poissons Ratio (y) = 0.25832 0.33281
# Poissons Ratio (z) = 0.27499 0.23979
#
# Static dielectric constant tensor:
#      x y z
#    x 3.594540 0.000000 -0.046730 
#    y 0.000000 3.687140 0.000000 
#    z -0.046730 0.000000 4.031000 
# 
# 
# High freq. dielectric constant tensor:
#      x y z
#    x 1.787230 0.000000 0.003730 
#    y 0.000000 1.791400 0.000000 
#    z 0.003730 0.000000 1.808400 
# 
# From -- ./inp_files/99745.got.cif
#   From: 2010.06.25/outbox.cif.g09.slc.cpg/sg15_50_cif.got.tgz:99745.got - 2010.06.28 07:06:18.
