data_PCOD8137954
_publ_section_title
;
Structure prediction by ZEFSAII (Michael W. Deem and Ramdas Pophale) SiO2 
 PCOD8137954
Probable space group: C 2/C
;
_chemical_formula_sum "Si O2"
_cell_formula_units_Z 52
_cell_length_a 30.057186
_cell_length_b 9.282948
_cell_length_c 29.429212
_cell_angle_alpha 90.000000
_cell_angle_beta 161.698434
_cell_angle_gamma 90.000000
_cell_volume 2578.504977
_symmetry_space_group_name_H-M "C 2/C"
_symmetry_group_IT_number 15
_symmetry_cell_setting 'monoclinic'
loop_
_space_group_symop_operation_xyz
x,y,z
-x,y,1/2-z
-x,-y,-z
x,-y,1/2+z
1/2+x,1/2+y,z
1/2-x,1/2+y,1/2-z
1/2-x,1/2-y,-z
1/2+x,1/2-y,1/2+z
loop_
_atom_site_type_symbol
_atom_site_label
_atom_site_fract_x
_atom_site_fract_y
_atom_site_fract_z
Si Si1 0.289575 0.956948 0.726161
Si Si2 0.195371 0.164833 0.805169
Si Si3 0.070264 0.023670 0.445704
Si Si4 0.781449 0.424115 0.822047
Si Si5 0.267309 0.347330 0.958547
Si Si6 0.535564 0.222924 0.611538
Si Si7 0.500000 0.773901 0.750000
O O1 0.347600 0.799805 0.768483
O O2 0.298464 0.987198 0.788284
O O3 0.129722 0.978636 0.553225
O O4 0.385410 0.079760 0.795031
O O5 0.276118 0.220417 0.928787
O O6 0.289207 0.054510 0.866100
O O7 0.057612 0.083350 0.689872
O O8 0.024940 0.191706 0.402811
O O9 0.192313 0.998616 0.526345
O O10 0.635941 0.336348 0.683031
O O11 0.909096 0.314988 0.954854
O O12 0.106147 0.367297 0.821032
O O13 0.387131 0.321813 0.112724
#
# Coordination Sequence:
#
# PCOD8137954 Si02
#       7
#     8   8   8   8   8   8   4
#     4  11  23  37  60  86 122 172 226 258 302 356
#     4  10  23  36  62  91 132 160 209 269 305 361
#     4  10  22  39  57  89 130 161 205 259 314 370
#     4  11  24  39  59  86 126 173 222 260 304 360
#     4  10  20  39  62 102 127 159 196 264 318 375
#     4  11  23  40  55  84 119 172 212 258 313 364
#     4  10  20  36  70  98 132 148 204 260 324 392
#
# _framework density 20.166725
#
# number of rings (size 3 to 8) (size 9 to 14) (size 15 to 20)
#    0.000    1.538    3.077    1.385    6.462    1.231 
#    0.000    0.000    0.000    0.000    0.000   36.615 
#    0.000    0.000    0.000    0.000    0.000    0.000 
#
# Total GULP energy -322243.894554 kJ/mol
# GULP energy per Si atom -12393.995944 kJ/mol
# Density = 2.012082 g / cm^3
# Si number density = 20.166725 Si / 1000 Ang^3
#
#
#
# Elastic Constant Matrix: (Units=GPa)
#
#
# Indices 1 2 3 4 5 6 
#
# 1 94.6871 42.9845 38.4343 0.0056 0.9631 -0.0053
# 2 42.9845 118.4826 33.6875 -0.0006 10.9535 0.0078
# 3 38.4343 33.6875 101.8396 -0.0346 1.1929 0.0133
# 4 0.0056 -0.0006 -0.0346 25.1798 -0.0042 12.4979
# 5 0.9631 10.9535 1.1929 -0.0042 28.0405 -0.0050
# 6 -0.0053 0.0078 0.0133 12.4979 -0.0050 13.0062
#
#
#
# Elastic Compliance Matrix: (Units=1/GPa)
#
#
# Indices 1 2 3 4 5 6 
#
# 1 0.014002 -0.004074 -0.003951 -0.000028 0.001279 0.000040
# 2 -0.004074 0.010860 -0.002008 0.000003 -0.004017 -0.000010
# 3 -0.003951 -0.002008 0.011970 0.000045 0.000411 -0.000056
# 4 -0.000028 0.000003 0.000045 0.075928 -0.000004 -0.072961
# 5 0.001279 -0.004017 0.000411 -0.000004 0.037170 0.000020
# 6 0.000040 -0.000010 -0.000056 -0.072961 0.000020 0.146996
#
#
# Mechanical properties :
#
#
# Convention : Reuss Voigt Hill
#
# Bulk Modulus (GPa) = 59.64870 60.58021 60.11446
# Shear Modulus (GPa) = 15.49988 26.57217 21.03603
#
# Velocity S-wave (km/s) = 2.77535 3.63385 3.23322
# Velocity P-wave (km/s) = 6.31760 6.90734 6.61904
#
# Compressibility (1/GPa) = 0.01676482
#
# Stress axis : x y z
#
# Youngs Moduli (GPa) = 71.42013 92.07718 83.54209
#
# Poissons Ratio (x) = 0.37516 0.33011
# Poissons Ratio (y) = 0.29099 0.16773
# Poissons Ratio (z) = 0.28221 0.18487
#
# Static dielectric constant tensor:
#      x y z
#    x 3.690460 0.000000 0.180160 
#    y 0.000000 3.665840 -0.000030 
#    z 0.180160 -0.000030 3.793860 
# 
# 
# High freq. dielectric constant tensor:
#      x y z
#    x 1.767570 0.000000 0.008980 
#    y 0.000000 1.774770 0.000000 
#    z 0.008980 0.000000 1.801750 
# 
# From -- ./inp_files/320211.got.cif
#   From: 2010.06.25/outbox.cif.g09.slc.cpg/sg15_161_cif.got.tgz:320211.got - 2010.06.28 07:06:18.
