data_PCOD8137405
_publ_section_title
;
Structure prediction by ZEFSAII (Michael W. Deem and Ramdas Pophale) SiO2 
 PCOD8137405
Probable space group: C 2/C
;
_chemical_formula_sum "Si O2"
_cell_formula_units_Z 56
_cell_length_a 8.949392
_cell_length_b 24.179945
_cell_length_c 14.656763
_cell_angle_alpha 90.000000
_cell_angle_beta 59.532151
_cell_angle_gamma 90.000000
_cell_volume 2733.699368
_symmetry_space_group_name_H-M "C 2/C"
_symmetry_group_IT_number 15
_symmetry_cell_setting 'monoclinic'
loop_
_space_group_symop_operation_xyz
x,y,z
-x,y,1/2-z
-x,-y,-z
x,-y,1/2+z
1/2+x,1/2+y,z
1/2-x,1/2+y,1/2-z
1/2-x,1/2-y,-z
1/2+x,1/2-y,1/2+z
loop_
_atom_site_type_symbol
_atom_site_label
_atom_site_fract_x
_atom_site_fract_y
_atom_site_fract_z
Si Si1 0.236451 0.187755 0.413056
Si Si2 0.622443 0.236964 0.789811
Si Si3 0.915920 0.615911 0.633682
Si Si4 0.085304 0.942283 0.313600
Si Si5 0.999403 0.220602 0.850844
Si Si6 0.766955 0.584583 0.494533
Si Si7 0.855900 0.481385 0.361269
O O1 0.131895 0.213910 0.361313
O O2 0.418807 0.218346 0.365556
O O3 0.280419 0.122183 0.397703
O O4 0.120328 0.189134 0.540943
O O5 0.500000 0.260381 0.750000
O O6 0.546998 0.180559 0.857902
O O7 0.802408 0.226375 0.680970
O O8 0.734821 0.600606 0.738089
O O9 0.899572 0.606918 0.530441
O O10 0.074864 0.578504 0.623880
O O11 0.175356 0.981548 0.360458
O O12 0.000000 0.972566 0.250000
O O13 0.930580 0.910488 0.410470
O O14 0.000000 0.191140 0.750000
O O15 0.823569 0.521834 0.456239
O O16 0.000000 0.507222 0.250000
#
# Coordination Sequence:
#
# PCOD8137405 Si02
#       7
#     8   8   8   8   8   8   8
#     4  10  21  35  55  85 111 145 189 226 281 353
#     4  11  22  37  57  80 113 150 188 239 285 331
#     4  10  20  36  58  83 107 141 191 239 280 323
#     4   9  19  35  58  82 105 142 190 232 272 325
#     4   9  18  35  56  78 108 143 185 231 273 331
#     4  11  20  35  58  82 111 145 181 231 288 341
#     4  10  21  36  54  82 114 144 184 230 281 337
#
# _framework density 20.485063
#
# number of rings (size 3 to 8) (size 9 to 14) (size 15 to 20)
#    0.000    2.000    0.000    5.571    0.000    5.714 
#    0.000    2.143    0.000    0.000    0.000    0.000 
#    0.000    0.000    0.000    0.000    0.000    0.000 
#
# Total GULP energy -346898.947997 kJ/mol
# GULP energy per Si atom -12389.248143 kJ/mol
# Density = 2.043844 g / cm^3
# Si number density = 20.485063 Si / 1000 Ang^3
#
#
#
# Elastic Constant Matrix: (Units=GPa)
#
#
# Indices 1 2 3 4 5 6 
#
# 1 149.0435 43.1155 29.4359 0.0000 18.9288 0.0000
# 2 43.1155 92.7450 30.4527 0.0000 18.5803 0.0000
# 3 29.4359 30.4527 57.2615 0.0000 15.6939 0.0000
# 4 0.0000 0.0000 0.0000 52.2908 0.0000 -48.0994
# 5 18.9288 18.5803 15.6939 0.0000 24.7303 0.0000
# 6 0.0000 0.0000 0.0000 -48.0994 0.0000 135.4563
#
#
#
# Elastic Compliance Matrix: (Units=1/GPa)
#
#
# Indices 1 2 3 4 5 6 
#
# 1 0.008241 -0.002541 -0.002033 0.000000 -0.003108 0.000000
# 2 -0.002541 0.014784 -0.004897 0.000000 -0.006056 0.000000
# 3 -0.002033 -0.004897 0.023822 0.000000 -0.009882 0.000000
# 4 0.000000 0.000000 0.000000 0.028400 0.000000 0.010085
# 5 -0.003108 -0.006056 -0.009882 0.000000 0.053636 0.000000
# 6 0.000000 0.000000 0.000000 0.010085 0.000000 0.010963
#
#
# Mechanical properties :
#
#
# Convention : Reuss Voigt Hill
#
# Bulk Modulus (GPa) = 35.83548 56.11757 45.97653
# Shear Modulus (GPa) = 29.74609 55.56522 42.65565
#
# Velocity S-wave (km/s) = 3.81476 5.21379 4.56815
# Velocity P-wave (km/s) = 6.07739 7.98115 7.09342
#
# Compressibility (1/GPa) = 0.02790531
#
# Stress axis : x y z
#
# Youngs Moduli (GPa) = 121.34841 67.63895 41.97885
#
# Poissons Ratio (x) = 0.17185 0.08535
# Poissons Ratio (y) = 0.30830 0.20557
# Poissons Ratio (z) = 0.24672 0.33122
#
# Static dielectric constant tensor:
#      x y z
#    x 3.903880 0.000000 -0.008460 
#    y 0.000000 3.464960 0.000000 
#    z -0.008460 0.000000 3.824360 
# 
# 
# High freq. dielectric constant tensor:
#      x y z
#    x 1.802400 0.000000 0.002310 
#    y 0.000000 1.779490 0.000000 
#    z 0.002310 0.000000 1.794230 
# 
# From -- ./inp_files/137688.got.cif
#   From: 2010.06.25/outbox.cif.g09.slc.cpg/sg15_69_cif.got.tgz:137688.got - 2010.06.28 07:06:18.
