data_PCOD8137708
_publ_section_title
;
Structure prediction by ZEFSAII (Michael W. Deem and Ramdas Pophale) SiO2 
 PCOD8137708
Probable space group: C 2/C
;
_chemical_formula_sum "Si O2"
_cell_formula_units_Z 40
_cell_length_a 24.509828
_cell_length_b 8.655926
_cell_length_c 9.093831
_cell_angle_alpha 90.000000
_cell_angle_beta 79.676364
_cell_angle_gamma 90.000000
_cell_volume 1898.070927
_symmetry_space_group_name_H-M "C 2/C"
_symmetry_group_IT_number 15
_symmetry_cell_setting 'monoclinic'
loop_
_space_group_symop_operation_xyz
x,y,z
-x,y,1/2-z
-x,-y,-z
x,-y,1/2+z
1/2+x,1/2+y,z
1/2-x,1/2+y,1/2-z
1/2-x,1/2-y,-z
1/2+x,1/2-y,1/2+z
loop_
_atom_site_type_symbol
_atom_site_label
_atom_site_fract_x
_atom_site_fract_y
_atom_site_fract_z
Si Si1 0.494755 0.331198 0.929566
Si Si2 0.791353 0.324263 0.092193
Si Si3 0.726927 0.816288 0.864976
Si Si4 0.112307 0.144472 0.866544
Si Si5 0.600523 0.324770 0.032277
O O1 0.500000 0.328881 0.750000
O O2 0.500000 0.500000 0.000000
O O3 0.435026 0.266150 0.012938
O O4 0.546339 0.244681 0.982828
O O5 0.779773 0.223812 0.240628
O O6 0.780142 0.502083 0.126845
O O7 0.750000 0.250000 0.000000
O O8 0.853535 0.307459 0.003785
O O9 0.669630 0.737276 0.842708
O O10 0.750000 0.750000 0.000000
O O11 0.091293 0.130346 0.707704
O O12 0.120592 0.974884 0.931410
#
# Coordination Sequence:
#
# PCOD8137708 Si02
#       5
#     8   8   8   8   8
#     4  10  20  36  61  95 129 170 218 263 319 384
#     4  12  25  46  63  99 128 173 217 263 327 382
#     4  12  27  42  69  93 134 171 216 268 319 389
#     4  11  22  40  64  97 128 174 215 266 323 381
#     4  11  22  39  66  93 134 168 220 265 319 388
#
# _framework density 21.074027000000001
#
# number of rings (size 3 to 8) (size 9 to 14) (size 15 to 20)
#    0.000    0.800    2.000    9.000    5.600    0.000 
#    0.000    1.000    0.000    0.000    0.000    0.000 
#    0.000    0.000    0.000    0.000    0.000    0.000 
#
# Total GULP energy -247811.402746 kJ/mol
# GULP energy per Si atom -12390.570137 kJ/mol
# Density = 2.102606 g / cm^3
# Si number density = 21.074027 Si / 1000 Ang^3
#
#
#
# Elastic Constant Matrix: (Units=GPa)
#
#
# Indices 1 2 3 4 5 6 
#
# 1 118.8374 13.2601 38.8279 0.0000 -0.0420 0.0000
# 2 13.2601 91.5969 22.9046 0.0000 -3.6778 0.0000
# 3 38.8279 22.9046 186.7244 0.0000 9.3642 0.0000
# 4 0.0000 0.0000 0.0000 24.5455 0.0000 -4.2187
# 5 -0.0420 -3.6778 9.3642 0.0000 45.8729 0.0000
# 6 0.0000 0.0000 0.0000 -4.2187 0.0000 29.1934
#
#
#
# Elastic Compliance Matrix: (Units=1/GPa)
#
#
# Indices 1 2 3 4 5 6 
#
# 1 0.009099 -0.000854 -0.001803 0.000000 0.000308 0.000000
# 2 -0.000854 0.011409 -0.001281 0.000000 0.001175 0.000000
# 3 -0.001803 -0.001281 0.005954 0.000000 -0.001320 0.000000
# 4 0.000000 0.000000 0.000000 0.041778 0.000000 0.006037
# 5 0.000308 0.001175 -0.001320 0.000000 0.022163 0.000000
# 6 0.000000 0.000000 0.000000 0.006037 0.000000 0.035127
#
#
# Mechanical properties :
#
#
# Convention : Reuss Voigt Hill
#
# Bulk Modulus (GPa) = 53.80358 60.79378 57.29868
# Shear Modulus (GPa) = 35.81649 41.40010 38.60830
#
# Velocity S-wave (km/s) = 4.12704 4.43709 4.28487
# Velocity P-wave (km/s) = 6.94954 7.42702 7.19225
#
# Compressibility (1/GPa) = 0.01858612
#
# Stress axis : x y z
#
# Youngs Moduli (GPa) = 109.89857 87.65388 167.96412
#
# Poissons Ratio (x) = 0.07486 0.30281
# Poissons Ratio (y) = 0.09386 0.21512
# Poissons Ratio (z) = 0.19813 0.11226
#
# Static dielectric constant tensor:
#      x y z
#    x 4.322690 0.000000 0.251630 
#    y 0.000000 3.198250 0.000000 
#    z 0.251630 0.000000 3.824280 
# 
# 
# High freq. dielectric constant tensor:
#      x y z
#    x 1.851690 0.000000 -0.001750 
#    y 0.000000 1.783340 0.000000 
#    z -0.001750 0.000000 1.854370 
# 
# From -- ./inp_files/59929.got.cif
#   From: 2010.06.25/outbox.cif.g09.slc.cpg/sg15_30_cif.got.tgz:59929.got - 2010.06.28 07:06:18.
