data_PCOD8137867
_publ_section_title
;
Structure prediction by ZEFSAII (Michael W. Deem and Ramdas Pophale) SiO2 
 PCOD8137867
Probable space group: C 2/C
;
_chemical_formula_sum "Si O2"
_cell_formula_units_Z 44
_cell_length_a 13.922783
_cell_length_b 9.887446
_cell_length_c 16.831214
_cell_angle_alpha 90.000000
_cell_angle_beta 62.289135
_cell_angle_gamma 90.000000
_cell_volume 2051.250804
_symmetry_space_group_name_H-M "C 2/C"
_symmetry_group_IT_number 15
_symmetry_cell_setting 'monoclinic'
loop_
_space_group_symop_operation_xyz
x,y,z
-x,y,1/2-z
-x,-y,-z
x,-y,1/2+z
1/2+x,1/2+y,z
1/2-x,1/2+y,1/2-z
1/2-x,1/2-y,-z
1/2+x,1/2-y,1/2+z
loop_
_atom_site_type_symbol
_atom_site_label
_atom_site_fract_x
_atom_site_fract_y
_atom_site_fract_z
Si Si1 0.627189 0.511961 0.961989
Si Si2 0.500000 0.925180 0.250000
Si Si3 0.472183 0.925949 0.429441
Si Si4 0.776795 0.278056 0.321399
Si Si5 0.751907 0.027093 0.431497
Si Si6 0.827066 0.733466 0.626868
O O1 0.675732 0.641989 0.898526
O O2 0.689224 0.380330 0.904333
O O3 0.500000 0.500000 0.000000
O O4 0.645917 0.518510 0.049408
O O5 0.505274 0.005688 0.333209
O O6 0.392828 0.835554 0.302714
O O7 0.343721 0.901403 0.479375
O O8 0.544216 0.789133 0.403183
O O9 0.500000 0.000000 0.500000
O O10 0.776163 0.121265 0.347263
O O11 0.758594 0.278269 0.233934
O O12 0.718043 0.878081 0.416501
#
# Coordination Sequence:
#
# PCOD8137867 Si02
#       6
#     8   4   8   8   8   8
#     4  12  25  40  66  98 134 174 220 267 332 395
#     4  10  20  36  64  94 122 166 230 276 320 392
#     4   9  19  37  64  90 124 167 216 265 328 392
#     4  11  23  40  68  94 123 171 228 273 324 395
#     4  11  22  42  66  90 132 176 215 266 338 396
#     4  10  23  42  63  95 133 165 215 279 331 390
#
# _framework density 21.450327999999999
#
# number of rings (size 3 to 8) (size 9 to 14) (size 15 to 20)
#    0.000    1.455    1.818    3.273    5.091    0.000 
#    0.000    0.000    0.000    0.000    0.000    0.000 
#    0.000    0.000    0.000    0.000    0.000    0.000 
#
# Total GULP energy -272636.401291 kJ/mol
# GULP energy per Si atom -12392.563695 kJ/mol
# Density = 2.140151 g / cm^3
# Si number density = 21.450328 Si / 1000 Ang^3
#
#
#
# Elastic Constant Matrix: (Units=GPa)
#
#
# Indices 1 2 3 4 5 6 
#
# 1 110.8201 19.5290 38.9577 0.0000 -0.1209 0.0000
# 2 19.5290 94.6193 25.6494 0.0000 10.2811 0.0000
# 3 38.9577 25.6494 126.8693 0.0000 26.3446 0.0000
# 4 0.0000 0.0000 0.0000 31.5151 0.0000 5.8946
# 5 -0.1209 10.2811 26.3446 0.0000 40.0553 0.0000
# 6 0.0000 0.0000 0.0000 5.8946 0.0000 18.1415
#
#
#
# Elastic Compliance Matrix: (Units=1/GPa)
#
#
# Indices 1 2 3 4 5 6 
#
# 1 0.010520 -0.001521 -0.003487 0.000000 0.002716 0.000000
# 2 -0.001521 0.011491 -0.001439 0.000000 -0.002007 0.000000
# 3 -0.003487 -0.001439 0.010620 0.000000 -0.006626 0.000000
# 4 0.000000 0.000000 0.000000 0.033784 0.000000 -0.010977
# 5 0.002716 -0.002007 -0.006626 0.000000 0.029847 0.000000
# 6 0.000000 0.000000 0.000000 -0.010977 0.000000 0.058689
#
#
# Mechanical properties :
#
#
# Convention : Reuss Voigt Hill
#
# Bulk Modulus (GPa) = 50.66755 55.62012 53.14383
# Shear Modulus (GPa) = 28.66576 34.48721 31.57648
#
# Velocity S-wave (km/s) = 3.65962 4.01405 3.84092
# Velocity P-wave (km/s) = 6.44432 6.88981 6.67078
#
# Compressibility (1/GPa) = 0.01973650
#
# Stress axis : x y z
#
# Youngs Moduli (GPa) = 95.05312 87.02541 94.16520
#
# Poissons Ratio (x) = 0.13239 0.32834
# Poissons Ratio (y) = 0.14460 0.13552
# Poissons Ratio (z) = 0.33144 0.12524
#
# Static dielectric constant tensor:
#      x y z
#    x 4.084190 0.000000 0.005910 
#    y 0.000000 3.637010 0.000000 
#    z 0.005910 0.000000 4.232270 
# 
# 
# High freq. dielectric constant tensor:
#      x y z
#    x 1.847820 0.000000 0.011340 
#    y 0.000000 1.811300 0.000000 
#    z 0.011340 0.000000 1.862170 
# 
# From -- ./inp_files/202943.got.cif
#   From: 2010.06.25/outbox.cif.g09.slc.cpg/sg15_102_cif.got.tgz:202943.got - 2010.06.28 07:06:18.
