data_PCOD8137393
_publ_section_title
;
Structure prediction by ZEFSAII (Michael W. Deem and Ramdas Pophale) SiO2 
 PCOD8137393
Probable space group: C 2/C
;
_chemical_formula_sum "Si O2"
_cell_formula_units_Z 36
_cell_length_a 7.739285
_cell_length_b 30.705706
_cell_length_c 7.758577
_cell_angle_alpha 90.000000
_cell_angle_beta 69.054691
_cell_angle_gamma 90.000000
_cell_volume 1721.918705
_symmetry_space_group_name_H-M "C 2/C"
_symmetry_group_IT_number 15
_symmetry_cell_setting 'monoclinic'
loop_
_space_group_symop_operation_xyz
x,y,z
-x,y,1/2-z
-x,-y,-z
x,-y,1/2+z
1/2+x,1/2+y,z
1/2-x,1/2+y,1/2-z
1/2-x,1/2-y,-z
1/2+x,1/2-y,1/2+z
loop_
_atom_site_type_symbol
_atom_site_label
_atom_site_fract_x
_atom_site_fract_y
_atom_site_fract_z
Si Si1 0.000000 0.757851 0.250000
Si Si2 0.897587 0.296936 0.113756
Si Si3 0.487700 0.110060 0.454065
Si Si4 0.184618 0.053313 0.080434
Si Si5 0.180737 0.465928 0.304981
O O1 0.179142 0.788248 0.202826
O O2 0.989931 0.727925 0.421766
O O3 0.000000 0.280779 0.250000
O O4 0.924670 0.348313 0.083334
O O5 0.500000 0.121328 0.250000
O O6 0.691580 0.096375 0.445025
O O7 0.338870 0.071381 0.542456
O O8 0.000000 0.061663 0.250000
O O9 0.296982 0.012339 0.115670
O O10 0.148107 0.044270 0.888629
O O11 0.000000 0.465464 0.250000
#
# Coordination Sequence:
#
# PCOD8137393 Si02
#       5
#     4   8   8   8   8
#     4  10  24  44  70 106 124 172 216 252 338 392
#     4  11  22  45  70  98 135 168 210 268 323 387
#     4  11  22  41  59  86 125 169 210 264 318 379
#     4  11  21  36  56  89 118 164 212 262 318 376
#     4  10  20  36  58  80 119 167 209 256 326 372
#
# _framework density 20.906908999999999
#
# number of rings (size 3 to 8) (size 9 to 14) (size 15 to 20)
#    0.000    1.333    1.111    8.000    0.000    0.000 
#   10.000    1.111    0.000    0.000    0.000    0.000 
#    0.000    0.000    0.000    0.000    0.000    0.000 
#
# Total GULP energy -223224.435997 kJ/mol
# GULP energy per Si atom -12401.357555 kJ/mol
# Density = 2.085932 g / cm^3
# Si number density = 20.906909 Si / 1000 Ang^3
#
#
#
# Elastic Constant Matrix: (Units=GPa)
#
#
# Indices 1 2 3 4 5 6 
#
# 1 69.1625 54.4360 45.5326 0.0000 -5.1743 0.0000
# 2 54.4360 128.3170 41.5466 0.0000 -14.9905 0.0000
# 3 45.5326 41.5466 147.6831 0.0000 -4.8877 0.0000
# 4 0.0000 0.0000 0.0000 30.0393 0.0000 1.0456
# 5 -5.1743 -14.9905 -4.8877 0.0000 43.5139 0.0000
# 6 0.0000 0.0000 0.0000 1.0456 0.0000 7.3962
#
#
#
# Elastic Compliance Matrix: (Units=1/GPa)
#
#
# Indices 1 2 3 4 5 6 
#
# 1 0.024855 -0.008954 -0.005168 0.000000 -0.000710 0.000000
# 2 -0.008954 0.012126 -0.000550 0.000000 0.003051 0.000000
# 3 -0.005168 -0.000550 0.008524 0.000000 0.000154 0.000000
# 4 0.000000 0.000000 0.000000 0.033454 0.000000 -0.004729
# 5 -0.000710 0.003051 0.000154 0.000000 0.023965 0.000000
# 6 0.000000 0.000000 0.000000 -0.004729 0.000000 0.135873
#
#
# Mechanical properties :
#
#
# Convention : Reuss Voigt Hill
#
# Bulk Modulus (GPa) = 61.87078 69.79920 65.83499
# Shear Modulus (GPa) = 18.27963 29.76638 24.02300
#
# Velocity S-wave (km/s) = 2.96012 3.77737 3.39344
# Velocity P-wave (km/s) = 6.42968 7.24450 6.84922
#
# Compressibility (1/GPa) = 0.01616272
#
# Stress axis : x y z
#
# Youngs Moduli (GPa) = 40.23299 82.46605 117.31212
#
# Poissons Ratio (x) = 0.73840 0.60623
# Poissons Ratio (y) = 0.36025 0.06449
# Poissons Ratio (z) = 0.20791 0.04534
#
# Static dielectric constant tensor:
#      x y z
#    x 3.504510 0.000000 -0.042590 
#    y 0.000000 3.619350 0.000000 
#    z -0.042590 0.000000 4.617340 
# 
# 
# High freq. dielectric constant tensor:
#      x y z
#    x 1.795390 0.000000 -0.000090 
#    y 0.000000 1.809730 0.000000 
#    z -0.000090 0.000000 1.857970 
# 
# From -- ./inp_files/24311.got.cif
#   From: 2010.06.25/outbox.cif.g09.slc.cpg/sg15_13_cif.got.tgz:24311.got - 2010.06.28 07:06:18.
