data_PCOD8137208
_publ_section_title
;
Structure prediction by ZEFSAII (Michael W. Deem and Ramdas Pophale) SiO2 
 PCOD8137208
Probable space group: C 2/C
;
_chemical_formula_sum "Si O2"
_cell_formula_units_Z 40
_cell_length_a 15.615139
_cell_length_b 8.863478
_cell_length_c 12.665353
_cell_angle_alpha 90.000000
_cell_angle_beta 62.053631
_cell_angle_gamma 90.000000
_cell_volume 1548.524766
_symmetry_space_group_name_H-M "C 2/C"
_symmetry_group_IT_number 15
_symmetry_cell_setting 'monoclinic'
loop_
_space_group_symop_operation_xyz
x,y,z
-x,y,1/2-z
-x,-y,-z
x,-y,1/2+z
1/2+x,1/2+y,z
1/2-x,1/2+y,1/2-z
1/2-x,1/2-y,-z
1/2+x,1/2-y,1/2+z
loop_
_atom_site_type_symbol
_atom_site_label
_atom_site_fract_x
_atom_site_fract_y
_atom_site_fract_z
Si Si1 0.940064 0.391574 0.883943
Si Si2 0.740885 0.266563 0.684159
Si Si3 0.260778 0.577555 0.099100
Si Si4 0.411302 0.454799 0.865631
Si Si5 0.952406 0.695220 0.984869
O O1 0.827196 0.373863 0.924684
O O2 0.000000 0.332937 0.750000
O O3 0.968090 0.292100 0.969060
O O4 0.974647 0.561526 0.890366
O O5 0.722171 0.299993 0.818531
O O6 0.739630 0.087242 0.662688
O O7 0.660105 0.350736 0.662018
O O8 0.845060 0.332641 0.593089
O O9 0.351986 0.579287 0.965709
O O10 0.500000 0.532836 0.750000
O O11 0.466113 0.350570 0.917197
#
# Coordination Sequence:
#
# PCOD8137208 Si02
#       5
#     8   8   8   8   8
#     4  11  19  33  66 107 132 162 232 304 340 386
#     4  11  22  41  68  99 144 181 231 290 347 417
#     4  11  23  42  68 107 138 182 233 288 352 415
#     4  11  23  43  68  93 142 194 232 274 351 430
#     4  10  20  35  66 104 130 176 233 297 338 401
#
# _framework density 25.831036000000001
#
# number of rings (size 3 to 8) (size 9 to 14) (size 15 to 20)
#    0.000    1.200    6.000    1.800    0.000    0.800 
#    0.000    1.000    8.800    0.000    0.000    5.600 
#    0.000    0.000    0.000    0.000    0.000    0.000 
#
# Total GULP energy -248051.443883 kJ/mol
# GULP energy per Si atom -12402.572194 kJ/mol
# Density = 2.577224 g / cm^3
# Si number density = 25.831036 Si / 1000 Ang^3
#
#
#
# Elastic Constant Matrix: (Units=GPa)
#
#
# Indices 1 2 3 4 5 6 
#
# 1 153.4815 51.2488 81.4905 0.0000 14.2556 0.0000
# 2 51.2488 54.9007 30.7319 0.0000 3.5273 0.0000
# 3 81.4905 30.7319 174.5584 0.0000 -9.0503 0.0000
# 4 0.0000 0.0000 0.0000 7.7394 0.0000 15.2242
# 5 14.2556 3.5273 -9.0503 0.0000 54.5815 0.0000
# 6 0.0000 0.0000 0.0000 15.2242 0.0000 21.4807
#
#
#
# Elastic Compliance Matrix: (Units=1/GPa)
#
#
# Indices 1 2 3 4 5 6 
#
# 1 0.011917 -0.008549 -0.004228 0.000000 -0.003261 0.000000
# 2 -0.008549 0.026538 -0.000660 0.000000 0.000408 0.000000
# 3 -0.004228 -0.000660 0.007946 0.000000 0.002464 0.000000
# 4 0.000000 0.000000 0.000000 -0.327809 0.000000 0.232330
# 5 -0.003261 0.000408 0.002464 0.000000 0.019555 0.000000
# 6 0.000000 0.000000 0.000000 0.232330 0.000000 -0.118108
#
#
# Mechanical properties :
#
#
# Convention : Reuss Voigt Hill
#
# Bulk Modulus (GPa) = 51.20580 78.87589 65.04084
# Shear Modulus (GPa) = -14.42680 31.39162 8.48241
#
# Velocity S-wave (km/s) = -2.36584 3.48985 1.81409
# Velocity P-wave (km/s) = 3.52186 6.84400 5.44260
#
# Compressibility (1/GPa) = 0.01952904
#
# Stress axis : x y z
#
# Youngs Moduli (GPa) = 83.91065 37.68169 125.84456
#
# Poissons Ratio (x) = 0.32213 0.53201
# Poissons Ratio (y) = 0.71733 0.08307
# Poissons Ratio (z) = 0.35474 0.02487
#
# Static dielectric constant tensor:
#      x y z
#    x 4.785660 0.000000 0.080130 
#    y 0.000000 4.351870 0.000000 
#    z 0.080130 0.000000 4.888250 
# 
# 
# High freq. dielectric constant tensor:
#      x y z
#    x 2.049260 0.000000 0.005940 
#    y 0.000000 2.026970 0.000000 
#    z 0.005940 0.000000 2.042440 
# 
# From -- ./inp_files/94858.got.cif
#   From: 2010.06.25/outbox.cif.g09.slc.cpg/sg15_48_cif.got.tgz:94858.got - 2010.06.28 07:06:18.
