data_PCOD8137799
_publ_section_title
;
Structure prediction by ZEFSAII (Michael W. Deem and Ramdas Pophale) SiO2 
 PCOD8137799
Probable space group: C 2/C
;
_chemical_formula_sum "Si O2"
_cell_formula_units_Z 40
_cell_length_a 13.969870
_cell_length_b 13.014495
_cell_length_c 9.708032
_cell_angle_alpha 90.000000
_cell_angle_beta 78.393824
_cell_angle_gamma 90.000000
_cell_volume 1728.936633
_symmetry_space_group_name_H-M "C 2/C"
_symmetry_group_IT_number 15
_symmetry_cell_setting 'monoclinic'
loop_
_space_group_symop_operation_xyz
x,y,z
-x,y,1/2-z
-x,-y,-z
x,-y,1/2+z
1/2+x,1/2+y,z
1/2-x,1/2+y,1/2-z
1/2-x,1/2-y,-z
1/2+x,1/2-y,1/2+z
loop_
_atom_site_type_symbol
_atom_site_label
_atom_site_fract_x
_atom_site_fract_y
_atom_site_fract_z
Si Si1 0.147751 0.030987 0.986452
Si Si2 0.486081 0.349700 0.406806
Si Si3 0.752573 0.404357 0.719561
Si Si4 0.068951 0.526338 0.854508
Si Si5 0.826797 0.728758 0.598986
O O1 0.090742 0.130148 0.946033
O O2 0.195423 0.973077 0.845585
O O3 0.228865 0.068728 0.069187
O O4 0.073761 0.956081 0.089192
O O5 0.500000 0.303364 0.250000
O O6 0.432072 0.269801 0.521609
O O7 0.868969 0.424399 0.705211
O O8 0.719964 0.286595 0.755622
O O9 0.153240 0.610589 0.867241
O O10 0.000000 0.563662 0.750000
O O11 0.000000 0.500000 0.000000
O O12 0.750000 0.750000 0.500000
#
# Coordination Sequence:
#
# PCOD8137799 Si02
#       5
#     8   8   8   8   8
#     4  10  20  36  67 100 136 173 226 286 358 396
#     4  10  20  36  63 101 137 175 225 288 344 414
#     4  11  23  45  71  99 141 181 234 296 347 425
#     4  12  27  50  73 103 143 190 237 294 361 432
#     4  11  26  43  70 101 141 188 236 286 354 428
#
# _framework density 23.135608999999999
#
# number of rings (size 3 to 8) (size 9 to 14) (size 15 to 20)
#    0.000    1.200    2.000    4.800    2.800    2.400 
#    0.000    2.000    0.000    0.000    0.000    0.000 
#    0.000    0.000    0.000    0.000    0.000    0.000 
#
# Total GULP energy -248030.349279 kJ/mol
# GULP energy per Si atom -12401.517464 kJ/mol
# Density = 2.308295 g / cm^3
# Si number density = 23.135609 Si / 1000 Ang^3
#
#
#
# Elastic Constant Matrix: (Units=GPa)
#
#
# Indices 1 2 3 4 5 6 
#
# 1 118.6256 29.9701 37.9161 0.0000 2.9827 0.0000
# 2 29.9701 77.4246 30.3791 0.0000 -6.6580 0.0000
# 3 37.9161 30.3791 101.6029 0.0000 -2.7596 0.0000
# 4 0.0000 0.0000 0.0000 18.5370 0.0000 -3.2222
# 5 2.9827 -6.6580 -2.7596 0.0000 53.4712 0.0000
# 6 0.0000 0.0000 0.0000 -3.2222 0.0000 30.3464
#
#
#
# Elastic Compliance Matrix: (Units=1/GPa)
#
#
# Indices 1 2 3 4 5 6 
#
# 1 0.010121 -0.002851 -0.002954 0.000000 -0.001072 0.000000
# 2 -0.002851 0.015573 -0.003540 0.000000 0.001915 0.000000
# 3 -0.002954 -0.003540 0.012012 0.000000 0.000344 0.000000
# 4 0.000000 0.000000 0.000000 0.054960 0.000000 0.005836
# 5 -0.001072 0.001915 0.000344 0.000000 0.019018 0.000000
# 6 0.000000 0.000000 0.000000 0.005836 0.000000 0.033573
#
#
# Mechanical properties :
#
#
# Convention : Reuss Voigt Hill
#
# Bulk Modulus (GPa) = 52.58560 54.90931 53.74745
# Shear Modulus (GPa) = 29.36224 33.76343 31.56284
#
# Velocity S-wave (km/s) = 3.56636 3.82432 3.69759
# Velocity P-wave (km/s) = 6.30374 6.57919 6.44294
#
# Compressibility (1/GPa) = 0.01901661
#
# Stress axis : x y z
#
# Youngs Moduli (GPa) = 98.80235 64.21268 83.24726
#
# Poissons Ratio (x) = 0.18307 0.24589
# Poissons Ratio (y) = 0.28169 0.29473
# Poissons Ratio (z) = 0.29183 0.22734
#
# Static dielectric constant tensor:
#      x y z
#    x 4.585910 0.000000 0.150240 
#    y 0.000000 4.228120 0.000000 
#    z 0.150240 0.000000 4.405770 
# 
# 
# High freq. dielectric constant tensor:
#      x y z
#    x 1.923370 0.000000 -0.005740 
#    y 0.000000 1.894710 0.000000 
#    z -0.005740 0.000000 1.921340 
# 
# From -- ./inp_files/37852.got.cif
#   From: 2010.06.25/outbox.cif.g09.slc.cpg/sg15_19_cif.got.tgz:37852.got - 2010.06.28 07:06:18.
