data_PCOD8137961
_publ_section_title
;
Structure prediction by ZEFSAII (Michael W. Deem and Ramdas Pophale) SiO2 
 PCOD8137961
Probable space group: C 2/C
;
_chemical_formula_sum "Si O2"
_cell_formula_units_Z 32
_cell_length_a 9.780201
_cell_length_b 10.010254
_cell_length_c 21.643135
_cell_angle_alpha 90.000000
_cell_angle_beta 54.955107
_cell_angle_gamma 90.000000
_cell_volume 1734.758795
_symmetry_space_group_name_H-M "C 2/C"
_symmetry_group_IT_number 15
_symmetry_cell_setting 'monoclinic'
loop_
_space_group_symop_operation_xyz
x,y,z
-x,y,1/2-z
-x,-y,-z
x,-y,1/2+z
1/2+x,1/2+y,z
1/2-x,1/2+y,1/2-z
1/2-x,1/2-y,-z
1/2+x,1/2-y,1/2+z
loop_
_atom_site_type_symbol
_atom_site_label
_atom_site_fract_x
_atom_site_fract_y
_atom_site_fract_z
Si Si1 0.546334 0.368474 0.023310
Si Si2 0.259544 0.340577 0.411559
Si Si3 0.692077 0.493404 0.713100
Si Si4 0.618963 0.725472 0.820258
O O1 0.603221 0.259493 0.957586
O O2 0.500000 0.500000 0.000000
O O3 0.700776 0.400603 0.030306
O O4 0.389568 0.313679 0.104360
O O5 0.218126 0.457220 0.373467
O O6 0.427763 0.262818 0.344035
O O7 0.500000 0.456121 0.750000
O O8 0.713295 0.608075 0.759050
O O9 0.784503 0.363057 0.714600
#
# Coordination Sequence:
#
# PCOD8137961 Si02
#       4
#     8   8   8   8
#     4   9  18  36  56  78 107 138 179 220 263 312
#     4   8  19  36  55  73 108 142 173 217 268 309
#     4  10  20  37  53  79 112 140 177 223 259 317
#     4   9  20  36  55  78 107 142 177 217 268 313
#
# _framework density 18.446370000000002
#
# number of rings (size 3 to 8) (size 9 to 14) (size 15 to 20)
#    1.500    1.500    0.000    0.000    3.500    1.000 
#    4.500    1.250    0.000    0.000    0.000    0.000 
#    0.000    0.000    0.000    0.000    0.000    0.000 
#
# Total GULP energy -198238.061202 kJ/mol
# GULP energy per Si atom -12389.878825 kJ/mol
# Density = 1.840438 g / cm^3
# Si number density = 18.446370 Si / 1000 Ang^3
#
#
#
# Elastic Constant Matrix: (Units=GPa)
#
#
# Indices 1 2 3 4 5 6 
#
# 1 37.0233 47.0075 9.2999 0.0000 -0.6673 0.0000
# 2 47.0075 144.0461 50.7198 0.0000 2.2324 0.0000
# 3 9.2999 50.7198 75.7743 0.0000 6.0574 0.0000
# 4 0.0000 0.0000 0.0000 34.5769 0.0000 4.6802
# 5 -0.6673 2.2324 6.0574 0.0000 8.5089 0.0000
# 6 0.0000 0.0000 0.0000 4.6802 0.0000 37.6903
#
#
#
# Elastic Compliance Matrix: (Units=1/GPa)
#
#
# Indices 1 2 3 4 5 6 
#
# 1 0.048292 -0.017815 0.005642 0.000000 0.004444 0.000000
# 2 -0.017815 0.015689 -0.008350 0.000000 0.000431 0.000000
# 3 0.005642 -0.008350 0.018962 0.000000 -0.010866 0.000000
# 4 0.000000 0.000000 0.000000 0.029415 0.000000 -0.003653
# 5 0.004444 0.000431 -0.010866 0.000000 0.125495 0.000000
# 6 0.000000 0.000000 0.000000 -0.003653 0.000000 0.026986
#
#
# Mechanical properties :
#
#
# Convention : Reuss Voigt Hill
#
# Bulk Modulus (GPa) = 23.86708 52.32200 38.09454
# Shear Modulus (GPa) = 15.63232 26.14299 20.88765
#
# Velocity S-wave (km/s) = 2.91425 3.76871 3.36868
# Velocity P-wave (km/s) = 4.92854 6.88212 5.98557
#
# Compressibility (1/GPa) = 0.04189871
#
# Stress axis : x y z
#
# Youngs Moduli (GPa) = 20.70730 63.73805 52.73702
#
# Poissons Ratio (x) = 1.13550 -0.29756
# Poissons Ratio (y) = 0.36890 0.44033
# Poissons Ratio (z) = -0.11684 0.53219
#
# Static dielectric constant tensor:
#      x y z
#    x 2.973550 0.000000 0.047730 
#    y 0.000000 3.069600 0.000000 
#    z 0.047730 0.000000 3.616690 
# 
# 
# High freq. dielectric constant tensor:
#      x y z
#    x 1.671360 0.000000 0.009340 
#    y 0.000000 1.699370 0.000000 
#    z 0.009340 0.000000 1.728500 
# 
# From -- ./inp_files/194705.got.cif
#   From: 2010.06.25/outbox.cif.g09.slc.cpg/sg15_98_cif.got.tgz:194705.got - 2010.06.28 07:06:18.
