data_PCOD8137313
_publ_section_title
;
Structure prediction by ZEFSAII (Michael W. Deem and Ramdas Pophale) SiO2 
 PCOD8137313
Probable space group: C 2/C
;
_chemical_formula_sum "Si O2"
_cell_formula_units_Z 56
_cell_length_a 8.706688
_cell_length_b 12.727929
_cell_length_c 30.871077
_cell_angle_alpha 90.000000
_cell_angle_beta 55.502908
_cell_angle_gamma 90.000000
_cell_volume 2819.495271
_symmetry_space_group_name_H-M "C 2/C"
_symmetry_group_IT_number 15
_symmetry_cell_setting 'monoclinic'
loop_
_space_group_symop_operation_xyz
x,y,z
-x,y,1/2-z
-x,-y,-z
x,-y,1/2+z
1/2+x,1/2+y,z
1/2-x,1/2+y,1/2-z
1/2-x,1/2-y,-z
1/2+x,1/2-y,1/2+z
loop_
_atom_site_type_symbol
_atom_site_label
_atom_site_fract_x
_atom_site_fract_y
_atom_site_fract_z
Si Si1 0.529931 0.218417 0.582306
Si Si2 0.731785 0.896025 0.488779
Si Si3 0.822475 0.381752 0.527142
Si Si4 0.000000 0.244515 0.750000
Si Si5 0.295882 0.203613 0.421453
Si Si6 0.633821 0.135081 0.311868
Si Si7 0.500000 0.764857 0.250000
Si Si8 0.361967 0.113488 0.689022
O O1 0.680183 0.304274 0.573773
O O2 0.620084 0.151341 0.530022
O O3 0.345867 0.279954 0.595585
O O4 0.494567 0.139930 0.627434
O O5 0.506378 0.888069 0.526791
O O6 0.794727 0.876680 0.528585
O O7 0.829709 0.813057 0.441276
O O8 0.787315 0.008482 0.460722
O O9 0.052812 0.320932 0.780377
O O10 0.166363 0.167979 0.709837
O O11 0.491130 0.160226 0.373190
O O12 0.829685 0.190259 0.291202
O O13 0.664288 0.010808 0.302668
O O14 0.550076 0.840983 0.281432
#
# Coordination Sequence:
#
# PCOD8137313 Si02
#       8
#     8   8   8   4   8   8   4   8
#     4  10  20  36  57  87 118 153 199 241 297 362
#     4   9  19  36  57  84 120 159 195 241 292 353
#     4   9  19  36  57  84 119 158 196 241 292 356
#     4  10  22  42  64  86 120 152 204 256 294 372
#     4  10  20  36  56  87 120 153 198 243 295 359
#     4  11  22  42  64  88 122 159 197 254 305 357
#     4  10  26  42  62  94 116 156 212 246 302 368
#     4  11  22  42  64  89 120 159 197 253 306 354
#
# _framework density 19.861711
#
# number of rings (size 3 to 8) (size 9 to 14) (size 15 to 20)
#    0.000    2.000    1.429    1.714    2.000    0.571 
#    2.571    1.429    0.000    0.000    0.000    0.000 
#    0.000    0.000    0.000    0.000    0.000    0.000 
#
# Total GULP energy -347191.926578 kJ/mol
# GULP energy per Si atom -12399.711664 kJ/mol
# Density = 1.981650 g / cm^3
# Si number density = 19.861711 Si / 1000 Ang^3
#
#
#
# Elastic Constant Matrix: (Units=GPa)
#
#
# Indices 1 2 3 4 5 6 
#
# 1 48.9669 17.4866 6.8067 0.0000 -4.7007 0.0000
# 2 17.4866 123.7471 22.9764 0.0000 -9.0286 0.0000
# 3 6.8067 22.9764 66.8607 0.0000 -8.5217 0.0000
# 4 0.0000 0.0000 0.0000 24.3266 0.0000 -4.4602
# 5 -4.7007 -9.0286 -8.5217 0.0000 23.1819 0.0000
# 6 0.0000 0.0000 0.0000 -4.4602 0.0000 23.7922
#
#
#
# Elastic Compliance Matrix: (Units=1/GPa)
#
#
# Indices 1 2 3 4 5 6 
#
# 1 0.021801 -0.002690 -0.000907 0.000000 0.003039 0.000000
# 2 -0.002690 0.009091 -0.002590 0.000000 0.002043 0.000000
# 3 -0.000907 -0.002590 0.016563 0.000000 0.004896 0.000000
# 4 0.000000 0.000000 0.000000 0.042570 0.000000 0.007980
# 5 0.003039 0.002043 0.004896 0.000000 0.046349 0.000000
# 6 0.000000 0.000000 0.000000 0.007980 0.000000 0.043527
#
#
# Mechanical properties :
#
#
# Convention : Reuss Voigt Hill
#
# Bulk Modulus (GPa) = 28.50694 37.12377 32.81535
# Shear Modulus (GPa) = 24.51352 27.08046 25.79699
#
# Velocity S-wave (km/s) = 3.51694 3.69650 3.60784
# Velocity P-wave (km/s) = 5.55659 6.07869 5.82350
#
# Compressibility (1/GPa) = 0.03507917
#
# Stress axis : x y z
#
# Youngs Moduli (GPa) = 45.87021 109.99774 60.37615
#
# Poissons Ratio (x) = 0.29594 0.05479
# Poissons Ratio (y) = 0.12341 0.15636
# Poissons Ratio (z) = 0.04163 0.28487
#
# Static dielectric constant tensor:
#      x y z
#    x 3.659680 0.000000 -0.008470 
#    y 0.000000 3.699940 0.000000 
#    z -0.008470 0.000000 3.483610 
# 
# 
# High freq. dielectric constant tensor:
#      x y z
#    x 1.771280 0.000000 0.004890 
#    y 0.000000 1.782240 0.000000 
#    z 0.004890 0.000000 1.771920 
# 
# From -- ./inp_files/307092.got.cif
#   From: 2010.06.25/outbox.cif.g09.slc.cpg/sg15_154_cif.got.tgz:307092.got - 2010.06.28 07:06:18.
