data_PCOD8137597
_publ_section_title
;
Structure prediction by ZEFSAII (Michael W. Deem and Ramdas Pophale) SiO2 
 PCOD8137597
Probable space group: C 2/C
;
_chemical_formula_sum "Si O2"
_cell_formula_units_Z 64
_cell_length_a 6.283533
_cell_length_b 23.377019
_cell_length_c 23.309880
_cell_angle_alpha 90.000000
_cell_angle_beta 115.965606
_cell_angle_gamma 90.000000
_cell_volume 3078.366405
_symmetry_space_group_name_H-M "C 2/C"
_symmetry_group_IT_number 15
_symmetry_cell_setting 'monoclinic'
loop_
_space_group_symop_operation_xyz
x,y,z
-x,y,1/2-z
-x,-y,-z
x,-y,1/2+z
1/2+x,1/2+y,z
1/2-x,1/2+y,1/2-z
1/2-x,1/2-y,-z
1/2+x,1/2-y,1/2+z
loop_
_atom_site_type_symbol
_atom_site_label
_atom_site_fract_x
_atom_site_fract_y
_atom_site_fract_z
Si Si1 0.415441 0.302320 0.130480
Si Si2 0.092040 0.399064 0.105596
Si Si3 0.605196 0.343909 0.033701
Si Si4 0.684281 0.002199 0.397316
Si Si5 0.927593 0.619438 0.176002
Si Si6 0.219935 0.785944 0.817129
Si Si7 0.162386 0.048360 0.969798
Si Si8 0.461281 0.294469 0.900295
O O1 0.327031 0.361556 0.151400
O O2 0.482869 0.313052 0.072714
O O3 0.637228 0.270917 0.187894
O O4 0.204964 0.257946 0.105807
O O5 0.145303 0.426170 0.050115
O O6 0.881449 0.353600 0.077407
O O7 0.007165 0.450747 0.137525
O O8 0.467823 0.403319 0.007378
O O9 0.593982 0.307321 0.974839
O O10 0.952953 0.985192 0.409821
O O11 0.586132 0.056824 0.352919
O O12 0.696037 0.009895 0.467803
O O13 0.675799 0.650512 0.141081
O O14 0.000000 0.612464 0.250000
O O15 0.122627 0.656923 0.165991
O O16 0.000000 0.793839 0.750000
O O17 0.151281 0.776055 0.875038
#
# Coordination Sequence:
#
# PCOD8137597 Si02
#       8
#     8   8   8   8   8   8   8   8
#     4  10  23  38  60  88 129 163 204 256 304 378
#     4  10  21  36  58  90 125 158 204 242 304 366
#     4  10  20  36  60  93 130 159 201 250 311 380
#     4  10  20  36  60  87 121 160 199 250 307 370
#     4  11  23  41  63  92 122 155 206 263 311 372
#     4  11  24  41  63  91 119 163 214 257 321 369
#     4   9  19  35  56  90 123 161 197 243 309 370
#     4  11  22  38  62  91 127 160 201 256 320 366
#
# _framework density 20.790247999999998
#
# number of rings (size 3 to 8) (size 9 to 14) (size 15 to 20)
#    0.000    1.750    2.500    1.500    1.750    4.000 
#    0.000    0.000    0.000   18.000    0.000    0.000 
#    0.000    0.000    0.000    0.000    0.000    0.000 
#
# Total GULP energy -396581.275875 kJ/mol
# GULP energy per Si atom -12393.164871 kJ/mol
# Density = 2.074293 g / cm^3
# Si number density = 20.790248 Si / 1000 Ang^3
#
#
#
# Elastic Constant Matrix: (Units=GPa)
#
#
# Indices 1 2 3 4 5 6 
#
# 1 110.7211 52.5599 24.6203 0.0000 -6.8353 0.0000
# 2 52.5599 120.9537 28.4482 0.0000 5.4198 0.0000
# 3 24.6203 28.4482 38.9891 0.0000 -4.4004 0.0000
# 4 0.0000 0.0000 0.0000 21.8652 0.0000 2.7011
# 5 -6.8353 5.4198 -4.4004 0.0000 22.2409 0.0000
# 6 0.0000 0.0000 0.0000 2.7011 0.0000 23.7149
#
#
#
# Elastic Compliance Matrix: (Units=1/GPa)
#
#
# Indices 1 2 3 4 5 6 
#
# 1 0.012365 -0.004626 -0.003965 0.000000 0.004143 0.000000
# 2 -0.004626 0.012065 -0.006519 0.000000 -0.005652 0.000000
# 3 -0.003965 -0.006519 0.033703 0.000000 0.007038 0.000000
# 4 0.000000 0.000000 0.000000 0.046387 0.000000 -0.005283
# 5 0.004143 -0.005652 0.007038 0.000000 0.049005 0.000000
# 6 0.000000 0.000000 0.000000 -0.005283 0.000000 0.042769
#
#
# Mechanical properties :
#
#
# Convention : Reuss Voigt Hill
#
# Bulk Modulus (GPa) = 35.82748 53.54672 44.68710
# Shear Modulus (GPa) = 21.20256 24.56657 22.88457
#
# Velocity S-wave (km/s) = 3.19695 3.44123 3.32133
# Velocity P-wave (km/s) = 5.55855 6.44988 6.02074
#
# Compressibility (1/GPa) = 0.02791154
#
# Stress axis : x y z
#
# Youngs Moduli (GPa) = 80.87131 82.88728 29.67080
#
# Poissons Ratio (x) = 0.38347 0.11765
# Poissons Ratio (y) = 0.37414 0.19343
# Poissons Ratio (z) = 0.32066 0.54037
#
# Static dielectric constant tensor:
#      x y z
#    x 4.107280 0.000000 0.099700 
#    y 0.000000 4.110300 0.000000 
#    z 0.099700 0.000000 3.297810 
# 
# 
# High freq. dielectric constant tensor:
#      x y z
#    x 1.831760 0.000000 0.003320 
#    y 0.000000 1.832480 0.000000 
#    z 0.003320 0.000000 1.765970 
# 
# From -- ./inp_files/261823.got.cif
#   From: 2010.06.25/outbox.cif.g09.slc.cpg/sg15_131_cif.got.tgz:261823.got - 2010.06.28 07:06:18.
