data_PCOD8137127
_publ_section_title
;
Structure prediction by ZEFSAII (Michael W. Deem and Ramdas Pophale) SiO2 
 PCOD8137127
Probable space group: C 2/C
;
_chemical_formula_sum "Si O2"
_cell_formula_units_Z 40
_cell_length_a 29.188747
_cell_length_b 8.241219
_cell_length_c 14.661549
_cell_angle_alpha 90.000000
_cell_angle_beta 147.969960
_cell_angle_gamma 90.000000
_cell_volume 1870.512668
_symmetry_space_group_name_H-M "C 2/C"
_symmetry_group_IT_number 15
_symmetry_cell_setting 'monoclinic'
loop_
_space_group_symop_operation_xyz
x,y,z
-x,y,1/2-z
-x,-y,-z
x,-y,1/2+z
1/2+x,1/2+y,z
1/2-x,1/2+y,1/2-z
1/2-x,1/2-y,-z
1/2+x,1/2-y,1/2+z
loop_
_atom_site_type_symbol
_atom_site_label
_atom_site_fract_x
_atom_site_fract_y
_atom_site_fract_z
Si Si1 0.709066 0.210802 0.070643
Si Si2 0.166022 0.971514 0.139881
Si Si3 0.158649 0.263190 0.798902
Si Si4 0.134081 0.628682 0.762984
Si Si5 0.514168 0.648643 0.958907
O O1 0.667877 0.366402 0.050991
O O2 0.791493 0.257778 0.150689
O O3 0.744281 0.073703 0.200601
O O4 0.637675 0.137702 0.880226
O O5 0.157578 0.849836 0.209443
O O6 0.082828 0.094561 0.996447
O O7 0.144020 0.447111 0.743735
O O8 0.081052 0.205460 0.737133
O O9 0.250000 0.250000 0.000000
O O10 0.045595 0.700361 0.574158
O O11 0.500000 0.500000 0.000000
#
# Coordination Sequence:
#
# PCOD8137127 Si02
#       5
#     8   8   8   8   8
#     4  10  20  35  61  90 120 162 203 253 309 366
#     4  10  20  38  59  90 125 158 205 256 309 372
#     4  11  20  37  65  91 120 161 209 256 313 375
#     4  10  20  37  63  88 121 162 207 252 310 375
#     4   9  21  38  60  87 123 160 202 253 310 370
#
# _framework density 21.384511
#
# number of rings (size 3 to 8) (size 9 to 14) (size 15 to 20)
#    0.000    2.000    2.000    1.800    2.800    0.000 
#    0.000    4.000    4.400    0.000    0.000    0.000 
#    0.000    0.000    0.000    0.000    0.000    0.000 
#
# Total GULP energy -247851.610871 kJ/mol
# GULP energy per Si atom -12392.580544 kJ/mol
# Density = 2.133584 g / cm^3
# Si number density = 21.384511 Si / 1000 Ang^3
#
#
#
# Elastic Constant Matrix: (Units=GPa)
#
#
# Indices 1 2 3 4 5 6 
#
# 1 52.1017 8.7855 39.2652 0.0000 1.3075 0.0000
# 2 8.7855 116.4835 37.3553 0.0000 9.3451 0.0000
# 3 39.2652 37.3553 116.8106 0.0000 26.5501 0.0000
# 4 0.0000 0.0000 0.0000 28.9625 0.0000 2.3409
# 5 1.3075 9.3451 26.5501 0.0000 19.0623 0.0000
# 6 0.0000 0.0000 0.0000 2.3409 0.0000 46.1546
#
#
#
# Elastic Compliance Matrix: (Units=1/GPa)
#
#
# Indices 1 2 3 4 5 6 
#
# 1 0.029115 0.000912 -0.013934 0.000000 0.016963 0.000000
# 2 0.000912 0.009600 -0.003354 0.000000 -0.000097 0.000000
# 3 -0.013934 -0.003354 0.020085 0.000000 -0.025374 0.000000
# 4 0.000000 0.000000 0.000000 0.034670 0.000000 -0.001758
# 5 0.016963 -0.000097 -0.025374 0.000000 0.086684 0.000000
# 6 0.000000 0.000000 0.000000 -0.001758 0.000000 0.021755
#
#
# Mechanical properties :
#
#
# Convention : Reuss Voigt Hill
#
# Bulk Modulus (GPa) = 38.39396 50.68976 44.54186
# Shear Modulus (GPa) = 20.54711 32.16854 26.35783
#
# Velocity S-wave (km/s) = 3.10311 3.88273 3.51460
# Velocity P-wave (km/s) = 5.55267 6.62240 6.11099
#
# Compressibility (1/GPa) = 0.02604576
#
# Stress axis : x y z
#
# Youngs Moduli (GPa) = 34.34689 104.17075 49.78935
#
# Poissons Ratio (x) = -0.09497 0.69376
# Poissons Ratio (y) = -0.03131 0.16701
# Poissons Ratio (z) = 0.47859 0.34943
#
# Static dielectric constant tensor:
#      x y z
#    x 3.833180 0.000000 0.355950 
#    y 0.000000 4.140670 0.000000 
#    z 0.355950 0.000000 4.669840 
# 
# 
# High freq. dielectric constant tensor:
#      x y z
#    x 1.807610 0.000000 0.018920 
#    y 0.000000 1.859090 0.000000 
#    z 0.018920 0.000000 1.829480 
# 
# From -- ./inp_files/180987.got.cif
#   From: 2010.06.25/outbox.cif.g09.slc.cpg/sg15_91_cif.got.tgz:180987.got - 2010.06.28 07:06:18.
