data_PCOD8137746
_publ_section_title
;
Structure prediction by ZEFSAII (Michael W. Deem and Ramdas Pophale) SiO2 
 PCOD8137746
Probable space group: C 2/C
;
_chemical_formula_sum "Si O2"
_cell_formula_units_Z 60
_cell_length_a 19.328749
_cell_length_b 15.868689
_cell_length_c 9.447272
_cell_angle_alpha 90.000000
_cell_angle_beta 80.442816
_cell_angle_gamma 90.000000
_cell_volume 2857.466524
_symmetry_space_group_name_H-M "C 2/C"
_symmetry_group_IT_number 15
_symmetry_cell_setting 'monoclinic'
loop_
_space_group_symop_operation_xyz
x,y,z
-x,y,1/2-z
-x,-y,-z
x,-y,1/2+z
1/2+x,1/2+y,z
1/2-x,1/2+y,1/2-z
1/2-x,1/2-y,-z
1/2+x,1/2-y,1/2+z
loop_
_atom_site_type_symbol
_atom_site_label
_atom_site_fract_x
_atom_site_fract_y
_atom_site_fract_z
Si Si1 0.263680 0.105859 0.199438
Si Si2 0.000000 0.568215 0.750000
Si Si3 0.823093 0.066265 0.781805
Si Si4 0.652044 0.337611 0.941486
Si Si5 0.283099 0.873724 0.390454
Si Si6 0.635196 0.963313 0.623482
Si Si7 0.451659 0.471310 0.641938
Si Si8 0.609508 0.840153 0.382660
O O1 0.220859 0.166547 0.319768
O O2 0.340261 0.087956 0.244092
O O3 0.220006 0.020233 0.180659
O O4 0.273154 0.163209 0.053123
O O5 0.940497 0.506176 0.830827
O O6 0.968289 0.630160 0.639444
O O7 0.789996 0.122861 0.668353
O O8 0.903400 0.048209 0.712444
O O9 0.822510 0.125388 0.918815
O O10 0.594953 0.395156 0.890071
O O11 0.613568 0.247230 0.966651
O O12 0.343405 0.831066 0.275256
O O13 0.304926 0.968778 0.422263
O O14 0.638697 0.909849 0.479199
O O15 0.500000 0.436930 0.750000
O O16 0.500000 0.500000 0.500000
#
# Coordination Sequence:
#
# PCOD8137746 Si02
#       8
#     8   4   8   8   8   8   8   8
#     4  10  20  36  63  92 121 158 207 255 296 363
#     4  10  22  40  64  92 118 162 216 252 296 366
#     4  10  20  37  60  91 120 159 205 248 293 366
#     4  11  24  39  59  91 127 160 199 252 315 363
#     4  10  20  36  62  89 118 157 204 249 299 363
#     4  10  20  39  65  88 119 160 207 251 302 370
#     4  11  22  39  64  88 116 162 209 249 297 365
#     4  11  24  40  61  90 127 162 196 255 318 362
#
# _framework density 20.997620999999999
#
# number of rings (size 3 to 8) (size 9 to 14) (size 15 to 20)
#    0.000    1.600    1.333    6.000    2.800    3.733 
#    0.000    1.333    0.000    0.000    0.000    0.000 
#    0.000    0.000    0.000    0.000    0.000    0.000 
#
# Total GULP energy -371870.404449 kJ/mol
# GULP energy per Si atom -12395.680148 kJ/mol
# Density = 2.094983 g / cm^3
# Si number density = 20.997621 Si / 1000 Ang^3
#
#
#
# Elastic Constant Matrix: (Units=GPa)
#
#
# Indices 1 2 3 4 5 6 
#
# 1 131.0535 27.2590 53.7563 0.0000 15.8952 0.0000
# 2 27.2590 65.6663 22.5020 0.0000 6.2648 0.0000
# 3 53.7563 22.5020 131.8505 0.0000 8.5207 0.0000
# 4 0.0000 0.0000 0.0000 19.4733 0.0000 1.7879
# 5 15.8952 6.2648 8.5207 0.0000 43.4931 0.0000
# 6 0.0000 0.0000 0.0000 1.7879 0.0000 17.2789
#
#
#
# Elastic Compliance Matrix: (Units=1/GPa)
#
#
# Indices 1 2 3 4 5 6 
#
# 1 0.009901 -0.002697 -0.003411 0.000000 -0.002562 0.000000
# 2 -0.002697 0.017051 -0.001737 0.000000 -0.001130 0.000000
# 3 -0.003411 -0.001737 0.009292 0.000000 -0.000324 0.000000
# 4 0.000000 0.000000 0.000000 0.051845 0.000000 -0.005364
# 5 -0.002562 -0.001130 -0.000324 0.000000 0.024155 0.000000
# 6 0.000000 0.000000 0.000000 -0.005364 0.000000 0.058429
#
#
# Mechanical properties :
#
#
# Convention : Reuss Voigt Hill
#
# Bulk Modulus (GPa) = 48.65162 59.51165 54.08164
# Shear Modulus (GPa) = 25.87780 31.05259 28.46519
#
# Velocity S-wave (km/s) = 3.51439 3.84977 3.68589
# Velocity P-wave (km/s) = 6.29986 6.94007 6.62770
#
# Compressibility (1/GPa) = 0.02055430
#
# Stress axis : x y z
#
# Youngs Moduli (GPa) = 100.99699 58.64681 107.61409
#
# Poissons Ratio (x) = 0.15816 0.36707
# Poissons Ratio (y) = 0.27238 0.18697
# Poissons Ratio (z) = 0.34450 0.10190
#
# Static dielectric constant tensor:
#      x y z
#    x 3.983650 0.000000 0.172470 
#    y 0.000000 3.550110 0.000000 
#    z 0.172470 0.000000 3.945110 
# 
# 
# High freq. dielectric constant tensor:
#      x y z
#    x 1.831310 0.000000 0.015590 
#    y 0.000000 1.793430 0.000000 
#    z 0.015590 0.000000 1.833200 
# 
# From -- ./inp_files/56542.got.cif
#   From: 2010.06.25/outbox.cif.g09.slc.cpg/sg15_29_cif.got.tgz:56542.got - 2010.06.28 07:06:18.
