data_PCOD8137847
_publ_section_title
;
Structure prediction by ZEFSAII (Michael W. Deem and Ramdas Pophale) SiO2 
 PCOD8137847
Probable space group: C 2/C
;
_chemical_formula_sum "Si O2"
_cell_formula_units_Z 56
_cell_length_a 11.666413
_cell_length_b 8.956312
_cell_length_c 29.872943
_cell_angle_alpha 90.000000
_cell_angle_beta 122.647726
_cell_angle_gamma 90.000000
_cell_volume 2628.199788
_symmetry_space_group_name_H-M "C 2/C"
_symmetry_group_IT_number 15
_symmetry_cell_setting 'monoclinic'
loop_
_space_group_symop_operation_xyz
x,y,z
-x,y,1/2-z
-x,-y,-z
x,-y,1/2+z
1/2+x,1/2+y,z
1/2-x,1/2+y,1/2-z
1/2-x,1/2-y,-z
1/2+x,1/2-y,1/2+z
loop_
_atom_site_type_symbol
_atom_site_label
_atom_site_fract_x
_atom_site_fract_y
_atom_site_fract_z
Si Si1 0.102510 0.551302 0.059104
Si Si2 0.500000 0.353195 0.250000
Si Si3 0.606108 0.416340 0.911200
Si Si4 0.905731 0.796644 0.030245
Si Si5 0.815540 0.394723 0.681050
Si Si6 0.096557 0.225435 0.073377
Si Si7 0.400778 0.598265 0.289704
Si Si8 0.000000 0.352352 0.250000
O O1 0.236454 0.621710 0.064647
O O2 0.146498 0.396582 0.092334
O O3 0.017276 0.672082 0.070578
O O4 0.000000 0.500000 0.000000
O O5 0.586162 0.248191 0.301429
O O6 0.395359 0.456724 0.255525
O O7 0.575294 0.564973 0.933258
O O8 0.543047 0.284126 0.927780
O O9 0.533413 0.425168 0.848207
O O10 0.750000 0.750000 0.000000
O O11 0.934707 0.826330 0.983832
O O12 0.710947 0.386522 0.617465
O O13 0.737473 0.392741 0.711814
O O14 0.902744 0.546710 0.697858
O O15 0.409732 0.750830 0.263577
#
# Coordination Sequence:
#
# PCOD8137847 Si02
#       8
#     8   4   8   8   8   8   8   4
#     4  10  21  40  58  84 124 163 204 250 297 357
#     4  10  20  36  64  84 118 158 190 252 308 354
#     4  11  22  40  61  90 121 164 208 250 302 365
#     4  11  22  41  61  85 127 166 201 251 300 356
#     4  10  21  40  61  91 119 153 204 247 303 365
#     4  10  22  40  61  89 124 160 208 251 300 365
#     4  10  22  39  61  89 121 154 202 247 305 367
#     4  10  22  42  64  88 124 156 192 258 310 364
#
# _framework density 21.307361
#
# number of rings (size 3 to 8) (size 9 to 14) (size 15 to 20)
#    0.000    1.714    2.857    2.143    0.000    4.571 
#    7.714    1.429    0.000    0.000    0.000    0.000 
#    0.000    0.000    0.000    0.000    0.000    0.000 
#
# Total GULP energy -347080.022313 kJ/mol
# GULP energy per Si atom -12395.715083 kJ/mol
# Density = 2.125886 g / cm^3
# Si number density = 21.307361 Si / 1000 Ang^3
#
#
#
# Elastic Constant Matrix: (Units=GPa)
#
#
# Indices 1 2 3 4 5 6 
#
# 1 97.5512 32.0765 -4.4237 0.0000 14.9164 0.0000
# 2 32.0765 107.9112 25.2813 0.0000 -1.8628 0.0000
# 3 -4.4237 25.2813 57.2593 0.0000 4.4988 0.0000
# 4 0.0000 0.0000 0.0000 19.5570 0.0000 -2.2009
# 5 14.9164 -1.8628 4.4988 0.0000 32.4081 0.0000
# 6 0.0000 0.0000 0.0000 -2.2009 0.0000 31.7391
#
#
#
# Elastic Compliance Matrix: (Units=1/GPa)
#
#
# Indices 1 2 3 4 5 6 
#
# 1 0.013058 -0.004863 0.003691 0.000000 -0.006802 0.000000
# 2 -0.004863 0.012197 -0.006058 0.000000 0.003781 0.000000
# 3 0.003691 -0.006058 0.020812 0.000000 -0.004936 0.000000
# 4 0.000000 0.000000 0.000000 0.051535 0.000000 0.003574
# 5 -0.006802 0.003781 -0.004936 0.000000 0.034890 0.000000
# 6 0.000000 0.000000 0.000000 0.003574 0.000000 0.031755
#
#
# Mechanical properties :
#
#
# Convention : Reuss Voigt Hill
#
# Bulk Modulus (GPa) = 31.64062 40.95443 36.29753
# Shear Modulus (GPa) = 26.42111 30.72670 28.57390
#
# Velocity S-wave (km/s) = 3.52518 3.80158 3.66599
# Velocity P-wave (km/s) = 5.60813 6.20740 5.91536
#
# Compressibility (1/GPa) = 0.03160494
#
# Stress axis : x y z
#
# Youngs Moduli (GPa) = 76.58369 81.98708 48.04892
#
# Poissons Ratio (x) = 0.39873 -0.17733
# Poissons Ratio (y) = 0.37246 0.29108
# Poissons Ratio (z) = -0.28263 0.49668
#
# Static dielectric constant tensor:
#      x y z
#    x 3.859670 0.000000 0.246550 
#    y 0.000000 36.006060 0.000000 
#    z 0.246550 0.000000 3.521470 
# 
# 
# High freq. dielectric constant tensor:
#      x y z
#    x 1.844180 0.000000 0.007230 
#    y 0.000000 1.840170 0.000000 
#    z 0.007230 0.000000 1.819910 
# 
# From -- ./inp_files/291655.got.cif
#   From: 2010.06.25/outbox.cif.g09.slc.cpg/sg15_146_cif.got.tgz:291655.got - 2010.06.28 07:06:18.
