data_PCOD8137132
_publ_section_title
;
Structure prediction by ZEFSAII (Michael W. Deem and Ramdas Pophale) SiO2 
 PCOD8137132
Probable space group: C 2/C
;
_chemical_formula_sum "Si O2"
_cell_formula_units_Z 64
_cell_length_a 18.805701
_cell_length_b 8.926388
_cell_length_c 27.573887
_cell_angle_alpha 90.000000
_cell_angle_beta 41.612257
_cell_angle_gamma 90.000000
_cell_volume 3073.885700
_symmetry_space_group_name_H-M "C 2/C"
_symmetry_group_IT_number 15
_symmetry_cell_setting 'monoclinic'
loop_
_space_group_symop_operation_xyz
x,y,z
-x,y,1/2-z
-x,-y,-z
x,-y,1/2+z
1/2+x,1/2+y,z
1/2-x,1/2+y,1/2-z
1/2-x,1/2-y,-z
1/2+x,1/2-y,1/2+z
loop_
_atom_site_type_symbol
_atom_site_label
_atom_site_fract_x
_atom_site_fract_y
_atom_site_fract_z
Si Si1 0.872512 0.852762 0.668045
Si Si2 0.123942 0.482721 0.174596
Si Si3 0.241533 0.377661 0.210802
Si Si4 0.726901 0.706614 0.079075
Si Si5 0.401297 0.816510 0.060323
Si Si6 0.772023 0.809359 0.542878
Si Si7 0.884147 0.086783 0.448235
Si Si8 0.369175 0.852783 0.591631
O O1 0.848480 0.708887 0.713228
O O2 0.862290 0.812173 0.616493
O O3 0.990090 0.905075 0.621874
O O4 0.791849 0.990938 0.718405
O O5 0.191486 0.453871 0.188822
O O6 0.140948 0.340450 0.130678
O O7 0.165349 0.630811 0.124663
O O8 0.000000 0.507310 0.250000
O O9 0.336163 0.256797 0.152186
O O10 0.668625 0.574475 0.078644
O O11 0.765542 0.639860 0.109854
O O12 0.833992 0.762725 0.996817
O O13 0.330671 0.814092 0.046888
O O14 0.392679 0.974985 0.093232
O O15 0.525121 0.782141 0.986070
O O16 0.750000 0.750000 0.500000
O O17 0.855199 0.946271 0.496357
#
# Coordination Sequence:
#
# PCOD8137132 Si02
#       8
#     8   8   8   8   8   8   8   8
#     4  12  23  41  63  91 127 170 217 259 330 384
#     4  10  21  41  62  88 126 171 208 266 331 380
#     4  11  24  41  63  90 129 166 213 268 318 394
#     4   9  18  35  61  89 121 157 215 258 304 380
#     4  11  22  39  63  92 127 168 210 265 318 386
#     4  11  23  41  62  94 131 169 219 269 322 386
#     4  10  20  35  61  91 121 166 212 260 310 379
#     4  10  21  39  62  91 124 164 208 262 322 373
#
# _framework density 20.820553
#
# number of rings (size 3 to 8) (size 9 to 14) (size 15 to 20)
#    0.000    1.500    2.500    3.000    0.000    1.000 
#    9.000    0.000    0.000    1.500    0.000    0.000 
#    0.000    0.000    0.000    0.000    0.000    0.000 
#
# Total GULP energy -396754.499531 kJ/mol
# GULP energy per Si atom -12398.578110 kJ/mol
# Density = 2.077316 g / cm^3
# Si number density = 20.820553 Si / 1000 Ang^3
#
#
#
# Elastic Constant Matrix: (Units=GPa)
#
#
# Indices 1 2 3 4 5 6 
#
# 1 79.1791 19.3802 28.8627 -0.0001 -1.1491 0.0002
# 2 19.3802 65.8743 34.9935 -0.0002 -7.6566 -0.0012
# 3 28.8627 34.9935 116.5957 -0.0001 -17.7327 0.0004
# 4 -0.0001 -0.0002 -0.0001 35.2003 0.0000 8.6720
# 5 -1.1491 -7.6566 -17.7327 0.0000 29.8911 0.0000
# 6 0.0002 -0.0012 0.0004 8.6720 0.0000 30.5754
#
#
#
# Elastic Compliance Matrix: (Units=1/GPa)
#
#
# Indices 1 2 3 4 5 6 
#
# 1 0.014397 -0.002869 -0.003001 0.000000 -0.001962 0.000000
# 2 -0.002869 0.018697 -0.004605 0.000000 0.001947 0.000001
# 3 -0.003001 -0.004605 0.011547 0.000000 0.005555 0.000000
# 4 0.000000 0.000000 0.000000 0.030543 0.000000 -0.008663
# 5 -0.001962 0.001947 0.005555 0.000000 0.037174 0.000000
# 6 0.000000 0.000001 0.000000 -0.008663 0.000000 0.035163
#
#
# Mechanical properties :
#
#
# Convention : Reuss Voigt Hill
#
# Bulk Modulus (GPa) = 42.21250 47.56909 44.89080
# Shear Modulus (GPa) = 28.34966 31.02754 29.68860
#
# Velocity S-wave (km/s) = 3.69402 3.86455 3.78024
# Velocity P-wave (km/s) = 6.20587 6.54291 6.37662
#
# Compressibility (1/GPa) = 0.02368967
#
# Stress axis : x y z
#
# Youngs Moduli (GPa) = 69.45658 53.48389 86.60613
#
# Poissons Ratio (x) = 0.15347 0.25992
# Poissons Ratio (y) = 0.19930 0.39883
# Poissons Ratio (z) = 0.20845 0.24630
#
# Static dielectric constant tensor:
#      x y z
#    x 3.639200 0.000000 0.074900 
#    y 0.000000 3.703290 0.000000 
#    z 0.074900 0.000000 3.719460 
# 
# 
# High freq. dielectric constant tensor:
#      x y z
#    x 1.809280 0.000000 0.000750 
#    y 0.000000 1.810060 0.000000 
#    z 0.000750 0.000000 1.811360 
# 
# From -- ./inp_files/315708.got.cif
#   From: 2010.06.25/outbox.cif.g09.slc.cpg/sg15_158_cif.got.tgz:315708.got - 2010.06.28 07:06:18.
