data_PCOD8137253
_publ_section_title
;
Structure prediction by ZEFSAII (Michael W. Deem and Ramdas Pophale) SiO2 
 PCOD8137253
Probable space group: C 2/C
;
_chemical_formula_sum "Si O2"
_cell_formula_units_Z 64
_cell_length_a 13.255131
_cell_length_b 21.038379
_cell_length_c 18.679642
_cell_angle_alpha 90.000000
_cell_angle_beta 139.918630
_cell_angle_gamma 90.000000
_cell_volume 3354.025250
_symmetry_space_group_name_H-M "C 2/C"
_symmetry_group_IT_number 15
_symmetry_cell_setting 'monoclinic'
loop_
_space_group_symop_operation_xyz
x,y,z
-x,y,1/2-z
-x,-y,-z
x,-y,1/2+z
1/2+x,1/2+y,z
1/2-x,1/2+y,1/2-z
1/2-x,1/2-y,-z
1/2+x,1/2-y,1/2+z
loop_
_atom_site_type_symbol
_atom_site_label
_atom_site_fract_x
_atom_site_fract_y
_atom_site_fract_z
Si Si1 0.989689 0.411190 0.443169
Si Si2 0.984793 0.951503 0.664290
Si Si3 0.306768 0.606618 0.809753
Si Si4 0.320768 0.201251 0.645505
Si Si5 0.361606 0.433659 0.018359
Si Si6 0.768298 0.964197 0.815195
Si Si7 0.449303 0.048389 0.077617
Si Si8 0.727236 0.667962 0.438977
O O1 0.812971 0.396891 0.321510
O O2 0.990818 0.415018 0.528525
O O3 0.068978 0.473413 0.450253
O O4 0.095796 0.351810 0.481334
O O5 0.900608 0.886403 0.638637
O O6 0.000000 0.987072 0.750000
O O7 0.152827 0.941680 0.717014
O O8 0.887275 0.993369 0.555514
O O9 0.274166 0.667623 0.841857
O O10 0.487310 0.609826 0.878678
O O11 0.289184 0.539668 0.842246
O O12 0.500000 0.176360 0.750000
O O13 0.319186 0.278021 0.644624
O O14 0.228246 0.186697 0.522516
O O15 0.341630 0.427638 0.922178
O O16 0.201847 0.415569 0.972016
O O17 0.586778 0.945320 0.710593
#
# Coordination Sequence:
#
# PCOD8137253 Si02
#       8
#     8   8   8   8   8   8   8   8
#     4  10  20  36  54  84 117 151 185 243 289 353
#     4  11  21  34  54  83 121 151 188 237 300 351
#     4  10  21  34  55  79 116 152 196 233 279 350
#     4  11  22  36  55  83 108 154 200 233 291 345
#     4  11  21  34  56  81 119 155 193 233 290 353
#     4  10  21  35  53  84 118 159 192 230 291 360
#     4  10  21  33  57  84 115 152 193 227 300 349
#     4  11  21  36  57  79 118 150 187 244 292 346
#
# _framework density 19.08155
#
# number of rings (size 3 to 8) (size 9 to 14) (size 15 to 20)
#    0.000    1.500    2.500    4.500    5.250    0.000 
#    0.000    0.000    0.000    0.750    0.000    0.000 
#    0.000    0.000    0.000    0.000    0.000    0.000 
#
# Total GULP energy -396593.107055 kJ/mol
# GULP energy per Si atom -12393.534595 kJ/mol
# Density = 1.903812 g / cm^3
# Si number density = 19.081550 Si / 1000 Ang^3
#
#
#
# Elastic Constant Matrix: (Units=GPa)
#
#
# Indices 1 2 3 4 5 6 
#
# 1 113.1891 28.1653 36.8834 0.0001 11.7790 0.0000
# 2 28.1653 61.8158 19.1460 0.0000 0.9528 0.0000
# 3 36.8834 19.1460 77.6887 0.0002 2.2753 0.0000
# 4 0.0001 0.0000 0.0002 23.3710 0.0001 0.8684
# 5 11.7790 0.9528 2.2753 0.0001 38.1652 0.0000
# 6 0.0000 0.0000 0.0000 0.8684 0.0000 24.3869
#
#
#
# Elastic Compliance Matrix: (Units=1/GPa)
#
#
# Indices 1 2 3 4 5 6 
#
# 1 0.011578 -0.003846 -0.004455 0.000000 -0.003212 0.000000
# 2 -0.003846 0.018793 -0.002831 0.000000 0.000887 0.000000
# 3 -0.004455 -0.002831 0.015670 0.000000 0.000511 0.000000
# 4 0.000000 0.000000 0.000000 0.042845 0.000000 -0.001526
# 5 -0.003212 0.000887 0.000511 0.000000 0.027140 0.000000
# 6 0.000000 0.000000 0.000000 -0.001526 0.000000 0.041060
#
#
# Mechanical properties :
#
#
# Convention : Reuss Voigt Hill
#
# Bulk Modulus (GPa) = 42.05958 46.78701 44.42330
# Shear Modulus (GPa) = 26.69878 28.41787 27.55833
#
# Velocity S-wave (km/s) = 3.74464 3.86331 3.80444
# Velocity P-wave (km/s) = 6.38641 6.66881 6.52914
#
# Compressibility (1/GPa) = 0.02377580
#
# Stress axis : x y z
#
# Youngs Moduli (GPa) = 86.37396 53.21215 63.81773
#
# Poissons Ratio (x) = 0.20465 0.28429
# Poissons Ratio (y) = 0.33218 0.18070
# Poissons Ratio (z) = 0.38477 0.15067
#
# Static dielectric constant tensor:
#      x y z
#    x 3.526870 0.000000 0.122800 
#    y 0.000000 3.207130 0.000000 
#    z 0.122800 0.000000 3.660080 
# 
# 
# High freq. dielectric constant tensor:
#      x y z
#    x 1.735790 0.000000 0.007870 
#    y 0.000000 1.688910 0.000000 
#    z 0.007870 0.000000 1.767800 
# 
# From -- ./inp_files/200410.got.cif
#   From: 2010.06.25/outbox.cif.g09.slc.cpg/sg15_101_cif.got.tgz:200410.got - 2010.06.28 07:06:18.
