data_PCOD8137259
_publ_section_title
;
Structure prediction by ZEFSAII (Michael W. Deem and Ramdas Pophale) SiO2 
 PCOD8137259
Probable space group: C 2/C
;
_chemical_formula_sum "Si O2"
_cell_formula_units_Z 36
_cell_length_a 6.560175
_cell_length_b 26.485627
_cell_length_c 10.462484
_cell_angle_alpha 90.000000
_cell_angle_beta 68.134499
_cell_angle_gamma 90.000000
_cell_volume 1687.084589
_symmetry_space_group_name_H-M "C 2/C"
_symmetry_group_IT_number 15
_symmetry_cell_setting 'monoclinic'
loop_
_space_group_symop_operation_xyz
x,y,z
-x,y,1/2-z
-x,-y,-z
x,-y,1/2+z
1/2+x,1/2+y,z
1/2-x,1/2+y,1/2-z
1/2-x,1/2-y,-z
1/2+x,1/2-y,1/2+z
loop_
_atom_site_type_symbol
_atom_site_label
_atom_site_fract_x
_atom_site_fract_y
_atom_site_fract_z
Si Si1 0.000000 0.816162 0.750000
Si Si2 0.486819 0.432430 0.107245
Si Si3 0.640097 0.996628 0.595282
Si Si4 0.046047 0.271000 0.884152
Si Si5 0.634298 0.669320 0.482635
O O1 0.200056 0.782233 0.650937
O O2 0.095747 0.849639 0.844792
O O3 0.500000 0.452313 0.250000
O O4 0.251446 0.449188 0.104122
O O5 0.673553 0.455317 0.972620
O O6 0.524010 0.372115 0.100268
O O7 0.500000 0.978248 0.750000
O O8 0.500000 0.000000 0.500000
O O9 0.000000 0.254730 0.750000
O O10 0.891861 0.320090 0.953915
O O11 0.987559 0.223001 0.983411
#
# Coordination Sequence:
#
# PCOD8137259 Si02
#       5
#     4   8   8   8   8
#     4  10  20  36  54  86 124 172 208 256 318 390
#     4  11  24  42  67  96 125 168 224 266 331 402
#     4  11  24  45  67  93 131 168 209 276 336 389
#     4   9  19  37  57  82 126 167 207 263 320 375
#     4  10  21  36  58  89 124 163 214 266 318 384
#
# _framework density 21.338587
#
# number of rings (size 3 to 8) (size 9 to 14) (size 15 to 20)
#    0.000    1.778    2.222    1.333    0.000    6.222 
#    2.000    0.000    0.000    0.000    0.000    0.000 
#    0.000    0.000    0.000    0.000    0.000    0.000 
#
# Total GULP energy -223107.545758 kJ/mol
# GULP energy per Si atom -12394.863653 kJ/mol
# Density = 2.129002 g / cm^3
# Si number density = 21.338587 Si / 1000 Ang^3
#
#
#
# Elastic Constant Matrix: (Units=GPa)
#
#
# Indices 1 2 3 4 5 6 
#
# 1 145.1338 41.0206 46.1734 0.0000 -5.0837 0.0000
# 2 41.0206 81.9918 27.2192 0.0000 -3.2538 0.0000
# 3 46.1734 27.2192 124.5061 0.0000 -3.8806 0.0000
# 4 0.0000 0.0000 0.0000 27.1907 0.0000 -6.1149
# 5 -5.0837 -3.2538 -3.8806 0.0000 45.7790 0.0000
# 6 0.0000 0.0000 0.0000 -6.1149 0.0000 19.5201
#
#
#
# Elastic Compliance Matrix: (Units=1/GPa)
#
#
# Indices 1 2 3 4 5 6 
#
# 1 0.008675 -0.003512 -0.002433 0.000000 0.000507 0.000000
# 2 -0.003512 0.014595 -0.001873 0.000000 0.000489 0.000000
# 3 -0.002433 -0.001873 0.009356 0.000000 0.000390 0.000000
# 4 0.000000 0.000000 0.000000 0.039564 0.000000 0.012394
# 5 0.000507 0.000489 0.000390 0.000000 0.021968 0.000000
# 6 0.000000 0.000000 0.000000 0.012394 0.000000 0.055112
#
#
# Mechanical properties :
#
#
# Convention : Reuss Voigt Hill
#
# Bulk Modulus (GPa) = 58.86413 64.49536 61.67974
# Shear Modulus (GPa) = 29.31360 34.31253 31.81307
#
# Velocity S-wave (km/s) = 3.71042 4.01434 3.86537
# Velocity P-wave (km/s) = 6.78247 7.19562 6.99210
#
# Compressibility (1/GPa) = 0.01698827
#
# Stress axis : x y z
#
# Youngs Moduli (GPa) = 115.27645 68.51860 106.88561
#
# Poissons Ratio (x) = 0.24064 0.26010
# Poissons Ratio (y) = 0.40485 0.20019
# Poissons Ratio (z) = 0.28052 0.12833
#
# Static dielectric constant tensor:
#      x y z
#    x 4.031330 0.000000 -0.172560 
#    y 0.000000 3.425240 0.000000 
#    z -0.172560 0.000000 4.048890 
# 
# 
# High freq. dielectric constant tensor:
#      x y z
#    x 1.846720 0.000000 -0.001430 
#    y 0.000000 1.798020 0.000000 
#    z -0.001430 0.000000 1.855080 
# 
# From -- ./inp_files/72893.got.cif
#   From: 2010.06.25/outbox.cif.g09.slc.cpg/sg15_37_cif.got.tgz:72893.got - 2010.06.28 07:06:18.
