data_PCOD8137047
_publ_section_title
;
Structure prediction by ZEFSAII (Michael W. Deem and Ramdas Pophale) SiO2 
 PCOD8137047
Probable space group: C 2/C
;
_chemical_formula_sum "Si O2"
_cell_formula_units_Z 56
_cell_length_a 11.643512
_cell_length_b 20.005169
_cell_length_c 19.147325
_cell_angle_alpha 90.000000
_cell_angle_beta 38.936068
_cell_angle_gamma 90.000000
_cell_volume 2802.896251
_symmetry_space_group_name_H-M "C 2/C"
_symmetry_group_IT_number 15
_symmetry_cell_setting 'monoclinic'
loop_
_space_group_symop_operation_xyz
x,y,z
-x,y,1/2-z
-x,-y,-z
x,-y,1/2+z
1/2+x,1/2+y,z
1/2-x,1/2+y,1/2-z
1/2-x,1/2-y,-z
1/2+x,1/2-y,1/2+z
loop_
_atom_site_type_symbol
_atom_site_label
_atom_site_fract_x
_atom_site_fract_y
_atom_site_fract_z
Si Si1 0.986854 0.425862 0.085378
Si Si2 0.620803 0.630481 0.752021
Si Si3 0.309012 0.323425 0.495816
Si Si4 0.017910 0.573890 0.075663
Si Si5 0.301005 0.666893 0.270870
Si Si6 0.218532 0.815605 0.562056
Si Si7 0.804398 0.272513 0.817790
O O1 0.785752 0.409059 0.210989
O O2 0.044390 0.497627 0.089495
O O3 0.941853 0.426332 0.024982
O O4 0.140907 0.371661 0.032241
O O5 0.500000 0.590366 0.750000
O O6 0.500479 0.655515 0.873351
O O7 0.705576 0.692410 0.666410
O O8 0.250000 0.250000 0.500000
O O9 0.155747 0.378569 0.551552
O O10 0.337174 0.314075 0.566601
O O11 0.807467 0.597057 0.186708
O O12 0.253157 0.699816 0.368912
O O13 0.514408 0.654420 0.154374
O O14 0.227652 0.718497 0.248806
O O15 0.250000 0.750000 0.500000
O O16 0.000000 0.299986 0.750000
#
# Coordination Sequence:
#
# PCOD8137047 Si02
#       7
#     8   8   8   8   8   8   8
#     4  10  21  37  56  88 120 163 200 249 299 362
#     4  11  20  33  54  87 124 150 195 253 309 356
#     4  12  20  33  58  94 119 151 193 252 315 356
#     4  10  20  35  59  86 123 157 199 249 305 363
#     4  10  21  39  59  88 117 158 200 245 305 361
#     4  10  22  39  63  86 121 160 206 250 293 362
#     4  11  20  34  61  88 122 153 191 257 313 356
#
# _framework density 19.979334999999999
#
# number of rings (size 3 to 8) (size 9 to 14) (size 15 to 20)
#    0.000    1.429    5.714    0.857    0.000    4.571 
#    2.571    0.000    0.000   12.000    0.000    0.000 
#    0.000    0.000    0.000    0.000    0.000    0.000 
#
# Total GULP energy -346964.979412 kJ/mol
# GULP energy per Si atom -12391.606408 kJ/mol
# Density = 1.993386 g / cm^3
# Si number density = 19.979335 Si / 1000 Ang^3
#
#
#
# Elastic Constant Matrix: (Units=GPa)
#
#
# Indices 1 2 3 4 5 6 
#
# 1 82.4632 49.2573 34.5804 -0.0242 -5.1562 0.0071
# 2 49.2573 139.6210 59.9666 -0.0047 -12.9397 0.0009
# 3 34.5804 59.9666 115.2517 0.0046 -19.5899 0.0074
# 4 -0.0242 -0.0047 0.0046 21.8938 0.0194 -7.2816
# 5 -5.1562 -12.9397 -19.5899 0.0194 34.8736 -0.0065
# 6 0.0071 0.0009 0.0074 -7.2816 -0.0065 26.8977
#
#
#
# Elastic Compliance Matrix: (Units=1/GPa)
#
#
# Indices 1 2 3 4 5 6 
#
# 1 0.015873 -0.004597 -0.002501 0.000018 -0.000763 0.000001
# 2 -0.004597 0.010575 -0.003949 -0.000002 0.001026 0.000002
# 3 -0.002501 -0.003949 0.012349 -0.000012 0.005102 -0.000005
# 4 0.000018 -0.000002 -0.000012 0.050194 -0.000030 0.013588
# 5 -0.000763 0.001026 0.005102 -0.000030 0.031809 -0.000002
# 6 0.000001 0.000002 -0.000005 0.013588 -0.000002 0.040856
#
#
# Mechanical properties :
#
#
# Convention : Reuss Voigt Hill
#
# Bulk Modulus (GPa) = 59.86298 69.43829 64.65064
# Shear Modulus (GPa) = 26.41074 29.63511 28.02293
#
# Velocity S-wave (km/s) = 3.63974 3.85553 3.74919
# Velocity P-wave (km/s) = 6.90588 7.39261 7.15338
#
# Compressibility (1/GPa) = 0.01670481
#
# Stress axis : x y z
#
# Youngs Moduli (GPa) = 62.99897 94.56315 80.98018
#
# Poissons Ratio (x) = 0.43468 0.20251
# Poissons Ratio (y) = 0.28959 0.31976
# Poissons Ratio (z) = 0.15754 0.37340
#
# Static dielectric constant tensor:
#      x y z
#    x 3.726370 -0.000050 0.113250 
#    y -0.000050 3.556490 0.000040 
#    z 0.113250 0.000040 4.094130 
# 
# 
# High freq. dielectric constant tensor:
#      x y z
#    x 1.760420 0.000000 -0.010900 
#    y 0.000000 1.754640 0.000010 
#    z -0.010900 0.000010 1.791270 
# 
# From -- ./inp_files/240186.got.cif
#   From: 2010.06.25/outbox.cif.g09.slc.cpg/sg15_121_cif.got.tgz:240186.got - 2010.06.28 07:06:18.
