data_PCOD8137919
_publ_section_title
;
Structure prediction by ZEFSAII (Michael W. Deem and Ramdas Pophale) SiO2 
 PCOD8137919
Probable space group: C 2/C
;
_chemical_formula_sum "Si O2"
_cell_formula_units_Z 56
_cell_length_a 16.986238
_cell_length_b 9.090029
_cell_length_c 22.813032
_cell_angle_alpha 90.000000
_cell_angle_beta 49.808410
_cell_angle_gamma 90.000000
_cell_volume 2690.771018
_symmetry_space_group_name_H-M "C 2/C"
_symmetry_group_IT_number 15
_symmetry_cell_setting 'monoclinic'
loop_
_space_group_symop_operation_xyz
x,y,z
-x,y,1/2-z
-x,-y,-z
x,-y,1/2+z
1/2+x,1/2+y,z
1/2-x,1/2+y,1/2-z
1/2-x,1/2-y,-z
1/2+x,1/2-y,1/2+z
loop_
_atom_site_type_symbol
_atom_site_label
_atom_site_fract_x
_atom_site_fract_y
_atom_site_fract_z
Si Si1 0.932850 0.057418 0.961874
Si Si2 0.044490 0.763043 0.497128
Si Si3 0.260848 0.924875 0.625431
Si Si4 0.857555 0.335453 0.150286
Si Si5 0.817516 0.172168 0.918440
Si Si6 0.239452 0.605540 0.138788
Si Si7 0.391847 0.177181 0.768222
O O1 0.831338 0.077282 0.049656
O O2 0.957216 0.883971 0.949573
O O3 0.920071 0.111733 0.901028
O O4 0.025967 0.151905 0.944543
O O5 0.151778 0.682738 0.440284
O O6 0.951532 0.653618 0.558242
O O7 0.158686 0.831431 0.688631
O O8 0.293862 0.014403 0.668217
O O9 0.242732 0.035464 0.580550
O O10 0.785374 0.192064 0.173218
O O11 0.905781 0.328750 0.191668
O O12 0.843638 0.288789 0.854503
O O13 0.750000 0.250000 0.000000
O O14 0.185745 0.454651 0.180306
O O15 0.500000 0.157851 0.750000
#
# Coordination Sequence:
#
# PCOD8137919 Si02
#       7
#     8   8   8   8   8   8   8
#     4   9  18  35  61  97 123 151 199 258 313 360
#     4  10  20  36  66  97 120 158 207 255 309 370
#     4  11  23  42  65  94 126 165 207 257 310 371
#     4  10  23  41  64  89 126 165 204 253 311 376
#     4   9  20  37  62  90 124 161 201 255 316 363
#     4   9  19  42  60  82 125 165 203 247 310 372
#     4  12  26  41  60  91 126 166 214 256 304 365
#
# _framework density 20.811879999999999
#
# number of rings (size 3 to 8) (size 9 to 14) (size 15 to 20)
#    0.000    2.000    1.429    2.143    2.000    4.000 
#    0.000    2.857    0.000    0.000    0.000    0.000 
#    0.000    0.000    0.000    0.000    0.000    0.000 
#
# Total GULP energy -347055.934912 kJ/mol
# GULP energy per Si atom -12394.854818 kJ/mol
# Density = 2.076451 g / cm^3
# Si number density = 20.811880 Si / 1000 Ang^3
#
#
#
# Elastic Constant Matrix: (Units=GPa)
#
#
# Indices 1 2 3 4 5 6 
#
# 1 113.7768 34.0219 15.1524 0.0000 26.3628 0.0001
# 2 34.0219 91.3752 19.3858 0.0000 6.7633 0.0004
# 3 15.1524 19.3858 39.2035 0.0000 6.9784 0.0000
# 4 0.0000 0.0000 0.0000 12.5066 0.0000 1.2260
# 5 26.3628 6.7633 6.9784 0.0000 32.0653 0.0000
# 6 0.0001 0.0004 0.0000 1.2260 0.0000 33.2502
#
#
#
# Elastic Compliance Matrix: (Units=1/GPa)
#
#
# Indices 1 2 3 4 5 6 
#
# 1 0.012094 -0.003562 -0.001328 0.000000 -0.008903 0.000000
# 2 -0.003562 0.013329 -0.005446 0.000000 0.001303 0.000000
# 3 -0.001328 -0.005446 0.029457 0.000000 -0.004170 0.000000
# 4 0.000000 0.000000 0.000000 0.080248 0.000000 -0.002959
# 5 -0.008903 0.001303 -0.004170 0.000000 0.039139 0.000000
# 6 0.000000 0.000000 0.000000 -0.002959 0.000000 0.030184
#
#
# Mechanical properties :
#
#
# Convention : Reuss Voigt Hill
#
# Bulk Modulus (GPa) = 29.23408 42.38617 35.81012
# Shear Modulus (GPa) = 21.13930 27.28411 24.21171
#
# Velocity S-wave (km/s) = 3.19051 3.62468 3.41451
# Velocity P-wave (km/s) = 5.25831 6.15860 5.72617
#
# Compressibility (1/GPa) = 0.03420665
#
# Stress axis : x y z
#
# Youngs Moduli (GPa) = 82.68526 75.02288 33.94814
#
# Poissons Ratio (x) = 0.26725 0.04509
# Poissons Ratio (y) = 0.29455 0.18489
# Poissons Ratio (z) = 0.10982 0.40859
#
# Static dielectric constant tensor:
#      x y z
#    x 4.280860 0.000000 0.157390 
#    y 0.000000 4.226590 0.000000 
#    z 0.157390 0.000000 3.301460 
# 
# 
# High freq. dielectric constant tensor:
#      x y z
#    x 1.824810 0.000000 0.008470 
#    y 0.000000 1.833230 0.000000 
#    z 0.008470 0.000000 1.775080 
# 
# From -- ./inp_files/276530.got.cif
#   From: 2010.06.25/outbox.cif.g09.slc.cpg/sg15_139_cif.got.tgz:276530.got - 2010.06.28 07:06:18.
