data_PCOD8137618
_publ_section_title
;
Structure prediction by ZEFSAII (Michael W. Deem and Ramdas Pophale) SiO2 
 PCOD8137618
Probable space group: C 2/C
;
_chemical_formula_sum "Si O2"
_cell_formula_units_Z 48
_cell_length_a 15.222991
_cell_length_b 23.158087
_cell_length_c 12.135151
_cell_angle_alpha 90.000000
_cell_angle_beta 30.370235
_cell_angle_gamma 90.000000
_cell_volume 2162.930534
_symmetry_space_group_name_H-M "C 2/C"
_symmetry_group_IT_number 15
_symmetry_cell_setting 'monoclinic'
loop_
_space_group_symop_operation_xyz
x,y,z
-x,y,1/2-z
-x,-y,-z
x,-y,1/2+z
1/2+x,1/2+y,z
1/2-x,1/2+y,1/2-z
1/2-x,1/2-y,-z
1/2+x,1/2-y,1/2+z
loop_
_atom_site_type_symbol
_atom_site_label
_atom_site_fract_x
_atom_site_fract_y
_atom_site_fract_z
Si Si1 0.865898 0.796021 0.599382
Si Si2 0.818431 0.471160 0.729021
Si Si3 0.693993 0.388683 0.675720
Si Si4 0.762238 0.330382 0.180026
Si Si5 0.297783 0.410739 0.071925
Si Si6 0.297460 0.376544 0.484977
O O1 0.761050 0.826843 0.814450
O O2 0.867965 0.727175 0.594545
O O3 0.790084 0.818649 0.566162
O O4 0.061271 0.816163 0.400292
O O5 0.740448 0.441817 0.704742
O O6 0.695763 0.522030 0.905494
O O7 0.000000 0.500000 0.500000
O O8 0.818218 0.425418 0.829759
O O9 0.787789 0.397494 0.455818
O O10 0.491713 0.388421 0.868259
O O11 0.818059 0.376205 0.213255
O O12 0.802477 0.360116 0.019256
O O13 0.500000 0.396605 0.250000
#
# Coordination Sequence:
#
# PCOD8137618 Si02
#       6
#     8   8   8   8   8   8
#     4   9  19  37  59  87 123 155 203 256 300 367
#     4  11  24  39  60  91 126 155 202 270 316 355
#     4   9  21  41  61  84 118 168 214 242 303 379
#     4  10  20  36  60  90 117 158 206 251 307 360
#     4  10  22  38  62  85 117 167 212 245 300 380
#     4   9  20  38  62  88 118 165 208 247 305 376
#
# _framework density 22.192112000000002
#
# number of rings (size 3 to 8) (size 9 to 14) (size 15 to 20)
#    0.000    2.333    0.000    2.000    4.667    4.000 
#    0.000    1.667    0.000    0.000    0.000    0.000 
#    0.000    0.000    0.000    0.000    0.000    0.000 
#
# Total GULP energy -297434.878861 kJ/mol
# GULP energy per Si atom -12393.119953 kJ/mol
# Density = 2.214160 g / cm^3
# Si number density = 22.192112 Si / 1000 Ang^3
#
#
#
# Elastic Constant Matrix: (Units=GPa)
#
#
# Indices 1 2 3 4 5 6 
#
# 1 117.0906 54.9134 49.7987 0.0983 60.6531 0.0117
# 2 54.9134 136.4254 42.3849 0.3138 35.6176 0.0396
# 3 49.7987 42.3849 54.3502 0.1850 34.8103 -0.0003
# 4 0.0983 0.3138 0.1850 28.5301 0.0191 2.0492
# 5 60.6531 35.6176 34.8103 0.0191 40.9635 0.0130
# 6 0.0117 0.0396 -0.0003 2.0492 0.0130 26.9366
#
#
#
# Elastic Compliance Matrix: (Units=1/GPa)
#
#
# Indices 1 2 3 4 5 6 
#
# 1 0.036943 -0.001124 0.003151 -0.000099 -0.056400 0.000020
# 2 -0.001124 0.010082 -0.005011 -0.000072 -0.002844 -0.000008
# 3 0.003151 -0.005011 0.043048 -0.000213 -0.036890 0.000041
# 4 -0.000099 -0.000072 -0.000213 0.035246 0.000375 -0.002681
# 5 -0.056400 -0.002844 -0.036890 0.000375 0.141742 -0.000069
# 6 0.000020 -0.000008 0.000041 -0.002681 -0.000069 0.037328
#
#
# Mechanical properties :
#
#
# Convention : Reuss Voigt Hill
#
# Bulk Modulus (GPa) = 11.88994 66.89556 39.39275
# Shear Modulus (GPa) = 14.77579 30.00400 22.38989
#
# Velocity S-wave (km/s) = 2.58313 3.68096 3.17978
# Velocity P-wave (km/s) = 3.77705 6.94804 5.59202
#
# Compressibility (1/GPa) = 0.08410473
#
# Stress axis : x y z
#
# Youngs Moduli (GPa) = 27.06887 99.18868 23.22989
#
# Poissons Ratio (x) = 0.11149 -0.07320
# Poissons Ratio (y) = 0.03043 0.11640
# Poissons Ratio (z) = -0.08529 0.49702
#
# Static dielectric constant tensor:
#      x y z
#    x 4.231370 0.000580 0.593720 
#    y 0.000580 4.768490 -0.000590 
#    z 0.593720 -0.000590 4.192340 
# 
# 
# High freq. dielectric constant tensor:
#      x y z
#    x 1.873030 -0.000010 0.021050 
#    y -0.000010 1.874660 0.000010 
#    z 0.021050 0.000010 1.863650 
# 
# From -- ./inp_files/99963.got.cif
#   From: 2010.06.25/outbox.cif.g09.slc.cpg/sg15_50_cif.got.tgz:99963.got - 2010.06.28 07:06:18.
