data_PCOD8137243
_publ_section_title
;
Structure prediction by ZEFSAII (Michael W. Deem and Ramdas Pophale) SiO2 
 PCOD8137243
Probable space group: C 2/C
;
_chemical_formula_sum "Si O2"
_cell_formula_units_Z 52
_cell_length_a 11.862721
_cell_length_b 13.625898
_cell_length_c 26.264983
_cell_angle_alpha 90.000000
_cell_angle_beta 134.933440
_cell_angle_gamma 90.000000
_cell_volume 3005.491517
_symmetry_space_group_name_H-M "C 2/C"
_symmetry_group_IT_number 15
_symmetry_cell_setting 'monoclinic'
loop_
_space_group_symop_operation_xyz
x,y,z
-x,y,1/2-z
-x,-y,-z
x,-y,1/2+z
1/2+x,1/2+y,z
1/2-x,1/2+y,1/2-z
1/2-x,1/2-y,-z
1/2+x,1/2-y,1/2+z
loop_
_atom_site_type_symbol
_atom_site_label
_atom_site_fract_x
_atom_site_fract_y
_atom_site_fract_z
Si Si1 0.000000 0.682824 0.750000
Si Si2 0.532057 0.091527 0.047000
Si Si3 0.976329 0.074536 0.083538
Si Si4 0.096102 0.131016 0.327997
Si Si5 0.031967 0.803705 0.507282
Si Si6 0.772416 0.070479 0.871047
Si Si7 0.712657 0.951212 0.946902
O O1 0.053587 0.752210 0.814266
O O2 0.152795 0.613480 0.790337
O O3 0.717837 0.107448 0.117538
O O4 0.457582 0.186812 0.995492
O O5 0.448763 0.076647 0.075245
O O6 0.500000 0.000000 0.000000
O O7 0.972424 0.096259 0.141139
O O8 0.982818 0.171308 0.049925
O O9 0.139402 0.018113 0.127464
O O10 0.826791 0.006921 0.022652
O O11 0.000000 0.080646 0.250000
O O12 0.896138 0.846192 0.427267
O O13 0.200800 0.852747 0.546146
O O14 0.676207 0.025601 0.888761
#
# Coordination Sequence:
#
# PCOD8137243 Si02
#       7
#     4   8   8   8   8   8   8
#     4  10  20  36  54  76 108 148 186 218 276 332
#     4  12  21  33  54  87 114 146 182 225 277 331
#     4   9  18  36  56  77 106 139 181 230 268 321
#     4  10  22  36  51  76 117 147 175 222 286 323
#     4   9  18  35  55  80 109 138 183 229 270 313
#     4   9  18  35  58  80  98 143 187 222 267 325
#     4   9  19  33  57  82 107 136 182 231 268 317
#
# _framework density 17.301663000000001
#
# number of rings (size 3 to 8) (size 9 to 14) (size 15 to 20)
#    0.462    1.846    3.077    2.308    0.000    3.077 
#    0.000    0.000    0.000    0.000    8.000    0.000 
#    0.000    0.000    0.000    0.000    0.000    0.000 
#
# Total GULP energy -322154.266935 kJ/mol
# GULP energy per Si atom -12390.548728 kJ/mol
# Density = 1.726228 g / cm^3
# Si number density = 17.301663 Si / 1000 Ang^3
#
#
#
# Elastic Constant Matrix: (Units=GPa)
#
#
# Indices 1 2 3 4 5 6 
#
# 1 116.1888 38.4177 51.3882 0.0000 -9.0800 0.0000
# 2 38.4177 104.6240 33.2200 0.0000 1.0743 0.0000
# 3 51.3882 33.2200 87.2631 0.0000 6.5141 0.0000
# 4 0.0000 0.0000 0.0000 24.2244 0.0000 1.3612
# 5 -9.0800 1.0743 6.5141 0.0000 25.4652 0.0000
# 6 0.0000 0.0000 0.0000 1.3612 0.0000 12.5894
#
#
#
# Elastic Compliance Matrix: (Units=1/GPa)
#
#
# Indices 1 2 3 4 5 6 
#
# 1 0.013215 -0.002607 -0.007289 0.000000 0.006686 0.000000
# 2 -0.002607 0.011396 -0.002750 0.000000 -0.000707 0.000000
# 3 -0.007289 -0.002750 0.017315 0.000000 -0.006912 0.000000
# 4 0.000000 0.000000 0.000000 0.041533 0.000000 -0.004491
# 5 0.006686 -0.000707 -0.006912 0.000000 0.043451 0.000000
# 6 0.000000 0.000000 0.000000 -0.004491 0.000000 0.079918
#
#
# Mechanical properties :
#
#
# Convention : Reuss Voigt Hill
#
# Bulk Modulus (GPa) = 60.11939 61.56976 60.84458
# Shear Modulus (GPa) = 21.03809 24.79246 22.91527
#
# Velocity S-wave (km/s) = 3.49084 3.78954 3.64325
# Velocity P-wave (km/s) = 7.14641 7.40343 7.27606
#
# Compressibility (1/GPa) = 0.01663357
#
# Stress axis : x y z
#
# Youngs Moduli (GPa) = 75.67242 87.75168 57.75362
#
# Poissons Ratio (x) = 0.22875 0.42096
# Poissons Ratio (y) = 0.19726 0.15885
# Poissons Ratio (z) = 0.55156 0.24135
#
# Static dielectric constant tensor:
#      x y z
#    x 3.214880 0.000000 0.037600 
#    y 0.000000 3.249980 0.000000 
#    z 0.037600 0.000000 3.060180 
# 
# 
# High freq. dielectric constant tensor:
#      x y z
#    x 1.666610 0.000000 0.004530 
#    y 0.000000 1.668330 0.000000 
#    z 0.004530 0.000000 1.651090 
# 
# From -- ./inp_files/197281.got.cif
#   From: 2010.06.25/outbox.cif.g09.slc.cpg/sg15_99_cif.got.tgz:197281.got - 2010.06.28 07:06:18.
