data_PCOD8137272
_publ_section_title
;
Structure prediction by ZEFSAII (Michael W. Deem and Ramdas Pophale) SiO2 
 PCOD8137272
Probable space group: C 2/C
;
_chemical_formula_sum "Si O2"
_cell_formula_units_Z 64
_cell_length_a 12.104764
_cell_length_b 27.238970
_cell_length_c 15.425415
_cell_angle_alpha 90.000000
_cell_angle_beta 39.813911
_cell_angle_gamma 90.000000
_cell_volume 3256.602854
_symmetry_space_group_name_H-M "C 2/C"
_symmetry_group_IT_number 15
_symmetry_cell_setting 'monoclinic'
loop_
_space_group_symop_operation_xyz
x,y,z
-x,y,1/2-z
-x,-y,-z
x,-y,1/2+z
1/2+x,1/2+y,z
1/2-x,1/2+y,1/2-z
1/2-x,1/2-y,-z
1/2+x,1/2-y,1/2+z
loop_
_atom_site_type_symbol
_atom_site_label
_atom_site_fract_x
_atom_site_fract_y
_atom_site_fract_z
Si Si1 0.905882 0.067741 0.220570
Si Si2 0.900482 0.578223 0.724697
Si Si3 0.989304 0.294950 0.891268
Si Si4 0.569208 0.531579 0.621229
Si Si5 0.470488 0.894236 0.538942
Si Si6 0.495880 0.395434 0.020344
Si Si7 0.797538 0.202522 0.076246
Si Si8 0.439348 0.012632 0.440824
O O1 0.711518 0.080251 0.352995
O O2 0.000000 0.085701 0.250000
O O3 0.924993 0.009708 0.188781
O O4 0.972799 0.097335 0.098750
O O5 0.704614 0.595303 0.844297
O O6 0.000000 0.598374 0.750000
O O7 0.965397 0.603221 0.597843
O O8 0.934206 0.518626 0.699115
O O9 0.832899 0.310051 0.922804
O O10 0.022471 0.337992 0.939234
O O11 0.173101 0.285654 0.733076
O O12 0.925718 0.247658 0.982007
O O13 0.500000 0.560111 0.750000
O O14 0.596504 0.567255 0.523570
O O15 0.742070 0.499379 0.535493
O O16 0.564236 0.927351 0.557804
O O17 0.567873 0.341636 0.995849
O O18 0.500000 0.000000 0.500000
#
# Coordination Sequence:
#
# PCOD8137272 Si02
#       8
#     8   8   8   8   8   8   8   8
#     4  11  22  39  60  84 124 170 214 259 307 366
#     4  11  23  39  58  90 129 172 213 256 308 364
#     4  10  22  44  66  96 124 156 194 254 326 379
#     4  11  21  36  58  92 131 168 212 260 307 368
#     4  11  21  39  64  86 122 169 207 252 310 372
#     4  12  23  39  62  97 123 165 218 261 309 377
#     4  10  23  42  67  96 125 153 197 254 320 388
#     4  10  20  36  55  86 128 172 206 248 304 366
#
# _framework density 19.652380000000001
#
# number of rings (size 3 to 8) (size 9 to 14) (size 15 to 20)
#    0.000    1.250    1.250    7.875    1.750    1.000 
#    4.500    0.000    0.000    4.500    0.000    0.000 
#    0.000    0.000    0.000    0.000    0.000    0.000 
#
# Total GULP energy -396437.888754 kJ/mol
# GULP energy per Si atom -12388.684024 kJ/mol
# Density = 1.960765 g / cm^3
# Si number density = 19.652380 Si / 1000 Ang^3
#
#
#
# Elastic Constant Matrix: (Units=GPa)
#
#
# Indices 1 2 3 4 5 6 
#
# 1 90.8208 59.9357 54.7981 -0.0003 2.8938 0.0003
# 2 59.9357 136.9499 73.5865 0.0000 8.6846 0.0000
# 3 54.7981 73.5865 159.0982 -0.0005 -0.9897 0.0004
# 4 -0.0003 0.0000 -0.0005 99.8268 0.0004 -70.8397
# 5 2.8938 8.6846 -0.9897 0.0004 39.3269 -0.0004
# 6 0.0003 0.0000 0.0004 -70.8397 -0.0004 96.3131
#
#
#
# Elastic Compliance Matrix: (Units=1/GPa)
#
#
# Indices 1 2 3 4 5 6 
#
# 1 0.016578 -0.005566 -0.003136 0.000000 -0.000070 0.000000
# 2 -0.005566 0.011790 -0.003550 0.000000 -0.002283 0.000000
# 3 -0.003136 -0.003550 0.009016 0.000000 0.001242 0.000000
# 4 0.000000 0.000000 0.000000 0.020954 0.000000 0.015412
# 5 -0.000070 -0.002283 0.001242 0.000000 0.025969 0.000000
# 6 0.000000 0.000000 0.000000 0.015412 0.000000 0.021719
#
#
# Mechanical properties :
#
#
# Convention : Reuss Voigt Hill
#
# Bulk Modulus (GPa) = 77.64468 84.83439 81.23954
# Shear Modulus (GPa) = 37.08552 60.32994 48.70773
#
# Velocity S-wave (km/s) = 4.34876 5.54664 4.98382
# Velocity P-wave (km/s) = 8.05049 9.18049 8.63400
#
# Compressibility (1/GPa) = 0.01287918
#
# Stress axis : x y z
#
# Youngs Moduli (GPa) = 60.31992 84.81474 110.92007
#
# Poissons Ratio (x) = 0.47207 0.34786
# Poissons Ratio (y) = 0.33573 0.39382
# Poissons Ratio (z) = 0.18917 0.30113
#
# Static dielectric constant tensor:
#      x y z
#    x 3.395380 0.000000 0.190720 
#    y 0.000000 3.709250 0.000000 
#    z 0.190720 0.000000 3.622320 
# 
# 
# High freq. dielectric constant tensor:
#      x y z
#    x 1.772180 0.000000 -0.004460 
#    y 0.000000 1.740480 0.000000 
#    z -0.004460 0.000000 1.784530 
# 
# From -- ./inp_files/148754.got.cif
#   From: 2010.06.25/outbox.cif.g09.slc.cpg/sg15_75_cif.got.tgz:148754.got - 2010.06.28 07:06:18.
