data_PCOD8137962
_publ_section_title
;
Structure prediction by ZEFSAII (Michael W. Deem and Ramdas Pophale) SiO2 
 PCOD8137962
Probable space group: C 2/C
;
_chemical_formula_sum "Si O2"
_cell_formula_units_Z 64
_cell_length_a 19.290502
_cell_length_b 13.529834
_cell_length_c 21.389058
_cell_angle_alpha 90.000000
_cell_angle_beta 38.576076
_cell_angle_gamma 90.000000
_cell_volume 3480.977207
_symmetry_space_group_name_H-M "C 2/C"
_symmetry_group_IT_number 15
_symmetry_cell_setting 'monoclinic'
loop_
_space_group_symop_operation_xyz
x,y,z
-x,y,1/2-z
-x,-y,-z
x,-y,1/2+z
1/2+x,1/2+y,z
1/2-x,1/2+y,1/2-z
1/2-x,1/2-y,-z
1/2+x,1/2-y,1/2+z
loop_
_atom_site_type_symbol
_atom_site_label
_atom_site_fract_x
_atom_site_fract_y
_atom_site_fract_z
Si Si1 0.215901 0.181601 0.239155
Si Si2 0.989059 0.880277 0.685889
Si Si3 0.889956 0.969409 0.004178
Si Si4 0.559029 0.659750 0.463420
Si Si5 0.368106 0.802704 0.408165
Si Si6 0.517749 0.946953 0.088525
Si Si7 0.326300 0.869518 0.305805
Si Si8 0.967645 0.362267 0.557053
O O1 0.158537 0.191398 0.347126
O O2 0.232866 0.288910 0.196450
O O3 0.335228 0.129772 0.161953
O O4 0.138173 0.114660 0.248415
O O5 0.065573 0.961287 0.597748
O O6 0.034823 0.770589 0.636112
O O7 0.000000 0.907194 0.750000
O O8 0.762370 0.939827 0.098840
O O9 0.895249 0.083238 0.018534
O O10 0.960000 0.893434 0.996645
O O11 0.514062 0.752448 0.535079
O O12 0.250000 0.750000 0.500000
O O13 0.378963 0.901977 0.443524
O O14 0.390711 0.819398 0.318619
O O15 0.408100 0.936282 0.207658
O O16 0.530121 0.062662 0.060981
O O17 0.504321 0.886432 0.034310
#
# Coordination Sequence:
#
# PCOD8137962 Si02
#       8
#     8   8   8   8   8   8   8   8
#     4  11  20  34  57  81 114 153 187 235 299 345
#     4  11  20  34  51  86 116 146 186 240 289 351
#     4  10  21  33  56  80 114 150 192 238 292 341
#     4  10  20  37  53  80 112 153 193 241 280 350
#     4  12  21  35  59  85 119 150 184 242 302 341
#     4  11  23  36  54  88 112 153 187 238 288 356
#     4  12  19  34  58  85 118 145 190 237 299 353
#     4  11  22  38  57  76 121 151 193 235 287 347
#
# _framework density 18.385642000000001
#
# number of rings (size 3 to 8) (size 9 to 14) (size 15 to 20)
#    0.000    1.000    6.250    2.625    0.000    0.000 
#    0.000    0.000    0.000    2.250    0.000    0.000 
#    0.000    0.000    0.000    0.000    0.000    0.000 
#
# Total GULP energy -396781.685116 kJ/mol
# GULP energy per Si atom -12399.427660 kJ/mol
# Density = 1.834380 g / cm^3
# Si number density = 18.385642 Si / 1000 Ang^3
#
#
#
# Elastic Constant Matrix: (Units=GPa)
#
#
# Indices 1 2 3 4 5 6 
#
# 1 68.2946 46.4812 41.5589 0.0000 0.7073 0.0000
# 2 46.4812 108.3210 36.4592 0.0000 8.6645 0.0000
# 3 41.5589 36.4592 106.4875 0.0000 1.7628 0.0000
# 4 0.0000 0.0000 0.0000 24.3654 0.0000 4.0609
# 5 0.7073 8.6645 1.7628 0.0000 32.6614 0.0000
# 6 0.0000 0.0000 0.0000 4.0609 0.0000 34.7919
#
#
#
# Elastic Compliance Matrix: (Units=1/GPa)
#
#
# Indices 1 2 3 4 5 6 
#
# 1 0.024393 -0.008382 -0.006684 0.000000 0.002056 0.000000
# 2 -0.008382 0.013536 -0.001308 0.000000 -0.003339 0.000000
# 3 -0.006684 -0.001308 0.012450 0.000000 -0.000180 0.000000
# 4 0.000000 0.000000 0.000000 0.041856 0.000000 -0.004885
# 5 0.002056 -0.003339 -0.000180 0.000000 0.031468 0.000000
# 6 0.000000 0.000000 0.000000 -0.004885 0.000000 0.029313
#
#
# Mechanical properties :
#
#
# Convention : Reuss Voigt Hill
#
# Bulk Modulus (GPa) = 56.71756 59.12244 57.92000
# Shear Modulus (GPa) = 26.09038 28.93734 27.51386
#
# Velocity S-wave (km/s) = 3.77113 3.97156 3.87264
# Velocity P-wave (km/s) = 7.06242 7.29779 7.18107
#
# Compressibility (1/GPa) = 0.01763122
#
# Stress axis : x y z
#
# Youngs Moduli (GPa) = 40.99460 73.87772 80.31992
#
# Poissons Ratio (x) = 0.61925 0.53688
# Poissons Ratio (y) = 0.34362 0.10505
# Poissons Ratio (z) = 0.27402 0.09662
#
# Static dielectric constant tensor:
#      x y z
#    x 3.252460 0.000000 0.036080 
#    y 0.000000 3.297750 0.000000 
#    z 0.036080 0.000000 3.581570 
# 
# 
# High freq. dielectric constant tensor:
#      x y z
#    x 1.688370 0.000000 -0.003070 
#    y 0.000000 1.687400 0.000000 
#    z -0.003070 0.000000 1.735430 
# 
# From -- ./inp_files/252565.got.cif
#   From: 2010.06.25/outbox.cif.g09.slc.cpg/sg15_127_cif.got.tgz:252565.got - 2010.06.28 07:06:18.
