data_PCOD8137709
_publ_section_title
;
Structure prediction by ZEFSAII (Michael W. Deem and Ramdas Pophale) SiO2 
 PCOD8137709
Probable space group: C 2/C
;
_chemical_formula_sum "Si O2"
_cell_formula_units_Z 64
_cell_length_a 18.498747
_cell_length_b 9.128845
_cell_length_c 22.802364
_cell_angle_alpha 90.000000
_cell_angle_beta 53.072070
_cell_angle_gamma 90.000000
_cell_volume 3078.206498
_symmetry_space_group_name_H-M "C 2/C"
_symmetry_group_IT_number 15
_symmetry_cell_setting 'monoclinic'
loop_
_space_group_symop_operation_xyz
x,y,z
-x,y,1/2-z
-x,-y,-z
x,-y,1/2+z
1/2+x,1/2+y,z
1/2-x,1/2+y,1/2-z
1/2-x,1/2-y,-z
1/2+x,1/2-y,1/2+z
loop_
_atom_site_type_symbol
_atom_site_label
_atom_site_fract_x
_atom_site_fract_y
_atom_site_fract_z
Si Si1 0.688325 0.948100 0.832997
Si Si2 0.975492 0.917255 0.327560
Si Si3 0.317026 0.207868 0.366620
Si Si4 0.667349 0.318548 0.267985
Si Si5 0.225991 0.413060 0.057220
Si Si6 0.600641 0.689398 0.064775
Si Si7 0.495560 0.042784 0.934784
Si Si8 0.810207 0.555711 0.537664
O O1 0.695968 0.778558 0.810278
O O2 0.768901 0.038855 0.763461
O O3 0.590273 0.004637 0.857576
O O4 0.694748 0.961943 0.900057
O O5 0.901857 0.787199 0.356580
O O6 0.000000 0.972616 0.250000
O O7 0.062167 0.860721 0.321228
O O8 0.942052 0.052047 0.382138
O O9 0.318383 0.220942 0.296505
O O10 0.223697 0.279530 0.435758
O O11 0.312231 0.035718 0.380782
O O12 0.150108 0.287785 0.090557
O O13 0.326554 0.351243 0.022701
O O14 0.252065 0.476434 0.979562
O O15 0.523836 0.785762 0.069133
O O16 0.500000 0.000000 0.000000
O O17 0.408944 0.944815 0.957242
#
# Coordination Sequence:
#
# PCOD8137709 Si02
#       8
#     8   8   8   8   8   8   8   8
#     4  10  22  42  60  81 118 166 209 243 296 357
#     4  10  22  40  61  89 125 159 204 247 304 360
#     4  10  20  39  62  91 124 156 196 253 309 365
#     4  10  24  41  59  86 119 167 209 247 292 362
#     4  10  20  36  61  96 124 145 197 252 316 362
#     4  10  21  36  60  94 120 155 194 253 304 356
#     4   9  20  38  60  84 117 158 201 244 302 356
#     4   9  18  36  66  84 116 157 192 244 310 356
#
# _framework density 20.791326999999999
#
# number of rings (size 3 to 8) (size 9 to 14) (size 15 to 20)
#    0.000    2.250    1.250    0.375    5.250    0.000 
#   11.250    0.000    0.000    9.000    0.000    0.000 
#    0.000    0.000    0.000    0.000    0.000    0.000 
#
# Total GULP energy -396456.080936 kJ/mol
# GULP energy per Si atom -12389.252529 kJ/mol
# Density = 2.074400 g / cm^3
# Si number density = 20.791327 Si / 1000 Ang^3
#
#
#
# Elastic Constant Matrix: (Units=GPa)
#
#
# Indices 1 2 3 4 5 6 
#
# 1 59.3566 17.4788 20.5880 -0.0001 -13.8579 -0.0001
# 2 17.4788 84.8461 25.4423 -0.0004 -6.1115 -0.0005
# 3 20.5880 25.4423 46.7106 0.0000 -12.0669 -0.0001
# 4 -0.0001 -0.0004 0.0000 36.8352 0.0000 2.1896
# 5 -13.8579 -6.1115 -12.0669 0.0000 29.7860 0.0000
# 6 -0.0001 -0.0005 -0.0001 2.1896 0.0000 34.9126
#
#
#
# Elastic Compliance Matrix: (Units=1/GPa)
#
#
# Indices 1 2 3 4 5 6 
#
# 1 0.021291 -0.001923 -0.006567 0.000000 0.006851 0.000000
# 2 -0.001923 0.014262 -0.007143 0.000000 -0.000862 0.000000
# 3 -0.006567 -0.007143 0.030185 0.000000 0.007708 0.000000
# 4 0.000000 0.000000 0.000000 0.027250 0.000000 -0.001709
# 5 0.006851 -0.000862 0.007708 0.000000 0.039706 0.000000
# 6 0.000000 0.000000 0.000000 -0.001709 0.000000 0.028750
#
#
# Mechanical properties :
#
#
# Convention : Reuss Voigt Hill
#
# Bulk Modulus (GPa) = 29.01011 35.32572 32.16792
# Shear Modulus (GPa) = 24.48577 28.80036 26.64306
#
# Velocity S-wave (km/s) = 3.43547 3.72588 3.58362
# Velocity P-wave (km/s) = 5.45160 5.96130 5.71214
#
# Compressibility (1/GPa) = 0.03447074
#
# Stress axis : x y z
#
# Youngs Moduli (GPa) = 46.96864 70.11539 33.12936
#
# Poissons Ratio (x) = 0.13487 0.21755
# Poissons Ratio (y) = 0.09034 0.23665
# Poissons Ratio (z) = 0.30843 0.50086
#
# Static dielectric constant tensor:
#      x y z
#    x 4.547170 0.000000 -0.521860 
#    y 0.000000 3.659330 0.000000 
#    z -0.521860 0.000000 3.763930 
# 
# 
# High freq. dielectric constant tensor:
#      x y z
#    x 1.815410 0.000000 -0.019770 
#    y 0.000000 1.807360 0.000000 
#    z -0.019770 0.000000 1.801860 
# 
# From -- ./inp_files/279548.got.cif
#   From: 2010.06.25/outbox.cif.g09.slc.cpg/sg15_140_cif.got.tgz:279548.got - 2010.06.28 07:06:18.
