data_PCOD8137903
_publ_section_title
;
Structure prediction by ZEFSAII (Michael W. Deem and Ramdas Pophale) SiO2 
 PCOD8137903
Probable space group: C 2/C
;
_chemical_formula_sum "Si O2"
_cell_formula_units_Z 44
_cell_length_a 11.644563
_cell_length_b 12.991237
_cell_length_c 17.079196
_cell_angle_alpha 90.000000
_cell_angle_beta 51.316134
_cell_angle_gamma 90.000000
_cell_volume 2016.848389
_symmetry_space_group_name_H-M "C 2/C"
_symmetry_group_IT_number 15
_symmetry_cell_setting 'monoclinic'
loop_
_space_group_symop_operation_xyz
x,y,z
-x,y,1/2-z
-x,-y,-z
x,-y,1/2+z
1/2+x,1/2+y,z
1/2-x,1/2+y,1/2-z
1/2-x,1/2-y,-z
1/2+x,1/2-y,1/2+z
loop_
_atom_site_type_symbol
_atom_site_label
_atom_site_fract_x
_atom_site_fract_y
_atom_site_fract_z
Si Si1 0.702551 0.726855 0.782258
Si Si2 0.334912 0.407145 0.470026
Si Si3 0.024306 0.281655 0.100477
Si Si4 0.000000 0.124495 0.750000
Si Si5 0.048858 0.315993 0.534649
Si Si6 0.713697 0.616199 0.934989
O O1 0.635069 0.692512 0.727305
O O2 0.606212 0.825084 0.852220
O O3 0.681331 0.638647 0.857899
O O4 0.873473 0.756756 0.705435
O O5 0.428024 0.439080 0.352264
O O6 0.164313 0.394113 0.520995
O O7 0.396610 0.303245 0.482324
O O8 0.334207 0.498306 0.533066
O O9 0.115708 0.357304 0.118480
O O10 0.117175 0.182297 0.036760
O O11 0.979442 0.346778 0.042907
#
# Coordination Sequence:
#
# PCOD8137903 Si02
#       6
#     8   8   8   4   8   8
#     4  10  20  39  63  89 120 166 201 250 302 360
#     4  10  20  41  60  95 121 161 203 253 306 354
#     4  10  20  41  61  87 124 164 197 251 305 365
#     4  10  20  36  66  84 124 156 204 256 292 364
#     4   9  20  37  66  85 123 159 197 258 296 361
#     4  10  23  39  64  88 129 160 200 253 306 364
#
# _framework density 21.816216000000001
#
# number of rings (size 3 to 8) (size 9 to 14) (size 15 to 20)
#    0.000    2.182    1.818    0.545    0.000    7.273 
#    9.818    5.455    0.000    0.000    0.000    0.000 
#    0.000    0.000    0.000    0.000    0.000    0.000 
#
# Total GULP energy -272645.876960 kJ/mol
# GULP energy per Si atom -12392.994407 kJ/mol
# Density = 2.176656 g / cm^3
# Si number density = 21.816216 Si / 1000 Ang^3
#
#
#
# Elastic Constant Matrix: (Units=GPa)
#
#
# Indices 1 2 3 4 5 6 
#
# 1 116.0571 6.9754 29.2045 0.0000 -6.4305 0.0000
# 2 6.9754 44.3807 5.5240 0.0000 0.3672 0.0000
# 3 29.2045 5.5240 104.1807 0.0000 -24.9692 0.0000
# 4 0.0000 0.0000 0.0000 18.6890 0.0000 4.2595
# 5 -6.4305 0.3672 -24.9692 0.0000 51.5521 0.0000
# 6 0.0000 0.0000 0.0000 4.2595 0.0000 13.9623
#
#
#
# Elastic Compliance Matrix: (Units=1/GPa)
#
#
# Indices 1 2 3 4 5 6 
#
# 1 0.009328 -0.001145 -0.002572 0.000000 -0.000074 0.000000
# 2 -0.001145 0.022855 -0.001091 0.000000 -0.000834 0.000000
# 3 -0.002572 -0.001091 0.011656 0.000000 0.005332 0.000000
# 4 0.000000 0.000000 0.000000 0.057506 0.000000 -0.017543
# 5 -0.000074 -0.000834 0.005332 0.000000 0.021977 0.000000
# 6 0.000000 0.000000 0.000000 -0.017543 0.000000 0.076973
#
#
# Mechanical properties :
#
#
# Convention : Reuss Voigt Hill
#
# Bulk Modulus (GPa) = 29.22019 38.66957 33.94488
# Shear Modulus (GPa) = 22.59182 31.70166 27.14674
#
# Velocity S-wave (km/s) = 3.22149 3.81612 3.53134
# Velocity P-wave (km/s) = 5.22113 6.09760 5.67630
#
# Compressibility (1/GPa) = 0.03422291
#
# Stress axis : x y z
#
# Youngs Moduli (GPa) = 107.19945 43.75407 85.79616
#
# Poissons Ratio (x) = 0.05012 0.22067
# Poissons Ratio (y) = 0.12279 0.09357
# Poissons Ratio (z) = 0.27572 0.04772
#
# Static dielectric constant tensor:
#      x y z
#    x 4.326550 0.000000 -0.238450 
#    y 0.000000 3.218030 0.000000 
#    z -0.238450 0.000000 4.107200 
# 
# 
# High freq. dielectric constant tensor:
#      x y z
#    x 1.890840 0.000000 -0.011050 
#    y 0.000000 1.789960 0.000000 
#    z -0.011050 0.000000 1.864760 
# 
# From -- ./inp_files/123248.got.cif
#   From: 2010.06.25/outbox.cif.g09.slc.cpg/sg15_62_cif.got.tgz:123248.got - 2010.06.28 07:06:18.
