data_PCOD8137523
_publ_section_title
;
Structure prediction by ZEFSAII (Michael W. Deem and Ramdas Pophale) SiO2 
 PCOD8137523
Probable space group: C 2/C
;
_chemical_formula_sum "Si O2"
_cell_formula_units_Z 48
_cell_length_a 13.848797
_cell_length_b 33.303590
_cell_length_c 8.167307
_cell_angle_alpha 90.000000
_cell_angle_beta 138.055834
_cell_angle_gamma 90.000000
_cell_volume 2517.806719
_symmetry_space_group_name_H-M "C 2/C"
_symmetry_group_IT_number 15
_symmetry_cell_setting 'monoclinic'
loop_
_space_group_symop_operation_xyz
x,y,z
-x,y,1/2-z
-x,-y,-z
x,-y,1/2+z
1/2+x,1/2+y,z
1/2-x,1/2+y,1/2-z
1/2-x,1/2-y,-z
1/2+x,1/2-y,1/2+z
loop_
_atom_site_type_symbol
_atom_site_label
_atom_site_fract_x
_atom_site_fract_y
_atom_site_fract_z
Si Si1 0.638286 0.310043 0.318904
Si Si2 0.659897 0.107373 0.937490
Si Si3 0.397282 0.558980 0.378362
Si Si4 0.885434 0.120106 0.963344
Si Si5 0.500000 0.816300 0.250000
Si Si6 0.000000 0.001021 0.250000
Si Si7 0.414277 0.220318 0.310340
O O1 0.500000 0.322406 0.250000
O O2 0.661840 0.342308 0.205891
O O3 0.624617 0.266869 0.214814
O O4 0.772711 0.307722 0.614705
O O5 0.500000 0.087239 0.750000
O O6 0.741172 0.101605 0.865570
O O7 0.643059 0.155529 0.940974
O O8 0.757033 0.087601 0.202532
O O9 0.543011 0.585993 0.561110
O O10 0.395571 0.529665 0.220313
O O11 0.390822 0.528820 0.520652
O O12 0.000000 0.132758 0.250000
O O13 0.495480 0.790675 0.412157
O O14 0.500000 0.213812 0.250000
#
# Coordination Sequence:
#
# PCOD8137523 Si02
#       7
#     8   8   8   8   4   4   8
#     4  10  23  37  58  86 121 147 205 258 290 342
#     4   9  20  37  58  85 115 152 193 238 277 363
#     4  10  20  38  60  86 115 144 192 233 295 349
#     4  10  20  36  59  88 114 152 196 246 286 357
#     4  10  22  36  67  76 120 170 198 232 319 338
#     4  10  20  36  65  84 116 150 176 242 299 346
#     4  10  22  42  54  86 122 160 202 255 299 356
#
# _framework density 19.064212999999999
#
# number of rings (size 3 to 8) (size 9 to 14) (size 15 to 20)
#    0.500    1.667    2.500    1.000    7.000    0.000 
#    0.000    4.167    0.000    0.000    0.000    0.000 
#    0.000    0.000    0.000    0.000    0.000    0.000 
#
# Total GULP energy -297351.722480 kJ/mol
# GULP energy per Si atom -12389.655103 kJ/mol
# Density = 1.902082 g / cm^3
# Si number density = 19.064213 Si / 1000 Ang^3
#
#
#
# Elastic Constant Matrix: (Units=GPa)
#
#
# Indices 1 2 3 4 5 6 
#
# 1 82.6801 27.1259 48.3854 0.0000 13.3503 0.0000
# 2 27.1259 97.8216 48.9874 0.0000 -6.5188 0.0000
# 3 48.3854 48.9874 91.6565 0.0000 -4.3694 0.0000
# 4 0.0000 0.0000 0.0000 43.9452 0.0000 -9.9140
# 5 13.3503 -6.5188 -4.3694 0.0000 38.3683 0.0000
# 6 0.0000 0.0000 0.0000 -9.9140 0.0000 21.9675
#
#
#
# Elastic Compliance Matrix: (Units=1/GPa)
#
#
# Indices 1 2 3 4 5 6 
#
# 1 0.019767 -0.000828 -0.010384 0.000000 -0.008201 0.000000
# 2 -0.000828 0.014083 -0.007000 0.000000 0.001884 0.000000
# 3 -0.010384 -0.007000 0.020359 0.000000 0.004742 0.000000
# 4 0.000000 0.000000 0.000000 0.025335 0.000000 0.011434
# 5 -0.008201 0.001884 0.004742 0.000000 0.029777 0.000000
# 6 0.000000 0.000000 0.000000 0.011434 0.000000 0.050682
#
#
# Mechanical properties :
#
#
# Convention : Reuss Voigt Hill
#
# Bulk Modulus (GPa) = 56.22299 57.90616 57.06457
# Shear Modulus (GPa) = 24.70892 30.70017 27.70455
#
# Velocity S-wave (km/s) = 3.60403 4.01728 3.81625
# Velocity P-wave (km/s) = 6.84647 7.20821 7.02966
#
# Compressibility (1/GPa) = 0.01778632
#
# Stress axis : x y z
#
# Youngs Moduli (GPa) = 50.58860 71.00550 49.11789
#
# Poissons Ratio (x) = 0.05880 0.51002
# Poissons Ratio (y) = 0.04189 0.34383
# Poissons Ratio (z) = 0.52529 0.49705
#
# Static dielectric constant tensor:
#      x y z
#    x 3.470750 0.000000 -0.028090 
#    y 0.000000 3.537310 0.000000 
#    z -0.028090 0.000000 3.451040 
# 
# 
# High freq. dielectric constant tensor:
#      x y z
#    x 1.735530 0.000000 -0.002960 
#    y 0.000000 1.741650 0.000000 
#    z -0.002960 0.000000 1.722940 
# 
# From -- ./inp_files/43968.got.cif
#   From: 2010.06.25/outbox.cif.g09.slc.cpg/sg15_22_cif.got.tgz:43968.got - 2010.06.28 07:06:18.
