data_PCOD8137064
_publ_section_title
;
Structure prediction by ZEFSAII (Michael W. Deem and Ramdas Pophale) SiO2 
 PCOD8137064
Probable space group: C 2/C
;
_chemical_formula_sum "Si O2"
_cell_formula_units_Z 48
_cell_length_a 21.319214
_cell_length_b 13.876752
_cell_length_c 8.460498
_cell_angle_alpha 90.000000
_cell_angle_beta 92.606413
_cell_angle_gamma 90.000000
_cell_volume 2500.376605
_symmetry_space_group_name_H-M "C 2/C"
_symmetry_group_IT_number 15
_symmetry_cell_setting 'monoclinic'
loop_
_space_group_symop_operation_xyz
x,y,z
-x,y,1/2-z
-x,-y,-z
x,-y,1/2+z
1/2+x,1/2+y,z
1/2-x,1/2+y,1/2-z
1/2-x,1/2-y,-z
1/2+x,1/2-y,1/2+z
loop_
_atom_site_type_symbol
_atom_site_label
_atom_site_fract_x
_atom_site_fract_y
_atom_site_fract_z
Si Si1 0.646655 0.425098 0.316820
Si Si2 0.788203 0.575464 0.869061
Si Si3 0.929829 0.238876 0.789835
Si Si4 0.674906 0.879504 0.790474
Si Si5 0.780852 0.241832 0.172344
Si Si6 0.876068 0.888995 0.528737
O O1 0.714346 0.423721 0.409894
O O2 0.604228 0.330103 0.345029
O O3 0.603669 0.514943 0.373061
O O4 0.662871 0.427402 0.129653
O O5 0.806532 0.471254 0.809195
O O6 0.804449 0.655572 0.739381
O O7 0.831370 0.594800 0.026373
O O8 0.890228 0.337891 0.788667
O O9 0.000000 0.264407 0.750000
O O10 0.929882 0.181781 0.960539
O O11 0.729047 0.798761 0.786264
O O12 0.838550 0.169684 0.157454
O O13 0.750000 0.250000 0.000000
#
# Coordination Sequence:
#
# PCOD8137064 Si02
#       6
#     8   8   8   8   8   8
#     4  10  20  35  59  92 118 155 191 249 311 358
#     4  12  23  35  63  99 125 153 205 258 322 365
#     4  10  24  43  59  83 126 171 208 245 300 370
#     4  12  24  37  64  94 124 163 199 262 315 364
#     4  12  19  36  58  93 129 154 197 252 317 360
#     4  10  21  34  61  87 120 159 193 251 303 360
#
# _framework density 19.197106999999999
#
# number of rings (size 3 to 8) (size 9 to 14) (size 15 to 20)
#    1.000    0.000    6.667    2.500    0.000    0.667 
#    0.000    0.833    0.000    0.000    0.000    0.000 
#    0.000    0.000    0.000    0.000    0.000    0.000 
#
# Total GULP energy -297354.400446 kJ/mol
# GULP energy per Si atom -12389.766685 kJ/mol
# Density = 1.915341 g / cm^3
# Si number density = 19.197107 Si / 1000 Ang^3
#
#
#
# Elastic Constant Matrix: (Units=GPa)
#
#
# Indices 1 2 3 4 5 6 
#
# 1 100.4147 37.1987 15.4331 0.0000 -4.8347 0.0000
# 2 37.1987 104.3861 25.6009 0.0000 4.8583 0.0000
# 3 15.4331 25.6009 55.8459 0.0000 -7.4387 0.0000
# 4 0.0000 0.0000 0.0000 34.0075 0.0000 -9.3513
# 5 -4.8347 4.8583 -7.4387 0.0000 12.7152 0.0000
# 6 0.0000 0.0000 0.0000 -9.3513 0.0000 19.7703
#
#
#
# Elastic Compliance Matrix: (Units=1/GPa)
#
#
# Indices 1 2 3 4 5 6 
#
# 1 0.011957 -0.004419 -0.000486 0.000000 0.005950 0.000000
# 2 -0.004419 0.013151 -0.006183 0.000000 -0.010322 0.000000
# 3 -0.000486 -0.006183 0.022954 0.000000 0.015606 0.000000
# 4 0.000000 0.000000 0.000000 0.033802 0.000000 0.015988
# 5 0.005950 -0.010322 0.015606 0.000000 0.093982 0.000000
# 6 0.000000 0.000000 0.000000 0.015988 0.000000 0.058143
#
#
# Mechanical properties :
#
#
# Convention : Reuss Voigt Hill
#
# Bulk Modulus (GPa) = 38.62934 46.34578 42.48756
# Shear Modulus (GPa) = 18.88275 25.45954 22.17114
#
# Velocity S-wave (km/s) = 3.13968 3.64568 3.40210
# Velocity P-wave (km/s) = 5.77145 6.47424 6.13292
#
# Compressibility (1/GPa) = 0.02588706
#
# Stress axis : x y z
#
# Youngs Moduli (GPa) = 83.63463 76.03942 43.56602
#
# Poissons Ratio (x) = 0.33599 0.02118
# Poissons Ratio (y) = 0.36955 0.26935
# Poissons Ratio (z) = 0.04066 0.47011
#
# Static dielectric constant tensor:
#      x y z
#    x 2.950530 0.000000 -0.063980 
#    y 0.000000 3.760330 0.000000 
#    z -0.063980 0.000000 3.204120 
# 
# 
# High freq. dielectric constant tensor:
#      x y z
#    x 1.695470 0.000000 -0.023160 
#    y 0.000000 1.765640 0.000000 
#    z -0.023160 0.000000 1.731670 
# 
# From -- ./inp_files/55427.got.cif
#   From: 2010.06.25/outbox.cif.g09.slc.cpg/sg15_28_cif.got.tgz:55427.got - 2010.06.28 07:06:18.
