data_PCOD8137454
_publ_section_title
;
Structure prediction by ZEFSAII (Michael W. Deem and Ramdas Pophale) SiO2 
 PCOD8137454
Probable space group: C 2/C
;
_chemical_formula_sum "Si O2"
_cell_formula_units_Z 48
_cell_length_a 18.568669
_cell_length_b 6.754780
_cell_length_c 21.367495
_cell_angle_alpha 90.000000
_cell_angle_beta 122.267126
_cell_angle_gamma 90.000000
_cell_volume 2266.179358
_symmetry_space_group_name_H-M "C 2/C"
_symmetry_group_IT_number 15
_symmetry_cell_setting 'monoclinic'
loop_
_space_group_symop_operation_xyz
x,y,z
-x,y,1/2-z
-x,-y,-z
x,-y,1/2+z
1/2+x,1/2+y,z
1/2-x,1/2+y,1/2-z
1/2-x,1/2-y,-z
1/2+x,1/2-y,1/2+z
loop_
_atom_site_type_symbol
_atom_site_label
_atom_site_fract_x
_atom_site_fract_y
_atom_site_fract_z
Si Si1 0.679022 0.708032 0.668526
Si Si2 0.588617 0.840875 0.323383
Si Si3 0.790374 0.359677 0.683839
Si Si4 0.267260 0.534860 0.111438
Si Si5 0.008607 0.777968 0.023276
Si Si6 0.902452 0.476898 0.034848
O O1 0.705451 0.489200 0.656350
O O2 0.688179 0.726070 0.746653
O O3 0.734898 0.878627 0.662171
O O4 0.581437 0.746495 0.608493
O O5 0.500000 0.776353 0.250000
O O6 0.644069 0.643838 0.364347
O O7 0.576419 0.958800 0.382352
O O8 0.634251 0.987997 0.296193
O O9 0.779001 0.202541 0.622188
O O10 0.196474 0.576189 0.024813
O O11 0.922687 0.696632 0.016816
O O12 0.031323 0.664624 0.970071
O O13 0.000000 0.000000 0.000000
#
# Coordination Sequence:
#
# PCOD8137454 Si02
#       6
#     8   8   8   8   8   8
#     4  10  20  36  58  90 119 152 206 248 301 361
#     4  11  25  40  58  91 125 160 203 252 307 364
#     4  11  21  37  62  87 119 160 199 253 302 362
#     4  10  22  39  62  86 118 166 201 249 304 355
#     4  10  21  37  62  88 116 162 200 253 303 353
#     4  10  22  41  59  88 126 156 207 251 296 372
#
# _framework density 21.181025000000002
#
# number of rings (size 3 to 8) (size 9 to 14) (size 15 to 20)
#    0.000    1.667    1.667    2.500    0.000    4.000 
#    0.000    0.000    0.000    0.000    0.000    0.000 
#    0.000    0.000    0.000    0.000    0.000    0.000 
#
# Total GULP energy -297606.988524 kJ/mol
# GULP energy per Si atom -12400.291189 kJ/mol
# Density = 2.113282 g / cm^3
# Si number density = 21.181025 Si / 1000 Ang^3
#
#
#
# Elastic Constant Matrix: (Units=GPa)
#
#
# Indices 1 2 3 4 5 6 
#
# 1 86.0557 34.2022 41.6018 0.0000 14.2998 0.0000
# 2 34.2022 125.7431 20.8056 0.0000 5.4245 -0.0001
# 3 41.6018 20.8056 99.5207 0.0000 3.1782 0.0000
# 4 0.0000 0.0000 0.0000 22.4985 0.0000 -0.5239
# 5 14.2998 5.4245 3.1782 0.0000 26.9987 0.0000
# 6 0.0000 -0.0001 0.0000 -0.5239 0.0000 28.7132
#
#
#
# Elastic Compliance Matrix: (Units=1/GPa)
#
#
# Indices 1 2 3 4 5 6 
#
# 1 0.017259 -0.003323 -0.006273 0.000000 -0.007735 0.000000
# 2 -0.003323 0.008935 -0.000480 0.000000 0.000021 0.000000
# 3 -0.006273 -0.000480 0.012709 0.000000 0.001923 0.000000
# 4 0.000000 0.000000 0.000000 0.044466 0.000000 0.000811
# 5 -0.007735 0.000021 0.001923 0.000000 0.040905 0.000000
# 6 0.000000 0.000000 0.000000 0.000811 0.000000 0.034842
#
#
# Mechanical properties :
#
#
# Convention : Reuss Voigt Hill
#
# Bulk Modulus (GPa) = 53.32636 56.05984 54.69310
# Shear Modulus (GPa) = 26.95160 29.95608 28.45384
#
# Velocity S-wave (km/s) = 3.57100 3.76478 3.66917
# Velocity P-wave (km/s) = 6.49876 6.73963 6.62029
#
# Compressibility (1/GPa) = 0.01875245
#
# Stress axis : x y z
#
# Youngs Moduli (GPa) = 57.94137 111.91984 78.68300
#
# Poissons Ratio (x) = 0.37189 0.49357
# Poissons Ratio (y) = 0.19253 0.03774
# Poissons Ratio (z) = 0.36346 0.05368
#
# Static dielectric constant tensor:
#      x y z
#    x 3.322350 0.000000 -0.411110 
#    y 0.000000 3.839910 0.000000 
#    z -0.411110 0.000000 3.045940 
# 
# 
# High freq. dielectric constant tensor:
#      x y z
#    x 1.820320 0.000000 0.003770 
#    y 0.000000 1.834550 0.000000 
#    z 0.003770 0.000000 1.827930 
# 
# From -- ./inp_files/278722.got.cif
#   From: 2010.06.25/outbox.cif.g09.slc.cpg/sg15_140_cif.got.tgz:278722.got - 2010.06.28 07:06:18.
