data_PCOD8137094
_publ_section_title
;
Structure prediction by ZEFSAII (Michael W. Deem and Ramdas Pophale) SiO2 
 PCOD8137094
Probable space group: C 2/C
;
_chemical_formula_sum "Si O2"
_cell_formula_units_Z 56
_cell_length_a 25.227588
_cell_length_b 11.424972
_cell_length_c 31.062751
_cell_angle_alpha 90.000000
_cell_angle_beta 19.845740
_cell_angle_gamma 90.000000
_cell_volume 3039.459824
_symmetry_space_group_name_H-M "C 2/C"
_symmetry_group_IT_number 15
_symmetry_cell_setting 'monoclinic'
loop_
_space_group_symop_operation_xyz
x,y,z
-x,y,1/2-z
-x,-y,-z
x,-y,1/2+z
1/2+x,1/2+y,z
1/2-x,1/2+y,1/2-z
1/2-x,1/2-y,-z
1/2+x,1/2-y,1/2+z
loop_
_atom_site_type_symbol
_atom_site_label
_atom_site_fract_x
_atom_site_fract_y
_atom_site_fract_z
Si Si1 0.804653 0.816317 0.576428
Si Si2 0.068498 0.005365 0.890189
Si Si3 0.206512 0.875532 0.360814
Si Si4 0.431563 0.932082 0.986802
Si Si5 0.796253 0.607488 0.156230
Si Si6 0.544573 0.038928 0.306823
Si Si7 0.647486 0.826626 0.611135
O O1 0.814656 0.677319 0.573457
O O2 0.665305 0.851528 0.715401
O O3 0.766870 0.863473 0.557218
O O4 0.967351 0.877257 0.463146
O O5 0.207943 0.045541 0.815936
O O6 0.141085 0.959836 0.790307
O O7 0.963581 0.897690 0.988078
O O8 0.240449 0.740213 0.327838
O O9 0.348963 0.922939 0.281989
O O10 0.355889 0.042312 0.068392
O O11 0.583908 0.891482 0.895909
O O12 0.459282 0.972769 0.917205
O O13 0.419591 0.060527 0.363811
O O14 0.500000 0.765065 0.750000
O O15 0.750000 0.750000 0.500000
#
# Coordination Sequence:
#
# PCOD8137094 Si02
#       7
#     8   8   8   8   8   8   8
#     4  10  21  37  59  84 117 151 195 241 296 356
#     4  10  21  36  55  79 110 154 190 236 291 349
#     4  10  21  37  55  79 114 156 193 235 292 358
#     4  11  22  33  53  88 118 150 192 242 293 347
#     4  11  24  33  55  86 118 156 197 236 293 358
#     4  10  21  38  57  83 116 155 189 243 300 349
#     4  10  20  35  60  90 114 152 191 248 302 351
#
# _framework density 18.424326000000001
#
# number of rings (size 3 to 8) (size 9 to 14) (size 15 to 20)
#    0.000    1.714    4.286    0.000    4.000    0.000 
#    0.000    0.000    0.000    0.857    7.429    0.000 
#    0.000    0.000    0.000    0.000    0.000    0.000 
#
# Total GULP energy -346971.779727 kJ/mol
# GULP energy per Si atom -12391.849276 kJ/mol
# Density = 1.838239 g / cm^3
# Si number density = 18.424326 Si / 1000 Ang^3
#
#
#
# Elastic Constant Matrix: (Units=GPa)
#
#
# Indices 1 2 3 4 5 6 
#
# 1 93.1300 28.5619 26.1722 -0.0101 5.0949 0.0004
# 2 28.5619 90.7982 23.1679 0.0129 2.4408 -0.0027
# 3 26.1722 23.1679 62.7554 0.0062 17.6034 -0.0079
# 4 -0.0101 0.0129 0.0062 22.9262 -0.0024 -2.1430
# 5 5.0949 2.4408 17.6034 -0.0024 33.0645 0.0061
# 6 0.0004 -0.0027 -0.0079 -2.1430 0.0061 24.0052
#
#
#
# Elastic Compliance Matrix: (Units=1/GPa)
#
#
# Indices 1 2 3 4 5 6 
#
# 1 0.012852 -0.002923 -0.004450 0.000008 0.000605 -0.000001
# 2 -0.002923 0.012911 -0.004004 -0.000007 0.001629 -0.000001
# 3 -0.004450 -0.004004 0.022328 -0.000006 -0.010906 0.000009
# 4 0.000008 -0.000007 -0.000006 0.043985 0.000005 0.003927
# 5 0.000605 0.001629 -0.010906 0.000005 0.035837 -0.000012
# 6 -0.000001 -0.000001 0.000009 0.003927 -0.000012 0.042008
#
#
# Mechanical properties :
#
#
# Convention : Reuss Voigt Hill
#
# Bulk Modulus (GPa) = 39.47049 44.72083 42.09566
# Shear Modulus (GPa) = 24.86048 27.25130 26.05589
#
# Velocity S-wave (km/s) = 3.67731 3.85007 3.76468
# Velocity P-wave (km/s) = 6.28487 6.63999 6.46487
#
# Compressibility (1/GPa) = 0.02533538
#
# Stress axis : x y z
#
# Youngs Moduli (GPa) = 77.80995 77.45351 44.78602
#
# Poissons Ratio (x) = 0.22643 0.19931
# Poissons Ratio (y) = 0.22748 0.17933
# Poissons Ratio (z) = 0.34627 0.31014
#
# Static dielectric constant tensor:
#      x y z
#    x 3.517240 -0.000020 0.022400 
#    y -0.000020 3.165650 0.000180 
#    z 0.022400 0.000180 3.487310 
# 
# 
# High freq. dielectric constant tensor:
#      x y z
#    x 1.708950 0.000000 0.009070 
#    y 0.000000 1.689690 0.000020 
#    z 0.009070 0.000020 1.720250 
# 
# From -- ./inp_files/122480.got.cif
#   From: 2010.06.25/outbox.cif.g09.slc.cpg/sg15_62_cif.got.tgz:122480.got - 2010.06.28 07:06:18.
