data_PCOD8137000
_publ_section_title
;
Structure prediction by ZEFSAII (Michael W. Deem and Ramdas Pophale) SiO2 
 PCOD8137000
Probable space group: C 2/C
;
_chemical_formula_sum "Si O2"
_cell_formula_units_Z 56
_cell_length_a 16.108790
_cell_length_b 10.367557
_cell_length_c 23.856073
_cell_angle_alpha 90.000000
_cell_angle_beta 49.065665
_cell_angle_gamma 90.000000
_cell_volume 3009.888039
_symmetry_space_group_name_H-M "C 2/C"
_symmetry_group_IT_number 15
_symmetry_cell_setting 'monoclinic'
loop_
_space_group_symop_operation_xyz
x,y,z
-x,y,1/2-z
-x,-y,-z
x,-y,1/2+z
1/2+x,1/2+y,z
1/2-x,1/2+y,1/2-z
1/2-x,1/2-y,-z
1/2+x,1/2-y,1/2+z
loop_
_atom_site_type_symbol
_atom_site_label
_atom_site_fract_x
_atom_site_fract_y
_atom_site_fract_z
Si Si1 0.349909 0.756122 0.743615
Si Si2 0.057570 0.984867 0.782194
Si Si3 0.703889 0.879777 0.843344
Si Si4 0.925121 0.189769 0.420070
Si Si5 0.612837 0.031913 0.728385
Si Si6 0.376822 0.861518 0.152487
Si Si7 0.254954 0.812804 0.413626
O O1 0.434189 0.639245 0.716922
O O2 0.351528 0.783604 0.676564
O O3 0.228106 0.722556 0.818689
O O4 0.388545 0.878958 0.762187
O O5 0.176744 0.919605 0.733616
O O6 0.000000 0.944626 0.750000
O O7 0.984099 0.932314 0.865671
O O8 0.712697 0.814170 0.899737
O O9 0.627037 0.006619 0.881938
O O10 0.843175 0.135510 0.503745
O O11 0.859874 0.274507 0.403848
O O12 0.013455 0.283616 0.410551
O O13 0.500000 0.076859 0.750000
O O14 0.629645 0.108706 0.778392
O O15 0.712367 0.073388 0.643449
#
# Coordination Sequence:
#
# PCOD8137000 Si02
#       7
#     8   8   8   8   8   8   8
#     4  10  21  34  57  88 110 136 192 236 281 326
#     4  11  20  36  60  82 111 148 192 235 276 329
#     4  10  20  35  58  84 112 145 187 238 275 328
#     4  11  22  36  57  85 115 150 190 231 283 339
#     4  11  20  36  60  82 111 148 192 235 276 329
#     4  10  20  35  58  84 112 145 187 238 275 328
#     4  11  22  36  57  85 115 150 190 231 283 339
#
# _framework density 18.605343000000001
#
# number of rings (size 3 to 8) (size 9 to 14) (size 15 to 20)
#    0.000    1.429    5.714    0.429    0.000    0.571 
#    0.000    2.857    0.000    5.143    0.000    0.000 
#    0.000    0.000    0.000    0.000    0.000    0.000 
#
# Total GULP energy -347270.911103 kJ/mol
# GULP energy per Si atom -12402.532539 kJ/mol
# Density = 1.856300 g / cm^3
# Si number density = 18.605343 Si / 1000 Ang^3
#
#
#
# Elastic Constant Matrix: (Units=GPa)
#
#
# Indices 1 2 3 4 5 6 
#
# 1 58.3085 13.0719 22.3615 0.0000 -13.1358 0.0000
# 2 13.0719 80.8733 41.8267 0.0000 -11.3532 0.0000
# 3 22.3615 41.8267 90.8374 0.0000 -8.9232 0.0000
# 4 0.0000 0.0000 0.0000 16.5549 0.0000 0.0807
# 5 -13.1358 -11.3532 -8.9232 0.0000 17.8340 0.0000
# 6 0.0000 0.0000 0.0000 0.0807 0.0000 28.6464
#
#
#
# Elastic Compliance Matrix: (Units=1/GPa)
#
#
# Indices 1 2 3 4 5 6 
#
# 1 0.021889 0.000710 -0.004298 0.000000 0.014424 0.000000
# 2 0.000710 0.017111 -0.007291 0.000000 0.007768 0.000000
# 3 -0.004298 -0.007291 0.015415 0.000000 -0.000095 0.000000
# 4 0.000000 0.000000 0.000000 0.060406 0.000000 -0.000170
# 5 0.014424 0.007768 -0.000095 0.000000 0.071594 0.000000
# 6 0.000000 0.000000 0.000000 -0.000170 0.000000 0.034909
#
#
# Mechanical properties :
#
#
# Convention : Reuss Voigt Hill
#
# Bulk Modulus (GPa) = 30.62189 42.72660 36.67424
# Shear Modulus (GPa) = 19.68754 22.79101 21.23927
#
# Velocity S-wave (km/s) = 3.25647 3.50376 3.38238
# Velocity P-wave (km/s) = 5.53479 6.27558 5.91679
#
# Compressibility (1/GPa) = 0.03265638
#
# Stress axis : x y z
#
# Youngs Moduli (GPa) = 45.68546 58.44026 64.87363
#
# Poissons Ratio (x) = -0.04149 0.27885
# Poissons Ratio (y) = -0.03243 0.47298
# Poissons Ratio (z) = 0.19637 0.42607
#
# Static dielectric constant tensor:
#      x y z
#    x 3.541720 0.000000 -0.059070 
#    y 0.000000 3.462490 0.000000 
#    z -0.059070 0.000000 3.113500 
# 
# 
# High freq. dielectric constant tensor:
#      x y z
#    x 1.735270 0.000000 -0.004360 
#    y 0.000000 1.723090 0.000000 
#    z -0.004360 0.000000 1.691310 
# 
# From -- ./inp_files/210019.got.cif
#   From: 2010.06.25/outbox.cif.g09.slc.cpg/sg15_106_cif.got.tgz:210019.got - 2010.06.28 07:06:18.
