data_PCOD8137205
_publ_section_title
;
Structure prediction by ZEFSAII (Michael W. Deem and Ramdas Pophale) SiO2 
 PCOD8137205
Probable space group: C 2/C
;
_chemical_formula_sum "Si O2"
_cell_formula_units_Z 52
_cell_length_a 8.891908
_cell_length_b 28.742366
_cell_length_c 11.754903
_cell_angle_alpha 90.000000
_cell_angle_beta 122.564196
_cell_angle_gamma 90.000000
_cell_volume 2531.951238
_symmetry_space_group_name_H-M "C 2/C"
_symmetry_group_IT_number 15
_symmetry_cell_setting 'monoclinic'
loop_
_space_group_symop_operation_xyz
x,y,z
-x,y,1/2-z
-x,-y,-z
x,-y,1/2+z
1/2+x,1/2+y,z
1/2-x,1/2+y,1/2-z
1/2-x,1/2-y,-z
1/2+x,1/2-y,1/2+z
loop_
_atom_site_type_symbol
_atom_site_label
_atom_site_fract_x
_atom_site_fract_y
_atom_site_fract_z
Si Si1 0.957422 0.747931 0.604281
Si Si2 0.490202 0.663023 0.990320
Si Si3 0.821009 0.885616 0.745193
Si Si4 0.382414 0.851285 0.037858
Si Si5 0.914681 0.531566 0.329058
Si Si6 0.500000 0.621955 0.750000
Si Si7 0.862933 0.566205 0.874489
O O1 0.750000 0.750000 0.500000
O O2 0.042074 0.783934 0.548039
O O3 0.011287 0.694049 0.605338
O O4 0.000000 0.764295 0.750000
O O5 0.505522 0.655857 0.861708
O O6 0.642036 0.631170 0.111288
O O7 0.289864 0.649928 0.949720
O O8 0.673377 0.854552 0.618072
O O9 0.763883 0.939239 0.718974
O O10 0.000000 0.879521 0.750000
O O11 0.500634 0.895672 0.120142
O O12 0.854623 0.477835 0.285902
O O13 0.000000 0.551403 0.250000
O O14 0.067180 0.541327 0.483389
O O15 0.670466 0.588533 0.815940
#
# Coordination Sequence:
#
# PCOD8137205 Si02
#       7
#     8   8   8   8   8   4   8
#     4  10  20  35  65  94 117 153 208 255 293 352
#     4  10  21  38  60  90 122 156 197 245 300 359
#     4   9  18  38  62  90 116 155 200 249 296 351
#     4   9  20  38  67  86 117 155 203 249 293 357
#     4  10  21  39  63  82 117 153 206 243 297 358
#     4  12  26  38  56  84 136 154 192 246 312 354
#     4  10  24  40  56  91 115 159 197 246 299 361
#
# _framework density 20.537520000000001
#
# number of rings (size 3 to 8) (size 9 to 14) (size 15 to 20)
#    0.000    2.154    0.000    3.231    7.538    0.000 
#    0.000    2.308    6.769    0.000    0.000    0.000 
#    0.000    0.000    0.000    0.000    0.000    0.000 
#
# Total GULP energy -322229.406130 kJ/mol
# GULP energy per Si atom -12393.438697 kJ/mol
# Density = 2.049078 g / cm^3
# Si number density = 20.537520 Si / 1000 Ang^3
#
#
#
# Elastic Constant Matrix: (Units=GPa)
#
#
# Indices 1 2 3 4 5 6 
#
# 1 52.1122 34.0116 36.0227 0.0000 -2.2921 0.0000
# 2 34.0116 152.6831 54.3461 0.0000 -2.2802 0.0000
# 3 36.0227 54.3461 118.6067 0.0000 -12.8998 0.0000
# 4 0.0000 0.0000 0.0000 27.0419 0.0000 4.1281
# 5 -2.2921 -2.2802 -12.8998 0.0000 32.2912 0.0000
# 6 0.0000 0.0000 0.0000 4.1281 0.0000 21.8389
#
#
#
# Elastic Compliance Matrix: (Units=1/GPa)
#
#
# Indices 1 2 3 4 5 6 
#
# 1 0.025819 -0.003510 -0.006336 0.000000 -0.000946 0.000000
# 2 -0.003510 0.008329 -0.002837 0.000000 -0.000794 0.000000
# 3 -0.006336 -0.002837 0.012111 0.000000 0.004188 0.000000
# 4 0.000000 0.000000 0.000000 0.038079 0.000000 -0.007198
# 5 -0.000946 -0.000794 0.004188 0.000000 0.032518 0.000000
# 6 0.000000 0.000000 0.000000 -0.007198 0.000000 0.047150
#
#
# Mechanical properties :
#
#
# Convention : Reuss Voigt Hill
#
# Bulk Modulus (GPa) = 47.86366 63.57364 55.71865
# Shear Modulus (GPa) = 25.46655 29.50250 27.48452
#
# Velocity S-wave (km/s) = 3.52519 3.79425 3.66219
# Velocity P-wave (km/s) = 6.31865 7.08641 6.71351
#
# Compressibility (1/GPa) = 0.02089268
#
# Stress axis : x y z
#
# Youngs Moduli (GPa) = 38.73186 120.05786 82.57014
#
# Poissons Ratio (x) = 0.42143 0.52317
# Poissons Ratio (y) = 0.13596 0.23424
# Poissons Ratio (z) = 0.24541 0.34058
#
# Static dielectric constant tensor:
#      x y z
#    x 3.416930 0.000000 0.115460 
#    y 0.000000 4.466270 0.000000 
#    z 0.115460 0.000000 4.036180 
# 
# 
# High freq. dielectric constant tensor:
#      x y z
#    x 1.766220 0.000000 0.005450 
#    y 0.000000 1.815620 0.000000 
#    z 0.005450 0.000000 1.815750 
# 
# From -- ./inp_files/81484.got.cif
#   From: 2010.06.25/outbox.cif.g09.slc.cpg/sg15_41_cif.got.tgz:81484.got - 2010.06.28 07:06:18.
