data_PCOD8137950
_publ_section_title
;
Structure prediction by ZEFSAII (Michael W. Deem and Ramdas Pophale) SiO2 
 PCOD8137950
Probable space group: C 2/C
;
_chemical_formula_sum "Si O2"
_cell_formula_units_Z 44
_cell_length_a 14.904365
_cell_length_b 27.342134
_cell_length_c 8.953310
_cell_angle_alpha 90.000000
_cell_angle_beta 38.489378
_cell_angle_gamma 90.000000
_cell_volume 2270.794509
_symmetry_space_group_name_H-M "C 2/C"
_symmetry_group_IT_number 15
_symmetry_cell_setting 'monoclinic'
loop_
_space_group_symop_operation_xyz
x,y,z
-x,y,1/2-z
-x,-y,-z
x,-y,1/2+z
1/2+x,1/2+y,z
1/2-x,1/2+y,1/2-z
1/2-x,1/2-y,-z
1/2+x,1/2-y,1/2+z
loop_
_atom_site_type_symbol
_atom_site_label
_atom_site_fract_x
_atom_site_fract_y
_atom_site_fract_z
Si Si1 0.622828 0.324693 0.288278
Si Si2 0.929711 0.277093 0.497094
Si Si3 0.608823 0.933963 0.860662
Si Si4 0.000000 0.501872 0.250000
Si Si5 0.084798 0.647501 0.984067
Si Si6 0.314843 0.347802 0.625168
O O1 0.627988 0.270248 0.343983
O O2 0.743706 0.356811 0.215650
O O3 0.466397 0.349787 0.516346
O O4 0.662878 0.321687 0.062400
O O5 0.798614 0.314769 0.635814
O O6 0.000000 0.261330 0.250000
O O7 0.050068 0.302288 0.443904
O O8 0.607883 0.965047 0.708597
O O9 0.755868 0.902793 0.679284
O O10 0.468583 0.898482 0.044483
O O11 0.601316 0.969134 0.012859
O O12 0.000000 0.647204 0.250000
#
# Coordination Sequence:
#
# PCOD8137950 Si02
#       6
#     8   8   8   4   8   8
#     4  11  21  37  59  84 121 165 197 241 289 345
#     4  11  24  38  56  86 122 162 210 246 276 334
#     4  10  20  39  61  95 109 151 193 241 296 355
#     4  10  20  36  70  86 116 142 198 242 292 368
#     4  11  21  37  62  85 117 157 205 236 287 352
#     4  10  22  36  61  86 121 157 200 242 293 346
#
# _framework density 19.376479
#
# number of rings (size 3 to 8) (size 9 to 14) (size 15 to 20)
#    0.000    1.455    4.545    1.636    7.636    2.909 
#    0.000    0.000    0.000   19.636    0.000    0.000 
#    0.000    0.000    0.000    0.000    0.000    0.000 
#
# Total GULP energy -272819.997418 kJ/mol
# GULP energy per Si atom -12400.908974 kJ/mol
# Density = 1.933238 g / cm^3
# Si number density = 19.376479 Si / 1000 Ang^3
#
#
#
# Elastic Constant Matrix: (Units=GPa)
#
#
# Indices 1 2 3 4 5 6 
#
# 1 104.3327 47.3072 46.6011 0.0000 -37.3723 0.0000
# 2 47.3072 113.3053 43.3667 0.0000 -3.9329 0.0000
# 3 46.6011 43.3667 83.9631 0.0000 -13.1214 0.0000
# 4 0.0000 0.0000 0.0000 20.3547 0.0000 2.8357
# 5 -37.3723 -3.9329 -13.1214 0.0000 47.3186 0.0000
# 6 0.0000 0.0000 0.0000 2.8357 0.0000 14.3270
#
#
#
# Elastic Compliance Matrix: (Units=1/GPa)
#
#
# Indices 1 2 3 4 5 6 
#
# 1 0.019415 -0.005377 -0.005929 0.000000 0.013243 0.000000
# 2 -0.005377 0.012511 -0.004159 0.000000 -0.004360 0.000000
# 3 -0.005929 -0.004159 0.017313 0.000000 -0.000227 0.000000
# 4 0.000000 0.000000 0.000000 0.050522 0.000000 -0.010000
# 5 0.013243 -0.004360 -0.000227 0.000000 0.031167 0.000000
# 6 0.000000 0.000000 0.000000 -0.010000 0.000000 0.071778
#
#
# Mechanical properties :
#
#
# Convention : Reuss Voigt Hill
#
# Bulk Modulus (GPa) = 54.61713 64.01681 59.31697
# Shear Modulus (GPa) = 20.85607 27.35512 24.10560
#
# Velocity S-wave (km/s) = 3.28435 3.76143 3.53096
# Velocity P-wave (km/s) = 6.52925 7.20934 6.87771
#
# Compressibility (1/GPa) = 0.01830927
#
# Stress axis : x y z
#
# Youngs Moduli (GPa) = 51.50779 79.92798 57.75970
#
# Poissons Ratio (x) = 0.42979 0.34244
# Poissons Ratio (y) = 0.27697 0.24022
# Poissons Ratio (z) = 0.30537 0.33242
#
# Static dielectric constant tensor:
#      x y z
#    x 3.828690 0.000000 -0.153430 
#    y 0.000000 3.559420 0.000000 
#    z -0.153430 0.000000 3.452330 
# 
# 
# High freq. dielectric constant tensor:
#      x y z
#    x 1.756600 0.000000 0.001210 
#    y 0.000000 1.747810 0.000000 
#    z 0.001210 0.000000 1.738040 
# 
# From -- ./inp_files/43345.got.cif
#   From: 2010.06.25/outbox.cif.g09.slc.cpg/sg15_22_cif.got.tgz:43345.got - 2010.06.28 07:06:18.
