data_PCOD8137779
_publ_section_title
;
Structure prediction by ZEFSAII (Michael W. Deem and Ramdas Pophale) SiO2 
 PCOD8137779
Probable space group: C 2/C
;
_chemical_formula_sum "Si O2"
_cell_formula_units_Z 52
_cell_length_a 25.498082
_cell_length_b 11.113406
_cell_length_c 16.194530
_cell_angle_alpha 90.000000
_cell_angle_beta 147.316081
_cell_angle_gamma 90.000000
_cell_volume 2478.107328
_symmetry_space_group_name_H-M "C 2/C"
_symmetry_group_IT_number 15
_symmetry_cell_setting 'monoclinic'
loop_
_space_group_symop_operation_xyz
x,y,z
-x,y,1/2-z
-x,-y,-z
x,-y,1/2+z
1/2+x,1/2+y,z
1/2-x,1/2+y,1/2-z
1/2-x,1/2-y,-z
1/2+x,1/2-y,1/2+z
loop_
_atom_site_type_symbol
_atom_site_label
_atom_site_fract_x
_atom_site_fract_y
_atom_site_fract_z
Si Si1 0.673510 0.352332 0.368161
Si Si2 0.000000 0.600810 0.750000
Si Si3 0.457739 0.159321 0.871047
Si Si4 0.515294 0.626563 0.977877
Si Si5 0.845945 0.845131 0.982730
Si Si6 0.170745 0.432976 0.036498
Si Si7 0.153121 0.534539 0.185264
O O1 0.750000 0.250000 0.500000
O O2 0.582948 0.313421 0.190210
O O3 0.626768 0.403241 0.391480
O O4 0.734991 0.449421 0.397201
O O5 0.965515 0.681677 0.782370
O O6 0.912748 0.516420 0.608291
O O7 0.370984 0.065372 0.776493
O O8 0.438428 0.283995 0.892971
O O9 0.557425 0.106046 0.036085
O O10 0.500000 0.500000 0.000000
O O11 0.591087 0.596880 0.005700
O O12 0.867147 0.703271 0.012150
O O13 0.731129 0.869205 0.819841
O O14 0.198656 0.468026 0.166374
#
# Coordination Sequence:
#
# PCOD8137779 Si02
#       7
#     8   4   8   8   8   8   8
#     4  10  22  37  63  94 124 161 215 267 321 379
#     4  10  22  36  66  96 124 166 212 274 316 388
#     4  10  21  41  64  92 125 168 217 260 327 386
#     4  12  25  43  64  92 135 177 210 271 333 398
#     4  11  22  36  62  95 127 163 214 270 323 386
#     4  10  20  36  62  93 129 160 215 263 326 377
#     4  10  20  37  65  93 123 169 214 268 322 385
#
# _framework density 20.983756
#
# number of rings (size 3 to 8) (size 9 to 14) (size 15 to 20)
#    0.000    1.538    1.538    4.154    4.308    0.000 
#    2.769    0.000    0.000    3.692    0.000    0.000 
#    0.000    0.000    0.000    0.000    0.000    0.000 
#
# Total GULP energy -322246.545423 kJ/mol
# GULP energy per Si atom -12394.097901 kJ/mol
# Density = 2.093600 g / cm^3
# Si number density = 20.983756 Si / 1000 Ang^3
#
#
#
# Elastic Constant Matrix: (Units=GPa)
#
#
# Indices 1 2 3 4 5 6 
#
# 1 182.2751 39.3939 24.4533 0.0000 -17.5313 0.0000
# 2 39.3939 54.8561 11.3323 0.0000 -1.5943 0.0000
# 3 24.4533 11.3323 80.0702 0.0000 -2.8815 0.0000
# 4 0.0000 0.0000 0.0000 22.7385 0.0000 3.7917
# 5 -17.5313 -1.5943 -2.8815 0.0000 34.4420 0.0000
# 6 0.0000 0.0000 0.0000 3.7917 0.0000 25.9926
#
#
#
# Elastic Compliance Matrix: (Units=1/GPa)
#
#
# Indices 1 2 3 4 5 6 
#
# 1 0.006981 -0.004639 -0.001359 0.000000 0.003225 0.000000
# 2 -0.004639 0.021875 -0.001733 0.000000 -0.001494 0.000000
# 3 -0.001359 -0.001733 0.013161 0.000000 0.000329 0.000000
# 4 0.000000 0.000000 0.000000 0.045075 0.000000 -0.006575
# 5 0.003225 -0.001494 0.000329 0.000000 0.030634 0.000000
# 6 0.000000 0.000000 0.000000 -0.006575 0.000000 0.039432
#
#
# Mechanical properties :
#
#
# Convention : Reuss Voigt Hill
#
# Bulk Modulus (GPa) = 37.65740 51.95115 44.80427
# Shear Modulus (GPa) = 27.55220 32.76940 30.16080
#
# Velocity S-wave (km/s) = 3.62750 3.95607 3.79534
# Velocity P-wave (km/s) = 5.96070 6.75861 6.37216
#
# Compressibility (1/GPa) = 0.02655521
#
# Stress axis : x y z
#
# Youngs Moduli (GPa) = 143.23819 45.71327 75.98010
#
# Poissons Ratio (x) = 0.21206 0.10329
# Poissons Ratio (y) = 0.66448 0.13168
# Poissons Ratio (z) = 0.19473 0.07922
#
# Static dielectric constant tensor:
#      x y z
#    x 12.732660 0.000000 1.087140 
#    y 0.000000 3.439710 0.000000 
#    z 1.087140 0.000000 3.943760 
# 
# 
# High freq. dielectric constant tensor:
#      x y z
#    x 1.857960 0.000000 -0.003480 
#    y 0.000000 1.783800 0.000000 
#    z -0.003480 0.000000 1.812650 
# 
# From -- ./inp_files/222479.got.cif
#   From: 2010.06.25/outbox.cif.g09.slc.cpg/sg15_112_cif.got.tgz:222479.got - 2010.06.28 07:06:18.
