data_PCOD8137723
_publ_section_title
;
Structure prediction by ZEFSAII (Michael W. Deem and Ramdas Pophale) SiO2 
 PCOD8137723
Probable space group: C 2/C
;
_chemical_formula_sum "Si O2"
_cell_formula_units_Z 44
_cell_length_a 11.703418
_cell_length_b 12.795940
_cell_length_c 17.696942
_cell_angle_alpha 90.000000
_cell_angle_beta 51.513620
_cell_angle_gamma 90.000000
_cell_volume 2074.481701
_symmetry_space_group_name_H-M "C 2/C"
_symmetry_group_IT_number 15
_symmetry_cell_setting 'monoclinic'
loop_
_space_group_symop_operation_xyz
x,y,z
-x,y,1/2-z
-x,-y,-z
x,-y,1/2+z
1/2+x,1/2+y,z
1/2-x,1/2+y,1/2-z
1/2-x,1/2-y,-z
1/2+x,1/2-y,1/2+z
loop_
_atom_site_type_symbol
_atom_site_label
_atom_site_fract_x
_atom_site_fract_y
_atom_site_fract_z
Si Si1 0.220603 0.280303 0.896039
Si Si2 0.861848 0.116410 0.948289
Si Si3 0.910948 0.678011 0.515071
Si Si4 0.209463 0.231128 0.300125
Si Si5 0.419573 0.381300 0.932674
Si Si6 0.500000 0.274428 0.250000
O O1 0.276094 0.235903 0.793162
O O2 0.345880 0.349128 0.883229
O O3 0.165907 0.182881 0.967967
O O4 0.079848 0.356402 0.939529
O O5 0.687656 0.112207 0.001956
O O6 0.947902 0.149930 0.838074
O O7 0.906461 0.002617 0.957308
O O8 0.895095 0.197711 0.001296
O O9 0.855432 0.670149 0.625158
O O10 0.367700 0.202211 0.272243
O O11 0.092786 0.137830 0.355243
#
# Coordination Sequence:
#
# PCOD8137723 Si02
#       6
#     8   8   8   8   8   4
#     4  10  20  39  58  87 124 162 188 251 296 357
#     4  10  20  38  60  93 115 157 203 245 293 356
#     4   9  20  38  62  84 123 155 195 251 295 345
#     4  10  20  37  60  86 116 162 199 240 300 348
#     4  10  23  37  63  87 124 157 199 241 302 359
#     4  10  20  36  62  82 120 156 202 250 292 344
#
# _framework density 21.210117
#
# number of rings (size 3 to 8) (size 9 to 14) (size 15 to 20)
#    0.000    2.182    1.818    0.545    2.545    3.636 
#    0.000    0.000    0.000    6.545    0.000    0.000 
#    0.000    0.000    0.000    0.000    0.000    0.000 
#
# Total GULP energy -272620.991888 kJ/mol
# GULP energy per Si atom -12391.863268 kJ/mol
# Density = 2.116184 g / cm^3
# Si number density = 21.210117 Si / 1000 Ang^3
#
#
#
# Elastic Constant Matrix: (Units=GPa)
#
#
# Indices 1 2 3 4 5 6 
#
# 1 125.8666 31.1953 31.1117 0.0000 -21.4389 0.0000
# 2 31.1953 67.4450 14.3432 0.0000 -18.0641 0.0000
# 3 31.1117 14.3432 104.0294 0.0000 11.5266 0.0000
# 4 0.0000 0.0000 0.0000 14.4999 0.0000 -5.2929
# 5 -21.4389 -18.0641 11.5266 0.0000 44.6172 0.0000
# 6 0.0000 0.0000 0.0000 -5.2929 0.0000 12.1812
#
#
#
# Elastic Compliance Matrix: (Units=1/GPa)
#
#
# Indices 1 2 3 4 5 6 
#
# 1 0.010208 -0.002820 -0.003172 0.000000 0.004583 0.000000
# 2 -0.002820 0.018461 -0.002450 0.000000 0.006752 0.000000
# 3 -0.003172 -0.002450 0.011507 0.000000 -0.005489 0.000000
# 4 0.000000 0.000000 0.000000 0.081967 0.000000 0.035616
# 5 0.004583 0.006752 -0.005489 0.000000 0.028767 0.000000
# 6 0.000000 0.000000 0.000000 0.035616 0.000000 0.097569
#
#
# Mechanical properties :
#
#
# Convention : Reuss Voigt Hill
#
# Bulk Modulus (GPa) = 42.93190 50.07125 46.50158
# Shear Modulus (GPa) = 18.30647 28.97237 23.63942
#
# Velocity S-wave (km/s) = 2.94105 3.69991 3.34209
# Velocity P-wave (km/s) = 5.64076 6.47387 6.07162
#
# Compressibility (1/GPa) = 0.02329270
#
# Stress axis : x y z
#
# Youngs Moduli (GPa) = 97.95788 54.16941 86.90098
#
# Poissons Ratio (x) = 0.15274 0.27566
# Poissons Ratio (y) = 0.27620 0.21292
# Poissons Ratio (z) = 0.31073 0.13273
#
# Static dielectric constant tensor:
#      x y z
#    x 4.418350 0.000000 -0.096680 
#    y 0.000000 3.142700 0.000000 
#    z -0.096680 0.000000 4.053640 
# 
# 
# High freq. dielectric constant tensor:
#      x y z
#    x 1.864770 0.000000 0.001770 
#    y 0.000000 1.759800 0.000000 
#    z 0.001770 0.000000 1.846590 
# 
# From -- ./inp_files/197638.got.cif
#   From: 2010.06.25/outbox.cif.g09.slc.cpg/sg15_99_cif.got.tgz:197638.got - 2010.06.28 07:06:18.
