data_PCOD8137381
_publ_section_title
;
Structure prediction by ZEFSAII (Michael W. Deem and Ramdas Pophale) SiO2 
 PCOD8137381
Probable space group: C 2/C
;
_chemical_formula_sum "Si O2"
_cell_formula_units_Z 48
_cell_length_a 10.106905
_cell_length_b 16.628565
_cell_length_c 14.663382
_cell_angle_alpha 90.000000
_cell_angle_beta 84.981987
_cell_angle_gamma 90.000000
_cell_volume 2454.931416
_symmetry_space_group_name_H-M "C 2/C"
_symmetry_group_IT_number 15
_symmetry_cell_setting 'monoclinic'
loop_
_space_group_symop_operation_xyz
x,y,z
-x,y,1/2-z
-x,-y,-z
x,-y,1/2+z
1/2+x,1/2+y,z
1/2-x,1/2+y,1/2-z
1/2-x,1/2-y,-z
1/2+x,1/2-y,1/2+z
loop_
_atom_site_type_symbol
_atom_site_label
_atom_site_fract_x
_atom_site_fract_y
_atom_site_fract_z
Si Si1 0.960311 0.187364 0.079678
Si Si2 0.547519 0.840311 0.523722
Si Si3 0.113378 0.615418 0.307727
Si Si4 0.612684 0.553777 0.170597
Si Si5 0.796056 0.741771 0.323220
Si Si6 0.304391 0.395052 0.426142
O O1 0.856795 0.211875 0.165608
O O2 0.077116 0.134195 0.116285
O O3 0.017454 0.271816 0.037002
O O4 0.890339 0.137357 0.004342
O O5 0.429910 0.887622 0.583263
O O6 0.636654 0.797420 0.593354
O O7 0.647128 0.899712 0.462742
O O8 0.248268 0.566165 0.285137
O O9 0.136595 0.708674 0.273554
O O10 0.000000 0.575797 0.250000
O O11 0.500000 0.531136 0.250000
O O12 0.633703 0.480842 0.100021
O O13 0.811840 0.837722 0.335329
#
# Coordination Sequence:
#
# PCOD8137381 Si02
#       6
#     8   8   8   8   8   8
#     4   9  17  35  55  82 109 138 186 235 281 324
#     4   8  17  33  59  76 103 150 186 219 267 342
#     4  10  20  36  58  77 108 152 192 218 275 345
#     4  12  23  33  55  86 116 143 180 244 291 318
#     4   8  15  34  58  78 105 147 186 217 266 338
#     4   9  19  34  56  83 112 144 183 231 282 334
#
# _framework density 19.552482000000001
#
# number of rings (size 3 to 8) (size 9 to 14) (size 15 to 20)
#    0.000    2.667    1.667    2.500    0.000    4.667 
#    0.000    0.000    7.333    0.000    0.000    0.000 
#    0.000    0.000    0.000    0.000    0.000    0.000 
#
# Total GULP energy -297371.303316 kJ/mol
# GULP energy per Si atom -12390.470971 kJ/mol
# Density = 1.950798 g / cm^3
# Si number density = 19.552482 Si / 1000 Ang^3
#
#
#
# Elastic Constant Matrix: (Units=GPa)
#
#
# Indices 1 2 3 4 5 6 
#
# 1 105.8096 35.9715 31.8818 0.0000 -8.0910 0.0000
# 2 35.9715 55.9040 18.2783 0.0000 -2.9441 0.0000
# 3 31.8818 18.2783 62.1750 0.0000 -17.3725 0.0000
# 4 0.0000 0.0000 0.0000 20.4793 0.0000 3.9743
# 5 -8.0910 -2.9441 -17.3725 0.0000 30.1037 0.0000
# 6 0.0000 0.0000 0.0000 3.9743 0.0000 21.5637
#
#
#
# Elastic Compliance Matrix: (Units=1/GPa)
#
#
# Indices 1 2 3 4 5 6 
#
# 1 0.013253 -0.006983 -0.004695 0.000000 0.000169 0.000000
# 2 -0.006983 0.023543 -0.003841 0.000000 -0.001791 0.000000
# 3 -0.004695 -0.003841 0.022847 0.000000 0.011547 0.000000
# 4 0.000000 0.000000 0.000000 0.050641 0.000000 -0.009333
# 5 0.000169 -0.001791 0.011547 0.000000 0.039753 0.000000
# 6 0.000000 0.000000 0.000000 -0.009333 0.000000 0.048094
#
#
# Mechanical properties :
#
#
# Convention : Reuss Voigt Hill
#
# Bulk Modulus (GPa) = 34.96076 44.01684 39.48880
# Shear Modulus (GPa) = 20.94648 23.61314 22.27981
#
# Velocity S-wave (km/s) = 3.27662 3.47894 3.37929
# Velocity P-wave (km/s) = 5.67752 6.22080 5.95536
#
# Compressibility (1/GPa) = 0.02860349
#
# Stress axis : x y z
#
# Youngs Moduli (GPa) = 75.45587 42.47605 43.76983
#
# Poissons Ratio (x) = 0.29663 0.20552
# Poissons Ratio (y) = 0.52694 0.16810
# Poissons Ratio (z) = 0.35430 0.16313
#
# Static dielectric constant tensor:
#      x y z
#    x 3.639190 0.000000 -0.379580 
#    y 0.000000 3.409300 0.000000 
#    z -0.379580 0.000000 3.699260 
# 
# 
# High freq. dielectric constant tensor:
#      x y z
#    x 1.757400 0.000000 -0.019380 
#    y 0.000000 1.734110 0.000000 
#    z -0.019380 0.000000 1.746860 
# 
# From -- ./inp_files/134861.got.cif
#   From: 2010.06.25/outbox.cif.g09.slc.cpg/sg15_68_cif.got.tgz:134861.got - 2010.06.28 07:06:18.
