data_PCOD8137177
_publ_section_title
;
Structure prediction by ZEFSAII (Michael W. Deem and Ramdas Pophale) SiO2 
 PCOD8137177
Probable space group: C 2/C
;
_chemical_formula_sum "Si O2"
_cell_formula_units_Z 56
_cell_length_a 21.973839
_cell_length_b 15.122443
_cell_length_c 17.177584
_cell_angle_alpha 90.000000
_cell_angle_beta 26.848138
_cell_angle_gamma 90.000000
_cell_volume 2577.924321
_symmetry_space_group_name_H-M "C 2/C"
_symmetry_group_IT_number 15
_symmetry_cell_setting 'monoclinic'
loop_
_space_group_symop_operation_xyz
x,y,z
-x,y,1/2-z
-x,-y,-z
x,-y,1/2+z
1/2+x,1/2+y,z
1/2-x,1/2+y,1/2-z
1/2-x,1/2-y,-z
1/2+x,1/2-y,1/2+z
loop_
_atom_site_type_symbol
_atom_site_label
_atom_site_fract_x
_atom_site_fract_y
_atom_site_fract_z
Si Si1 0.141957 0.846825 0.735800
Si Si2 0.305302 0.112413 0.653311
Si Si3 0.690053 0.698691 0.640623
Si Si4 0.093546 0.654179 0.356679
Si Si5 0.439171 0.515935 0.737775
Si Si6 0.666451 0.442890 0.860060
Si Si7 0.635960 0.263025 0.455258
O O1 0.117805 0.865244 0.856604
O O2 0.273788 0.782722 0.578641
O O3 0.169608 0.939225 0.658855
O O4 0.004258 0.806378 0.855356
O O5 0.299531 0.164583 0.577991
O O6 0.461573 0.095537 0.493396
O O7 0.233870 0.166221 0.803522
O O8 0.233590 0.017774 0.728845
O O9 0.750000 0.750000 0.500000
O O10 0.589819 0.764885 0.799842
O O11 0.616226 0.614192 0.689607
O O12 0.228133 0.594314 0.195561
O O13 0.088947 0.687312 0.450087
O O14 0.500000 0.487217 0.750000
O O15 0.543842 0.514598 0.546645
#
# Coordination Sequence:
#
# PCOD8137177 Si02
#       7
#     8   8   8   8   8   8   8
#     4  11  21  41  64  96 121 169 214 278 329 395
#     4  11  20  37  62  94 128 170 221 281 329 384
#     4  11  25  40  59  92 137 182 217 267 335 411
#     4  10  22  34  59  96 128 169 217 274 336 380
#     4  12  25  40  64  92 129 177 223 272 333 401
#     4  11  21  39  65  95 132 168 228 274 326 398
#     4  10  20  35  63  90 126 155 216 276 328 381
#
# _framework density 21.722904
#
# number of rings (size 3 to 8) (size 9 to 14) (size 15 to 20)
#    0.000    1.143    4.286    3.429    6.000    0.000 
#    0.000    0.714    0.000    0.000    0.000    0.000 
#    0.000    0.000    0.000    0.000    0.000    0.000 
#
# Total GULP energy -347116.793333 kJ/mol
# GULP energy per Si atom -12397.028333 kJ/mol
# Density = 2.167346 g / cm^3
# Si number density = 21.722904 Si / 1000 Ang^3
#
#
#
# Elastic Constant Matrix: (Units=GPa)
#
#
# Indices 1 2 3 4 5 6 
#
# 1 74.2938 39.7200 32.1413 -0.0001 -16.0753 0.0000
# 2 39.7200 114.9800 40.1496 -0.0002 -13.4623 0.0001
# 3 32.1413 40.1496 68.0917 -0.0004 -26.5409 0.0002
# 4 -0.0001 -0.0002 -0.0004 37.7035 0.0002 -9.4278
# 5 -16.0753 -13.4623 -26.5409 0.0002 33.3776 -0.0001
# 6 0.0000 0.0001 0.0002 -9.4278 -0.0001 38.6745
#
#
#
# Elastic Compliance Matrix: (Units=1/GPa)
#
#
# Indices 1 2 3 4 5 6 
#
# 1 0.018627 -0.004315 -0.004970 0.000000 0.003279 0.000000
# 2 -0.004315 0.011977 -0.005727 0.000000 -0.001802 0.000000
# 3 -0.004970 -0.005727 0.026919 0.000000 0.016702 0.000000
# 4 0.000000 0.000000 0.000000 0.028244 0.000000 0.006885
# 5 0.003279 -0.001802 0.016702 0.000000 0.044093 0.000000
# 6 0.000000 0.000000 0.000000 0.006885 0.000000 0.027535
#
#
# Mechanical properties :
#
#
# Convention : Reuss Voigt Hill
#
# Bulk Modulus (GPa) = 36.36725 53.48747 44.92736
# Shear Modulus (GPa) = 25.43405 31.64141 28.53773
#
# Velocity S-wave (km/s) = 3.42547 3.82067 3.62845
# Velocity P-wave (km/s) = 5.69411 6.64375 6.18718
#
# Compressibility (1/GPa) = 0.02749727
#
# Stress axis : x y z
#
# Youngs Moduli (GPa) = 53.68642 83.49421 37.14821
#
# Poissons Ratio (x) = 0.36030 0.18463
# Poissons Ratio (y) = 0.23167 0.21277
# Poissons Ratio (z) = 0.26682 0.47821
#
# Static dielectric constant tensor:
#      x y z
#    x 3.983890 0.000000 -0.362860 
#    y 0.000000 4.113630 0.000000 
#    z -0.362860 0.000000 3.570630 
# 
# 
# High freq. dielectric constant tensor:
#      x y z
#    x 1.848580 0.000000 -0.028080 
#    y 0.000000 1.867320 0.000000 
#    z -0.028080 0.000000 1.815490 
# 
# From -- ./inp_files/215692.got.cif
#   From: 2010.06.25/outbox.cif.g09.slc.cpg/sg15_108_cif.got.tgz:215692.got - 2010.06.28 07:06:18.
