data_PCOD8137640
_publ_section_title
;
Structure prediction by ZEFSAII (Michael W. Deem and Ramdas Pophale) SiO2 
 PCOD8137640
Probable space group: C 2/C
;
_chemical_formula_sum "Si O2"
_cell_formula_units_Z 56
_cell_length_a 19.245018
_cell_length_b 8.408961
_cell_length_c 17.592930
_cell_angle_alpha 90.000000
_cell_angle_beta 76.922981
_cell_angle_gamma 90.000000
_cell_volume 2773.240760
_symmetry_space_group_name_H-M "C 2/C"
_symmetry_group_IT_number 15
_symmetry_cell_setting 'monoclinic'
loop_
_space_group_symop_operation_xyz
x,y,z
-x,y,1/2-z
-x,-y,-z
x,-y,1/2+z
1/2+x,1/2+y,z
1/2-x,1/2+y,1/2-z
1/2-x,1/2-y,-z
1/2+x,1/2-y,1/2+z
loop_
_atom_site_type_symbol
_atom_site_label
_atom_site_fract_x
_atom_site_fract_y
_atom_site_fract_z
Si Si1 0.570538 0.513470 0.032254
Si Si2 0.321061 0.275231 0.433011
Si Si3 0.830992 0.538634 0.839891
Si Si4 0.807908 0.639550 0.202903
Si Si5 0.673352 0.540151 0.717779
Si Si6 0.201779 0.792589 0.439266
Si Si7 0.935913 0.820008 0.813934
O O1 0.611500 0.345316 0.036265
O O2 0.539918 0.593768 0.115604
O O3 0.500000 0.500000 0.000000
O O4 0.628668 0.626469 0.979642
O O5 0.250000 0.250000 0.500000
O O6 0.300806 0.400797 0.371988
O O7 0.347430 0.110102 0.390354
O O8 0.846545 0.491664 0.747052
O O9 0.749180 0.593039 0.873047
O O10 0.882091 0.681145 0.850757
O O11 0.724402 0.601037 0.234764
O O12 0.830064 0.813555 0.224749
O O13 0.821682 0.639757 0.107822
O O14 0.596959 0.456906 0.731759
O O15 0.250000 0.750000 0.500000
O O16 0.000000 0.744129 0.750000
#
# Coordination Sequence:
#
# PCOD8137640 Si02
#       7
#     8   8   8   8   8   8   8
#     4  11  25  44  65 100 131 175 224 273 344 405
#     4  10  21  39  67  94 128 171 215 274 333 398
#     4  11  22  41  64  97 128 172 230 272 329 398
#     4  11  21  36  63  96 126 159 219 277 321 389
#     4  10  20  36  60  94 123 163 215 266 324 394
#     4  12  21  40  70  93 134 173 220 282 332 398
#     4  11  24  44  64  86 135 181 216 271 344 403
#
# _framework density 20.192983000000002
#
# number of rings (size 3 to 8) (size 9 to 14) (size 15 to 20)
#    0.000    1.143    5.714    0.857    2.000    0.000 
#    5.143    2.143    0.000    0.000    0.000    0.000 
#    0.000    0.000    0.000    0.000    0.000    0.000 
#
# Total GULP energy -346899.079640 kJ/mol
# GULP energy per Si atom -12389.252844 kJ/mol
# Density = 2.014702 g / cm^3
# Si number density = 20.192983 Si / 1000 Ang^3
#
#
#
# Elastic Constant Matrix: (Units=GPa)
#
#
# Indices 1 2 3 4 5 6 
#
# 1 126.3203 44.2931 46.1440 0.0000 9.8944 0.0000
# 2 44.2931 84.8723 31.2022 0.0000 8.4774 0.0000
# 3 46.1440 31.2022 90.4063 0.0000 4.6201 0.0000
# 4 0.0000 0.0000 0.0000 37.3827 0.0000 3.2921
# 5 9.8944 8.4774 4.6201 0.0000 40.4152 0.0000
# 6 0.0000 0.0000 0.0000 3.2921 0.0000 23.2385
#
#
#
# Elastic Compliance Matrix: (Units=1/GPa)
#
#
# Indices 1 2 3 4 5 6 
#
# 1 0.010953 -0.004067 -0.004117 0.000000 -0.001358 0.000000
# 2 -0.004067 0.015223 -0.003084 0.000000 -0.001845 0.000000
# 3 -0.004117 -0.003084 0.014226 0.000000 0.000029 0.000000
# 4 0.000000 0.000000 0.000000 0.027088 0.000000 -0.003838
# 5 -0.001358 -0.001845 0.000029 0.000000 0.025459 0.000000
# 6 0.000000 0.000000 0.000000 -0.003838 0.000000 0.043576
#
#
# Mechanical properties :
#
#
# Convention : Reuss Voigt Hill
#
# Bulk Modulus (GPa) = 55.97512 60.54194 58.25853
# Shear Modulus (GPa) = 30.30018 32.20459 31.25238
#
# Velocity S-wave (km/s) = 3.87787 3.99788 3.93833
# Velocity P-wave (km/s) = 6.91598 7.16641 7.04231
#
# Compressibility (1/GPa) = 0.01786508
#
# Stress axis : x y z
#
# Youngs Moduli (GPa) = 91.30132 65.69106 70.29560
#
# Poissons Ratio (x) = 0.26714 0.28944
# Poissons Ratio (y) = 0.37129 0.21679
# Poissons Ratio (z) = 0.37593 0.20259
#
# Static dielectric constant tensor:
#      x y z
#    x 3.652700 0.000000 0.355550 
#    y 0.000000 3.917970 0.000000 
#    z 0.355550 0.000000 3.946190 
# 
# 
# High freq. dielectric constant tensor:
#      x y z
#    x 1.768440 0.000000 0.023330 
#    y 0.000000 1.791090 0.000000 
#    z 0.023330 0.000000 1.795640 
# 
# From -- ./inp_files/209523.got.cif
#   From: 2010.06.25/outbox.cif.g09.slc.cpg/sg15_105_cif.got.tgz:209523.got - 2010.06.28 07:06:18.
