data_PCOD8137451
_publ_section_title
;
Structure prediction by ZEFSAII (Michael W. Deem and Ramdas Pophale) SiO2 
 PCOD8137451
Probable space group: C 2/C
;
_chemical_formula_sum "Si O2"
_cell_formula_units_Z 60
_cell_length_a 18.265246
_cell_length_b 11.871266
_cell_length_c 15.062231
_cell_angle_alpha 90.000000
_cell_angle_beta 68.081380
_cell_angle_gamma 90.000000
_cell_volume 3029.887061
_symmetry_space_group_name_H-M "C 2/C"
_symmetry_group_IT_number 15
_symmetry_cell_setting 'monoclinic'
loop_
_space_group_symop_operation_xyz
x,y,z
-x,y,1/2-z
-x,-y,-z
x,-y,1/2+z
1/2+x,1/2+y,z
1/2-x,1/2+y,1/2-z
1/2-x,1/2-y,-z
1/2+x,1/2-y,1/2+z
loop_
_atom_site_type_symbol
_atom_site_label
_atom_site_fract_x
_atom_site_fract_y
_atom_site_fract_z
Si Si1 0.208318 0.253323 0.925979
Si Si2 0.296314 0.146677 0.659785
Si Si3 0.000000 0.773583 0.750000
Si Si4 0.653405 0.341898 0.758069
Si Si5 0.725064 0.514583 0.840552
Si Si6 0.300134 0.195093 0.399817
Si Si7 0.542988 0.146076 0.551165
Si Si8 0.581460 0.894361 0.533029
O O1 0.264942 0.320760 0.832576
O O2 0.191939 0.124043 0.905146
O O3 0.250000 0.250000 0.000000
O O4 0.125462 0.314576 0.973425
O O5 0.358511 0.237860 0.669304
O O6 0.213377 0.214403 0.674435
O O7 0.335944 0.087185 0.557190
O O8 0.288055 0.052827 0.738427
O O9 0.923150 0.851436 0.769821
O O10 0.981015 0.701805 0.845676
O O11 0.655697 0.454789 0.815939
O O12 0.766451 0.427998 0.889171
O O13 0.250000 0.250000 0.500000
O O14 0.391474 0.177166 0.390853
O O15 0.480692 0.171950 0.500438
O O16 0.545365 0.014230 0.575192
#
# Coordination Sequence:
#
# PCOD8137451 Si02
#       8
#     8   8   4   8   8   8   8   8
#     4  11  21  38  62  91 115 154 198 251 285 354
#     4   9  18  36  60  85 114 154 194 244 288 358
#     4  12  22  40  58  80 120 158 194 246 296 346
#     4  10  21  38  61  83 120 152 195 239 298 349
#     4  10  21  36  60  87 116 155 200 239 293 351
#     4   9  19  35  57  83 117 154 194 237 294 353
#     4  11  23  36  59  90 122 152 199 248 298 353
#     4  10  20  36  58  88 122 152 193 242 308 353
#
# _framework density 19.802719
#
# number of rings (size 3 to 8) (size 9 to 14) (size 15 to 20)
#    0.000    1.867    2.667    1.600    1.867    1.067 
#    0.000    3.333    0.000    0.000    0.000    0.000 
#    0.000    0.000    0.000    0.000    0.000    0.000 
#
# Total GULP energy -371661.946843 kJ/mol
# GULP energy per Si atom -12388.731561 kJ/mol
# Density = 1.975765 g / cm^3
# Si number density = 19.802719 Si / 1000 Ang^3
#
#
#
# Elastic Constant Matrix: (Units=GPa)
#
#
# Indices 1 2 3 4 5 6 
#
# 1 163.1477 46.9687 40.3106 0.0000 22.8981 0.0000
# 2 46.9687 70.3095 29.3200 0.0000 10.4857 0.0000
# 3 40.3106 29.3200 73.1640 0.0000 6.7668 0.0000
# 4 0.0000 0.0000 0.0000 36.0149 0.0000 12.3254
# 5 22.8981 10.4857 6.7668 0.0000 33.9320 0.0000
# 6 0.0000 0.0000 0.0000 12.3254 0.0000 20.5060
#
#
#
# Elastic Compliance Matrix: (Units=1/GPa)
#
#
# Indices 1 2 3 4 5 6 
#
# 1 0.008498 -0.003945 -0.002734 0.000000 -0.003970 0.000000
# 2 -0.003945 0.019454 -0.005413 0.000000 -0.002270 0.000000
# 3 -0.002734 -0.005413 0.017338 0.000000 0.000060 0.000000
# 4 0.000000 0.000000 0.000000 0.034957 0.000000 -0.021011
# 5 -0.003970 -0.002270 0.000060 0.000000 0.032840 0.000000
# 6 0.000000 0.000000 0.000000 -0.021011 0.000000 0.061395
#
#
# Mechanical properties :
#
#
# Convention : Reuss Voigt Hill
#
# Bulk Modulus (GPa) = 47.37805 59.97999 53.67902
# Shear Modulus (GPa) = 24.30735 30.75871 27.53303
#
# Velocity S-wave (km/s) = 3.50734 3.94541 3.73281
# Velocity P-wave (km/s) = 6.35443 7.14910 6.76345
#
# Compressibility (1/GPa) = 0.02110682
#
# Stress axis : x y z
#
# Youngs Moduli (GPa) = 117.67807 51.40434 57.67749
#
# Poissons Ratio (x) = 0.20276 0.15769
# Poissons Ratio (y) = 0.46418 0.31219
# Poissons Ratio (z) = 0.32173 0.27823
#
# Static dielectric constant tensor:
#      x y z
#    x 3.778480 0.000000 0.511870 
#    y 0.000000 3.597690 0.000000 
#    z 0.511870 0.000000 3.582620 
# 
# 
# High freq. dielectric constant tensor:
#      x y z
#    x 1.770060 0.000000 0.029440 
#    y 0.000000 1.763740 0.000000 
#    z 0.029440 0.000000 1.768530 
# 
# From -- ./inp_files/160881.got.cif
#   From: 2010.06.25/outbox.cif.g09.slc.cpg/sg15_81_cif.got.tgz:160881.got - 2010.06.28 07:06:18.
