data_PCOD8137415
_publ_section_title
;
Structure prediction by ZEFSAII (Michael W. Deem and Ramdas Pophale) SiO2 
 PCOD8137415
Probable space group: C 2/C
;
_chemical_formula_sum "Si O2"
_cell_formula_units_Z 36
_cell_length_a 27.541635
_cell_length_b 15.065843
_cell_length_c 8.207140
_cell_angle_alpha 90.000000
_cell_angle_beta 146.648863
_cell_angle_gamma 90.000000
_cell_volume 1872.211469
_symmetry_space_group_name_H-M "C 2/C"
_symmetry_group_IT_number 15
_symmetry_cell_setting 'monoclinic'
loop_
_space_group_symop_operation_xyz
x,y,z
-x,y,1/2-z
-x,-y,-z
x,-y,1/2+z
1/2+x,1/2+y,z
1/2-x,1/2+y,1/2-z
1/2-x,1/2-y,-z
1/2+x,1/2-y,1/2+z
loop_
_atom_site_type_symbol
_atom_site_label
_atom_site_fract_x
_atom_site_fract_y
_atom_site_fract_z
Si Si1 0.985456 0.852144 0.388686
Si Si2 0.500000 0.764326 0.250000
Si Si3 0.673648 0.392896 0.964731
Si Si4 0.702853 0.429933 0.692658
Si Si5 0.688645 0.211414 0.188827
O O1 0.000000 0.804580 0.250000
O O2 0.979855 0.788651 0.528209
O O3 0.069863 0.916318 0.650556
O O4 0.896206 0.907702 0.138816
O O5 0.590756 0.818417 0.475631
O O6 0.724865 0.404617 0.938784
O O7 0.715398 0.463692 0.207676
O O8 0.682722 0.290938 0.041951
O O9 0.771158 0.377207 0.772487
O O10 0.750000 0.250000 0.500000
#
# Coordination Sequence:
#
# PCOD8137415 Si02
#       5
#     8   4   8   8   8
#     4   9  19  33  54  87 118 145 183 237 293 350
#     4  10  20  36  58  84 116 150 196 232 292 336
#     4  10  22  34  56  86 116 148 190 237 284 345
#     4  11  20  36  56  84 118 151 188 232 294 342
#     4  11  21  37  59  83 115 153 190 236 285 343
#
# _framework density 19.228597000000001
#
# number of rings (size 3 to 8) (size 9 to 14) (size 15 to 20)
#    0.000    1.778    2.222    2.667    3.111    0.000 
#    2.000    0.000    0.000    5.333    0.000    0.000 
#    0.000    0.000    0.000    0.000    0.000    0.000 
#
# Total GULP energy -223002.847984 kJ/mol
# GULP energy per Si atom -12389.047110 kJ/mol
# Density = 1.918483 g / cm^3
# Si number density = 19.228597 Si / 1000 Ang^3
#
#
#
# Elastic Constant Matrix: (Units=GPa)
#
#
# Indices 1 2 3 4 5 6 
#
# 1 110.2791 26.2642 28.0004 0.0000 1.5812 0.0000
# 2 26.2642 61.6649 14.2239 0.0000 11.5744 0.0000
# 3 28.0004 14.2239 64.5296 0.0000 5.2238 0.0000
# 4 0.0000 0.0000 0.0000 9.9873 0.0000 -0.0909
# 5 1.5812 11.5744 5.2238 0.0000 36.3382 0.0000
# 6 0.0000 0.0000 0.0000 -0.0909 0.0000 23.5812
#
#
#
# Elastic Compliance Matrix: (Units=1/GPa)
#
#
# Indices 1 2 3 4 5 6 
#
# 1 0.011026 -0.004031 -0.004007 0.000000 0.001380 0.000000
# 2 -0.004031 0.019490 -0.002083 0.000000 -0.005733 0.000000
# 3 -0.004007 -0.002083 0.017835 0.000000 -0.001726 0.000000
# 4 0.000000 0.000000 0.000000 0.100131 0.000000 0.000386
# 5 0.001380 -0.005733 -0.001726 0.000000 0.029533 0.000000
# 6 0.000000 0.000000 0.000000 0.000386 0.000000 0.042408
#
#
# Mechanical properties :
#
#
# Convention : Reuss Voigt Hill
#
# Bulk Modulus (GPa) = 35.57722 41.49452 38.53587
# Shear Modulus (GPa) = 19.99729 25.18034 22.58881
#
# Velocity S-wave (km/s) = 3.22837 3.62266 3.43118
# Velocity P-wave (km/s) = 5.69551 6.25497 5.98179
#
# Compressibility (1/GPa) = 0.02810788
#
# Stress axis : x y z
#
# Youngs Moduli (GPa) = 90.69825 51.30838 56.07099
#
# Poissons Ratio (x) = 0.20681 0.22470
# Poissons Ratio (y) = 0.36558 0.11680
# Poissons Ratio (z) = 0.36347 0.10687
#
# Static dielectric constant tensor:
#      x y z
#    x 3.875700 0.000000 0.019690 
#    y 0.000000 3.180400 0.000000 
#    z 0.019690 0.000000 3.748300 
# 
# 
# High freq. dielectric constant tensor:
#      x y z
#    x 1.771300 0.000000 -0.007650 
#    y 0.000000 1.703670 0.000000 
#    z -0.007650 0.000000 1.746320 
# 
# From -- ./inp_files/37417.got.cif
#   From: 2010.06.25/outbox.cif.g09.slc.cpg/sg15_19_cif.got.tgz:37417.got - 2010.06.28 07:06:18.
