data_PCOD8137042
_publ_section_title
;
Structure prediction by ZEFSAII (Michael W. Deem and Ramdas Pophale) SiO2 
 PCOD8137042
Probable space group: C 2/C
;
_chemical_formula_sum "Si O2"
_cell_formula_units_Z 40
_cell_length_a 12.422227
_cell_length_b 13.060801
_cell_length_c 14.410592
_cell_angle_alpha 90.000000
_cell_angle_beta 118.982732
_cell_angle_gamma 90.000000
_cell_volume 2045.233426
_symmetry_space_group_name_H-M "C 2/C"
_symmetry_group_IT_number 15
_symmetry_cell_setting 'monoclinic'
loop_
_space_group_symop_operation_xyz
x,y,z
-x,y,1/2-z
-x,-y,-z
x,-y,1/2+z
1/2+x,1/2+y,z
1/2-x,1/2+y,1/2-z
1/2-x,1/2-y,-z
1/2+x,1/2-y,1/2+z
loop_
_atom_site_type_symbol
_atom_site_label
_atom_site_fract_x
_atom_site_fract_y
_atom_site_fract_z
Si Si1 0.475647 0.991520 0.882347
Si Si2 0.186832 0.635787 0.418487
Si Si3 0.919780 0.283934 0.303850
Si Si4 0.849816 0.716122 0.290811
Si Si5 0.566544 0.710541 0.992799
O O1 0.420961 0.094158 0.816761
O O2 0.604240 0.967217 0.880073
O O3 0.377465 0.900223 0.832172
O O4 0.500000 0.000000 0.000000
O O5 0.147793 0.715112 0.319992
O O6 0.335544 0.615064 0.476039
O O7 0.149200 0.690503 0.499174
O O8 0.781550 0.248951 0.225048
O O9 0.974308 0.226518 0.417718
O O10 0.000000 0.248734 0.250000
O O11 0.948666 0.796420 0.375919
#
# Coordination Sequence:
#
# PCOD8137042 Si02
#       5
#     8   8   8   8   8
#     4  11  19  37  59  86 110 148 190 233 277 343
#     4   9  17  31  57  81 111 139 183 230 276 328
#     4  11  22  35  59  82 115 156 188 228 287 337
#     4  10  20  35  59  85 115 145 192 236 282 332
#     4   9  17  33  53  84 112 139 182 234 279 325
#
# _framework density 19.557668
#
# number of rings (size 3 to 8) (size 9 to 14) (size 15 to 20)
#    0.000    2.000    4.000    3.600    0.000    0.800 
#    0.000    0.000    4.400    3.600    0.000    0.000 
#    0.000    0.000    0.000    0.000    0.000    0.000 
#
# Total GULP energy -247787.849186 kJ/mol
# GULP energy per Si atom -12389.392459 kJ/mol
# Density = 1.951315 g / cm^3
# Si number density = 19.557668 Si / 1000 Ang^3
#
#
#
# Elastic Constant Matrix: (Units=GPa)
#
#
# Indices 1 2 3 4 5 6 
#
# 1 141.8093 39.8356 65.6091 0.0000 -0.4843 0.0000
# 2 39.8356 57.5968 13.2748 0.0000 7.5566 0.0000
# 3 65.6091 13.2748 114.5212 0.0000 6.2773 0.0000
# 4 0.0000 0.0000 0.0000 21.7269 0.0000 2.0235
# 5 -0.4843 7.5566 6.2773 0.0000 39.6738 0.0000
# 6 0.0000 0.0000 0.0000 2.0235 0.0000 26.3817
#
#
#
# Elastic Compliance Matrix: (Units=1/GPa)
#
#
# Indices 1 2 3 4 5 6 
#
# 1 0.011901 -0.007144 -0.006126 0.000000 0.002475 0.000000
# 2 -0.007144 0.022513 0.001738 0.000000 -0.004650 0.000000
# 3 -0.006126 0.001738 0.012168 0.000000 -0.002331 0.000000
# 4 0.000000 0.000000 0.000000 0.046357 0.000000 -0.003556
# 5 0.002475 -0.004650 -0.002331 0.000000 0.026490 0.000000
# 6 0.000000 0.000000 0.000000 -0.003556 0.000000 0.038178
#
#
# Mechanical properties :
#
#
# Convention : Reuss Voigt Hill
#
# Bulk Modulus (GPa) = 42.52025 61.26294 51.89160
# Shear Modulus (GPa) = 26.52390 30.57033 28.54712
#
# Velocity S-wave (km/s) = 3.68664 3.95788 3.82467
# Velocity P-wave (km/s) = 6.31743 7.23040 6.78928
#
# Compressibility (1/GPa) = 0.02351821
#
# Stress axis : x y z
#
# Youngs Moduli (GPa) = 84.02575 44.41956 82.18473
#
# Poissons Ratio (x) = 0.31734 0.50344
# Poissons Ratio (y) = 0.60029 -0.14285
# Poissons Ratio (z) = 0.51472 -0.07721
#
# Static dielectric constant tensor:
#      x y z
#    x 3.956110 0.000000 0.248750 
#    y 0.000000 3.371210 0.000000 
#    z 0.248750 0.000000 4.103040 
# 
# 
# High freq. dielectric constant tensor:
#      x y z
#    x 1.762090 0.000000 -0.006220 
#    y 0.000000 1.707400 0.000000 
#    z -0.006220 0.000000 1.782480 
# 
# From -- ./inp_files/142810.got.cif
#   From: 2010.06.25/outbox.cif.g09.slc.cpg/sg15_72_cif.got.tgz:142810.got - 2010.06.28 07:06:18.
