data_PCOD8137786
_publ_section_title
;
Structure prediction by ZEFSAII (Michael W. Deem and Ramdas Pophale) SiO2 
 PCOD8137786
Probable space group: C 2/C
;
_chemical_formula_sum "Si O2"
_cell_formula_units_Z 44
_cell_length_a 18.764022
_cell_length_b 21.172024
_cell_length_c 9.352428
_cell_angle_alpha 90.000000
_cell_angle_beta 33.959185
_cell_angle_gamma 90.000000
_cell_volume 2075.464550
_symmetry_space_group_name_H-M "C 2/C"
_symmetry_group_IT_number 15
_symmetry_cell_setting 'monoclinic'
loop_
_space_group_symop_operation_xyz
x,y,z
-x,y,1/2-z
-x,-y,-z
x,-y,1/2+z
1/2+x,1/2+y,z
1/2-x,1/2+y,1/2-z
1/2-x,1/2-y,-z
1/2+x,1/2-y,1/2+z
loop_
_atom_site_type_symbol
_atom_site_label
_atom_site_fract_x
_atom_site_fract_y
_atom_site_fract_z
Si Si1 0.917842 0.525310 0.267064
Si Si2 0.303869 0.684968 0.472206
Si Si3 0.500000 0.480279 0.750000
Si Si4 0.696177 0.410379 0.988405
Si Si5 0.072752 0.860697 0.454964
Si Si6 0.144255 0.391765 0.039540
O O1 0.815620 0.574622 0.387938
O O2 0.855299 0.467005 0.455593
O O3 0.000000 0.562135 0.250000
O O4 0.000000 0.500000 0.000000
O O5 0.250000 0.750000 0.500000
O O6 0.326180 0.674850 0.606427
O O7 0.199034 0.633710 0.597724
O O8 0.441133 0.676967 0.171135
O O9 0.619028 0.525311 0.587180
O O10 0.544550 0.433702 0.547917
O O11 0.751965 0.374653 0.756346
O O12 0.616099 0.361008 0.217493
O O13 0.000000 0.365463 0.250000
#
# Coordination Sequence:
#
# PCOD8137786 Si02
#       6
#     8   8   4   8   8   8
#     4  11  21  36  55  91 131 171 201 230 295 374
#     4  10  23  44  66  81 117 154 208 264 311 365
#     4  10  20  36  62  94 132 164 190 242 314 360
#     4  12  21  37  62  92 135 157 198 252 295 380
#     4  10  23  39  64  97 114 163 212 246 308 371
#     4  11  23  37  59  90 122 167 201 242 309 359
#
# _framework density 21.200073
#
# number of rings (size 3 to 8) (size 9 to 14) (size 15 to 20)
#    0.000    1.455    3.636    4.909    5.091    0.000 
#    0.000    0.909    4.000    0.000    0.000    0.000 
#    0.000    0.000    0.000    0.000    0.000    0.000 
#
# Total GULP energy -272587.857371 kJ/mol
# GULP energy per Si atom -12390.357153 kJ/mol
# Density = 2.115182 g / cm^3
# Si number density = 21.200073 Si / 1000 Ang^3
#
#
#
# Elastic Constant Matrix: (Units=GPa)
#
#
# Indices 1 2 3 4 5 6 
#
# 1 118.0516 33.7113 22.7698 0.0007 -21.4811 -0.0003
# 2 33.7113 63.7733 16.7143 0.0004 -7.6802 -0.0003
# 3 22.7698 16.7143 112.0761 0.0011 17.6426 -0.0006
# 4 0.0007 0.0004 0.0011 14.6151 -0.0011 -6.9595
# 5 -21.4811 -7.6802 17.6426 -0.0011 37.9301 0.0007
# 6 -0.0003 -0.0003 -0.0006 -6.9595 0.0007 32.6548
#
#
#
# Elastic Compliance Matrix: (Units=1/GPa)
#
#
# Indices 1 2 3 4 5 6 
#
# 1 0.011561 -0.004557 -0.002756 0.000000 0.006906 0.000000
# 2 -0.004557 0.018962 -0.002266 0.000000 0.002313 0.000000
# 3 -0.002756 -0.002266 0.010939 -0.000001 -0.007108 0.000000
# 4 0.000000 0.000000 -0.000001 0.076151 0.000002 0.016230
# 5 0.006906 0.002313 -0.007108 0.000002 0.034050 0.000000
# 6 0.000000 0.000000 0.000000 0.016230 0.000000 0.034082
#
#
# Mechanical properties :
#
#
# Convention : Reuss Voigt Hill
#
# Bulk Modulus (GPa) = 44.83673 48.92130 46.87901
# Shear Modulus (GPa) = 23.54736 31.75370 27.65053
#
# Velocity S-wave (km/s) = 3.33636 3.87435 3.61538
# Velocity P-wave (km/s) = 6.00308 6.56813 6.29195
#
# Compressibility (1/GPa) = 0.02230314
#
# Stress axis : x y z
#
# Youngs Moduli (GPa) = 86.50142 52.73754 91.41288
#
# Poissons Ratio (x) = 0.24032 0.25196
# Poissons Ratio (y) = 0.39418 0.20715
# Poissons Ratio (z) = 0.23842 0.11951
#
# Static dielectric constant tensor:
#      x y z
#    x 4.611270 0.000000 -0.173690 
#    y 0.000000 3.346850 0.000000 
#    z -0.173690 0.000000 3.834080 
# 
# 
# High freq. dielectric constant tensor:
#      x y z
#    x 1.857060 0.000000 -0.009120 
#    y 0.000000 1.778700 0.000000 
#    z -0.009120 0.000000 1.833180 
# 
# From -- ./inp_files/51438.got.cif
#   From: 2010.06.25/outbox.cif.g09.slc.cpg/sg15_26_cif.got.tgz:51438.got - 2010.06.28 07:06:18.
