data_PCOD8137612
_publ_section_title
;
Structure prediction by ZEFSAII (Michael W. Deem and Ramdas Pophale) SiO2 
 PCOD8137612
Probable space group: C 2/C
;
_chemical_formula_sum "Si O2"
_cell_formula_units_Z 48
_cell_length_a 12.419622
_cell_length_b 23.523188
_cell_length_c 8.829037
_cell_angle_alpha 90.000000
_cell_angle_beta 116.610203
_cell_angle_gamma 90.000000
_cell_volume 2306.171479
_symmetry_space_group_name_H-M "C 2/C"
_symmetry_group_IT_number 15
_symmetry_cell_setting 'monoclinic'
loop_
_space_group_symop_operation_xyz
x,y,z
-x,y,1/2-z
-x,-y,-z
x,-y,1/2+z
1/2+x,1/2+y,z
1/2-x,1/2+y,1/2-z
1/2-x,1/2-y,-z
1/2+x,1/2-y,1/2+z
loop_
_atom_site_type_symbol
_atom_site_label
_atom_site_fract_x
_atom_site_fract_y
_atom_site_fract_z
Si Si1 0.002253 0.104768 0.429401
Si Si2 0.735224 0.541695 0.590212
Si Si3 0.904526 0.673481 0.465486
Si Si4 0.407561 0.295094 0.329470
Si Si5 0.165100 0.654205 0.746023
Si Si6 0.254753 0.070974 0.258620
O O1 0.867589 0.092503 0.399685
O O2 0.000000 0.104614 0.250000
O O3 0.097323 0.057728 0.554434
O O4 0.039535 0.168393 0.499087
O O5 0.823451 0.586957 0.723265
O O6 0.734997 0.544229 0.410031
O O7 0.790878 0.481284 0.673655
O O8 0.889173 0.729935 0.359294
O O9 0.838170 0.681021 0.585850
O O10 0.850858 0.621969 0.330101
O O11 0.045297 0.663672 0.576359
O O12 0.500000 0.302843 0.250000
O O13 0.273120 0.319303 0.213671
#
# Coordination Sequence:
#
# PCOD8137612 Si02
#       6
#     8   8   8   8   8   8
#     4   9  20  37  61  88 118 162 207 243 297 366
#     4   9  19  37  58  88 120 155 202 253 293 356
#     4  10  22  39  62  87 121 169 205 240 296 377
#     4  11  24  39  61  93 126 153 200 264 310 348
#     4   9  21  41  63  85 118 164 212 240 296 373
#     4  10  20  36  60  89 116 157 204 246 302 356
#
# _framework density 20.813718000000001
#
# number of rings (size 3 to 8) (size 9 to 14) (size 15 to 20)
#    0.000    2.333    0.000    2.000    4.667    4.000 
#    3.000    0.833    0.000    0.000    0.000    0.000 
#    0.000    0.000    0.000    0.000    0.000    0.000 
#
# Total GULP energy -297439.313015 kJ/mol
# GULP energy per Si atom -12393.304709 kJ/mol
# Density = 2.076634 g / cm^3
# Si number density = 20.813718 Si / 1000 Ang^3
#
#
#
# Elastic Constant Matrix: (Units=GPa)
#
#
# Indices 1 2 3 4 5 6 
#
# 1 104.2468 33.7438 18.1949 0.0000 4.8136 0.0000
# 2 33.7438 131.8914 42.5565 0.0000 7.7161 0.0000
# 3 18.1949 42.5565 42.1024 0.0000 13.6980 0.0000
# 4 0.0000 0.0000 0.0000 32.1277 0.0000 -1.9210
# 5 4.8136 7.7161 13.6980 0.0000 16.3441 0.0000
# 6 0.0000 0.0000 0.0000 -1.9210 0.0000 28.6754
#
#
#
# Elastic Compliance Matrix: (Units=1/GPa)
#
#
# Indices 1 2 3 4 5 6 
#
# 1 0.010669 -0.001840 -0.002765 0.000000 0.000044 0.000000
# 2 -0.001840 0.011984 -0.013273 0.000000 0.006008 0.000000
# 3 -0.002765 -0.013273 0.049577 0.000000 -0.034470 0.000000
# 4 0.000000 0.000000 0.000000 0.031251 0.000000 0.002094
# 5 0.000044 0.006008 -0.034470 0.000000 0.087224 0.000000
# 6 0.000000 0.000000 0.000000 0.002094 0.000000 0.035013
#
#
# Mechanical properties :
#
#
# Convention : Reuss Voigt Hill
#
# Bulk Modulus (GPa) = 27.41650 51.91455 39.66553
# Shear Modulus (GPa) = 18.27272 27.67913 22.97593
#
# Velocity S-wave (km/s) = 2.96618 3.65067 3.32608
# Velocity P-wave (km/s) = 4.99318 6.53961 5.81800
#
# Compressibility (1/GPa) = 0.03647438
#
# Stress axis : x y z
#
# Youngs Moduli (GPa) = 93.73145 83.44576 20.17055
#
# Poissons Ratio (x) = 0.15353 0.05577
# Poissons Ratio (y) = 0.17246 0.26772
# Poissons Ratio (z) = 0.25918 1.10755
#
# Static dielectric constant tensor:
#      x y z
#    x 4.076240 0.000000 0.273600 
#    y 0.000000 3.741430 0.000000 
#    z 0.273600 0.000000 3.596850 
# 
# 
# High freq. dielectric constant tensor:
#      x y z
#    x 1.808270 0.000000 0.018470 
#    y 0.000000 1.819430 0.000000 
#    z 0.018470 0.000000 1.801570 
# 
# From -- ./inp_files/32628.got.cif
#   From: 2010.06.25/outbox.cif.g09.slc.cpg/sg15_17_cif.got.tgz:32628.got - 2010.06.28 07:06:18.
