data_PCOD8137930
_publ_section_title
;
Structure prediction by ZEFSAII (Michael W. Deem and Ramdas Pophale) SiO2 
 PCOD8137930
Probable space group: C 2/C
;
_chemical_formula_sum "Si O2"
_cell_formula_units_Z 48
_cell_length_a 18.036211
_cell_length_b 8.653660
_cell_length_c 20.913140
_cell_angle_alpha 90.000000
_cell_angle_beta 40.608038
_cell_angle_gamma 90.000000
_cell_volume 2124.544309
_symmetry_space_group_name_H-M "C 2/C"
_symmetry_group_IT_number 15
_symmetry_cell_setting 'monoclinic'
loop_
_space_group_symop_operation_xyz
x,y,z
-x,y,1/2-z
-x,-y,-z
x,-y,1/2+z
1/2+x,1/2+y,z
1/2-x,1/2+y,1/2-z
1/2-x,1/2-y,-z
1/2+x,1/2-y,1/2+z
loop_
_atom_site_type_symbol
_atom_site_label
_atom_site_fract_x
_atom_site_fract_y
_atom_site_fract_z
Si Si1 0.020344 0.649783 0.310471
Si Si2 0.654079 0.074770 0.532629
Si Si3 0.181968 0.622922 0.744403
Si Si4 0.628352 0.688573 0.160400
Si Si5 0.508034 0.729618 0.443158
Si Si6 0.062720 0.893477 0.382675
O O1 0.119170 0.524193 0.255364
O O2 0.059574 0.810066 0.316592
O O3 0.000000 0.684379 0.250000
O O4 0.903883 0.592360 0.421570
O O5 0.630483 0.158468 0.615460
O O6 0.788090 0.060393 0.426774
O O7 0.600319 0.176885 0.511255
O O8 0.173934 0.765793 0.700556
O O9 0.122167 0.678143 0.849246
O O10 0.309839 0.575952 0.676007
O O11 0.500000 0.622668 0.250000
O O12 0.501950 0.558657 0.415824
O O13 0.502663 0.715229 0.523276
#
# Coordination Sequence:
#
# PCOD8137930 Si02
#       6
#     8   8   8   8   8   8
#     4  11  22  43  66  99 132 173 217 272 330 380
#     4  10  20  36  67  93 124 166 225 265 314 388
#     4  11  20  40  67  95 124 174 221 265 313 390
#     4  11  18  35  63  97 120 167 219 269 307 382
#     4  10  22  41  61  94 127 172 213 262 330 389
#     4  11  24  41  64  93 139 167 210 274 331 386
#
# _framework density 22.593081000000002
#
# number of rings (size 3 to 8) (size 9 to 14) (size 15 to 20)
#    0.000    1.333    6.667    1.000    0.000    2.667 
#    6.000    0.000    0.000   13.000    0.000    0.000 
#    0.000    0.000    0.000    0.000    0.000    0.000 
#
# Total GULP energy -297626.758591 kJ/mol
# GULP energy per Si atom -12401.114941 kJ/mol
# Density = 2.254166 g / cm^3
# Si number density = 22.593081 Si / 1000 Ang^3
#
#
#
# Elastic Constant Matrix: (Units=GPa)
#
#
# Indices 1 2 3 4 5 6 
#
# 1 80.9632 33.6788 38.9028 0.0000 6.3728 0.0000
# 2 33.6788 49.1454 20.1202 0.0000 11.6941 0.0001
# 3 38.9028 20.1202 114.8135 0.0000 -11.8706 0.0000
# 4 0.0000 0.0000 0.0000 20.0931 0.0000 12.0465
# 5 6.3728 11.6941 -11.8706 0.0000 41.6897 0.0000
# 6 0.0000 0.0001 0.0000 12.0465 0.0000 24.1520
#
#
#
# Elastic Compliance Matrix: (Units=1/GPa)
#
#
# Indices 1 2 3 4 5 6 
#
# 1 0.019297 -0.010996 -0.004737 0.000000 -0.001214 0.000000
# 2 -0.010996 0.030697 -0.002442 0.000000 -0.007625 0.000000
# 3 -0.004737 -0.002442 0.011219 0.000000 0.004604 0.000000
# 4 0.000000 0.000000 0.000000 0.071000 0.000000 -0.035413
# 5 -0.001214 -0.007625 0.004604 0.000000 0.027622 0.000000
# 6 0.000000 0.000000 0.000000 -0.035413 0.000000 0.059068
#
#
# Mechanical properties :
#
#
# Convention : Reuss Voigt Hill
#
# Bulk Modulus (GPa) = 40.22012 47.81397 44.01705
# Shear Modulus (GPa) = 18.97238 27.33497 23.15367
#
# Velocity S-wave (km/s) = 2.90098 3.48211 3.20474
# Velocity P-wave (km/s) = 5.39087 6.11358 5.76356
#
# Compressibility (1/GPa) = 0.02486318
#
# Stress axis : x y z
#
# Youngs Moduli (GPa) = 51.82143 32.57619 89.13599
#
# Poissons Ratio (x) = 0.35820 0.42225
# Poissons Ratio (y) = 0.56981 0.21768
# Poissons Ratio (z) = 0.24549 0.07955
#
# Static dielectric constant tensor:
#      x y z
#    x 3.968760 0.000000 -0.038050 
#    y 0.000000 3.669720 0.000000 
#    z -0.038050 0.000000 4.262800 
# 
# 
# High freq. dielectric constant tensor:
#      x y z
#    x 1.884770 0.000000 0.001800 
#    y 0.000000 1.858640 0.000000 
#    z 0.001800 0.000000 1.905070 
# 
# From -- ./inp_files/251786.got.cif
#   From: 2010.06.25/outbox.cif.g09.slc.cpg/sg15_126_cif.got.tgz:251786.got - 2010.06.28 07:06:18.
