data_PCOD8137830
_publ_section_title
;
Structure prediction by ZEFSAII (Michael W. Deem and Ramdas Pophale) SiO2 
 PCOD8137830
Probable space group: C 2/C
;
_chemical_formula_sum "Si O2"
_cell_formula_units_Z 56
_cell_length_a 11.084924
_cell_length_b 14.454590
_cell_length_c 15.939503
_cell_angle_alpha 90.000000
_cell_angle_beta 75.965052
_cell_angle_gamma 90.000000
_cell_volume 2477.714478
_symmetry_space_group_name_H-M "C 2/C"
_symmetry_group_IT_number 15
_symmetry_cell_setting 'monoclinic'
loop_
_space_group_symop_operation_xyz
x,y,z
-x,y,1/2-z
-x,-y,-z
x,-y,1/2+z
1/2+x,1/2+y,z
1/2-x,1/2+y,1/2-z
1/2-x,1/2-y,-z
1/2+x,1/2-y,1/2+z
loop_
_atom_site_type_symbol
_atom_site_label
_atom_site_fract_x
_atom_site_fract_y
_atom_site_fract_z
Si Si1 0.679213 0.058917 0.637644
Si Si2 0.548537 0.814502 0.034402
Si Si3 0.860472 0.067327 0.931780
Si Si4 0.627188 0.876057 0.569169
Si Si5 0.387584 0.800104 0.218118
Si Si6 0.133804 0.220449 0.692602
Si Si7 0.905998 0.888711 0.008639
O O1 0.644617 0.115844 0.559479
O O2 0.624448 0.101250 0.732078
O O3 0.828874 0.069362 0.602290
O O4 0.623100 0.955868 0.641268
O O5 0.427579 0.808064 0.115240
O O6 0.620803 0.717095 0.011932
O O7 0.505515 0.857806 0.953013
O O8 0.876063 0.112829 0.836405
O O9 0.885045 0.956026 0.930782
O O10 0.721659 0.090678 0.982601
O O11 0.951718 0.112754 0.985086
O O12 0.668100 0.781097 0.605817
O O13 0.500000 0.745317 0.250000
O O14 0.245540 0.760806 0.241601
O O15 0.000000 0.252379 0.750000
#
# Coordination Sequence:
#
# PCOD8137830 Si02
#       7
#     8   8   8   8   8   8   8
#     4  10  23  40  60  92 131 167 208 269 324 386
#     4  11  20  39  66  90 127 165 217 260 328 387
#     4  10  20  38  62  90 127 163 211 259 325 379
#     4  11  22  40  67  93 120 172 221 262 318 394
#     4  10  23  41  61  86 133 170 203 263 336 379
#     4  12  23  39  66  95 129 169 219 274 319 386
#     4  10  20  36  63  95 123 163 208 269 316 383
#
# _framework density 22.601474
#
# number of rings (size 3 to 8) (size 9 to 14) (size 15 to 20)
#    0.000    1.429    2.857    3.000    0.000    1.714 
#    0.000    5.000    0.000    0.000    0.000    0.000 
#    0.000    0.000    0.000    0.000    0.000    0.000 
#
# Total GULP energy -346871.958513 kJ/mol
# GULP energy per Si atom -12388.284233 kJ/mol
# Density = 2.255003 g / cm^3
# Si number density = 22.601474 Si / 1000 Ang^3
#
#
#
# Elastic Constant Matrix: (Units=GPa)
#
#
# Indices 1 2 3 4 5 6 
#
# 1 122.0720 21.4626 11.7163 0.0000 11.5353 0.0000
# 2 21.4626 89.0874 14.7077 0.0000 0.1410 0.0000
# 3 11.7163 14.7077 53.2908 0.0000 -1.0934 0.0000
# 4 0.0000 0.0000 0.0000 32.4014 0.0000 -0.6065
# 5 11.5353 0.1410 -1.0934 0.0000 30.2289 0.0000
# 6 0.0000 0.0000 0.0000 -0.6065 0.0000 25.4291
#
#
#
# Elastic Compliance Matrix: (Units=1/GPa)
#
#
# Indices 1 2 3 4 5 6 
#
# 1 0.009003 -0.001912 -0.001523 0.000000 -0.003482 0.000000
# 2 -0.001912 0.012168 -0.002926 0.000000 0.000567 0.000000
# 3 -0.001523 -0.002926 0.019934 0.000000 0.001316 0.000000
# 4 0.000000 0.000000 0.000000 0.030877 0.000000 0.000736
# 5 -0.003482 0.000567 0.001316 0.000000 0.034455 0.000000
# 6 0.000000 0.000000 0.000000 0.000736 0.000000 0.039343
#
#
# Mechanical properties :
#
#
# Convention : Reuss Voigt Hill
#
# Bulk Modulus (GPa) = 35.23274 40.02484 37.62879
# Shear Modulus (GPa) = 29.76848 32.04945 30.90897
#
# Velocity S-wave (km/s) = 3.63313 3.76975 3.70207
# Velocity P-wave (km/s) = 5.76386 6.05768 5.91259
#
# Compressibility (1/GPa) = 0.02838269
#
# Stress axis : x y z
#
# Youngs Moduli (GPa) = 111.07068 82.18435 50.16447
#
# Poissons Ratio (x) = 0.15714 0.07641
# Poissons Ratio (y) = 0.21237 0.14679
# Poissons Ratio (z) = 0.16918 0.24048
#
# Static dielectric constant tensor:
#      x y z
#    x 4.302880 0.000000 0.007990 
#    y 0.000000 4.060660 0.000000 
#    z 0.007990 0.000000 3.678920 
# 
# 
# High freq. dielectric constant tensor:
#      x y z
#    x 1.912140 0.000000 -0.007280 
#    y 0.000000 1.874610 0.000000 
#    z -0.007280 0.000000 1.859320 
# 
# From -- ./inp_files/197753.got.cif
#   From: 2010.06.25/outbox.cif.g09.slc.cpg/sg15_99_cif.got.tgz:197753.got - 2010.06.28 07:06:18.
