data_PCOD8137338
_publ_section_title
;
Structure prediction by ZEFSAII (Michael W. Deem and Ramdas Pophale) SiO2 
 PCOD8137338
Probable space group: C 2/C
;
_chemical_formula_sum "Si O2"
_cell_formula_units_Z 36
_cell_length_a 15.816221
_cell_length_b 26.186392
_cell_length_c 10.090219
_cell_angle_alpha 90.000000
_cell_angle_beta 22.441053
_cell_angle_gamma 90.000000
_cell_volume 1595.285341
_symmetry_space_group_name_H-M "C 2/C"
_symmetry_group_IT_number 15
_symmetry_cell_setting 'monoclinic'
loop_
_space_group_symop_operation_xyz
x,y,z
-x,y,1/2-z
-x,-y,-z
x,-y,1/2+z
1/2+x,1/2+y,z
1/2-x,1/2+y,1/2-z
1/2-x,1/2-y,-z
1/2+x,1/2-y,1/2+z
loop_
_atom_site_type_symbol
_atom_site_label
_atom_site_fract_x
_atom_site_fract_y
_atom_site_fract_z
Si Si1 0.975628 0.692954 0.074708
Si Si2 0.500000 0.993060 0.750000
Si Si3 0.000000 0.776209 0.250000
Si Si4 0.000000 0.335157 0.250000
Si Si5 0.825275 0.080597 0.317393
Si Si6 0.805779 0.589496 0.691231
O O1 0.060561 0.742308 0.032119
O O2 0.710509 0.688544 0.474488
O O3 0.043794 0.698087 0.819565
O O4 0.081725 0.644245 0.993290
O O5 0.516743 0.954954 0.599313
O O6 0.722687 0.026834 0.419550
O O7 0.790491 0.371759 0.589567
O O8 0.766954 0.085128 0.554414
O O9 0.088690 0.083346 0.911417
#
# Coordination Sequence:
#
# PCOD8137338 Si02
#       6
#     8   4   4   4   8   8
#     4  10  22  40  61  86 116 154 189 241 296 347
#     4  11  19  32  56  86 114 154 198 234 279 333
#     4  10  23  42  61  88 120 140 191 252 297 348
#     4   9  20  38  61  84 114 158 199 228 286 351
#     4   9  20  36  54  83 120 152 192 240 273 335
#     4  10  20  36  57  81 117 156 193 233 289 340
#
# _framework density 22.566496000000001
#
# number of rings (size 3 to 8) (size 9 to 14) (size 15 to 20)
#    0.000    2.222    0.000    2.000    0.000    6.222 
#    0.000    6.667    0.000    0.000    0.000    0.000 
#    0.000    0.000    0.000    0.000    0.000    0.000 
#
# Total GULP energy -223122.975106 kJ/mol
# GULP energy per Si atom -12395.720839 kJ/mol
# Density = 2.251513 g / cm^3
# Si number density = 22.566496 Si / 1000 Ang^3
#
#
#
# Elastic Constant Matrix: (Units=GPa)
#
#
# Indices 1 2 3 4 5 6 
#
# 1 78.6457 35.7039 30.9078 -0.0051 -4.9888 0.0018
# 2 35.7039 98.8980 58.5492 -0.0034 -3.8029 -0.0016
# 3 30.9078 58.5492 95.2116 -0.0235 -18.1822 0.0016
# 4 -0.0051 -0.0034 -0.0235 30.7495 0.0055 -1.7066
# 5 -4.9888 -3.8029 -18.1822 0.0055 36.4105 0.0032
# 6 0.0018 -0.0016 0.0016 -1.7066 0.0032 22.9353
#
#
#
# Elastic Compliance Matrix: (Units=1/GPa)
#
#
# Indices 1 2 3 4 5 6 
#
# 1 0.015590 -0.004198 -0.002382 0.000000 0.000508 -0.000001
# 2 -0.004198 0.017460 -0.010098 -0.000006 -0.003794 0.000002
# 3 -0.002382 -0.010098 0.019038 0.000011 0.008126 -0.000002
# 4 0.000000 -0.000006 0.000011 0.032656 0.000000 0.002430
# 5 0.000508 -0.003794 0.008126 0.000000 0.031196 -0.000005
# 6 -0.000001 0.000002 -0.000002 0.002430 -0.000005 0.043782
#
#
# Mechanical properties :
#
#
# Convention : Reuss Voigt Hill
#
# Bulk Modulus (GPa) = 53.39137 58.11968 55.75552
# Shear Modulus (GPa) = 25.08526 27.85869 26.47197
#
# Velocity S-wave (km/s) = 3.33771 3.51738 3.42872
# Velocity P-wave (km/s) = 6.21004 6.50436 6.35891
#
# Compressibility (1/GPa) = 0.01872962
#
# Stress axis : x y z
#
# Youngs Moduli (GPa) = 64.14531 57.27527 52.52745
#
# Poissons Ratio (x) = 0.24047 0.12512
# Poissons Ratio (y) = 0.26931 0.53043
# Poissons Ratio (z) = 0.15279 0.57838
#
# Static dielectric constant tensor:
#      x y z
#    x 4.226510 0.000020 -0.444310 
#    y 0.000020 3.965420 -0.000040 
#    z -0.444310 -0.000040 4.312290 
# 
# 
# High freq. dielectric constant tensor:
#      x y z
#    x 1.887670 0.000000 -0.008160 
#    y 0.000000 1.882370 0.000000 
#    z -0.008160 0.000000 1.881240 
# 
# From -- ./inp_files/22565.got.cif
#   From: 2010.06.25/outbox.cif.g09.slc.cpg/sg15_12_cif.got.tgz:22565.got - 2010.06.28 07:06:18.
