data_PCOD8137320
_publ_section_title
;
Structure prediction by ZEFSAII (Michael W. Deem and Ramdas Pophale) SiO2 
 PCOD8137320
Probable space group: C 2/C
;
_chemical_formula_sum "Si O2"
_cell_formula_units_Z 52
_cell_length_a 30.558237
_cell_length_b 20.945001
_cell_length_c 8.787803
_cell_angle_alpha 90.000000
_cell_angle_beta 27.853273
_cell_angle_gamma 90.000000
_cell_volume 2627.847216
_symmetry_space_group_name_H-M "C 2/C"
_symmetry_group_IT_number 15
_symmetry_cell_setting 'monoclinic'
loop_
_space_group_symop_operation_xyz
x,y,z
-x,y,1/2-z
-x,-y,-z
x,-y,1/2+z
1/2+x,1/2+y,z
1/2-x,1/2+y,1/2-z
1/2-x,1/2-y,-z
1/2+x,1/2-y,1/2+z
loop_
_atom_site_type_symbol
_atom_site_label
_atom_site_fract_x
_atom_site_fract_y
_atom_site_fract_z
Si Si1 0.000000 0.710128 0.750000
Si Si2 0.296818 0.816296 0.802352
Si Si3 0.500000 0.388476 0.250000
Si Si4 0.500000 0.590402 0.250000
Si Si5 0.805895 0.937111 0.237075
Si Si6 0.460182 0.311868 0.105721
Si Si7 0.238583 0.191828 0.148720
Si Si8 0.699765 0.433987 0.603942
O O1 0.098247 0.671775 0.450854
O O2 0.991819 0.751783 0.621460
O O3 0.304883 0.812735 0.593581
O O4 0.250000 0.750000 0.000000
O O5 0.233904 0.874641 0.055979
O O6 0.528715 0.342181 0.021119
O O7 0.408862 0.431787 0.507099
O O8 0.418734 0.552457 0.410933
O O9 0.437829 0.633498 0.552786
O O10 0.758321 0.000303 0.456012
O O11 0.784470 0.933530 0.124699
O O12 0.364667 0.293597 0.477027
O O13 0.253358 0.126127 0.011321
O O14 0.250000 0.250000 0.000000
#
# Coordination Sequence:
#
# PCOD8137320 Si02
#       8
#     4   8   4   4   8   8   8   8
#     4  11  24  38  65  94 125 167 212 258 328 353
#     4  12  23  42  65  94 126 166 210 264 311 375
#     4  10  21  34  57  94 133 162 211 242 317 388
#     4  11  19  36  60  88 128 173 195 254 307 383
#     4  12  24  40  62  88 134 163 220 252 318 380
#     4  10  20  36  56  92 127 165 201 253 309 375
#     4  11  23  39  63  92 129 165 210 255 317 374
#     4  11  25  38  61  92 125 176 203 266 314 380
#
# _framework density 19.788060999999999
#
# number of rings (size 3 to 8) (size 9 to 14) (size 15 to 20)
#    0.000    0.923    4.615    3.231    6.462    1.231 
#    0.000    0.000    0.000    3.692    0.000    0.000 
#    0.000    0.000    0.000    0.000    0.000    0.000 
#
# Total GULP energy -322154.925566 kJ/mol
# GULP energy per Si atom -12390.574060 kJ/mol
# Density = 1.974302 g / cm^3
# Si number density = 19.788061 Si / 1000 Ang^3
#
#
#
# Elastic Constant Matrix: (Units=GPa)
#
#
# Indices 1 2 3 4 5 6 
#
# 1 135.5531 58.7952 35.4646 0.0000 20.4014 0.0000
# 2 58.7952 142.1863 38.5053 0.0000 13.1023 0.0000
# 3 35.4646 38.5053 71.5043 0.0000 4.7519 0.0000
# 4 0.0000 0.0000 0.0000 -19.5846 0.0000 18.6238
# 5 20.4014 13.1023 4.7519 0.0000 43.0260 0.0000
# 6 0.0000 0.0000 0.0000 18.6238 0.0000 14.7348
#
#
#
# Elastic Compliance Matrix: (Units=1/GPa)
#
#
# Indices 1 2 3 4 5 6 
#
# 1 0.010011 -0.002969 -0.003134 0.000000 -0.003497 0.000000
# 2 -0.002969 0.009294 -0.003464 0.000000 -0.001040 0.000000
# 3 -0.003134 -0.003464 0.017363 0.000000 0.000623 0.000000
# 4 0.000000 0.000000 0.000000 -0.023189 0.000000 0.029309
# 5 -0.003497 -0.001040 0.000623 0.000000 0.025148 0.000000
# 6 0.000000 0.000000 0.000000 0.029309 0.000000 0.030821
#
#
# Mechanical properties :
#
#
# Convention : Reuss Voigt Hill
#
# Bulk Modulus (GPa) = 57.02572 68.30822 62.66697
# Shear Modulus (GPa) = 52.95073 22.06715 37.50894
#
# Velocity S-wave (km/s) = 5.17852 3.34305 4.35850
# Velocity P-wave (km/s) = 8.03970 7.03535 7.55424
#
# Compressibility (1/GPa) = 0.01753595
#
# Stress axis : x y z
#
# Youngs Moduli (GPa) = 99.88899 107.59162 57.59230
#
# Poissons Ratio (x) = 0.31940 0.18051
# Poissons Ratio (y) = 0.29654 0.19947
# Poissons Ratio (z) = 0.31308 0.37265
#
# Static dielectric constant tensor:
#      x y z
#    x 4.169880 0.000000 0.286010 
#    y 0.000000 3.596240 0.000000 
#    z 0.286010 0.000000 3.289090 
# 
# 
# High freq. dielectric constant tensor:
#      x y z
#    x 1.784400 0.000000 0.024380 
#    y 0.000000 1.764740 0.000000 
#    z 0.024380 0.000000 1.746480 
# 
# From -- ./inp_files/49253.got.cif
#   From: 2010.06.25/outbox.cif.g09.slc.cpg/sg15_25_cif.got.tgz:49253.got - 2010.06.28 07:06:18.
