data_PCOD8137444
_publ_section_title
;
Structure prediction by ZEFSAII (Michael W. Deem and Ramdas Pophale) SiO2 
 PCOD8137444
Probable space group: C 2/C
;
_chemical_formula_sum "Si O2"
_cell_formula_units_Z 44
_cell_length_a 17.631569
_cell_length_b 15.407444
_cell_length_c 9.052549
_cell_angle_alpha 90.000000
_cell_angle_beta 124.982526
_cell_angle_gamma 90.000000
_cell_volume 2014.882271
_symmetry_space_group_name_H-M "C 2/C"
_symmetry_group_IT_number 15
_symmetry_cell_setting 'monoclinic'
loop_
_space_group_symop_operation_xyz
x,y,z
-x,y,1/2-z
-x,-y,-z
x,-y,1/2+z
1/2+x,1/2+y,z
1/2-x,1/2+y,1/2-z
1/2-x,1/2-y,-z
1/2+x,1/2-y,1/2+z
loop_
_atom_site_type_symbol
_atom_site_label
_atom_site_fract_x
_atom_site_fract_y
_atom_site_fract_z
Si Si1 0.302776 0.132960 0.483500
Si Si2 0.000000 0.831250 0.250000
Si Si3 0.558636 0.815575 0.609490
Si Si4 0.151944 0.679800 0.659489
Si Si5 0.673525 0.633592 0.092778
Si Si6 0.666412 0.059075 0.421809
O O1 0.365558 0.185718 0.436175
O O2 0.292440 0.187533 0.623444
O O3 0.202477 0.112385 0.295818
O O4 0.351454 0.043226 0.587250
O O5 0.063618 0.772395 0.212217
O O6 0.068397 0.891188 0.426867
O O7 0.457322 0.823606 0.425963
O O8 0.579111 0.896205 0.742913
O O9 0.179107 0.761297 0.586794
O O10 0.179472 0.593185 0.603129
O O11 0.740592 0.581666 0.061268
#
# Coordination Sequence:
#
# PCOD8137444 Si02
#       6
#     8   4   8   8   8   8
#     4  11  24  34  56  92 129 150 190 252 307 346
#     4  10  20  42  66  84 108 158 218 244 276 366
#     4  10  20  36  58  87 118 159 195 230 298 351
#     4  11  20  36  57  89 122 156 200 239 288 359
#     4  10  22  40  61  83 112 162 210 242 291 347
#     4  11  21  37  58  86 121 164 196 235 298 366
#
# _framework density 21.837503999999999
#
# number of rings (size 3 to 8) (size 9 to 14) (size 15 to 20)
#    0.000    1.455    3.636    3.818    2.545    4.364 
#    0.000    0.909    0.000    0.000    0.000    0.000 
#    0.000    0.000    0.000    0.000    0.000    0.000 
#
# Total GULP energy -272666.268347 kJ/mol
# GULP energy per Si atom -12393.921288 kJ/mol
# Density = 2.178780 g / cm^3
# Si number density = 21.837504 Si / 1000 Ang^3
#
#
#
# Elastic Constant Matrix: (Units=GPa)
#
#
# Indices 1 2 3 4 5 6 
#
# 1 56.1140 9.6680 32.5645 0.0000 -8.1693 0.0000
# 2 9.6680 24.3460 -8.0553 0.0000 2.5239 0.0000
# 3 32.5645 -8.0553 167.2837 0.0000 5.3920 0.0000
# 4 0.0000 0.0000 0.0000 11.2585 0.0000 0.7573
# 5 -8.1693 2.5239 5.3920 0.0000 41.5992 0.0000
# 6 0.0000 0.0000 0.0000 0.7573 0.0000 18.1698
#
#
#
# Elastic Compliance Matrix: (Units=1/GPa)
#
#
# Indices 1 2 3 4 5 6 
#
# 1 0.023917 -0.011929 -0.005428 0.000000 0.006124 0.000000
# 2 -0.011929 0.048017 0.004824 0.000000 -0.005881 0.000000
# 3 -0.005428 0.004824 0.007341 0.000000 -0.002310 0.000000
# 4 0.000000 0.000000 0.000000 0.089072 0.000000 -0.003713
# 5 0.006124 -0.005881 -0.002310 0.000000 0.025898 0.000000
# 6 0.000000 0.000000 0.000000 -0.003713 0.000000 0.055191
#
#
# Mechanical properties :
#
#
# Convention : Reuss Voigt Hill
#
# Bulk Modulus (GPa) = 18.44643 35.12201 26.78422
# Shear Modulus (GPa) = 17.08981 28.44326 22.76654
#
# Velocity S-wave (km/s) = 2.80052 3.61293 3.23235
# Velocity P-wave (km/s) = 4.35002 5.78987 5.12080
#
# Compressibility (1/GPa) = 0.05421103
#
# Stress axis : x y z
#
# Youngs Moduli (GPa) = 41.81041 20.82585 136.21734
#
# Poissons Ratio (x) = 0.24842 0.73935
# Poissons Ratio (y) = 0.49874 -0.65709
# Poissons Ratio (z) = 0.22694 -0.10046
#
# Static dielectric constant tensor:
#      x y z
#    x 3.647330 0.000000 0.098840 
#    y 0.000000 3.664640 0.000000 
#    z 0.098840 0.000000 4.446970 
# 
# 
# High freq. dielectric constant tensor:
#      x y z
#    x 1.829320 0.000000 -0.000340 
#    y 0.000000 1.826110 0.000000 
#    z -0.000340 0.000000 1.886970 
# 
# From -- ./inp_files/47547.got.cif
#   From: 2010.06.25/outbox.cif.g09.slc.cpg/sg15_24_cif.got.tgz:47547.got - 2010.06.28 07:06:18.
