data_PCOD8137634
_publ_section_title
;
Structure prediction by ZEFSAII (Michael W. Deem and Ramdas Pophale) SiO2 
 PCOD8137634
Probable space group: C 2/C
;
_chemical_formula_sum "Si O2"
_cell_formula_units_Z 64
_cell_length_a 10.947211
_cell_length_b 16.259627
_cell_length_c 29.218360
_cell_angle_alpha 90.000000
_cell_angle_beta 141.398831
_cell_angle_gamma 90.000000
_cell_volume 3244.754067
_symmetry_space_group_name_H-M "C 2/C"
_symmetry_group_IT_number 15
_symmetry_cell_setting 'monoclinic'
loop_
_space_group_symop_operation_xyz
x,y,z
-x,y,1/2-z
-x,-y,-z
x,-y,1/2+z
1/2+x,1/2+y,z
1/2-x,1/2+y,1/2-z
1/2-x,1/2-y,-z
1/2+x,1/2-y,1/2+z
loop_
_atom_site_type_symbol
_atom_site_label
_atom_site_fract_x
_atom_site_fract_y
_atom_site_fract_z
Si Si1 0.252427 0.558795 0.050555
Si Si2 0.436594 0.549236 0.526949
Si Si3 0.140809 0.534544 0.833719
Si Si4 0.684978 0.927291 0.101310
Si Si5 0.508521 0.704954 0.807398
Si Si6 0.624618 0.867183 0.178438
Si Si7 0.551754 0.713067 0.422795
Si Si8 0.770020 0.356099 0.603724
O O1 0.299102 0.501912 0.020466
O O2 0.270302 0.510458 0.103785
O O3 0.399714 0.635510 0.095736
O O4 0.032641 0.591569 0.980027
O O5 0.500000 0.500000 0.500000
O O6 0.641066 0.570913 0.612510
O O7 0.309408 0.626870 0.471346
O O8 0.151161 0.439242 0.850120
O O9 0.000000 0.545686 0.750000
O O10 0.051673 0.589357 0.847769
O O11 0.814651 0.850980 0.122781
O O12 0.693655 0.931293 0.159096
O O13 0.500000 0.715750 0.750000
O O14 0.307920 0.659181 0.764285
O O15 0.545252 0.793375 0.842170
O O16 0.556037 0.781491 0.137472
O O17 0.750000 0.750000 0.500000
O O18 0.410117 0.682229 0.421213
#
# Coordination Sequence:
#
# PCOD8137634 Si02
#       8
#     8   8   8   8   8   8   8   8
#     4  11  21  36  62  95 123 156 208 263 314 377
#     4  10  20  36  60  93 125 155 208 262 307 367
#     4  11  24  38  65  94 127 165 208 259 322 376
#     4  10  21  37  60  88 124 157 203 254 314 370
#     4  10  20  38  59  89 122 163 213 257 301 378
#     4  11  23  40  65  87 126 167 211 257 316 378
#     4  12  20  35  66  92 121 166 215 256 306 369
#     4  11  20  37  65  91 124 159 223 258 305 373
#
# _framework density 19.724146000000001
#
# number of rings (size 3 to 8) (size 9 to 14) (size 15 to 20)
#    0.000    1.250    6.250    2.625    1.750    0.000 
#    0.000    0.625    8.250    0.000    0.000    0.000 
#    0.000    0.000    0.000    0.000    0.000    0.000 
#
# Total GULP energy -396623.986322 kJ/mol
# GULP energy per Si atom -12394.499573 kJ/mol
# Density = 1.967925 g / cm^3
# Si number density = 19.724146 Si / 1000 Ang^3
#
#
#
# Elastic Constant Matrix: (Units=GPa)
#
#
# Indices 1 2 3 4 5 6 
#
# 1 69.0049 47.0595 28.3984 0.0000 8.7891 0.0000
# 2 47.0595 107.5509 47.8883 0.0000 1.7861 0.0000
# 3 28.3984 47.8883 113.1926 0.0000 6.4580 0.0000
# 4 0.0000 0.0000 0.0000 37.3308 0.0000 6.1984
# 5 8.7891 1.7861 6.4580 0.0000 21.8703 0.0000
# 6 0.0000 0.0000 0.0000 6.1984 0.0000 33.4416
#
#
#
# Elastic Compliance Matrix: (Units=1/GPa)
#
#
# Indices 1 2 3 4 5 6 
#
# 1 0.022144 -0.008975 -0.001315 0.000000 -0.007778 0.000000
# 2 -0.008975 0.015099 -0.004345 0.000000 0.003657 0.000000
# 3 -0.001315 -0.004345 0.011140 0.000000 -0.002406 0.000000
# 4 0.000000 0.000000 0.000000 0.027638 0.000000 -0.005123
# 5 -0.007778 0.003657 -0.002406 0.000000 0.049262 0.000000
# 6 0.000000 0.000000 0.000000 -0.005123 0.000000 0.030852
#
#
# Mechanical properties :
#
#
# Convention : Reuss Voigt Hill
#
# Bulk Modulus (GPa) = 52.31832 59.60453 55.96143
# Shear Modulus (GPa) = 26.07228 29.62201 27.84714
#
# Velocity S-wave (km/s) = 3.63966 3.87953 3.76151
# Velocity P-wave (km/s) = 6.65173 7.09594 6.87742
#
# Compressibility (1/GPa) = 0.01911376
#
# Stress axis : x y z
#
# Youngs Moduli (GPa) = 45.15914 66.23123 89.76782
#
# Poissons Ratio (x) = 0.59439 0.11804
# Poissons Ratio (y) = 0.40528 0.39002
# Poissons Ratio (z) = 0.05938 0.28776
#
# Static dielectric constant tensor:
#      x y z
#    x 3.954950 0.000000 0.558610 
#    y 0.000000 3.893530 0.000000 
#    z 0.558610 0.000000 4.163400 
# 
# 
# High freq. dielectric constant tensor:
#      x y z
#    x 1.753330 0.000000 0.026000 
#    y 0.000000 1.766020 0.000000 
#    z 0.026000 0.000000 1.771250 
# 
# From -- ./inp_files/311216.got.cif
#   From: 2010.06.25/outbox.cif.g09.slc.cpg/sg15_156_cif.got.tgz:311216.got - 2010.06.28 07:06:18.
