data_PCOD8137570
_publ_section_title
;
Structure prediction by ZEFSAII (Michael W. Deem and Ramdas Pophale) SiO2 
 PCOD8137570
Probable space group: C 2/C
;
_chemical_formula_sum "Si O2"
_cell_formula_units_Z 52
_cell_length_a 10.411575
_cell_length_b 27.028975
_cell_length_c 11.123315
_cell_angle_alpha 90.000000
_cell_angle_beta 54.243267
_cell_angle_gamma 90.000000
_cell_volume 2540.221664
_symmetry_space_group_name_H-M "C 2/C"
_symmetry_group_IT_number 15
_symmetry_cell_setting 'monoclinic'
loop_
_space_group_symop_operation_xyz
x,y,z
-x,y,1/2-z
-x,-y,-z
x,-y,1/2+z
1/2+x,1/2+y,z
1/2-x,1/2+y,1/2-z
1/2-x,1/2-y,-z
1/2+x,1/2-y,1/2+z
loop_
_atom_site_type_symbol
_atom_site_label
_atom_site_fract_x
_atom_site_fract_y
_atom_site_fract_z
Si Si1 0.414172 0.278507 0.677320
Si Si2 0.624332 0.610115 0.331533
Si Si3 0.285133 0.964668 0.167683
Si Si4 0.563299 0.384356 0.342419
Si Si5 0.000000 0.027646 0.250000
Si Si6 0.415689 0.727749 0.667352
Si Si7 0.442563 0.939784 0.653624
O O1 0.500000 0.254968 0.750000
O O2 0.422706 0.337177 0.696822
O O3 0.483141 0.262562 0.509373
O O4 0.233935 0.262172 0.768991
O O5 0.593700 0.612862 0.490543
O O6 0.506460 0.565508 0.358531
O O7 0.802974 0.597879 0.193456
O O8 0.200845 0.924065 0.299673
O O9 0.376510 0.004225 0.200230
O O10 0.412487 0.935703 0.017347
O O11 0.157148 0.993938 0.155022
O O12 0.500000 0.401306 0.250000
O O13 0.637362 0.329548 0.300535
O O14 0.500000 0.741044 0.750000
O O15 0.500000 0.921507 0.750000
#
# Coordination Sequence:
#
# PCOD8137570 Si02
#       7
#     8   8   8   8   4   8   8
#     4  11  22  42  65  95 125 166 206 265 309 378
#     4  10  22  37  61  83 117 155 203 240 300 359
#     4  10  21  35  55  81 114 152 197 241 299 340
#     4  10  20  37  58  86 112 156 203 245 290 367
#     4  10  20  36  60  84 108 160 202 238 290 358
#     4  10  23  40  64  94 127 162 211 254 319 372
#     4  10  22  35  50  83 117 149 193 247 294 354
#
# _framework density 20.470655000000001
#
# number of rings (size 3 to 8) (size 9 to 14) (size 15 to 20)
#    0.000    1.846    1.538    1.846    2.154    3.077 
#    0.000    0.769    0.000    0.000    0.000    0.000 
#    0.000    0.000    0.000    0.000    0.000    0.000 
#
# Total GULP energy -322137.931577 kJ/mol
# GULP energy per Si atom -12389.920445 kJ/mol
# Density = 2.042406 g / cm^3
# Si number density = 20.470655 Si / 1000 Ang^3
#
#
#
# Elastic Constant Matrix: (Units=GPa)
#
#
# Indices 1 2 3 4 5 6 
#
# 1 103.9981 19.5102 49.7685 0.0000 3.7521 0.0000
# 2 19.5102 53.9142 37.9084 0.0000 -6.1249 0.0000
# 3 49.7685 37.9084 123.2926 0.0000 -9.0316 0.0000
# 4 0.0000 0.0000 0.0000 28.0529 0.0000 -5.4911
# 5 3.7521 -6.1249 -9.0316 0.0000 36.2939 0.0000
# 6 0.0000 0.0000 0.0000 -5.4911 0.0000 21.6529
#
#
#
# Elastic Compliance Matrix: (Units=1/GPa)
#
#
# Indices 1 2 3 4 5 6 
#
# 1 0.012225 -0.001429 -0.004691 0.000000 -0.002672 0.000000
# 2 -0.001429 0.024008 -0.006618 0.000000 0.002553 0.000000
# 3 -0.004691 -0.006618 0.012216 0.000000 0.002408 0.000000
# 4 0.000000 0.000000 0.000000 0.037509 0.000000 0.009512
# 5 -0.002672 0.002553 0.002408 0.000000 0.028859 0.000000
# 6 0.000000 0.000000 0.000000 0.009512 0.000000 0.048595
#
#
# Mechanical properties :
#
#
# Convention : Reuss Voigt Hill
#
# Bulk Modulus (GPa) = 43.52994 55.06433 49.29713
# Shear Modulus (GPa) = 25.43932 28.80113 27.12023
#
# Velocity S-wave (km/s) = 3.52905 3.75500 3.64378
# Velocity P-wave (km/s) = 6.15762 6.76443 6.46815
#
# Compressibility (1/GPa) = 0.02297270
#
# Stress axis : x y z
#
# Youngs Moduli (GPa) = 81.79939 41.65217 81.86249
#
# Poissons Ratio (x) = 0.05952 0.38403
# Poissons Ratio (y) = 0.11690 0.54176
# Poissons Ratio (z) = 0.38373 0.27565
#
# Static dielectric constant tensor:
#      x y z
#    x 3.740790 0.000000 0.045550 
#    y 0.000000 3.715510 0.000000 
#    z 0.045550 0.000000 3.825560 
# 
# 
# High freq. dielectric constant tensor:
#      x y z
#    x 1.793080 0.000000 -0.002030 
#    y 0.000000 1.799350 0.000000 
#    z -0.002030 0.000000 1.798740 
# 
# From -- ./inp_files/92556.got.cif
#   From: 2010.06.25/outbox.cif.g09.slc.cpg/sg15_47_cif.got.tgz:92556.got - 2010.06.28 07:06:18.
