data_PCOD8137669
_publ_section_title
;
Structure prediction by ZEFSAII (Michael W. Deem and Ramdas Pophale) SiO2 
 PCOD8137669
Probable space group: C 2/C
;
_chemical_formula_sum "Si O2"
_cell_formula_units_Z 48
_cell_length_a 16.620438
_cell_length_b 30.128159
_cell_length_c 9.376041
_cell_angle_alpha 90.000000
_cell_angle_beta 32.182767
_cell_angle_gamma 90.000000
_cell_volume 2500.653085
_symmetry_space_group_name_H-M "C 2/C"
_symmetry_group_IT_number 15
_symmetry_cell_setting 'monoclinic'
loop_
_space_group_symop_operation_xyz
x,y,z
-x,y,1/2-z
-x,-y,-z
x,-y,1/2+z
1/2+x,1/2+y,z
1/2-x,1/2+y,1/2-z
1/2-x,1/2-y,-z
1/2+x,1/2-y,1/2+z
loop_
_atom_site_type_symbol
_atom_site_label
_atom_site_fract_x
_atom_site_fract_y
_atom_site_fract_z
Si Si1 0.608268 0.716808 0.458253
Si Si2 0.077053 0.962807 0.787085
Si Si3 0.081358 0.465372 0.279045
Si Si4 0.950989 0.281024 0.485160
Si Si5 0.453648 0.122284 0.980339
Si Si6 0.612035 0.613999 0.453380
O O1 0.774649 0.731399 0.257415
O O2 0.555342 0.745101 0.403478
O O3 0.598349 0.665294 0.427805
O O4 0.500000 0.728281 0.750000
O O5 0.246369 0.978746 0.500819
O O6 0.072022 0.915950 0.876764
O O7 0.000000 0.957057 0.750000
O O8 0.000000 0.000000 0.000000
O O9 0.000000 0.463529 0.250000
O O10 0.000000 0.500000 0.500000
O O11 0.062493 0.416311 0.380376
O O12 0.973672 0.329758 0.526322
O O13 0.000000 0.281896 0.250000
O O14 0.282016 0.104416 0.250271
O O15 0.500000 0.131597 0.750000
O O16 0.500000 0.601691 0.750000
#
# Coordination Sequence:
#
# PCOD8137669 Si02
#       6
#     8   8   8   8   8   8
#     4  10  21  38  60  87 120 157 195 240 296 348
#     4  12  25  40  61  92 120 150 193 249 293 344
#     4  11  22  41  63  84 116 156 194 236 290 353
#     4  10  20  36  61  88 115 155 200 241 290 348
#     4   9  18  38  62  80 114 161 198 230 294 352
#     4  10  21  39  62  85 118 163 196 233 295 356
#
# _framework density 19.194984999999999
#
# number of rings (size 3 to 8) (size 9 to 14) (size 15 to 20)
#    0.000    1.667    3.333    2.500    2.333    0.667 
#    3.000    0.833    0.000    0.000    0.000    0.000 
#    0.000    0.000    0.000    0.000    0.000    0.000 
#
# Total GULP energy -297529.837421 kJ/mol
# GULP energy per Si atom -12397.076559 kJ/mol
# Density = 1.915130 g / cm^3
# Si number density = 19.194985 Si / 1000 Ang^3
#
#
#
# Elastic Constant Matrix: (Units=GPa)
#
#
# Indices 1 2 3 4 5 6 
#
# 1 66.0382 43.9664 27.2193 0.0000 -3.3402 0.0000
# 2 43.9664 120.4470 36.1858 0.0000 1.5347 0.0000
# 3 27.2193 36.1858 133.4981 0.0000 -21.3003 0.0000
# 4 0.0000 0.0000 0.0000 36.7721 0.0000 3.1203
# 5 -3.3402 1.5347 -21.3003 0.0000 30.5001 0.0000
# 6 0.0000 0.0000 0.0000 3.1203 0.0000 1.4472
#
#
#
# Elastic Compliance Matrix: (Units=1/GPa)
#
#
# Indices 1 2 3 4 5 6 
#
# 1 0.020698 -0.006918 -0.002170 0.000000 0.001100 0.000000
# 2 -0.006918 0.011514 -0.002165 0.000000 -0.002849 0.000000
# 3 -0.002170 -0.002165 0.009565 0.000000 0.006551 0.000000
# 4 0.000000 0.000000 0.000000 0.033284 0.000000 -0.071764
# 5 0.001100 -0.002849 0.006551 0.000000 0.037626 0.000000
# 6 0.000000 0.000000 0.000000 -0.071764 0.000000 0.845731
#
#
# Mechanical properties :
#
#
# Convention : Reuss Voigt Hill
#
# Bulk Modulus (GPa) = 51.88628 59.41403 55.65016
# Shear Modulus (GPa) = 5.06407 27.91799 16.49103
#
# Velocity S-wave (km/s) = 1.62602 3.81785 2.93428
# Velocity P-wave (km/s) = 5.53309 7.10315 6.36671
#
# Compressibility (1/GPa) = 0.01927292
#
# Stress axis : x y z
#
# Youngs Moduli (GPa) = 48.31341 86.84864 104.54416
#
# Poissons Ratio (x) = 0.60078 0.22683
# Poissons Ratio (y) = 0.33421 0.22636
# Poissons Ratio (z) = 0.10483 0.18804
#
# Static dielectric constant tensor:
#      x y z
#    x 3.241470 0.000000 -0.242740 
#    y 0.000000 4.057400 0.000000 
#    z -0.242740 0.000000 3.881580 
# 
# 
# High freq. dielectric constant tensor:
#      x y z
#    x 1.709640 0.000000 -0.013480 
#    y 0.000000 1.763300 0.000000 
#    z -0.013480 0.000000 1.772500 
# 
# From -- ./inp_files/52732.got.cif
#   From: 2010.06.25/outbox.cif.g09.slc.cpg/sg15_27_cif.got.tgz:52732.got - 2010.06.28 07:06:18.
