data_PCOD8137664
_publ_section_title
;
Structure prediction by ZEFSAII (Michael W. Deem and Ramdas Pophale) SiO2 
 PCOD8137664
Probable space group: C 2/C
;
_chemical_formula_sum "Si O2"
_cell_formula_units_Z 48
_cell_length_a 17.996820
_cell_length_b 10.581802
_cell_length_c 12.905073
_cell_angle_alpha 90.000000
_cell_angle_beta 91.624330
_cell_angle_gamma 90.000000
_cell_volume 2456.638881
_symmetry_space_group_name_H-M "C 2/C"
_symmetry_group_IT_number 15
_symmetry_cell_setting 'monoclinic'
loop_
_space_group_symop_operation_xyz
x,y,z
-x,y,1/2-z
-x,-y,-z
x,-y,1/2+z
1/2+x,1/2+y,z
1/2-x,1/2+y,1/2-z
1/2-x,1/2-y,-z
1/2+x,1/2-y,1/2+z
loop_
_atom_site_type_symbol
_atom_site_label
_atom_site_fract_x
_atom_site_fract_y
_atom_site_fract_z
Si Si1 0.667403 0.099571 0.048297
Si Si2 0.175403 0.829242 0.897811
Si Si3 0.562822 0.105040 0.524233
Si Si4 0.423160 0.473396 0.445258
Si Si5 0.469687 0.224619 0.359477
Si Si6 0.423760 0.698503 0.302044
O O1 0.743451 0.108437 0.116756
O O2 0.597844 0.130195 0.119231
O O3 0.644826 0.957742 0.007547
O O4 0.676893 0.193045 0.952178
O O5 0.140091 0.797804 0.786167
O O6 0.132528 0.930330 0.966728
O O7 0.539633 0.215149 0.442387
O O8 0.562708 0.167378 0.639474
O O9 0.500000 0.000000 0.500000
O O10 0.500000 0.500000 0.500000
O O11 0.434848 0.364063 0.360581
O O12 0.394530 0.596578 0.384342
O O13 0.500000 0.187530 0.250000
O O14 0.500000 0.655582 0.250000
#
# Coordination Sequence:
#
# PCOD8137664 Si02
#       6
#     8   8   8   8   8   8
#     4   9  21  43  59  84 122 157 195 245 301 358
#     4  10  22  42  62  83 121 166 197 241 303 363
#     4  10  21  37  58  90 118 146 199 249 295 353
#     4  11  20  37  59  87 119 154 204 248 287 349
#     4  10  20  36  61  87 117 151 198 249 297 347
#     4  12  21  36  65  89 117 160 205 244 301 361
#
# _framework density 19.538892000000001
#
# number of rings (size 3 to 8) (size 9 to 14) (size 15 to 20)
#    0.000    1.667    3.333    2.500    0.000    5.333 
#   12.000    0.833    0.000    0.000    0.000    0.000 
#    0.000    0.000    0.000    0.000    0.000    0.000 
#
# Total GULP energy -297405.453110 kJ/mol
# GULP energy per Si atom -12391.893880 kJ/mol
# Density = 1.949442 g / cm^3
# Si number density = 19.538892 Si / 1000 Ang^3
#
#
#
# Elastic Constant Matrix: (Units=GPa)
#
#
# Indices 1 2 3 4 5 6 
#
# 1 138.4744 34.7263 60.3047 0.0000 17.3652 0.0000
# 2 34.7263 85.7124 34.4640 0.0000 5.9756 0.0000
# 3 60.3047 34.4640 117.9770 0.0000 17.7247 0.0000
# 4 0.0000 0.0000 0.0000 25.7561 0.0000 4.1617
# 5 17.3652 5.9756 17.7247 0.0000 34.1034 0.0000
# 6 0.0000 0.0000 0.0000 4.1617 0.0000 28.4991
#
#
#
# Elastic Compliance Matrix: (Units=1/GPa)
#
#
# Indices 1 2 3 4 5 6 
#
# 1 0.009835 -0.002198 -0.004003 0.000000 -0.002542 0.000000
# 2 -0.002198 0.013714 -0.002918 0.000000 0.000233 0.000000
# 3 -0.004003 -0.002918 0.011923 0.000000 -0.003647 0.000000
# 4 0.000000 0.000000 0.000000 0.039764 0.000000 -0.005807
# 5 -0.002542 0.000233 -0.003647 0.000000 0.032472 0.000000
# 6 0.000000 0.000000 0.000000 -0.005807 0.000000 0.035937
#
#
# Mechanical properties :
#
#
# Convention : Reuss Voigt Hill
#
# Bulk Modulus (GPa) = 58.02341 66.79487 62.40914
# Shear Modulus (GPa) = 29.82813 31.84963 30.83888
#
# Velocity S-wave (km/s) = 3.91142 4.04178 3.97713
# Velocity P-wave (km/s) = 7.08235 7.48607 7.28701
#
# Compressibility (1/GPa) = 0.01723442
#
# Stress axis : x y z
#
# Youngs Moduli (GPa) = 101.67917 72.91635 83.87291
#
# Poissons Ratio (x) = 0.16025 0.33576
# Poissons Ratio (y) = 0.22346 0.24473
# Poissons Ratio (z) = 0.40704 0.21276
#
# Static dielectric constant tensor:
#      x y z
#    x 4.964540 0.000000 2.042100 
#    y 0.000000 5.723080 0.000000 
#    z 2.042100 0.000000 5.714670 
# 
# 
# High freq. dielectric constant tensor:
#      x y z
#    x 1.751570 0.000000 0.015970 
#    y 0.000000 1.767320 0.000000 
#    z 0.015970 0.000000 1.748480 
# 
# From -- ./inp_files/103669.got.cif
#   From: 2010.06.25/outbox.cif.g09.slc.cpg/sg15_52_cif.got.tgz:103669.got - 2010.06.28 07:06:18.
