data_PCOD8137790
_publ_section_title
;
Structure prediction by ZEFSAII (Michael W. Deem and Ramdas Pophale) SiO2 
 PCOD8137790
Probable space group: C 2/C
;
_chemical_formula_sum "Si O2"
_cell_formula_units_Z 40
_cell_length_a 10.705834
_cell_length_b 29.707393
_cell_length_c 10.779113
_cell_angle_alpha 90.000000
_cell_angle_beta 29.602176
_cell_angle_gamma 90.000000
_cell_volume 1693.452202
_symmetry_space_group_name_H-M "C 2/C"
_symmetry_group_IT_number 15
_symmetry_cell_setting 'monoclinic'
loop_
_space_group_symop_operation_xyz
x,y,z
-x,y,1/2-z
-x,-y,-z
x,-y,1/2+z
1/2+x,1/2+y,z
1/2-x,1/2+y,1/2-z
1/2-x,1/2-y,-z
1/2+x,1/2-y,1/2+z
loop_
_atom_site_type_symbol
_atom_site_label
_atom_site_fract_x
_atom_site_fract_y
_atom_site_fract_z
Si Si1 0.000000 0.613099 0.750000
Si Si2 0.774186 0.063307 0.308216
Si Si3 0.355553 0.910311 0.985184
Si Si4 0.500000 0.485099 0.250000
Si Si5 0.070940 0.775618 0.829469
Si Si6 0.893079 0.137646 0.592342
O O1 0.209584 0.582247 0.501268
O O2 0.138798 0.645702 0.729482
O O3 0.517492 0.064154 0.450810
O O4 0.900489 0.014302 0.219213
O O5 0.980327 0.092025 0.059875
O O6 0.500000 0.883821 0.750000
O O7 0.179499 0.871982 0.201481
O O8 0.221028 0.950183 0.022112
O O9 0.353316 0.754973 0.582728
O O10 0.000000 0.788640 0.750000
O O11 0.080332 0.820397 0.907347
#
# Coordination Sequence:
#
# PCOD8137790 Si02
#       6
#     4   8   8   4   8   8
#     4  10  20  36  62  95 124 178 211 272 340 426
#     4  11  23  41  67  93 131 177 223 286 345 413
#     4  11  27  42  65  91 132 187 232 287 333 409
#     4  12  24  44  62 101 130 170 241 288 346 398
#     4  10  23  39  69 108 144 176 221 290 356 432
#     4  11  23  42  65  95 137 178 223 274 356 416
#
# _framework density 23.620388999999999
#
# number of rings (size 3 to 8) (size 9 to 14) (size 15 to 20)
#    0.000    1.200    2.000    3.000   11.200    3.200 
#    0.000    0.000    0.000    1.200    0.000    0.000 
#    0.000    0.000    0.000    0.000    0.000    0.000 
#
# Total GULP energy -247842.026650 kJ/mol
# GULP energy per Si atom -12392.101332 kJ/mol
# Density = 2.356663 g / cm^3
# Si number density = 23.620389 Si / 1000 Ang^3
#
#
#
# Elastic Constant Matrix: (Units=GPa)
#
#
# Indices 1 2 3 4 5 6 
#
# 1 47.4964 22.9672 29.1062 0.0000 11.7484 0.0000
# 2 22.9672 98.2588 53.5826 0.0000 21.0249 0.0000
# 3 29.1062 53.5826 164.0258 0.0000 35.8555 0.0000
# 4 0.0000 0.0000 0.0000 20.6205 0.0000 -4.7448
# 5 11.7484 21.0249 35.8555 0.0000 44.0850 0.0000
# 6 0.0000 0.0000 0.0000 -4.7448 0.0000 6.1075
#
#
#
# Elastic Compliance Matrix: (Units=1/GPa)
#
#
# Indices 1 2 3 4 5 6 
#
# 1 0.025208 -0.003884 -0.002604 0.000000 -0.002748 0.000000
# 2 -0.003884 0.013360 -0.003051 0.000000 -0.002855 0.000000
# 3 -0.002604 -0.003051 0.008618 0.000000 -0.004860 0.000000
# 4 0.000000 0.000000 0.000000 0.059052 0.000000 0.045877
# 5 -0.002748 -0.002855 -0.004860 0.000000 0.028730 0.000000
# 6 0.000000 0.000000 0.000000 0.045877 0.000000 0.199375
#
#
# Mechanical properties :
#
#
# Convention : Reuss Voigt Hill
#
# Bulk Modulus (GPa) = 35.57780 57.89921 46.73850
# Shear Modulus (GPa) = 13.78211 27.77093 20.77652
#
# Velocity S-wave (km/s) = 2.41816 3.43260 2.96902
# Velocity P-wave (km/s) = 4.78453 6.34633 5.61995
#
# Compressibility (1/GPa) = 0.02810742
#
# Stress axis : x y z
#
# Youngs Moduli (GPa) = 39.67055 74.85177 116.04108
#
# Poissons Ratio (x) = 0.29075 0.30212
# Poissons Ratio (y) = 0.15410 0.35403
# Poissons Ratio (z) = 0.10328 0.22836
#
# Static dielectric constant tensor:
#      x y z
#    x 4.400910 0.000000 -0.176450 
#    y 0.000000 3.907780 0.000000 
#    z -0.176450 0.000000 4.502610 
# 
# 
# High freq. dielectric constant tensor:
#      x y z
#    x 1.918640 0.000000 -0.006390 
#    y 0.000000 1.900390 0.000000 
#    z -0.006390 0.000000 1.958660 
# 
# From -- ./inp_files/92515.got.cif
#   From: 2010.06.25/outbox.cif.g09.slc.cpg/sg15_47_cif.got.tgz:92515.got - 2010.06.28 07:06:18.
