data_PCOD8137645
_publ_section_title
;
Structure prediction by ZEFSAII (Michael W. Deem and Ramdas Pophale) SiO2 
 PCOD8137645
Probable space group: C 2/C
;
_chemical_formula_sum "Si O2"
_cell_formula_units_Z 60
_cell_length_a 10.620142
_cell_length_b 27.634000
_cell_length_c 17.259859
_cell_angle_alpha 90.000000
_cell_angle_beta 147.075558
_cell_angle_gamma 90.000000
_cell_volume 2753.194538
_symmetry_space_group_name_H-M "C 2/C"
_symmetry_group_IT_number 15
_symmetry_cell_setting 'monoclinic'
loop_
_space_group_symop_operation_xyz
x,y,z
-x,y,1/2-z
-x,-y,-z
x,-y,1/2+z
1/2+x,1/2+y,z
1/2-x,1/2+y,1/2-z
1/2-x,1/2-y,-z
1/2+x,1/2-y,1/2+z
loop_
_atom_site_type_symbol
_atom_site_label
_atom_site_fract_x
_atom_site_fract_y
_atom_site_fract_z
Si Si1 0.114525 0.139615 0.572220
Si Si2 0.961110 0.330034 0.953591
Si Si3 0.941165 0.958166 0.129648
Si Si4 0.758139 0.760324 0.415028
Si Si5 0.624495 0.105716 0.664216
Si Si6 0.500000 0.378762 0.750000
Si Si7 0.142947 0.935838 0.957443
Si Si8 0.857122 0.380221 0.597740
O O1 0.138829 0.185711 0.530785
O O2 0.344208 0.141029 0.745787
O O3 0.109879 0.088861 0.523304
O O4 0.879449 0.145741 0.499907
O O5 0.947218 0.272537 0.964153
O O6 0.721232 0.345149 0.869760
O O7 0.996966 0.342624 0.881243
O O8 0.150667 0.360975 0.100755
O O9 0.000000 0.968180 0.250000
O O10 0.162456 0.930446 0.212231
O O11 0.707924 0.927201 0.989265
O O12 0.908220 0.007467 0.064644
O O13 0.500000 0.755052 0.250000
O O14 0.750000 0.750000 0.500000
O O15 0.394297 0.073764 0.549289
O O16 0.541159 0.411860 0.695778
O O17 0.000000 0.393904 0.750000
#
# Coordination Sequence:
#
# PCOD8137645 Si02
#       8
#     8   8   8   8   8   4   8   8
#     4  11  25  44  64  99 144 173 230 287 349 406
#     4  11  22  42  70  97 134 181 230 280 344 410
#     4  11  23  44  67 102 137 186 233 282 354 423
#     4  12  25  43  73 104 133 176 232 288 349 410
#     4  10  23  42  67  96 137 179 221 291 342 404
#     4  10  20  36  60  98 130 162 220 290 322 384
#     4  11  22  38  67  96 135 178 231 282 340 408
#     4  11  26  43  69  96 141 184 225 287 344 414
#
# _framework density 21.792866
#
# number of rings (size 3 to 8) (size 9 to 14) (size 15 to 20)
#    0.000    1.067    2.667    4.400    1.867    6.400 
#    0.000    0.000    0.000    0.000    0.000    0.000 
#    0.000    0.000    0.000    0.000    0.000    0.000 
#
# Total GULP energy -371806.809575 kJ/mol
# GULP energy per Si atom -12393.560319 kJ/mol
# Density = 2.174326 g / cm^3
# Si number density = 21.792866 Si / 1000 Ang^3
#
#
#
# Elastic Constant Matrix: (Units=GPa)
#
#
# Indices 1 2 3 4 5 6 
#
# 1 94.4336 44.5519 27.8421 0.0002 -19.8334 0.0002
# 2 44.5519 133.2677 40.7320 0.0000 -6.5866 0.0000
# 3 27.8421 40.7320 109.9126 0.0001 -22.3123 0.0000
# 4 0.0002 0.0000 0.0001 29.4765 0.0002 -4.4926
# 5 -19.8334 -6.5866 -22.3123 0.0002 37.7299 0.0001
# 6 0.0002 0.0000 0.0000 -4.4926 0.0001 32.7292
#
#
#
# Elastic Compliance Matrix: (Units=1/GPa)
#
#
# Indices 1 2 3 4 5 6 
#
# 1 0.014089 -0.004170 -0.000759 0.000000 0.006229 0.000000
# 2 -0.004170 0.009703 -0.003001 0.000000 -0.002273 0.000000
# 3 -0.000759 -0.003001 0.011609 0.000000 0.005942 0.000000
# 4 0.000000 0.000000 0.000000 0.034650 0.000000 0.004756
# 5 0.006229 -0.002273 0.005942 0.000000 0.032896 0.000000
# 6 0.000000 0.000000 0.000000 0.004756 0.000000 0.031207
#
#
# Mechanical properties :
#
#
# Convention : Reuss Voigt Hill
#
# Bulk Modulus (GPa) = 51.17541 62.65176 56.91359
# Shear Modulus (GPa) = 31.94355 34.95297 33.44826
#
# Velocity S-wave (km/s) = 3.83270 4.00918 3.92194
# Velocity P-wave (km/s) = 6.56657 7.08820 6.83236
#
# Compressibility (1/GPa) = 0.01954063
#
# Stress axis : x y z
#
# Youngs Moduli (GPa) = 70.97785 103.06538 86.14259
#
# Poissons Ratio (x) = 0.42980 0.06538
# Poissons Ratio (y) = 0.29599 0.25849
# Poissons Ratio (z) = 0.05387 0.30926
#
# Static dielectric constant tensor:
#      x y z
#    x 3.760130 0.000000 -0.184770 
#    y 0.000000 4.015610 0.000000 
#    z -0.184770 0.000000 4.228520 
# 
# 
# High freq. dielectric constant tensor:
#      x y z
#    x 1.850760 0.000000 -0.014300 
#    y 0.000000 1.851680 0.000000 
#    z -0.014300 0.000000 1.868740 
# 
# From -- ./inp_files/201274.got.cif
#   From: 2010.06.25/outbox.cif.g09.slc.cpg/sg15_101_cif.got.tgz:201274.got - 2010.06.28 07:06:18.
