data_PCOD8137969
_publ_section_title
;
Structure prediction by ZEFSAII (Michael W. Deem and Ramdas Pophale) SiO2 
 PCOD8137969
Probable space group: C 2/C
;
_chemical_formula_sum "Si O2"
_cell_formula_units_Z 64
_cell_length_a 14.877610
_cell_length_b 14.350220
_cell_length_c 17.693312
_cell_angle_alpha 90.000000
_cell_angle_beta 59.307088
_cell_angle_gamma 90.000000
_cell_volume 3248.303527
_symmetry_space_group_name_H-M "C 2/C"
_symmetry_group_IT_number 15
_symmetry_cell_setting 'monoclinic'
loop_
_space_group_symop_operation_xyz
x,y,z
-x,y,1/2-z
-x,-y,-z
x,-y,1/2+z
1/2+x,1/2+y,z
1/2-x,1/2+y,1/2-z
1/2-x,1/2-y,-z
1/2+x,1/2-y,1/2+z
loop_
_atom_site_type_symbol
_atom_site_label
_atom_site_fract_x
_atom_site_fract_y
_atom_site_fract_z
Si Si1 0.661956 0.039018 0.714314
Si Si2 0.034317 0.209465 0.315726
Si Si3 0.622198 0.417787 0.548330
Si Si4 0.794006 0.081247 0.247208
Si Si5 0.158740 0.839367 0.380481
Si Si6 0.681923 0.866724 0.935724
Si Si7 0.464935 0.084652 0.873236
Si Si8 0.022565 0.934791 0.323648
O O1 0.728547 0.133600 0.704569
O O2 0.569488 0.024258 0.816375
O O3 0.623097 0.043137 0.644722
O O4 0.736052 0.948331 0.694790
O O5 0.158064 0.186235 0.276766
O O6 0.000000 0.165447 0.250000
O O7 0.970157 0.157899 0.408156
O O8 0.005658 0.316530 0.326278
O O9 0.646584 0.421624 0.448799
O O10 0.720515 0.373117 0.549766
O O11 0.582958 0.518588 0.595594
O O12 0.708457 0.072960 0.350785
O O13 0.890264 0.013688 0.223675
O O14 0.158447 0.738900 0.419905
O O15 0.065552 0.851050 0.358803
O O16 0.580030 0.909740 0.022363
O O17 0.000000 0.892765 0.250000
#
# Coordination Sequence:
#
# PCOD8137969 Si02
#       8
#     8   8   8   8   8   8   8   8
#     4  10  21  35  51  80 112 154 182 227 273 350
#     4  11  17  31  54  82 113 143 175 237 284 325
#     4  11  18  31  53  87 119 143 182 235 293 327
#     4  10  21  34  54  79 112 149 192 220 284 331
#     4  11  21  32  56  87 116 142 197 233 285 331
#     4  12  20  33  54  85 111 151 180 241 282 340
#     4  11  21  34  55  79 114 143 185 232 291 322
#     4  10  20  37  54  81 117 159 183 232 282 339
#
# _framework density 19.702591000000002
#
# number of rings (size 3 to 8) (size 9 to 14) (size 15 to 20)
#    0.000    1.250    6.250    3.000    0.000    0.500 
#    0.000    0.000    2.750    0.000    0.000    1.750 
#    0.000    0.000    0.000    0.000    0.000    0.000 
#
# Total GULP energy -396443.450608 kJ/mol
# GULP energy per Si atom -12388.857832 kJ/mol
# Density = 1.965775 g / cm^3
# Si number density = 19.702591 Si / 1000 Ang^3
#
#
#
# Elastic Constant Matrix: (Units=GPa)
#
#
# Indices 1 2 3 4 5 6 
#
# 1 107.3210 41.3046 31.4122 0.0000 13.9261 0.0000
# 2 41.3046 42.6866 20.3500 0.0000 6.9038 0.0000
# 3 31.4122 20.3500 91.4561 0.0000 0.2770 0.0000
# 4 0.0000 0.0000 0.0000 14.7245 0.0000 8.5075
# 5 13.9261 6.9038 0.2770 0.0000 28.4594 0.0000
# 6 0.0000 0.0000 0.0000 8.5075 0.0000 17.9727
#
#
#
# Elastic Compliance Matrix: (Units=1/GPa)
#
#
# Indices 1 2 3 4 5 6 
#
# 1 0.015746 -0.013364 -0.002421 0.000000 -0.004440 0.000000
# 2 -0.013364 0.038729 -0.004019 0.000000 -0.002817 0.000000
# 3 -0.002421 -0.004019 0.012654 0.000000 0.002037 0.000000
# 4 0.000000 0.000000 0.000000 0.093480 0.000000 -0.044250
# 5 -0.004440 -0.002817 0.002037 0.000000 0.037974 0.000000
# 6 0.000000 0.000000 0.000000 -0.044250 0.000000 0.076586
#
#
# Mechanical properties :
#
#
# Convention : Reuss Voigt Hill
#
# Bulk Modulus (GPa) = 36.33604 47.51082 41.92343
# Shear Modulus (GPa) = 15.43442 22.12444 18.77943
#
# Velocity S-wave (km/s) = 2.80191 3.35464 3.09065
# Velocity P-wave (km/s) = 5.38051 6.25868 5.83614
#
# Compressibility (1/GPa) = 0.02752089
#
# Stress axis : x y z
#
# Youngs Moduli (GPa) = 63.50838 25.82012 79.02680
#
# Poissons Ratio (x) = 0.34506 0.19133
# Poissons Ratio (y) = 0.84872 0.31762
# Poissons Ratio (z) = 0.15376 0.10378
#
# Static dielectric constant tensor:
#      x y z
#    x 3.633830 0.000000 -0.256470 
#    y 0.000000 3.206710 0.000000 
#    z -0.256470 0.000000 3.921310 
# 
# 
# High freq. dielectric constant tensor:
#      x y z
#    x 1.756690 0.000000 -0.016710 
#    y 0.000000 1.721790 0.000000 
#    z -0.016710 0.000000 1.782810 
# 
# From -- ./inp_files/205406.got.cif
#   From: 2010.06.25/outbox.cif.g09.slc.cpg/sg15_103_cif.got.tgz:205406.got - 2010.06.28 07:06:18.
