data_PCOD8137509
_publ_section_title
;
Structure prediction by ZEFSAII (Michael W. Deem and Ramdas Pophale) SiO2 
 PCOD8137509
Probable space group: C 2/C
;
_chemical_formula_sum "Si O2"
_cell_formula_units_Z 48
_cell_length_a 26.414328
_cell_length_b 16.239227
_cell_length_c 9.001656
_cell_angle_alpha 90.000000
_cell_angle_beta 38.828562
_cell_angle_gamma 90.000000
_cell_volume 2420.970475
_symmetry_space_group_name_H-M "C 2/C"
_symmetry_group_IT_number 15
_symmetry_cell_setting 'monoclinic'
loop_
_space_group_symop_operation_xyz
x,y,z
-x,y,1/2-z
-x,-y,-z
x,-y,1/2+z
1/2+x,1/2+y,z
1/2-x,1/2+y,1/2-z
1/2-x,1/2-y,-z
1/2+x,1/2-y,1/2+z
loop_
_atom_site_type_symbol
_atom_site_label
_atom_site_fract_x
_atom_site_fract_y
_atom_site_fract_z
Si Si1 0.251164 0.388872 0.526247
Si Si2 0.768583 0.960776 0.171452
Si Si3 0.471559 0.271088 0.476624
Si Si4 0.143774 0.744885 0.163333
Si Si5 0.809933 0.302797 0.264966
Si Si6 0.954070 0.932376 0.701327
O O1 0.245560 0.445758 0.393974
O O2 0.239766 0.447490 0.694119
O O3 0.179714 0.321446 0.696191
O O4 0.336407 0.338530 0.330032
O O5 0.722705 0.895973 0.168902
O O6 0.864292 0.962830 0.935351
O O7 0.500000 0.303058 0.250000
O O8 0.548349 0.228596 0.379408
O O9 0.400062 0.203496 0.628941
O O10 0.443225 0.348471 0.635641
O O11 0.188096 0.734580 0.904277
O O12 0.750000 0.250000 0.500000
O O13 0.000000 0.916131 0.750000
O O14 0.000000 0.000000 0.500000
#
# Coordination Sequence:
#
# PCOD8137509 Si02
#       6
#     8   8   8   8   8   8
#     4  10  22  38  60  82 116 155 189 236 287 337
#     4  11  22  37  56  85 113 150 191 233 283 340
#     4  10  20  37  59  81 111 148 187 234 284 339
#     4   9  20  39  60  82 115 154 189 229 294 341
#     4  10  20  36  59  86 112 149 189 234 281 344
#     4  12  23  34  52  81 117 145 185 232 285 341
#
# _framework density 19.82676
#
# number of rings (size 3 to 8) (size 9 to 14) (size 15 to 20)
#    0.000    1.667    1.667    3.500    2.333    1.333 
#    0.000    0.833    0.000    0.000    0.000    0.000 
#    0.000    0.000    0.000    0.000    0.000    0.000 
#
# Total GULP energy -297595.104179 kJ/mol
# GULP energy per Si atom -12399.796007 kJ/mol
# Density = 1.978163 g / cm^3
# Si number density = 19.826760 Si / 1000 Ang^3
#
#
#
# Elastic Constant Matrix: (Units=GPa)
#
#
# Indices 1 2 3 4 5 6 
#
# 1 117.7029 52.4172 19.1302 0.0000 -21.7751 0.0000
# 2 52.4172 111.8226 15.1116 0.0000 -3.4109 0.0000
# 3 19.1302 15.1116 37.7095 0.0000 -8.4347 0.0000
# 4 0.0000 0.0000 0.0000 19.1934 0.0000 5.6021
# 5 -21.7751 -3.4109 -8.4347 0.0000 30.2257 0.0000
# 6 0.0000 0.0000 0.0000 5.6021 0.0000 40.6474
#
#
#
# Elastic Compliance Matrix: (Units=1/GPa)
#
#
# Indices 1 2 3 4 5 6 
#
# 1 0.012775 -0.005403 -0.002553 0.000000 0.007881 0.000000
# 2 -0.005403 0.011740 -0.002707 0.000000 -0.003323 0.000000
# 3 -0.002553 -0.002707 0.030311 0.000000 0.006314 0.000000
# 4 0.000000 0.000000 0.000000 0.054285 0.000000 -0.007482
# 5 0.007881 -0.003323 0.006314 0.000000 0.040149 0.000000
# 6 0.000000 0.000000 0.000000 -0.007482 0.000000 0.025633
#
#
# Mechanical properties :
#
#
# Convention : Reuss Voigt Hill
#
# Bulk Modulus (GPa) = 29.85067 48.95034 39.40051
# Shear Modulus (GPa) = 24.10981 30.05170 27.08076
#
# Velocity S-wave (km/s) = 3.49094 3.89744 3.69978
# Velocity P-wave (km/s) = 5.59797 6.70791 6.17792
#
# Compressibility (1/GPa) = 0.03350009
#
# Stress axis : x y z
#
# Youngs Moduli (GPa) = 78.27764 85.18002 32.99178
#
# Poissons Ratio (x) = 0.46022 0.08422
# Poissons Ratio (y) = 0.42293 0.08931
# Poissons Ratio (z) = 0.19983 0.23058
#
# Static dielectric constant tensor:
#      x y z
#    x 4.011650 0.000000 -0.081110 
#    y 0.000000 3.596850 0.000000 
#    z -0.081110 0.000000 3.498410 
# 
# 
# High freq. dielectric constant tensor:
#      x y z
#    x 1.791450 0.000000 -0.001690 
#    y 0.000000 1.763180 0.000000 
#    z -0.001690 0.000000 1.758350 
# 
# From -- ./inp_files/56421.got.cif
#   From: 2010.06.25/outbox.cif.g09.slc.cpg/sg15_29_cif.got.tgz:56421.got - 2010.06.28 07:06:18.
