data_PCOD8137730
_publ_section_title
;
Structure prediction by ZEFSAII (Michael W. Deem and Ramdas Pophale) SiO2 
 PCOD8137730
Probable space group: C 2/C
;
_chemical_formula_sum "Si O2"
_cell_formula_units_Z 36
_cell_length_a 14.112043
_cell_length_b 14.714636
_cell_length_c 12.991434
_cell_angle_alpha 90.000000
_cell_angle_beta 40.942217
_cell_angle_gamma 90.000000
_cell_volume 1767.807866
_symmetry_space_group_name_H-M "C 2/C"
_symmetry_group_IT_number 15
_symmetry_cell_setting 'monoclinic'
loop_
_space_group_symop_operation_xyz
x,y,z
-x,y,1/2-z
-x,-y,-z
x,-y,1/2+z
1/2+x,1/2+y,z
1/2-x,1/2+y,1/2-z
1/2-x,1/2-y,-z
1/2+x,1/2-y,1/2+z
loop_
_atom_site_type_symbol
_atom_site_label
_atom_site_fract_x
_atom_site_fract_y
_atom_site_fract_z
Si Si1 0.039932 0.530436 0.827521
Si Si2 0.461117 0.851841 0.981899
Si Si3 0.130648 0.042543 0.956381
Si Si4 0.000000 0.044519 0.750000
Si Si5 0.353554 0.316339 0.213413
O O1 0.986811 0.606610 0.951791
O O2 0.209813 0.504892 0.703230
O O3 0.000000 0.572119 0.750000
O O4 0.948994 0.437460 0.914911
O O5 0.310662 0.799336 0.118030
O O6 0.571244 0.780655 0.841854
O O7 0.134000 0.147869 0.915511
O O8 0.000000 0.000000 0.000000
O O9 0.103711 0.023896 0.099648
O O10 0.085163 0.108936 0.758217
#
# Coordination Sequence:
#
# PCOD8137730 Si02
#       5
#     8   8   8   4   8
#     4  10  21  41  62  83 119 164 198 234 300 359
#     4  10  23  39  60  87 121 151 196 250 292 348
#     4   9  20  38  58  88 119 154 193 241 298 349
#     4  10  20  36  62  86 116 152 198 244 302 350
#     4  10  22  38  58  90 115 154 197 246 296 347
#
# _framework density 20.364204000000001
#
# number of rings (size 3 to 8) (size 9 to 14) (size 15 to 20)
#    0.000    2.222    0.000    1.333    7.778    2.667 
#    2.000    2.222    0.000    0.000    0.000    0.000 
#    0.000    0.000    0.000    0.000    0.000    0.000 
#
# Total GULP energy -223030.220296 kJ/mol
# GULP energy per Si atom -12390.567794 kJ/mol
# Density = 2.031785 g / cm^3
# Si number density = 20.364204 Si / 1000 Ang^3
#
#
#
# Elastic Constant Matrix: (Units=GPa)
#
#
# Indices 1 2 3 4 5 6 
#
# 1 71.4157 19.3380 24.6452 0.0000 2.2596 0.0000
# 2 19.3380 55.8138 26.2752 0.0000 -2.8128 0.0000
# 3 24.6452 26.2752 89.0807 0.0000 0.7512 0.0000
# 4 0.0000 0.0000 0.0000 36.8031 0.0000 -2.3030
# 5 2.2596 -2.8128 0.7512 0.0000 43.9184 0.0000
# 6 0.0000 0.0000 0.0000 -2.3030 0.0000 15.8524
#
#
#
# Elastic Compliance Matrix: (Units=1/GPa)
#
#
# Indices 1 2 3 4 5 6 
#
# 1 0.016290 -0.004157 -0.003272 0.000000 -0.001048 0.000000
# 2 -0.004157 0.021958 -0.005341 0.000000 0.001712 0.000000
# 3 -0.003272 -0.005341 0.013710 0.000000 -0.000408 0.000000
# 4 0.000000 0.000000 0.000000 0.027421 0.000000 0.003984
# 5 -0.001048 0.001712 -0.000408 0.000000 0.022940 0.000000
# 6 0.000000 0.000000 0.000000 0.003984 0.000000 0.063661
#
#
# Mechanical properties :
#
#
# Convention : Reuss Voigt Hill
#
# Bulk Modulus (GPa) = 37.85254 39.64745 38.74999
# Shear Modulus (GPa) = 24.95946 29.05157 27.00551
#
# Velocity S-wave (km/s) = 3.50473 3.78113 3.64555
# Velocity P-wave (km/s) = 5.91656 6.21080 6.06547
#
# Compressibility (1/GPa) = 0.02641831
#
# Stress axis : x y z
#
# Youngs Moduli (GPa) = 61.38584 45.54247 72.94024
#
# Poissons Ratio (x) = 0.18931 0.23866
# Poissons Ratio (y) = 0.25516 0.38958
# Poissons Ratio (z) = 0.20086 0.24324
#
# Static dielectric constant tensor:
#      x y z
#    x 3.709390 0.000000 0.152920 
#    y 0.000000 3.455660 0.000000 
#    z 0.152920 0.000000 4.094010 
# 
# 
# High freq. dielectric constant tensor:
#      x y z
#    x 1.788920 0.000000 -0.001570 
#    y 0.000000 1.772360 0.000000 
#    z -0.001570 0.000000 1.812950 
# 
# From -- ./inp_files/37645.got.cif
#   From: 2010.06.25/outbox.cif.g09.slc.cpg/sg15_19_cif.got.tgz:37645.got - 2010.06.28 07:06:18.
