data_PCOD8137480
_publ_section_title
;
Structure prediction by ZEFSAII (Michael W. Deem and Ramdas Pophale) SiO2 
 PCOD8137480
Probable space group: C 2/C
;
_chemical_formula_sum "Si O2"
_cell_formula_units_Z 60
_cell_length_a 9.298711
_cell_length_b 30.868458
_cell_length_c 11.810828
_cell_angle_alpha 90.000000
_cell_angle_beta 90.078746
_cell_angle_gamma 90.000000
_cell_volume 3390.139899
_symmetry_space_group_name_H-M "C 2/C"
_symmetry_group_IT_number 15
_symmetry_cell_setting 'monoclinic'
loop_
_space_group_symop_operation_xyz
x,y,z
-x,y,1/2-z
-x,-y,-z
x,-y,1/2+z
1/2+x,1/2+y,z
1/2-x,1/2+y,1/2-z
1/2-x,1/2-y,-z
1/2+x,1/2-y,1/2+z
loop_
_atom_site_type_symbol
_atom_site_label
_atom_site_fract_x
_atom_site_fract_y
_atom_site_fract_z
Si Si1 0.954513 0.592502 0.456050
Si Si2 0.279355 0.146237 0.978821
Si Si3 0.000000 0.538686 0.250000
Si Si4 0.835503 0.888287 0.256383
Si Si5 0.488669 0.785119 0.379120
Si Si6 0.021697 0.185044 0.120041
Si Si7 0.249638 0.666923 0.964384
Si Si8 0.619188 0.955506 0.330172
O O1 0.115396 0.611915 0.460581
O O2 0.922338 0.570314 0.337034
O O3 0.838329 0.629517 0.473981
O O4 0.931500 0.553541 0.543404
O O5 0.218460 0.124305 0.866895
O O6 0.365784 0.189220 0.945631
O O7 0.151338 0.157880 0.065173
O O8 0.121221 0.507563 0.308560
O O9 0.808077 0.849131 0.343483
O O10 0.769360 0.933286 0.300883
O O11 0.000000 0.899267 0.250000
O O12 0.500000 0.802221 0.250000
O O13 0.439475 0.735576 0.381757
O O14 0.643057 0.792597 0.440366
O O15 0.000000 0.169424 0.250000
O O16 0.877197 0.179952 0.047499
O O17 0.500000 0.932531 0.250000
#
# Coordination Sequence:
#
# PCOD8137480 Si02
#       8
#     8   8   4   8   8   8   8   8
#     4  10  21  34  61  84 107 142 188 229 266 331
#     4  11  20  36  58  81 109 145 190 230 275 326
#     4  10  20  36  60  80 112 142 180 216 280 336
#     4  11  19  34  60  85 105 136 182 235 281 316
#     4  10  20  36  59  82 109 144 194 240 279 317
#     4  11  24  37  51  78 121 157 179 227 286 336
#     4  10  21  36  58  81 111 143 190 231 275 325
#     4   9  19  34  59  84 105 135 177 231 271 323
#
# _framework density 17.698384000000001
#
# number of rings (size 3 to 8) (size 9 to 14) (size 15 to 20)
#    0.400    1.333    4.000    1.200    1.867    0.000 
#    0.000    0.000    2.933    2.400    0.000    0.000 
#    0.000    0.000    0.000    0.000    0.000    0.000 
#
# Total GULP energy -371900.753039 kJ/mol
# GULP energy per Si atom -12396.691768 kJ/mol
# Density = 1.765810 g / cm^3
# Si number density = 17.698384 Si / 1000 Ang^3
#
#
#
# Elastic Constant Matrix: (Units=GPa)
#
#
# Indices 1 2 3 4 5 6 
#
# 1 102.9596 21.6778 37.2799 0.0000 -6.4629 0.0000
# 2 21.6778 65.5418 39.6615 0.0000 -7.2636 0.0000
# 3 37.2799 39.6615 110.7525 0.0000 -16.9157 0.0000
# 4 0.0000 0.0000 0.0000 -58.6478 0.0000 18.8091
# 5 -6.4629 -7.2636 -16.9157 0.0000 26.2727 0.0000
# 6 0.0000 0.0000 0.0000 18.8091 0.0000 4.2984
#
#
#
# Elastic Compliance Matrix: (Units=1/GPa)
#
#
# Indices 1 2 3 4 5 6 
#
# 1 0.011230 -0.001815 -0.003089 0.000000 0.000272 0.000000
# 2 -0.001815 0.019795 -0.006333 0.000000 0.000949 0.000000
# 3 -0.003089 -0.006333 0.013257 0.000000 0.006025 0.000000
# 4 0.000000 0.000000 0.000000 -0.007095 0.000000 0.031044
# 5 0.000272 0.000949 0.006025 0.000000 0.042271 0.000000
# 6 0.000000 0.000000 0.000000 0.031044 0.000000 0.096798
#
#
# Mechanical properties :
#
#
# Convention : Reuss Voigt Hill
#
# Bulk Modulus (GPa) = 45.85289 52.94357 49.39823
# Shear Modulus (GPa) = 24.27188 6.42698 15.34943
#
# Velocity S-wave (km/s) = 3.70728 1.90769 2.94815
# Velocity P-wave (km/s) = 6.65503 5.90184 6.28972
#
# Compressibility (1/GPa) = 0.02180888
#
# Stress axis : x y z
#
# Youngs Moduli (GPa) = 89.04631 50.51723 75.43281
#
# Poissons Ratio (x) = 0.09170 0.23297
# Poissons Ratio (y) = 0.16164 0.47771
# Poissons Ratio (z) = 0.27502 0.31992
#
# Static dielectric constant tensor:
#      x y z
#    x 4.358140 0.000000 -0.838410 
#    y 0.000000 3.128100 0.000000 
#    z -0.838410 0.000000 4.050060 
# 
# 
# High freq. dielectric constant tensor:
#      x y z
#    x 1.678200 0.000000 -0.003340 
#    y 0.000000 1.677360 0.000000 
#    z -0.003340 0.000000 1.692520 
# 
# From -- ./inp_files/82216.got.cif
#   From: 2010.06.25/outbox.cif.g09.slc.cpg/sg15_42_cif.got.tgz:82216.got - 2010.06.28 07:06:18.
