data_PCOD8137403
_publ_section_title
;
Structure prediction by ZEFSAII (Michael W. Deem and Ramdas Pophale) SiO2 
 PCOD8137403
Probable space group: C 2/C
;
_chemical_formula_sum "Si O2"
_cell_formula_units_Z 64
_cell_length_a 16.038164
_cell_length_b 22.092150
_cell_length_c 17.114255
_cell_angle_alpha 90.000000
_cell_angle_beta 145.837317
_cell_angle_gamma 90.000000
_cell_volume 3405.139196
_symmetry_space_group_name_H-M "C 2/C"
_symmetry_group_IT_number 15
_symmetry_cell_setting 'monoclinic'
loop_
_space_group_symop_operation_xyz
x,y,z
-x,y,1/2-z
-x,-y,-z
x,-y,1/2+z
1/2+x,1/2+y,z
1/2-x,1/2+y,1/2-z
1/2-x,1/2-y,-z
1/2+x,1/2-y,1/2+z
loop_
_atom_site_type_symbol
_atom_site_label
_atom_site_fract_x
_atom_site_fract_y
_atom_site_fract_z
Si Si1 0.982782 0.341916 0.952716
Si Si2 0.848229 0.035277 0.678665
Si Si3 0.263382 0.097907 0.387657
Si Si4 0.467763 0.947928 0.316186
Si Si5 0.762692 0.888838 0.260613
Si Si6 0.893229 0.781055 0.445458
Si Si7 0.056495 0.575095 0.380277
Si Si8 0.403257 0.716663 0.245264
O O1 0.837737 0.381292 0.863797
O O2 0.950287 0.270729 0.930677
O O3 0.015894 0.362236 0.890636
O O4 0.124862 0.353994 0.116446
O O5 0.843720 0.070413 0.758041
O O6 0.731580 0.062076 0.525688
O O7 0.000000 0.042931 0.750000
O O8 0.821759 0.965505 0.681472
O O9 0.401945 0.096114 0.554096
O O10 0.150347 0.150511 0.325098
O O11 0.500000 0.952567 0.250000
O O12 0.304986 0.926066 0.217735
O O13 0.480137 0.016042 0.360971
O O14 0.884968 0.842982 0.389798
O O15 0.730708 0.763722 0.350199
O O16 0.004926 0.789109 0.603753
O O17 0.000000 0.584575 0.250000
O O18 0.500000 0.744190 0.250000
#
# Coordination Sequence:
#
# PCOD8137403 Si02
#       8
#     8   8   8   8   8   8   8   8
#     4   9  18  37  59  80 110 149 192 232 279 330
#     4  10  20  38  58  83 119 148 184 235 290 337
#     4   9  19  35  57  83 113 150 182 228 282 337
#     4   9  18  32  59  90 115 144 186 229 276 346
#     4  10  20  36  58  82 114 155 185 230 287 334
#     4  11  22  39  55  81 111 148 194 236 273 335
#     4   9  18  36  61  86 108 143 192 235 279 336
#     4  11  23  37  56  81 112 150 187 228 281 338
#
# _framework density 18.795120000000001
#
# number of rings (size 3 to 8) (size 9 to 14) (size 15 to 20)
#    0.000    2.250    1.250    1.500    1.750    3.500 
#    6.750    1.250    0.000    3.000    0.000    0.000 
#    0.000    0.000    0.000    0.000    0.000    0.000 
#
# Total GULP energy -396576.750728 kJ/mol
# GULP energy per Si atom -12393.023460 kJ/mol
# Density = 1.875234 g / cm^3
# Si number density = 18.795120 Si / 1000 Ang^3
#
#
#
# Elastic Constant Matrix: (Units=GPa)
#
#
# Indices 1 2 3 4 5 6 
#
# 1 79.8793 39.2622 23.9381 -0.0011 5.8473 -0.0007
# 2 39.2622 86.6360 27.1132 -0.0003 0.6709 -0.0003
# 3 23.9381 27.1132 68.6336 -0.0021 -3.4695 -0.0012
# 4 -0.0011 -0.0003 -0.0021 24.0984 -0.0009 -1.5679
# 5 5.8473 0.6709 -3.4695 -0.0009 26.5933 -0.0005
# 6 -0.0007 -0.0003 -0.0012 -1.5679 -0.0005 15.2775
#
#
#
# Elastic Compliance Matrix: (Units=1/GPa)
#
#
# Indices 1 2 3 4 5 6 
#
# 1 0.017139 -0.006619 -0.003569 0.000000 -0.004067 0.000000
# 2 -0.006619 0.015754 -0.003887 0.000000 0.000551 0.000000
# 3 -0.003569 -0.003887 0.017511 0.000002 0.003167 0.000001
# 4 0.000000 0.000000 0.000002 0.041775 0.000002 0.004287
# 5 -0.004067 0.000551 0.003167 0.000002 0.038897 0.000002
# 6 0.000000 0.000000 0.000001 0.004287 0.000002 0.065896
#
#
# Mechanical properties :
#
#
# Convention : Reuss Voigt Hill
#
# Bulk Modulus (GPa) = 44.93474 46.19732 45.56603
# Shear Modulus (GPa) = 21.50160 22.84954 22.17557
#
# Velocity S-wave (km/s) = 3.38597 3.49050 3.43863
# Velocity P-wave (km/s) = 6.26466 6.39355 6.32944
#
# Compressibility (1/GPa) = 0.02225450
#
# Stress axis : x y z
#
# Youngs Moduli (GPa) = 58.34498 63.47412 57.10843
#
# Poissons Ratio (x) = 0.42014 0.20380
# Poissons Ratio (y) = 0.38619 0.22199
# Poissons Ratio (z) = 0.20822 0.24674
#
# Static dielectric constant tensor:
#      x y z
#    x 3.374200 0.000000 0.069700 
#    y 0.000000 3.566660 0.000000 
#    z 0.069700 0.000000 3.399270 
# 
# 
# High freq. dielectric constant tensor:
#      x y z
#    x 1.717530 0.000000 0.003180 
#    y 0.000000 1.730840 0.000000 
#    z 0.003180 0.000000 1.724840 
# 
# From -- ./inp_files/58661.got.cif
#   From: 2010.06.25/outbox.cif.g09.slc.cpg/sg15_30_cif.got.tgz:58661.got - 2010.06.28 07:06:18.
