data_PCOD8137635
_publ_section_title
;
Structure prediction by ZEFSAII (Michael W. Deem and Ramdas Pophale) SiO2 
 PCOD8137635
Probable space group: C 2/C
;
_chemical_formula_sum "Si O2"
_cell_formula_units_Z 56
_cell_length_a 15.657834
_cell_length_b 13.481371
_cell_length_c 13.076287
_cell_angle_alpha 90.000000
_cell_angle_beta 105.939914
_cell_angle_gamma 90.000000
_cell_volume 2654.129835
_symmetry_space_group_name_H-M "C 2/C"
_symmetry_group_IT_number 15
_symmetry_cell_setting 'monoclinic'
loop_
_space_group_symop_operation_xyz
x,y,z
-x,y,1/2-z
-x,-y,-z
x,-y,1/2+z
1/2+x,1/2+y,z
1/2-x,1/2+y,1/2-z
1/2-x,1/2-y,-z
1/2+x,1/2-y,1/2+z
loop_
_atom_site_type_symbol
_atom_site_label
_atom_site_fract_x
_atom_site_fract_y
_atom_site_fract_z
Si Si1 0.066638 0.583857 0.860938
Si Si2 0.811974 0.405460 0.533208
Si Si3 0.532507 0.206535 0.524049
Si Si4 0.771276 0.906528 0.199679
Si Si5 0.226914 0.384480 0.761856
Si Si6 0.924467 0.768242 0.308885
Si Si7 0.637157 0.755058 0.243138
O O1 0.141757 0.504784 0.909448
O O2 0.109388 0.688472 0.836587
O O3 0.000000 0.543853 0.750000
O O4 0.016522 0.606728 0.950985
O O5 0.885131 0.327731 0.518425
O O6 0.737035 0.430364 0.423994
O O7 0.759999 0.359243 0.613071
O O8 0.470243 0.278014 0.435423
O O9 0.556820 0.265319 0.637108
O O10 0.869933 0.869556 0.265101
O O11 0.707085 0.816616 0.200345
O O12 0.729529 0.997699 0.248468
O O13 0.134823 0.331754 0.700221
O O14 0.309807 0.346798 0.718674
O O15 0.000000 0.750248 0.250000
#
# Coordination Sequence:
#
# PCOD8137635 Si02
#       7
#     8   8   8   8   8   8   8
#     4  10  20  36  60  93 127 149 197 256 311 369
#     4  11  21  35  64  88 121 160 199 251 317 358
#     4  10  21  36  59  91 119 159 199 252 311 359
#     4  10  23  41  57  91 122 160 207 251 304 370
#     4  11  22  40  62  86 124 161 206 249 309 368
#     4  11  23  39  63  89 121 157 209 260 298 361
#     4   9  21  39  61  86 123 162 198 248 309 370
#
# _framework density 21.099194000000001
#
# number of rings (size 3 to 8) (size 9 to 14) (size 15 to 20)
#    0.000    1.714    2.857    1.286    4.000    1.714 
#    2.571    5.000    0.000    0.000    0.000    0.000 
#    0.000    0.000    0.000    0.000    0.000    0.000 
#
# Total GULP energy -346934.514240 kJ/mol
# GULP energy per Si atom -12390.518366 kJ/mol
# Density = 2.105117 g / cm^3
# Si number density = 21.099194 Si / 1000 Ang^3
#
#
#
# Elastic Constant Matrix: (Units=GPa)
#
#
# Indices 1 2 3 4 5 6 
#
# 1 70.3951 30.0738 16.5315 0.0000 16.1285 0.0000
# 2 30.0738 49.2361 18.1870 0.0000 9.3236 0.0000
# 3 16.5315 18.1870 91.2601 0.0000 19.6027 0.0000
# 4 0.0000 0.0000 0.0000 15.1954 0.0000 -1.0081
# 5 16.1285 9.3236 19.6027 0.0000 25.6804 0.0000
# 6 0.0000 0.0000 0.0000 -1.0081 0.0000 24.3243
#
#
#
# Elastic Compliance Matrix: (Units=1/GPa)
#
#
# Indices 1 2 3 4 5 6 
#
# 1 0.021080 -0.011247 0.000466 0.000000 -0.009512 0.000000
# 2 -0.011247 0.028602 -0.003528 0.000000 -0.000628 0.000000
# 3 0.000466 -0.003528 0.013593 0.000000 -0.009388 0.000000
# 4 0.000000 0.000000 0.000000 0.065991 0.000000 0.002735
# 5 -0.009512 -0.000628 -0.009388 0.000000 0.052308 0.000000
# 6 0.000000 0.000000 0.000000 0.002735 0.000000 0.041224
#
#
# Mechanical properties :
#
#
# Convention : Reuss Voigt Hill
#
# Bulk Modulus (GPa) = 28.85391 37.83064 33.34227
# Shear Modulus (GPa) = 19.01369 22.77994 20.89682
#
# Velocity S-wave (km/s) = 3.00518 3.28938 3.15049
# Velocity P-wave (km/s) = 5.07411 5.69171 5.39176
#
# Compressibility (1/GPa) = 0.03465735
#
# Stress axis : x y z
#
# Youngs Moduli (GPa) = 47.43789 34.96262 73.56826
#
# Poissons Ratio (x) = 0.39322 -0.03427
# Poissons Ratio (y) = 0.53353 0.25954
# Poissons Ratio (z) = -0.02210 0.12334
#
# Static dielectric constant tensor:
#      x y z
#    x 4.058270 0.000000 0.141790 
#    y 0.000000 3.603760 0.000000 
#    z 0.141790 0.000000 4.052440 
# 
# 
# High freq. dielectric constant tensor:
#      x y z
#    x 1.822800 0.000000 -0.004470 
#    y 0.000000 1.794710 0.000000 
#    z -0.004470 0.000000 1.833520 
# 
# From -- ./inp_files/105423.got.cif
#   From: 2010.06.25/outbox.cif.g09.slc.cpg/sg15_53_cif.got.tgz:105423.got - 2010.06.28 07:06:18.
