data_PCOD8137899
_publ_section_title
;
Structure prediction by ZEFSAII (Michael W. Deem and Ramdas Pophale) SiO2 
 PCOD8137899
Probable space group: C 2/C
;
_chemical_formula_sum "Si O2"
_cell_formula_units_Z 52
_cell_length_a 11.434673
_cell_length_b 26.703970
_cell_length_c 9.785043
_cell_angle_alpha 90.000000
_cell_angle_beta 56.380277
_cell_angle_gamma 90.000000
_cell_volume 2488.094628
_symmetry_space_group_name_H-M "C 2/C"
_symmetry_group_IT_number 15
_symmetry_cell_setting 'monoclinic'
loop_
_space_group_symop_operation_xyz
x,y,z
-x,y,1/2-z
-x,-y,-z
x,-y,1/2+z
1/2+x,1/2+y,z
1/2-x,1/2+y,1/2-z
1/2-x,1/2-y,-z
1/2+x,1/2-y,1/2+z
loop_
_atom_site_type_symbol
_atom_site_label
_atom_site_fract_x
_atom_site_fract_y
_atom_site_fract_z
Si Si1 0.000000 0.816681 0.250000
Si Si2 0.291608 0.149727 0.155914
Si Si3 0.737546 0.254110 0.171656
Si Si4 0.692361 0.395736 0.447022
Si Si5 0.097794 0.996816 0.565630
Si Si6 0.425387 0.838454 0.157371
Si Si7 0.885781 0.104167 0.011249
O O1 0.089249 0.782222 0.297026
O O2 0.885900 0.850156 0.404463
O O3 0.258758 0.203690 0.242552
O O4 0.238925 0.108963 0.298853
O O5 0.208850 0.141342 0.066322
O O6 0.457944 0.141172 0.024811
O O7 0.866510 0.286717 0.139817
O O8 0.750000 0.250000 0.000000
O O9 0.719451 0.454492 0.469920
O O10 0.804212 0.380215 0.257997
O O11 0.535569 0.393639 0.490198
O O12 0.151731 0.053781 0.550665
O O13 0.000000 0.977894 0.750000
O O14 0.000000 0.000000 0.500000
O O15 0.500000 0.825113 0.250000
#
# Coordination Sequence:
#
# PCOD8137899 Si02
#       7
#     4   8   8   8   8   8   8
#     4  12  22  40  62  94 126 170 216 276 318 386
#     4  11  24  40  63  94 130 173 220 270 333 394
#     4  12  24  42  64  90 130 173 225 270 330 395
#     4  10  21  41  64  92 130 170 217 277 324 395
#     4  10  20  36  65  99 127 167 221 278 332 386
#     4  10  24  42  63  92 133 176 214 272 337 399
#     4  11  21  39  65  96 129 168 220 271 330 384
#
# _framework density 20.899528
#
# number of rings (size 3 to 8) (size 9 to 14) (size 15 to 20)
#    0.000    1.231    3.846    3.231    0.000    3.692 
#    0.000    0.769    0.000    5.538    0.000    0.000 
#    0.000    0.000    0.000    0.000    0.000    0.000 
#
# Total GULP energy -322233.225141 kJ/mol
# GULP energy per Si atom -12393.585582 kJ/mol
# Density = 2.085196 g / cm^3
# Si number density = 20.899528 Si / 1000 Ang^3
#
#
#
# Elastic Constant Matrix: (Units=GPa)
#
#
# Indices 1 2 3 4 5 6 
#
# 1 72.1811 49.2346 33.9196 0.0000 -7.0966 0.0000
# 2 49.2346 145.0324 54.4691 0.0000 -11.0177 0.0000
# 3 33.9196 54.4691 140.3060 0.0000 -24.6124 0.0000
# 4 0.0000 0.0000 0.0000 30.6818 0.0000 6.8612
# 5 -7.0966 -11.0177 -24.6124 0.0000 32.6335 0.0000
# 6 0.0000 0.0000 0.0000 6.8612 0.0000 25.1544
#
#
#
# Elastic Compliance Matrix: (Units=1/GPa)
#
#
# Indices 1 2 3 4 5 6 
#
# 1 0.018705 -0.005440 -0.002327 0.000000 0.000476 0.000000
# 2 -0.005440 0.009659 -0.002386 0.000000 0.000279 0.000000
# 3 -0.002327 -0.002386 0.009665 0.000000 0.005978 0.000000
# 4 0.000000 0.000000 0.000000 0.034710 0.000000 -0.009468
# 5 0.000476 0.000279 0.005978 0.000000 0.035349 0.000000
# 6 0.000000 0.000000 0.000000 -0.009468 0.000000 0.042337
#
#
# Mechanical properties :
#
#
# Convention : Reuss Voigt Hill
#
# Bulk Modulus (GPa) = 56.42118 70.30736 63.36427
# Shear Modulus (GPa) = 28.30677 32.35368 30.33022
#
# Velocity S-wave (km/s) = 3.68424 3.93881 3.81365
# Velocity P-wave (km/s) = 6.71961 7.37559 7.05523
#
# Compressibility (1/GPa) = 0.01772384
#
# Stress axis : x y z
#
# Youngs Moduli (GPa) = 53.46269 103.53215 103.47137
#
# Poissons Ratio (x) = 0.56319 0.24073
# Poissons Ratio (y) = 0.29082 0.24686
# Poissons Ratio (z) = 0.12438 0.24700
#
# Static dielectric constant tensor:
#      x y z
#    x 3.712480 0.000000 -0.068260 
#    y 0.000000 4.938120 0.000000 
#    z -0.068260 0.000000 4.082950 
# 
# 
# High freq. dielectric constant tensor:
#      x y z
#    x 1.795960 0.000000 0.006380 
#    y 0.000000 1.825770 0.000000 
#    z 0.006380 0.000000 1.830220 
# 
# From -- ./inp_files/34113.got.cif
#   From: 2010.06.25/outbox.cif.g09.slc.cpg/sg15_18_cif.got.tgz:34113.got - 2010.06.28 07:06:18.
