data_PCOD8137765
_publ_section_title
;
Structure prediction by ZEFSAII (Michael W. Deem and Ramdas Pophale) SiO2 
 PCOD8137765
Probable space group: C 2/C
;
_chemical_formula_sum "Si O2"
_cell_formula_units_Z 40
_cell_length_a 11.520614
_cell_length_b 8.700866
_cell_length_c 16.820260
_cell_angle_alpha 90.000000
_cell_angle_beta 85.571840
_cell_angle_gamma 90.000000
_cell_volume 1681.018413
_symmetry_space_group_name_H-M "C 2/C"
_symmetry_group_IT_number 15
_symmetry_cell_setting 'monoclinic'
loop_
_space_group_symop_operation_xyz
x,y,z
-x,y,1/2-z
-x,-y,-z
x,-y,1/2+z
1/2+x,1/2+y,z
1/2-x,1/2+y,1/2-z
1/2-x,1/2-y,-z
1/2+x,1/2-y,1/2+z
loop_
_atom_site_type_symbol
_atom_site_label
_atom_site_fract_x
_atom_site_fract_y
_atom_site_fract_z
Si Si1 0.361534 0.261615 0.050812
Si Si2 0.156755 0.528216 0.027715
Si Si3 0.609204 0.347315 0.791367
Si Si4 0.283602 0.905382 0.315577
Si Si5 0.906924 0.859824 0.523371
O O1 0.318451 0.295092 0.142097
O O2 0.250000 0.250000 0.000000
O O3 0.463232 0.390284 0.022912
O O4 0.408510 0.084528 0.033746
O O5 0.131704 0.470176 0.119168
O O6 0.301478 0.517960 0.013521
O O7 0.125087 0.703795 0.020791
O O8 0.500000 0.419062 0.750000
O O9 0.638936 0.182404 0.752283
O O10 0.719804 0.456935 0.773038
O O11 0.577198 0.324317 0.884793
#
# Coordination Sequence:
#
# PCOD8137765 Si02
#       5
#     8   8   8   8   8
#     4  10  20  36  62  91 119 160 213 262 307 381
#     4   9  20  39  64  94 123 163 219 267 312 384
#     4  11  24  44  63  93 137 176 207 271 331 387
#     4  10  24  42  62  97 127 169 219 260 332 386
#     4  10  21  39  66  95 125 167 219 267 323 376
#
# _framework density 23.795100999999999
#
# number of rings (size 3 to 8) (size 9 to 14) (size 15 to 20)
#    0.000    2.000    0.000    3.000    2.800    8.800 
#    7.200    0.000    0.000    0.000    0.000    0.000 
#    0.000    0.000    0.000    0.000    0.000    0.000 
#
# Total GULP energy -247905.270579 kJ/mol
# GULP energy per Si atom -12395.263529 kJ/mol
# Density = 2.374094 g / cm^3
# Si number density = 23.795101 Si / 1000 Ang^3
#
#
#
# Elastic Constant Matrix: (Units=GPa)
#
#
# Indices 1 2 3 4 5 6 
#
# 1 71.2002 12.4552 22.9102 0.0000 -0.1335 0.0000
# 2 12.4552 70.4642 32.6438 0.0000 11.2123 0.0000
# 3 22.9102 32.6438 113.0417 0.0000 0.6136 0.0000
# 4 0.0000 0.0000 0.0000 44.5161 0.0000 5.0967
# 5 -0.1335 11.2123 0.6136 0.0000 37.1338 0.0000
# 6 0.0000 0.0000 0.0000 5.0967 0.0000 43.0558
#
#
#
# Elastic Compliance Matrix: (Units=1/GPa)
#
#
# Indices 1 2 3 4 5 6 
#
# 1 0.015163 -0.001553 -0.002628 0.000000 0.000567 0.000000
# 2 -0.001553 0.017473 -0.004703 0.000000 -0.005204 0.000000
# 3 -0.002628 -0.004703 0.010730 0.000000 0.001233 0.000000
# 4 0.000000 0.000000 0.000000 0.022772 0.000000 -0.002696
# 5 0.000567 -0.005204 0.001233 0.000000 0.028483 0.000000
# 6 0.000000 0.000000 0.000000 -0.002696 0.000000 0.023545
#
#
# Mechanical properties :
#
#
# Convention : Reuss Voigt Hill
#
# Bulk Modulus (GPa) = 39.06389 43.41383 41.23886
# Shear Modulus (GPa) = 34.61027 37.38763 35.99895
#
# Velocity S-wave (km/s) = 3.81794 3.96818 3.89379
# Velocity P-wave (km/s) = 5.99066 6.26735 6.13057
#
# Compressibility (1/GPa) = 0.02559909
#
# Stress axis : x y z
#
# Youngs Moduli (GPa) = 65.94932 57.23199 93.19503
#
# Poissons Ratio (x) = 0.08889 0.24489
# Poissons Ratio (y) = 0.10243 0.43827
# Poissons Ratio (z) = 0.17329 0.26915
#
# Static dielectric constant tensor:
#      x y z
#    x 4.871110 0.000000 -0.077390 
#    y 0.000000 5.674760 0.000000 
#    z -0.077390 0.000000 3.890280 
# 
# 
# High freq. dielectric constant tensor:
#      x y z
#    x 1.966900 0.000000 -0.007120 
#    y 0.000000 1.985050 0.000000 
#    z -0.007120 0.000000 1.905540 
# 
# From -- ./inp_files/195090.got.cif
#   From: 2010.06.25/outbox.cif.g09.slc.cpg/sg15_98_cif.got.tgz:195090.got - 2010.06.28 07:06:18.
