data_PCOD8137952
_publ_section_title
;
Structure prediction by ZEFSAII (Michael W. Deem and Ramdas Pophale) SiO2 
 PCOD8137952
Probable space group: C 2/C
;
_chemical_formula_sum "Si O2"
_cell_formula_units_Z 64
_cell_length_a 23.769995
_cell_length_b 9.684505
_cell_length_c 13.383014
_cell_angle_alpha 90.000000
_cell_angle_beta 65.988113
_cell_angle_gamma 90.000000
_cell_volume 2814.171016
_symmetry_space_group_name_H-M "C 2/C"
_symmetry_group_IT_number 15
_symmetry_cell_setting 'monoclinic'
loop_
_space_group_symop_operation_xyz
x,y,z
-x,y,1/2-z
-x,-y,-z
x,-y,1/2+z
1/2+x,1/2+y,z
1/2-x,1/2+y,1/2-z
1/2-x,1/2-y,-z
1/2+x,1/2-y,1/2+z
loop_
_atom_site_type_symbol
_atom_site_label
_atom_site_fract_x
_atom_site_fract_y
_atom_site_fract_z
Si Si1 0.171870 0.973626 0.093141
Si Si2 0.603230 0.788108 0.665677
Si Si3 0.481583 0.189693 0.623027
Si Si4 0.971952 0.615261 0.103898
Si Si5 0.115759 0.498821 0.503709
Si Si6 0.764083 0.607718 0.683012
Si Si7 0.267695 0.901999 0.852776
Si Si8 0.400046 0.750169 0.354900
O O1 0.202536 0.957807 0.179514
O O2 0.147524 0.127231 0.096280
O O3 0.113652 0.870383 0.128642
O O4 0.220927 0.929965 0.975460
O O5 0.553717 0.787207 0.791238
O O6 0.666048 0.863825 0.651573
O O7 0.576777 0.875454 0.590064
O O8 0.480898 0.204007 0.502282
O O9 0.536139 0.280107 0.632396
O O10 0.416854 0.225871 0.724341
O O11 0.500597 0.027372 0.628624
O O12 0.916596 0.560495 0.071242
O O13 0.178877 0.427295 0.428202
O O14 0.132368 0.616804 0.573020
O O15 0.756760 0.773596 0.696770
O O16 0.772596 0.541972 0.785693
#
# Coordination Sequence:
#
# PCOD8137952 Si02
#       8
#     8   8   8   8   8   8   8   8
#     4  11  24  40  59  89 134 172 202 254 324 380
#     4  11  20  40  62  90 126 166 205 258 317 379
#     4   9  20  40  62  89 119 150 211 272 309 363
#     4  10  20  36  70  94 115 159 214 272 316 362
#     4  11  20  36  63  93 121 163 212 255 312 375
#     4  11  23  38  59  94 128 168 210 255 310 386
#     4  11  23  39  59  90 136 164 207 259 307 382
#     4  10  22  38  64  85 122 165 207 263 319 370
#
# _framework density 22.742042999999999
#
# number of rings (size 3 to 8) (size 9 to 14) (size 15 to 20)
#    0.000    1.500    5.000    0.750    1.750    3.500 
#    0.000    0.625   16.500    0.000    0.000    0.000 
#    0.000    0.000    0.000    0.000    0.000    0.000 
#
# Total GULP energy -396622.500823 kJ/mol
# GULP energy per Si atom -12394.453151 kJ/mol
# Density = 2.269028 g / cm^3
# Si number density = 22.742043 Si / 1000 Ang^3
#
#
#
# Elastic Constant Matrix: (Units=GPa)
#
#
# Indices 1 2 3 4 5 6 
#
# 1 38.3003 11.0372 10.7881 0.0000 6.4970 0.0000
# 2 11.0372 69.0878 18.6595 0.0000 2.4963 0.0000
# 3 10.7881 18.6595 117.8417 0.0000 -0.7187 0.0000
# 4 0.0000 0.0000 0.0000 30.9378 0.0000 -3.0389
# 5 6.4970 2.4963 -0.7187 0.0000 28.0551 0.0000
# 6 0.0000 0.0000 0.0000 -3.0389 0.0000 33.7504
#
#
#
# Elastic Compliance Matrix: (Units=1/GPa)
#
#
# Indices 1 2 3 4 5 6 
#
# 1 0.028882 -0.003822 -0.002078 0.000000 -0.006402 0.000000
# 2 -0.003822 0.015682 -0.002137 0.000000 -0.000565 0.000000
# 3 -0.002078 -0.002137 0.009020 0.000000 0.000902 0.000000
# 4 0.000000 0.000000 0.000000 0.032611 0.000000 0.002936
# 5 -0.006402 -0.000565 0.000902 0.000000 0.037200 0.000000
# 6 0.000000 0.000000 0.000000 0.002936 0.000000 0.029894
#
#
# Mechanical properties :
#
#
# Convention : Reuss Voigt Hill
#
# Bulk Modulus (GPa) = 26.65830 34.02216 30.34023
# Shear Modulus (GPa) = 27.49274 30.86498 29.17886
#
# Velocity S-wave (km/s) = 3.48069 3.68798 3.58583
# Velocity P-wave (km/s) = 5.28215 5.75565 5.52397
#
# Compressibility (1/GPa) = 0.03751177
#
# Stress axis : x y z
#
# Youngs Moduli (GPa) = 34.62363 63.76578 110.86412
#
# Poissons Ratio (x) = 0.24368 0.23038
# Poissons Ratio (y) = 0.13232 0.23690
# Poissons Ratio (z) = 0.07195 0.13626
#
# Static dielectric constant tensor:
#      x y z
#    x 4.166930 0.000000 -0.044590 
#    y 0.000000 3.878060 0.000000 
#    z -0.044590 0.000000 4.399480 
# 
# 
# High freq. dielectric constant tensor:
#      x y z
#    x 1.903550 0.000000 -0.002580 
#    y 0.000000 1.867750 0.000000 
#    z -0.002580 0.000000 1.915200 
# 
# From -- ./inp_files/180808.got.cif
#   From: 2010.06.25/outbox.cif.g09.slc.cpg/sg15_91_cif.got.tgz:180808.got - 2010.06.28 07:06:18.
