data_PCOD8137142
_publ_section_title
;
Structure prediction by ZEFSAII (Michael W. Deem and Ramdas Pophale) SiO2 
 PCOD8137142
Probable space group: C 2/C
;
_chemical_formula_sum "Si O2"
_cell_formula_units_Z 60
_cell_length_a 20.427642
_cell_length_b 18.593404
_cell_length_c 10.985767
_cell_angle_alpha 90.000000
_cell_angle_beta 43.505293
_cell_angle_gamma 90.000000
_cell_volume 2872.513016
_symmetry_space_group_name_H-M "C 2/C"
_symmetry_group_IT_number 15
_symmetry_cell_setting 'monoclinic'
loop_
_space_group_symop_operation_xyz
x,y,z
-x,y,1/2-z
-x,-y,-z
x,-y,1/2+z
1/2+x,1/2+y,z
1/2-x,1/2+y,1/2-z
1/2-x,1/2-y,-z
1/2+x,1/2-y,1/2+z
loop_
_atom_site_type_symbol
_atom_site_label
_atom_site_fract_x
_atom_site_fract_y
_atom_site_fract_z
Si Si1 0.500000 0.118553 0.750000
Si Si2 0.229820 0.804387 0.751549
Si Si3 0.896142 0.787798 0.133051
Si Si4 0.245149 0.002775 0.443299
Si Si5 0.590345 0.757177 0.266895
Si Si6 0.173949 0.549830 0.421729
Si Si7 0.607577 0.364348 0.118554
Si Si8 0.601177 0.619181 0.086559
O O1 0.421821 0.166088 0.782479
O O2 0.561716 0.069475 0.575029
O O3 0.317338 0.770913 0.705390
O O4 0.189293 0.746784 0.708297
O O5 0.261788 0.879203 0.648549
O O6 0.139245 0.822519 0.956090
O O7 0.882028 0.805074 0.291831
O O8 0.886407 0.863082 0.072923
O O9 0.999615 0.753685 0.975049
O O10 0.307082 0.000089 0.484202
O O11 0.186804 0.929201 0.515378
O O12 0.305912 0.011454 0.235989
O O13 0.173858 0.068260 0.555631
O O14 0.597775 0.697146 0.153588
O O15 0.500000 0.392316 0.250000
O O16 0.500000 0.579815 0.250000
#
# Coordination Sequence:
#
# PCOD8137142 Si02
#       8
#     4   8   8   8   8   8   8   8
#     4  12  24  44  68  96 128 168 230 284 326 390
#     4  11  22  39  65  96 130 172 217 276 335 391
#     4  11  21  38  61  96 132 165 219 274 332 388
#     4  11  24  42  63  95 131 178 220 262 335 397
#     4  11  20  37  65  98 123 161 217 275 329 374
#     4  11  25  43  68  94 131 176 221 277 327 399
#     4  11  23  39  61  91 135 179 213 266 332 404
#     4  10  20  35  61  94 125 158 207 266 319 388
#
# _framework density 20.887633000000001
#
# number of rings (size 3 to 8) (size 9 to 14) (size 15 to 20)
#    0.000    1.067    6.000    1.600    1.867    1.600 
#    0.000    4.000    0.000    0.000    0.000    0.000 
#    0.000    0.000    0.000    0.000    0.000    0.000 
#
# Total GULP energy -371928.845299 kJ/mol
# GULP energy per Si atom -12397.628177 kJ/mol
# Density = 2.084009 g / cm^3
# Si number density = 20.887633 Si / 1000 Ang^3
#
#
#
# Elastic Constant Matrix: (Units=GPa)
#
#
# Indices 1 2 3 4 5 6 
#
# 1 95.8804 31.0792 37.4501 0.0000 7.8951 0.0000
# 2 31.0792 63.1819 36.7766 0.0000 1.4714 0.0000
# 3 37.4501 36.7766 137.5375 0.0000 10.1081 0.0000
# 4 0.0000 0.0000 0.0000 13.6573 0.0000 0.4060
# 5 7.8951 1.4714 10.1081 0.0000 25.4990 0.0000
# 6 0.0000 0.0000 0.0000 0.4060 0.0000 25.4026
#
#
#
# Elastic Compliance Matrix: (Units=1/GPa)
#
#
# Indices 1 2 3 4 5 6 
#
# 1 0.013143 -0.005259 -0.001953 0.000000 -0.002992 0.000000
# 2 -0.005259 0.020871 -0.004305 0.000000 0.002131 0.000000
# 3 -0.001953 -0.004305 0.009158 0.000000 -0.002777 0.000000
# 4 0.000000 0.000000 0.000000 0.073256 0.000000 -0.001171
# 5 -0.002992 0.002131 -0.002777 0.000000 0.041122 0.000000
# 6 0.000000 0.000000 0.000000 -0.001171 0.000000 0.039385
#
#
# Mechanical properties :
#
#
# Convention : Reuss Voigt Hill
#
# Bulk Modulus (GPa) = 49.65772 56.35684 53.00728
# Shear Modulus (GPa) = 22.05748 25.66470 23.86109
#
# Velocity S-wave (km/s) = 3.25315 3.50909 3.38354
# Velocity P-wave (km/s) = 6.15922 6.59225 6.37941
#
# Compressibility (1/GPa) = 0.02013786
#
# Stress axis : x y z
#
# Youngs Moduli (GPa) = 76.08379 47.91444 109.19697
#
# Poissons Ratio (x) = 0.25198 0.21323
# Poissons Ratio (y) = 0.40012 0.47012
# Poissons Ratio (z) = 0.14857 0.20628
#
# Static dielectric constant tensor:
#      x y z
#    x 3.721650 0.000000 -0.012910 
#    y 0.000000 3.537130 0.000000 
#    z -0.012910 0.000000 4.121240 
# 
# 
# High freq. dielectric constant tensor:
#      x y z
#    x 1.812960 0.000000 -0.000970 
#    y 0.000000 1.796160 0.000000 
#    z -0.000970 0.000000 1.838510 
# 
# From -- ./inp_files/113773.got.cif
#   From: 2010.06.25/outbox.cif.g09.slc.cpg/sg15_57_cif.got.tgz:113773.got - 2010.06.28 07:06:18.
