data_PCOD8137476
_publ_section_title
;
Structure prediction by ZEFSAII (Michael W. Deem and Ramdas Pophale) SiO2 
 PCOD8137476
Probable space group: C 2/C
;
_chemical_formula_sum "Si O2"
_cell_formula_units_Z 52
_cell_length_a 10.743585
_cell_length_b 28.509959
_cell_length_c 14.229105
_cell_angle_alpha 90.000000
_cell_angle_beta 36.521203
_cell_angle_gamma 90.000000
_cell_volume 2593.749973
_symmetry_space_group_name_H-M "C 2/C"
_symmetry_group_IT_number 15
_symmetry_cell_setting 'monoclinic'
loop_
_space_group_symop_operation_xyz
x,y,z
-x,y,1/2-z
-x,-y,-z
x,-y,1/2+z
1/2+x,1/2+y,z
1/2-x,1/2+y,1/2-z
1/2-x,1/2-y,-z
1/2+x,1/2-y,1/2+z
loop_
_atom_site_type_symbol
_atom_site_label
_atom_site_fract_x
_atom_site_fract_y
_atom_site_fract_z
Si Si1 0.596113 0.876836 0.293440
Si Si2 0.910140 0.117450 0.991607
Si Si3 0.539845 0.976261 0.075846
Si Si4 0.500000 0.340356 0.250000
Si Si5 0.824542 0.297188 0.778157
Si Si6 0.904665 0.705700 0.570695
Si Si7 0.790113 0.013925 0.078267
O O1 0.500000 0.876015 0.250000
O O2 0.496035 0.920315 0.412386
O O3 0.527497 0.827917 0.384349
O O4 0.844456 0.884543 0.131752
O O5 0.787630 0.154237 0.130253
O O6 0.785627 0.069662 0.076796
O O7 0.884713 0.128495 0.897167
O O8 0.763460 0.989727 0.989905
O O9 0.386352 0.997994 0.244229
O O10 0.500000 0.000000 0.000000
O O11 0.332325 0.307381 0.305408
O O12 0.629019 0.260743 0.886958
O O13 0.000000 0.284032 0.750000
O O14 0.934686 0.301640 0.610903
O O15 0.000000 0.000000 0.000000
#
# Coordination Sequence:
#
# PCOD8137476 Si02
#       7
#     8   8   8   4   8   8   8
#     4  11  23  48  64  89 132 182 219 275 318 388
#     4  11  24  37  67  92 132 164 222 259 336 386
#     4  11  25  39  65  95 133 169 228 265 330 382
#     4  10  20  36  58  98 124 170 196 262 318 386
#     4  12  23  41  63 104 135 160 209 281 337 398
#     4  11  23  38  67  92 131 169 211 259 338 387
#     4  11  23  43  62  94 133 178 216 268 323 391
#
# _framework density 20.048193000000001
#
# number of rings (size 3 to 8) (size 9 to 14) (size 15 to 20)
#    0.000    0.923    5.385    2.308    8.615    0.615 
#    0.000    3.846    0.000    0.000    0.000    0.000 
#    0.000    0.000    0.000    0.000    0.000    0.000 
#
# Total GULP energy -322201.894683 kJ/mol
# GULP energy per Si atom -12392.380565 kJ/mol
# Density = 2.000256 g / cm^3
# Si number density = 20.048193 Si / 1000 Ang^3
#
#
#
# Elastic Constant Matrix: (Units=GPa)
#
#
# Indices 1 2 3 4 5 6 
#
# 1 105.3331 17.2561 15.7960 0.0000 10.7364 0.0000
# 2 17.2561 139.7051 27.8150 0.0000 3.0257 0.0000
# 3 15.7960 27.8150 71.3108 0.0000 15.3546 0.0000
# 4 0.0000 0.0000 0.0000 7.1380 0.0000 -27.9800
# 5 10.7364 3.0257 15.3546 0.0000 29.1407 0.0000
# 6 0.0000 0.0000 0.0000 -27.9800 0.0000 -45.8177
#
#
#
# Elastic Compliance Matrix: (Units=1/GPa)
#
#
# Indices 1 2 3 4 5 6 
#
# 1 0.010138 -0.000942 -0.001235 0.000000 -0.002986 0.000000
# 2 -0.000942 0.007869 -0.003113 0.000000 0.001170 0.000000
# 3 -0.001235 -0.003113 0.017307 0.000000 -0.008341 0.000000
# 4 0.000000 0.000000 0.000000 0.041280 0.000000 -0.025209
# 5 -0.002986 0.001170 -0.008341 0.000000 0.039690 0.000000
# 6 0.000000 0.000000 0.000000 -0.025209 0.000000 -0.006431
#
#
# Mechanical properties :
#
#
# Convention : Reuss Voigt Hill
#
# Bulk Modulus (GPa) = 40.42987 48.67592 44.55289
# Shear Modulus (GPa) = 38.85756 15.12433 26.99095
#
# Velocity S-wave (km/s) = 4.40728 2.74961 3.67318
# Velocity P-wave (km/s) = 6.79036 5.86623 6.34514
#
# Compressibility (1/GPa) = 0.02473419
#
# Stress axis : x y z
#
# Youngs Moduli (GPa) = 98.64287 127.08756 57.78099
#
# Poissons Ratio (x) = 0.11966 0.07138
# Poissons Ratio (y) = 0.09288 0.17984
# Poissons Ratio (z) = 0.12185 0.39556
#
# Static dielectric constant tensor:
#      x y z
#    x 4.957390 0.000000 0.119190 
#    y 0.000000 4.575670 0.000000 
#    z 0.119190 0.000000 3.669500 
# 
# 
# High freq. dielectric constant tensor:
#      x y z
#    x 1.776620 0.000000 0.001090 
#    y 0.000000 1.800600 0.000000 
#    z 0.001090 0.000000 1.778040 
# 
# From -- ./inp_files/148360.got.cif
#   From: 2010.06.25/outbox.cif.g09.slc.cpg/sg15_75_cif.got.tgz:148360.got - 2010.06.28 07:06:18.
