data_PCOD8137456
_publ_section_title
;
Structure prediction by ZEFSAII (Michael W. Deem and Ramdas Pophale) SiO2 
 PCOD8137456
Probable space group: C 2/C
;
_chemical_formula_sum "Si O2"
_cell_formula_units_Z 56
_cell_length_a 13.822960
_cell_length_b 27.384196
_cell_length_c 8.375148
_cell_angle_alpha 90.000000
_cell_angle_beta 57.607978
_cell_angle_gamma 90.000000
_cell_volume 2676.967265
_symmetry_space_group_name_H-M "C 2/C"
_symmetry_group_IT_number 15
_symmetry_cell_setting 'monoclinic'
loop_
_space_group_symop_operation_xyz
x,y,z
-x,y,1/2-z
-x,-y,-z
x,-y,1/2+z
1/2+x,1/2+y,z
1/2-x,1/2+y,1/2-z
1/2-x,1/2-y,-z
1/2+x,1/2-y,1/2+z
loop_
_atom_site_type_symbol
_atom_site_label
_atom_site_fract_x
_atom_site_fract_y
_atom_site_fract_z
Si Si1 0.656923 0.122453 0.202824
Si Si2 0.937555 0.651008 0.556040
Si Si3 0.625051 0.650796 0.952410
Si Si4 0.294188 0.932137 0.266250
Si Si5 0.365049 0.664544 0.178101
Si Si6 0.629777 0.018136 0.121360
Si Si7 0.290698 0.767442 0.292031
O O1 0.572999 0.149432 0.403496
O O2 0.787276 0.128486 0.143518
O O3 0.633540 0.064719 0.236054
O O4 0.633342 0.144126 0.047785
O O5 0.895664 0.607112 0.708047
O O6 0.908928 0.701270 0.674818
O O7 0.674919 0.598043 0.854386
O O8 0.692875 0.696154 0.808827
O O9 0.495235 0.655645 0.008763
O O10 0.642819 0.654851 0.126687
O O11 0.287743 0.972335 0.411210
O O12 0.325049 0.964431 0.087021
O O13 0.318670 0.718400 0.169404
O O14 0.500000 0.998582 0.250000
O O15 0.250000 0.750000 0.500000
#
# Coordination Sequence:
#
# PCOD8137456 Si02
#       7
#     8   8   8   8   8   8   8
#     4  10  20  36  58  90 123 163 191 254 307 359
#     4   9  19  38  57  88 131 147 201 256 301 359
#     4   9  21  41  55  88 128 150 204 254 290 359
#     4  10  21  37  62  86 120 160 193 257 304 355
#     4  10  21  36  64  83 120 165 201 242 302 359
#     4  11  21  37  61  92 124 152 201 252 308 362
#     4   9  19  37  60  86 117 162 198 250 298 351
#
# _framework density 20.919194000000001
#
# number of rings (size 3 to 8) (size 9 to 14) (size 15 to 20)
#    0.000    2.286    2.857    0.429    4.000    0.571 
#    2.571    8.571    0.000    0.000    0.000    0.000 
#    0.000    0.000    0.000    0.000    0.000    0.000 
#
# Total GULP energy -346901.434075 kJ/mol
# GULP energy per Si atom -12389.336931 kJ/mol
# Density = 2.087158 g / cm^3
# Si number density = 20.919194 Si / 1000 Ang^3
#
#
#
# Elastic Constant Matrix: (Units=GPa)
#
#
# Indices 1 2 3 4 5 6 
#
# 1 111.8190 36.8998 15.5266 0.0000 -26.6404 0.0000
# 2 36.8998 114.5936 38.3064 0.0000 -12.4216 0.0000
# 3 15.5266 38.3064 53.4839 0.0000 -21.3163 0.0000
# 4 0.0000 0.0000 0.0000 26.5220 0.0000 -7.2457
# 5 -26.6404 -12.4216 -21.3163 0.0000 27.7903 0.0000
# 6 0.0000 0.0000 0.0000 -7.2457 0.0000 15.1300
#
#
#
# Elastic Compliance Matrix: (Units=1/GPa)
#
#
# Indices 1 2 3 4 5 6 
#
# 1 0.013145 -0.004364 0.005119 0.000000 0.014578 0.000000
# 2 -0.004364 0.012978 -0.010635 0.000000 -0.006540 0.000000
# 3 0.005119 -0.010635 0.035848 0.000000 0.027651 0.000000
# 4 0.000000 0.000000 0.000000 0.043380 0.000000 0.020774
# 5 0.014578 -0.006540 0.027651 0.000000 0.068245 0.000000
# 6 0.000000 0.000000 0.000000 0.020774 0.000000 0.076043
#
#
# Mechanical properties :
#
#
# Convention : Reuss Voigt Hill
#
# Bulk Modulus (GPa) = 23.68928 51.26245 37.47587
# Shear Modulus (GPa) = 17.63867 26.49938 22.06903
#
# Velocity S-wave (km/s) = 2.90691 3.56300 3.25155
# Velocity P-wave (km/s) = 4.75559 6.44087 5.66129
#
# Compressibility (1/GPa) = 0.04221319
#
# Stress axis : x y z
#
# Youngs Moduli (GPa) = 76.07264 77.05488 27.89527
#
# Poissons Ratio (x) = 0.33627 -0.14281
# Poissons Ratio (y) = 0.33198 0.29665
# Poissons Ratio (z) = -0.38945 0.81945
#
# Static dielectric constant tensor:
#      x y z
#    x 3.439130 0.000000 -0.215110 
#    y 0.000000 4.188770 0.000000 
#    z -0.215110 0.000000 3.799560 
# 
# 
# High freq. dielectric constant tensor:
#      x y z
#    x 1.781590 0.000000 -0.014970 
#    y 0.000000 1.829850 0.000000 
#    z -0.014970 0.000000 1.817340 
# 
# From -- ./inp_files/43474.got.cif
#   From: 2010.06.25/outbox.cif.g09.slc.cpg/sg15_22_cif.got.tgz:43474.got - 2010.06.28 07:06:18.
