data_PCOD8137499
_publ_section_title
;
Structure prediction by ZEFSAII (Michael W. Deem and Ramdas Pophale) SiO2 
 PCOD8137499
Probable space group: C 2/C
;
_chemical_formula_sum "Si O2"
_cell_formula_units_Z 48
_cell_length_a 12.467548
_cell_length_b 11.514108
_cell_length_c 17.369364
_cell_angle_alpha 90.000000
_cell_angle_beta 69.227852
_cell_angle_gamma 90.000000
_cell_volume 2331.342242
_symmetry_space_group_name_H-M "C 2/C"
_symmetry_group_IT_number 15
_symmetry_cell_setting 'monoclinic'
loop_
_space_group_symop_operation_xyz
x,y,z
-x,y,1/2-z
-x,-y,-z
x,-y,1/2+z
1/2+x,1/2+y,z
1/2-x,1/2+y,1/2-z
1/2-x,1/2-y,-z
1/2+x,1/2-y,1/2+z
loop_
_atom_site_type_symbol
_atom_site_label
_atom_site_fract_x
_atom_site_fract_y
_atom_site_fract_z
Si Si1 0.244901 0.079933 0.603987
Si Si2 0.486189 0.131502 0.529484
Si Si3 0.976863 0.992457 0.415708
Si Si4 0.106037 0.177705 0.774668
Si Si5 0.689676 0.180417 0.382337
Si Si6 0.058366 0.760108 0.652115
O O1 0.351297 0.160214 0.547204
O O2 0.202507 0.127959 0.695374
O O3 0.146067 0.071028 0.564939
O O4 0.292507 0.954648 0.613504
O O5 0.575618 0.215256 0.461225
O O6 0.513067 0.151787 0.613112
O O7 0.500000 0.000000 0.500000
O O8 0.978036 0.119227 0.377787
O O9 0.000000 0.000000 0.500000
O O10 0.073664 0.918766 0.346860
O O11 0.159824 0.289812 0.801985
O O12 0.000000 0.218605 0.750000
O O13 0.803130 0.250564 0.379225
O O14 0.000000 0.752748 0.750000
#
# Coordination Sequence:
#
# PCOD8137499 Si02
#       6
#     8   8   8   8   8   8
#     4   9  20  38  57  81 114 149 187 237 285 342
#     4  10  21  37  56  83 116 147 186 237 290 337
#     4  10  20  36  59  85 112 149 195 238 284 338
#     4  10  20  37  57  82 115 146 183 236 291 336
#     4  10  20  37  59  83 111 152 192 233 284 347
#     4  11  21  37  61  86 111 151 200 239 280 346
#
# _framework density 20.588999000000001
#
# number of rings (size 3 to 8) (size 9 to 14) (size 15 to 20)
#    0.000    2.000    0.000    5.000    0.000    2.667 
#    0.000   17.500    0.000    0.000    0.000    0.000 
#    0.000    0.000    0.000    0.000    0.000    0.000 
#
# Total GULP energy -297450.545590 kJ/mol
# GULP energy per Si atom -12393.772733 kJ/mol
# Density = 2.054214 g / cm^3
# Si number density = 20.588999 Si / 1000 Ang^3
#
#
#
# Elastic Constant Matrix: (Units=GPa)
#
#
# Indices 1 2 3 4 5 6 
#
# 1 140.4911 30.1149 84.7280 0.0000 -16.9225 0.0000
# 2 30.1149 34.7144 27.0172 0.0000 5.7386 0.0000
# 3 84.7280 27.0172 144.6596 0.0000 0.7950 0.0000
# 4 0.0000 0.0000 0.0000 30.1747 0.0000 14.9737
# 5 -16.9225 5.7386 0.7950 0.0000 48.4682 0.0000
# 6 0.0000 0.0000 0.0000 14.9737 0.0000 22.7373
#
#
#
# Elastic Compliance Matrix: (Units=1/GPa)
#
#
# Indices 1 2 3 4 5 6 
#
# 1 0.013249 -0.007439 -0.006402 0.000000 0.005612 0.000000
# 2 -0.007439 0.038631 -0.002819 0.000000 -0.007125 0.000000
# 3 -0.006402 -0.002819 0.011200 0.000000 -0.002085 0.000000
# 4 0.000000 0.000000 0.000000 0.049228 0.000000 -0.032419
# 5 0.005612 -0.007125 -0.002085 0.000000 0.023469 0.000000
# 6 0.000000 0.000000 0.000000 -0.032419 0.000000 0.065330
#
#
# Mechanical properties :
#
#
# Convention : Reuss Voigt Hill
#
# Bulk Modulus (GPa) = 33.59995 67.06504 50.33249
# Shear Modulus (GPa) = 20.46266 32.14305 26.30285
#
# Velocity S-wave (km/s) = 3.15598 3.95546 3.57812
# Velocity P-wave (km/s) = 5.44381 7.31470 6.44748
#
# Compressibility (1/GPa) = 0.02976195
#
# Stress axis : x y z
#
# Youngs Moduli (GPa) = 75.47658 25.88562 89.28491
#
# Poissons Ratio (x) = 0.19257 0.57156
# Poissons Ratio (y) = 0.56149 0.25166
# Poissons Ratio (z) = 0.48317 0.07296
#
# Static dielectric constant tensor:
#      x y z
#    x 4.409730 0.000000 -0.522900 
#    y 0.000000 3.503500 0.000000 
#    z -0.522900 0.000000 4.130170 
# 
# 
# High freq. dielectric constant tensor:
#      x y z
#    x 1.820770 0.000000 -0.012830 
#    y 0.000000 1.782620 0.000000 
#    z -0.012830 0.000000 1.813470 
# 
# From -- ./inp_files/182448.got.cif
#   From: 2010.06.25/outbox.cif.g09.slc.cpg/sg15_92_cif.got.tgz:182448.got - 2010.06.28 07:06:18.
