data_PCOD8137073
_publ_section_title
;
Structure prediction by ZEFSAII (Michael W. Deem and Ramdas Pophale) SiO2 
 PCOD8137073
Probable space group: C 2/C
;
_chemical_formula_sum "Si O2"
_cell_formula_units_Z 44
_cell_length_a 7.809634
_cell_length_b 30.089062
_cell_length_c 9.068962
_cell_angle_alpha 90.000000
_cell_angle_beta 68.692798
_cell_angle_gamma 90.000000
_cell_volume 1985.398233
_symmetry_space_group_name_H-M "C 2/C"
_symmetry_group_IT_number 15
_symmetry_cell_setting 'monoclinic'
loop_
_space_group_symop_operation_xyz
x,y,z
-x,y,1/2-z
-x,-y,-z
x,-y,1/2+z
1/2+x,1/2+y,z
1/2-x,1/2+y,1/2-z
1/2-x,1/2-y,-z
1/2+x,1/2-y,1/2+z
loop_
_atom_site_type_symbol
_atom_site_label
_atom_site_fract_x
_atom_site_fract_y
_atom_site_fract_z
Si Si1 0.204743 0.789787 0.622828
Si Si2 0.604476 0.049272 0.084535
Si Si3 0.500000 0.183057 0.250000
Si Si4 0.843211 0.453364 0.406779
Si Si5 0.243340 0.865202 0.055845
Si Si6 0.660673 0.635446 0.909646
O O1 0.250000 0.750000 0.500000
O O2 0.344384 0.787394 0.718117
O O3 0.236052 0.835379 0.521345
O O4 0.000000 0.785768 0.750000
O O5 0.500000 0.074276 0.250000
O O6 0.711034 0.004798 0.112990
O O7 0.427363 0.040029 0.040299
O O8 0.749947 0.081137 0.959066
O O9 0.408238 0.155303 0.410870
O O10 0.680609 0.416795 0.448524
O O11 0.000000 0.434709 0.250000
O O12 0.263039 0.852980 0.222852
O O13 0.050551 0.850874 0.046735
#
# Coordination Sequence:
#
# PCOD8137073 Si02
#       6
#     8   8   4   8   8   8
#     4  12  30  52  77 111 142 179 227 286 354 425
#     4  10  20  35  59  96 132 187 240 283 344 403
#     4  12  26  48  78 106 146 188 228 278 352 418
#     4  10  20  36  61  91 137 186 237 288 345 408
#     4  11  23  42  71 100 141 190 233 288 346 414
#     4  11  25  44  67 102 141 179 240 289 352 418
#
# _framework density 22.161802999999999
#
# number of rings (size 3 to 8) (size 9 to 14) (size 15 to 20)
#    0.000    1.091    4.545    1.091    2.545    2.909 
#    0.000    0.000    4.000    0.000    0.000    0.000 
#    0.000    0.000    0.000    0.000    0.000    0.000 
#
# Total GULP energy -272571.354292 kJ/mol
# GULP energy per Si atom -12389.607013 kJ/mol
# Density = 2.211136 g / cm^3
# Si number density = 22.161803 Si / 1000 Ang^3
#
#
#
# Elastic Constant Matrix: (Units=GPa)
#
#
# Indices 1 2 3 4 5 6 
#
# 1 105.3327 37.1235 53.0814 0.0000 10.2439 0.0000
# 2 37.1235 87.3655 40.2866 0.0000 -5.3154 0.0000
# 3 53.0814 40.2866 131.1068 0.0000 -6.2375 0.0000
# 4 0.0000 0.0000 0.0000 37.6562 0.0000 0.0277
# 5 10.2439 -5.3154 -6.2375 0.0000 37.7728 0.0000
# 6 0.0000 0.0000 0.0000 0.0277 0.0000 23.2682
#
#
#
# Elastic Compliance Matrix: (Units=1/GPa)
#
#
# Indices 1 2 3 4 5 6 
#
# 1 0.013694 -0.004029 -0.004546 0.000000 -0.005031 0.000000
# 2 -0.004029 0.014576 -0.002720 0.000000 0.002695 0.000000
# 3 -0.004546 -0.002720 0.010426 0.000000 0.002572 0.000000
# 4 0.000000 0.000000 0.000000 0.026556 0.000000 -0.000032
# 5 -0.005031 0.002695 0.002572 0.000000 0.028642 0.000000
# 6 0.000000 0.000000 0.000000 -0.000032 0.000000 0.042977
#
#
# Mechanical properties :
#
#
# Convention : Reuss Voigt Hill
#
# Bulk Modulus (GPa) = 62.08239 64.97643 63.52941
# Shear Modulus (GPa) = 30.33463 32.62701 31.48082
#
# Velocity S-wave (km/s) = 3.70372 3.84111 3.77304
# Velocity P-wave (km/s) = 6.80912 7.00392 6.90721
#
# Compressibility (1/GPa) = 0.01610763
#
# Stress axis : x y z
#
# Youngs Moduli (GPa) = 73.02677 68.60550 95.91609
#
# Poissons Ratio (x) = 0.27639 0.43599
# Poissons Ratio (y) = 0.29420 0.26086
# Poissons Ratio (z) = 0.33195 0.18658
#
# Static dielectric constant tensor:
#      x y z
#    x 3.777580 0.000000 0.147410 
#    y 0.000000 3.890400 0.000000 
#    z 0.147410 0.000000 4.220650 
# 
# 
# High freq. dielectric constant tensor:
#      x y z
#    x 1.851550 0.000000 0.011980 
#    y 0.000000 1.862530 0.000000 
#    z 0.011980 0.000000 1.891900 
# 
# From -- ./inp_files/25465.got.cif
#   From: 2010.06.25/outbox.cif.g09.slc.cpg/sg15_13_cif.got.tgz:25465.got - 2010.06.28 07:06:18.
