data_PCOD8137122
_publ_section_title
;
Structure prediction by ZEFSAII (Michael W. Deem and Ramdas Pophale) SiO2 
 PCOD8137122
Probable space group: C 2/C
;
_chemical_formula_sum "Si O2"
_cell_formula_units_Z 48
_cell_length_a 17.482638
_cell_length_b 14.342900
_cell_length_c 18.453190
_cell_angle_alpha 90.000000
_cell_angle_beta 147.901335
_cell_angle_gamma 90.000000
_cell_volume 2458.779856
_symmetry_space_group_name_H-M "C 2/C"
_symmetry_group_IT_number 15
_symmetry_cell_setting 'monoclinic'
loop_
_space_group_symop_operation_xyz
x,y,z
-x,y,1/2-z
-x,-y,-z
x,-y,1/2+z
1/2+x,1/2+y,z
1/2-x,1/2+y,1/2-z
1/2-x,1/2-y,-z
1/2+x,1/2-y,1/2+z
loop_
_atom_site_type_symbol
_atom_site_label
_atom_site_fract_x
_atom_site_fract_y
_atom_site_fract_z
Si Si1 0.884874 0.943689 0.487685
Si Si2 0.654511 0.663539 0.398642
Si Si3 0.702506 0.239253 0.233204
Si Si4 0.055884 0.856094 0.498376
Si Si5 0.672020 0.082196 0.092161
Si Si6 0.845180 0.426423 0.310721
O O1 0.866127 0.905228 0.551799
O O2 0.730929 0.953925 0.325138
O O3 0.989845 0.875647 0.525820
O O4 0.948723 0.047203 0.548511
O O5 0.500000 0.703315 0.250000
O O6 0.750000 0.750000 0.500000
O O7 0.722551 0.600597 0.389941
O O8 0.780891 0.183267 0.361606
O O9 0.671189 0.173950 0.140135
O O10 0.815819 0.319026 0.303911
O O11 0.547275 0.284429 0.128936
O O12 0.720207 0.992625 0.178196
O O13 0.513994 0.059309 0.934787
#
# Coordination Sequence:
#
# PCOD8137122 Si02
#       6
#     8   8   8   8   8   8
#     4  10  22  39  61  87 127 170 206 259 317 374
#     4  12  28  41  63  93 137 169 202 258 330 389
#     4  11  19  35  60  89 120 155 205 265 301 359
#     4  10  20  35  61  87 122 157 216 250 306 366
#     4  11  23  39  61  97 126 160 214 254 327 372
#     4  10  22  38  64  90 122 165 213 267 299 376
#
# _framework density 19.521878999999998
#
# number of rings (size 3 to 8) (size 9 to 14) (size 15 to 20)
#    0.000    1.333    3.333    3.000    9.333    0.000 
#    0.000    0.000    0.000    1.000    8.667    0.000 
#    0.000    0.000    0.000    0.000    0.000    0.000 
#
# Total GULP energy -297548.166126 kJ/mol
# GULP energy per Si atom -12397.840255 kJ/mol
# Density = 1.947745 g / cm^3
# Si number density = 19.521879 Si / 1000 Ang^3
#
#
#
# Elastic Constant Matrix: (Units=GPa)
#
#
# Indices 1 2 3 4 5 6 
#
# 1 67.1660 29.1509 40.9418 0.0006 7.9861 0.0001
# 2 29.1509 102.4944 53.4726 0.0031 7.6517 0.0004
# 3 40.9418 53.4726 143.9406 0.0062 -6.7116 -0.0002
# 4 0.0006 0.0031 0.0062 33.5755 0.0016 2.8041
# 5 7.9861 7.6517 -6.7116 0.0016 11.8474 -0.0004
# 6 0.0001 0.0004 -0.0002 2.8041 -0.0004 19.1709
#
#
#
# Elastic Compliance Matrix: (Units=1/GPa)
#
#
# Indices 1 2 3 4 5 6 
#
# 1 0.021432 -0.001523 -0.006325 0.000002 -0.017046 -0.000001
# 2 -0.001523 0.013675 -0.005147 0.000000 -0.010721 -0.000001
# 3 -0.006325 -0.005147 0.011311 -0.000002 0.013995 0.000001
# 4 0.000002 0.000000 -0.000002 0.030152 -0.000007 -0.004410
# 5 -0.017046 -0.010721 0.013995 -0.000007 0.110750 0.000004
# 6 -0.000001 -0.000001 0.000001 -0.004410 0.000004 0.052807
#
#
# Mechanical properties :
#
#
# Convention : Reuss Voigt Hill
#
# Bulk Modulus (GPa) = 48.95221 62.30352 55.62787
# Shear Modulus (GPa) = 18.31987 25.58778 21.95383
#
# Velocity S-wave (km/s) = 3.06670 3.62432 3.35711
# Velocity P-wave (km/s) = 6.13755 7.03550 6.60181
#
# Compressibility (1/GPa) = 0.02042809
#
# Stress axis : x y z
#
# Youngs Moduli (GPa) = 46.65965 73.12348 88.40966
#
# Poissons Ratio (x) = 0.11138 0.55919
# Poissons Ratio (y) = 0.07107 0.45504
# Poissons Ratio (z) = 0.29512 0.37637
#
# Static dielectric constant tensor:
#      x y z
#    x 3.033970 0.000000 -0.101540 
#    y 0.000000 3.716590 0.000000 
#    z -0.101540 0.000000 3.650350 
# 
# 
# High freq. dielectric constant tensor:
#      x y z
#    x 1.697440 0.000000 0.003130 
#    y 0.000000 1.776850 0.000000 
#    z 0.003130 0.000000 1.792270 
# 
# From -- ./inp_files/249008.got.cif
#   From: 2010.06.25/outbox.cif.g09.slc.cpg/sg15_125_cif.got.tgz:249008.got - 2010.06.28 07:06:18.
