data_PCOD8137449
_publ_section_title
;
Structure prediction by ZEFSAII (Michael W. Deem and Ramdas Pophale) SiO2 
 PCOD8137449
Probable space group: C 2/C
;
_chemical_formula_sum "Si O2"
_cell_formula_units_Z 48
_cell_length_a 16.890533
_cell_length_b 13.045231
_cell_length_c 11.572315
_cell_angle_alpha 90.000000
_cell_angle_beta 107.300509
_cell_angle_gamma 90.000000
_cell_volume 2434.494248
_symmetry_space_group_name_H-M "C 2/C"
_symmetry_group_IT_number 15
_symmetry_cell_setting 'monoclinic'
loop_
_space_group_symop_operation_xyz
x,y,z
-x,y,1/2-z
-x,-y,-z
x,-y,1/2+z
1/2+x,1/2+y,z
1/2-x,1/2+y,1/2-z
1/2-x,1/2-y,-z
1/2+x,1/2-y,1/2+z
loop_
_atom_site_type_symbol
_atom_site_label
_atom_site_fract_x
_atom_site_fract_y
_atom_site_fract_z
Si Si1 0.799610 0.186924 0.357794
Si Si2 0.626583 0.309441 0.011758
Si Si3 0.229148 0.620710 0.081760
Si Si4 0.032605 0.914490 0.602323
Si Si5 0.245775 0.392276 0.064258
Si Si6 0.414690 0.397188 0.257310
O O1 0.767610 0.160790 0.217310
O O2 0.893132 0.150410 0.419330
O O3 0.800975 0.309293 0.377009
O O4 0.737851 0.134287 0.424671
O O5 0.647008 0.187736 0.017119
O O6 0.615609 0.345352 0.138340
O O7 0.704395 0.369614 0.992314
O O8 0.543098 0.335835 0.902609
O O9 0.204496 0.501331 0.077366
O O10 0.068159 0.979785 0.725292
O O11 0.000000 0.000000 0.500000
O O12 0.343940 0.387661 0.131800
O O13 0.500000 0.343719 0.250000
#
# Coordination Sequence:
#
# PCOD8137449 Si02
#       6
#     8   8   8   8   8   8
#     4  11  23  38  60  91 127 160 203 256 302 365
#     4  10  22  37  57  91 120 162 203 254 304 363
#     4  11  22  39  62  86 128 166 202 250 308 372
#     4  10  20  36  58  88 119 152 202 256 301 343
#     4  11  22  37  59  91 123 164 205 247 306 373
#     4  11  19  34  61  90 120 152 200 262 308 349
#
# _framework density 19.716619999999999
#
# number of rings (size 3 to 8) (size 9 to 14) (size 15 to 20)
#    0.000    1.333    3.333    5.000    0.000    0.000 
#    0.000    0.833    0.000    0.000    0.000    0.000 
#    0.000    0.000    0.000    0.000    0.000    0.000 
#
# Total GULP energy -297517.377864 kJ/mol
# GULP energy per Si atom -12396.557411 kJ/mol
# Density = 1.967174 g / cm^3
# Si number density = 19.716620 Si / 1000 Ang^3
#
#
#
# Elastic Constant Matrix: (Units=GPa)
#
#
# Indices 1 2 3 4 5 6 
#
# 1 95.8639 60.8885 24.3025 0.0000 -4.0679 0.0000
# 2 60.8885 163.7866 23.7797 0.0000 -6.9156 0.0000
# 3 24.3025 23.7797 63.6454 0.0000 -21.5306 0.0000
# 4 0.0000 0.0000 0.0000 25.4912 0.0000 4.6734
# 5 -4.0679 -6.9156 -21.5306 0.0000 32.4506 0.0000
# 6 0.0000 0.0000 0.0000 4.6734 0.0000 39.2988
#
#
#
# Elastic Compliance Matrix: (Units=1/GPa)
#
#
# Indices 1 2 3 4 5 6 
#
# 1 0.014558 -0.004853 -0.004485 0.000000 -0.002185 0.000000
# 2 -0.004853 0.008076 -0.001016 0.000000 0.000439 0.000000
# 3 -0.004485 -0.001016 0.022617 0.000000 0.014227 0.000000
# 4 0.000000 0.000000 0.000000 0.040104 0.000000 -0.004769
# 5 -0.002185 0.000439 0.014227 0.000000 0.040076 0.000000
# 6 0.000000 0.000000 0.000000 -0.004769 0.000000 0.026013
#
#
# Mechanical properties :
#
#
# Convention : Reuss Voigt Hill
#
# Bulk Modulus (GPa) = 40.74392 60.13749 50.44070
# Shear Modulus (GPa) = 27.72666 33.73646 30.73156
#
# Velocity S-wave (km/s) = 3.75408 4.14099 3.95227
# Velocity P-wave (km/s) = 6.28494 7.30964 6.81657
#
# Compressibility (1/GPa) = 0.02454354
#
# Stress axis : x y z
#
# Youngs Moduli (GPa) = 68.68973 123.82811 44.21443
#
# Poissons Ratio (x) = 0.60096 0.19829
# Poissons Ratio (y) = 0.33337 0.04491
# Poissons Ratio (z) = 0.30806 0.12578
#
# Static dielectric constant tensor:
#      x y z
#    x 3.774170 0.000000 0.127710 
#    y 0.000000 3.906590 0.000000 
#    z 0.127710 0.000000 3.735900 
# 
# 
# High freq. dielectric constant tensor:
#      x y z
#    x 1.752960 0.000000 -0.013850 
#    y 0.000000 1.758560 0.000000 
#    z -0.013850 0.000000 1.778770 
# 
# From -- ./inp_files/103661.got.cif
#   From: 2010.06.25/outbox.cif.g09.slc.cpg/sg15_52_cif.got.tgz:103661.got - 2010.06.28 07:06:18.
