data_PCOD8137514
_publ_section_title
;
Structure prediction by ZEFSAII (Michael W. Deem and Ramdas Pophale) SiO2 
 PCOD8137514
Probable space group: C 2/C
;
_chemical_formula_sum "Si O2"
_cell_formula_units_Z 64
_cell_length_a 22.959559
_cell_length_b 17.331160
_cell_length_c 21.752530
_cell_angle_alpha 90.000000
_cell_angle_beta 157.199449
_cell_angle_gamma 90.000000
_cell_volume 3354.285776
_symmetry_space_group_name_H-M "C 2/C"
_symmetry_group_IT_number 15
_symmetry_cell_setting 'monoclinic'
loop_
_space_group_symop_operation_xyz
x,y,z
-x,y,1/2-z
-x,-y,-z
x,-y,1/2+z
1/2+x,1/2+y,z
1/2-x,1/2+y,1/2-z
1/2-x,1/2-y,-z
1/2+x,1/2-y,1/2+z
loop_
_atom_site_type_symbol
_atom_site_label
_atom_site_fract_x
_atom_site_fract_y
_atom_site_fract_z
Si Si1 0.670727 0.021388 0.414227
Si Si2 0.861446 0.316464 0.330945
Si Si3 0.816602 0.124999 0.727644
Si Si4 0.171871 0.172874 0.901182
Si Si5 0.665625 0.024903 0.042298
Si Si6 0.597743 0.560527 0.056784
Si Si7 0.326191 0.040852 0.710422
Si Si8 0.291425 0.161379 0.334596
O O1 0.500000 0.050697 0.250000
O O2 0.768490 0.099032 0.502737
O O3 0.714129 0.978005 0.518828
O O4 0.694728 0.957716 0.383921
O O5 0.776724 0.326899 0.313193
O O6 0.810930 0.377566 0.229828
O O7 0.811741 0.235280 0.253898
O O8 0.038391 0.315990 0.517706
O O9 0.798996 0.163418 0.643622
O O10 0.755902 0.037393 0.669877
O O11 0.990353 0.121238 0.917113
O O12 0.000000 0.181581 0.750000
O O13 0.250000 0.250000 0.000000
O O14 0.706615 0.111635 0.101284
O O15 0.490488 0.006070 0.884714
O O16 0.693471 0.514427 0.100939
O O17 0.718845 0.608612 0.212169
O O18 0.500000 0.500000 0.000000
#
# Coordination Sequence:
#
# PCOD8137514 Si02
#       8
#     8   8   8   8   8   8   8   8
#     4   9  19  38  63  84 109 150 197 238 287 345
#     4  11  23  37  57  87 119 154 188 242 300 349
#     4  11  22  38  59  86 116 151 197 237 288 355
#     4  11  24  40  57  82 117 154 194 240 291 342
#     4   9  19  38  60  83 112 154 194 239 282 347
#     4  12  21  35  61  85 117 151 192 237 290 352
#     4  10  20  36  59  86 116 149 194 237 289 347
#     4  11  23  38  57  84 119 152 192 239 295 348
#
# _framework density 19.080068000000001
#
# number of rings (size 3 to 8) (size 9 to 14) (size 15 to 20)
#    0.000    1.500    2.500    2.625    0.000    5.000 
#    0.000    0.625    0.000    0.000    0.000    0.000 
#    0.000    0.000    0.000    0.000    0.000    0.000 
#
# Total GULP energy -396759.797540 kJ/mol
# GULP energy per Si atom -12398.743673 kJ/mol
# Density = 1.903664 g / cm^3
# Si number density = 19.080068 Si / 1000 Ang^3
#
#
#
# Elastic Constant Matrix: (Units=GPa)
#
#
# Indices 1 2 3 4 5 6 
#
# 1 88.1092 48.5227 38.7889 0.0054 3.5486 -0.0010
# 2 48.5227 101.0418 50.9167 0.0072 4.0104 0.0013
# 3 38.7889 50.9167 117.1121 -0.0028 5.1298 -0.0031
# 4 0.0054 0.0072 -0.0028 39.8964 0.0061 -2.1477
# 5 3.5486 4.0104 5.1298 0.0061 27.2365 -0.0039
# 6 -0.0010 0.0013 -0.0031 -2.1477 -0.0039 23.2524
#
#
#
# Elastic Compliance Matrix: (Units=1/GPa)
#
#
# Indices 1 2 3 4 5 6 
#
# 1 0.015997 -0.006403 -0.002485 -0.000001 -0.000673 0.000001
# 2 -0.006403 0.015255 -0.004487 -0.000002 -0.000567 -0.000002
# 3 -0.002485 -0.004487 0.011363 0.000002 -0.001156 0.000002
# 4 -0.000001 -0.000002 0.000002 0.025190 -0.000005 0.002327
# 5 -0.000673 -0.000567 -0.001156 -0.000005 0.037104 0.000006
# 6 0.000001 -0.000002 0.000002 0.002327 0.000006 0.043221
#
#
# Mechanical properties :
#
#
# Convention : Reuss Voigt Hill
#
# Bulk Modulus (GPa) = 63.03001 64.74664 63.88833
# Shear Modulus (GPa) = 27.75156 29.27937 28.51547
#
# Velocity S-wave (km/s) = 3.81790 3.92159 3.87009
# Velocity P-wave (km/s) = 7.24854 7.38329 7.31623
#
# Compressibility (1/GPa) = 0.01586546
#
# Stress axis : x y z
#
# Youngs Moduli (GPa) = 62.51199 65.55059 88.00269
#
# Poissons Ratio (x) = 0.41973 0.21869
# Poissons Ratio (y) = 0.40027 0.39486
# Poissons Ratio (z) = 0.15534 0.29412
#
# Static dielectric constant tensor:
#      x y z
#    x 3.601330 -0.000150 0.209720 
#    y -0.000150 3.475850 -0.000450 
#    z 0.209720 -0.000450 4.583400 
# 
# 
# High freq. dielectric constant tensor:
#      x y z
#    x 1.740340 0.000000 -0.000460 
#    y 0.000000 1.731130 0.000000 
#    z -0.000460 0.000000 1.761090 
# 
# From -- ./inp_files/282253.got.cif
#   From: 2010.06.25/outbox.cif.g09.slc.cpg/sg15_142_cif.got.tgz:282253.got - 2010.06.28 07:06:18.
