data_PCOD8137655
_publ_section_title
;
Structure prediction by ZEFSAII (Michael W. Deem and Ramdas Pophale) SiO2 
 PCOD8137655
Probable space group: C 2/C
;
_chemical_formula_sum "Si O2"
_cell_formula_units_Z 56
_cell_length_a 16.775621
_cell_length_b 9.777717
_cell_length_c 27.107879
_cell_angle_alpha 90.000000
_cell_angle_beta 140.040139
_cell_angle_gamma 90.000000
_cell_volume 2855.724169
_symmetry_space_group_name_H-M "C 2/C"
_symmetry_group_IT_number 15
_symmetry_cell_setting 'monoclinic'
loop_
_space_group_symop_operation_xyz
x,y,z
-x,y,1/2-z
-x,-y,-z
x,-y,1/2+z
1/2+x,1/2+y,z
1/2-x,1/2+y,1/2-z
1/2-x,1/2-y,-z
1/2+x,1/2-y,1/2+z
loop_
_atom_site_type_symbol
_atom_site_label
_atom_site_fract_x
_atom_site_fract_y
_atom_site_fract_z
Si Si1 0.227738 0.599357 0.509741
Si Si2 0.390833 0.518009 0.166689
Si Si3 0.273812 0.886520 0.824763
Si Si4 0.896515 0.999757 0.011417
Si Si5 0.492446 0.921705 0.421866
Si Si6 0.046556 0.779131 0.034722
Si Si7 0.462659 0.340290 0.846144
O O1 0.250000 0.750000 0.500000
O O2 0.316278 0.592422 0.599531
O O3 0.275184 0.500985 0.488249
O O4 0.089895 0.547273 0.458933
O O5 0.500000 0.442785 0.250000
O O6 0.298860 0.597214 0.158714
O O7 0.453042 0.632320 0.161493
O O8 0.369919 0.763545 0.879219
O O9 0.183079 0.849567 0.736571
O O10 0.352763 0.022606 0.850758
O O11 0.923948 0.851621 0.999532
O O12 0.014822 0.046800 0.100548
O O13 0.873970 0.111253 0.958483
O O14 0.511530 0.853881 0.485150
O O15 0.504635 0.807755 0.385539
#
# Coordination Sequence:
#
# PCOD8137655 Si02
#       7
#     8   8   8   8   8   8   8
#     4  11  22  37  62  87 119 152 197 248 292 350
#     4   9  20  39  60  84 112 155 194 235 293 351
#     4  11  21  35  62  84 118 151 195 242 285 350
#     4   9  21  37  58  86 118 150 193 240 298 341
#     4  11  23  37  61  91 114 153 204 238 299 347
#     4  10  20  36  61  85 114 153 196 241 288 353
#     4   9  22  39  58  85 120 156 195 239 295 354
#
# _framework density 19.609736000000002
#
# number of rings (size 3 to 8) (size 9 to 14) (size 15 to 20)
#    0.000    2.000    1.429    1.286    6.000    1.714 
#    2.571    0.000    3.143    0.000    0.000    0.000 
#    0.000    0.000    0.000    0.000    0.000    0.000 
#
# Total GULP energy -347055.445431 kJ/mol
# GULP energy per Si atom -12394.837337 kJ/mol
# Density = 1.956510 g / cm^3
# Si number density = 19.609736 Si / 1000 Ang^3
#
#
#
# Elastic Constant Matrix: (Units=GPa)
#
#
# Indices 1 2 3 4 5 6 
#
# 1 74.3057 18.2309 22.8055 0.0000 2.9077 0.0000
# 2 18.2309 93.0190 41.7193 0.0000 2.1452 0.0000
# 3 22.8055 41.7193 102.8319 0.0000 4.3919 0.0000
# 4 0.0000 0.0000 0.0000 22.2745 0.0000 -2.0476
# 5 2.9077 2.1452 4.3919 0.0000 26.2398 0.0000
# 6 0.0000 0.0000 0.0000 -2.0476 0.0000 21.7134
#
#
#
# Elastic Compliance Matrix: (Units=1/GPa)
#
#
# Indices 1 2 3 4 5 6 
#
# 1 0.014695 -0.001729 -0.002512 0.000000 -0.001067 0.000000
# 2 -0.001729 0.013346 -0.005029 0.000000 -0.000058 0.000000
# 3 -0.002512 -0.005029 0.012381 0.000000 -0.001383 0.000000
# 4 0.000000 0.000000 0.000000 0.045287 0.000000 0.004271
# 5 -0.001067 -0.000058 -0.001383 0.000000 0.038464 0.000000
# 6 0.000000 0.000000 0.000000 0.004271 0.000000 0.046457
#
#
# Mechanical properties :
#
#
# Convention : Reuss Voigt Hill
#
# Bulk Modulus (GPa) = 45.69802 48.40757 47.05279
# Shear Modulus (GPa) = 25.45001 26.53892 25.99446
#
# Velocity S-wave (km/s) = 3.60644 3.68279 3.64481
# Velocity P-wave (km/s) = 6.37936 6.54393 6.46217
#
# Compressibility (1/GPa) = 0.02188279
#
# Stress axis : x y z
#
# Youngs Moduli (GPa) = 68.05132 74.92863 80.76946
#
# Poissons Ratio (x) = 0.12954 0.20289
# Poissons Ratio (y) = 0.11765 0.40616
# Poissons Ratio (z) = 0.17094 0.37679
#
# Static dielectric constant tensor:
#      x y z
#    x 3.743200 0.000000 -0.064220 
#    y 0.000000 3.451040 0.000000 
#    z -0.064220 0.000000 3.697400 
# 
# 
# High freq. dielectric constant tensor:
#      x y z
#    x 1.775000 0.000000 -0.006320 
#    y 0.000000 1.753760 0.000000 
#    z -0.006320 0.000000 1.755990 
# 
# From -- ./inp_files/315526.got.cif
#   From: 2010.06.25/outbox.cif.g09.slc.cpg/sg15_158_cif.got.tgz:315526.got - 2010.06.28 07:06:18.
