data_PCOD8137916
_publ_section_title
;
Structure prediction by ZEFSAII (Michael W. Deem and Ramdas Pophale) SiO2 
 PCOD8137916
Probable space group: C 2/C
;
_chemical_formula_sum "Si O2"
_cell_formula_units_Z 36
_cell_length_a 15.401173
_cell_length_b 7.996871
_cell_length_c 22.971065
_cell_angle_alpha 90.000000
_cell_angle_beta 149.919602
_cell_angle_gamma 90.000000
_cell_volume 1418.008518
_symmetry_space_group_name_H-M "C 2/C"
_symmetry_group_IT_number 15
_symmetry_cell_setting 'monoclinic'
loop_
_space_group_symop_operation_xyz
x,y,z
-x,y,1/2-z
-x,-y,-z
x,-y,1/2+z
1/2+x,1/2+y,z
1/2-x,1/2+y,1/2-z
1/2-x,1/2-y,-z
1/2+x,1/2-y,1/2+z
loop_
_atom_site_type_symbol
_atom_site_label
_atom_site_fract_x
_atom_site_fract_y
_atom_site_fract_z
Si Si1 0.734954 0.055192 0.480118
Si Si2 0.000000 0.590171 0.750000
Si Si3 0.954231 0.513492 0.906422
Si Si4 0.044872 0.875940 0.601808
Si Si5 0.201680 0.810262 0.149414
O O1 0.750000 0.250000 0.500000
O O2 0.623995 0.033024 0.357409
O O3 0.638033 0.986133 0.480283
O O4 0.914700 0.954098 0.574897
O O5 0.111125 0.710059 0.772195
O O6 0.828340 0.351397 0.825136
O O7 0.871755 0.691286 0.834396
O O8 0.000000 0.500000 0.000000
O O9 0.949144 0.826763 0.486230
O O10 0.196349 0.012285 0.680659
#
# Coordination Sequence:
#
# PCOD8137916 Si02
#       5
#     8   4   8   8   8
#     4  11  21  41  68  96 133 182 224 278 342 392
#     4  10  24  40  64  94 138 178 228 282 334 408
#     4  10  20  36  66  96 121 166 219 263 329 402
#     4   9  18  35  66  90 125 168 214 267 328 392
#     4   9  18  38  59  91 129 166 208 271 329 390
#
# _framework density 25.387718
#
# number of rings (size 3 to 8) (size 9 to 14) (size 15 to 20)
#    0.000    2.222    2.222    0.667    3.111    0.000 
#    4.000    1.111    4.889    0.000    0.000    0.000 
#    0.000    0.000    0.000    0.000    0.000    0.000 
#
# Total GULP energy -223090.881061 kJ/mol
# GULP energy per Si atom -12393.937837 kJ/mol
# Density = 2.532993 g / cm^3
# Si number density = 25.387718 Si / 1000 Ang^3
#
#
#
# Elastic Constant Matrix: (Units=GPa)
#
#
# Indices 1 2 3 4 5 6 
#
# 1 163.1961 82.3885 36.1032 -0.0001 35.6387 0.0000
# 2 82.3885 265.1578 67.2407 -0.0007 25.6722 0.0001
# 3 36.1032 67.2407 66.3770 -0.0024 15.9274 0.0007
# 4 -0.0001 -0.0007 -0.0024 52.5126 0.0003 -0.1302
# 5 35.6387 25.6722 15.9274 0.0003 53.5363 0.0000
# 6 0.0000 0.0001 0.0007 -0.1302 0.0000 45.6774
#
#
#
# Elastic Compliance Matrix: (Units=1/GPa)
#
#
# Indices 1 2 3 4 5 6 
#
# 1 0.008301 -0.001728 -0.001763 0.000000 -0.004173 0.000000
# 2 -0.001728 0.005482 -0.004586 0.000000 -0.000114 0.000000
# 3 -0.001763 -0.004586 0.021388 0.000001 -0.002990 0.000000
# 4 0.000000 0.000000 0.000001 0.019043 0.000000 0.000054
# 5 -0.004173 -0.000114 -0.002990 0.000000 0.022401 0.000000
# 6 0.000000 0.000000 0.000000 0.000054 0.000000 0.021893
#
#
# Mechanical properties :
#
#
# Convention : Reuss Voigt Hill
#
# Bulk Modulus (GPa) = 52.58682 96.24396 74.41539
# Shear Modulus (GPa) = 41.32121 50.94517 46.13319
#
# Velocity S-wave (km/s) = 4.03874 4.48446 4.26742
# Velocity P-wave (km/s) = 6.51974 8.05021 7.32505
#
# Compressibility (1/GPa) = 0.01901617
#
# Stress axis : x y z
#
# Youngs Moduli (GPa) = 120.46112 182.40131 46.75518
#
# Poissons Ratio (x) = 0.31523 0.08244
# Poissons Ratio (y) = 0.20819 0.21444
# Poissons Ratio (z) = 0.21240 0.83656
#
# Static dielectric constant tensor:
#      x y z
#    x 5.069760 0.000000 0.040120 
#    y 0.000000 6.317490 0.000000 
#    z 0.040120 0.000000 4.666780 
# 
# 
# High freq. dielectric constant tensor:
#      x y z
#    x 2.025660 0.000000 -0.021920 
#    y 0.000000 2.040020 0.000000 
#    z -0.021920 0.000000 2.037660 
# 
# From -- ./inp_files/150408.got.cif
#   From: 2010.06.25/outbox.cif.g09.slc.cpg/sg15_76_cif.got.tgz:150408.got - 2010.06.28 07:06:18.
