data_PCOD8137065
_publ_section_title
;
Structure prediction by ZEFSAII (Michael W. Deem and Ramdas Pophale) SiO2 
 PCOD8137065
Probable space group: C 2/C
;
_chemical_formula_sum "Si O2"
_cell_formula_units_Z 64
_cell_length_a 29.128917
_cell_length_b 11.636238
_cell_length_c 8.894367
_cell_angle_alpha 90.000000
_cell_angle_beta 94.907026
_cell_angle_gamma 90.000000
_cell_volume 3003.705050
_symmetry_space_group_name_H-M "C 2/C"
_symmetry_group_IT_number 15
_symmetry_cell_setting 'monoclinic'
loop_
_space_group_symop_operation_xyz
x,y,z
-x,y,1/2-z
-x,-y,-z
x,-y,1/2+z
1/2+x,1/2+y,z
1/2-x,1/2+y,1/2-z
1/2-x,1/2-y,-z
1/2+x,1/2-y,1/2+z
loop_
_atom_site_type_symbol
_atom_site_label
_atom_site_fract_x
_atom_site_fract_y
_atom_site_fract_z
Si Si1 0.553657 0.475179 0.024515
Si Si2 0.657329 0.974507 0.982710
Si Si3 0.673112 0.475862 0.478349
Si Si4 0.627274 0.156968 0.746293
Si Si5 0.946053 0.158791 0.259497
Si Si6 0.125191 0.139356 0.699099
Si Si7 0.792115 0.840381 0.741941
Si Si8 0.690675 0.846633 0.717216
O O1 0.570413 0.600934 0.088310
O O2 0.569808 0.373123 0.150120
O O3 0.500000 0.500000 0.000000
O O4 0.571550 0.435640 0.866851
O O5 0.626932 0.056158 0.868678
O O6 0.687902 0.892088 0.886834
O O7 0.690056 0.047200 0.101802
O O8 0.624730 0.895470 0.077980
O O9 0.641288 0.546378 0.581065
O O10 0.639978 0.394176 0.370483
O O11 0.704771 0.393239 0.589431
O O12 0.702884 0.558982 0.380483
O O13 0.580166 0.222530 0.765822
O O14 0.671775 0.238863 0.778156
O O15 0.000000 0.183939 0.250000
O O16 0.148018 0.262123 0.666416
O O17 0.740636 0.786280 0.712066
#
# Coordination Sequence:
#
# PCOD8137065 Si02
#       8
#     8   8   8   8   8   8   8   8
#     4  10  20  35  59  92 124 149 181 235 304 369
#     4  10  24  41  57  80 117 159 204 253 287 331
#     4  10  22  35  54  83 116 149 191 247 300 351
#     4  11  23  41  60  82 116 158 201 246 296 344
#     4  10  21  39  64  92 121 151 186 236 302 369
#     4  11  21  36  56  82 115 154 195 238 293 359
#     4  11  22  37  58  85 119 157 197 247 299 353
#     4  11  23  38  58  84 116 161 209 245 289 345
#
# _framework density 21.307019
#
# number of rings (size 3 to 8) (size 9 to 14) (size 15 to 20)
#    0.000    1.500    0.000    6.000    0.000    9.000 
#    0.000    0.625    0.000    0.000    0.000    0.000 
#    0.000    0.000    0.000    0.000    0.000    0.000 
#
# Total GULP energy -396493.202224 kJ/mol
# GULP energy per Si atom -12390.412570 kJ/mol
# Density = 2.125852 g / cm^3
# Si number density = 21.307019 Si / 1000 Ang^3
#
#
#
# Elastic Constant Matrix: (Units=GPa)
#
#
# Indices 1 2 3 4 5 6 
#
# 1 115.4323 50.9084 34.3669 0.0000 6.5592 0.0000
# 2 50.9084 81.9608 16.6885 0.0000 -6.6911 0.0000
# 3 34.3669 16.6885 96.9699 0.0000 -7.3767 0.0000
# 4 0.0000 0.0000 0.0000 34.5684 0.0000 -2.2843
# 5 6.5592 -6.6911 -7.3767 0.0000 21.0433 0.0000
# 6 0.0000 0.0000 0.0000 -2.2843 0.0000 28.9450
#
#
#
# Elastic Compliance Matrix: (Units=1/GPa)
#
#
# Indices 1 2 3 4 5 6 
#
# 1 0.014248 -0.008701 -0.004213 0.000000 -0.008685 0.000000
# 2 -0.008701 0.018191 0.000616 0.000000 0.008712 0.000000
# 3 -0.004213 0.000616 0.012138 0.000000 0.005764 0.000000
# 4 0.000000 0.000000 0.000000 0.029080 0.000000 0.002295
# 5 -0.008685 0.008712 0.005764 0.000000 0.055019 0.000000
# 6 0.000000 0.000000 0.000000 0.002295 0.000000 0.034729
#
#
# Mechanical properties :
#
#
# Convention : Reuss Voigt Hill
#
# Bulk Modulus (GPa) = 50.04721 55.36562 52.70641
# Shear Modulus (GPa) = 25.68541 29.73795 27.71168
#
# Velocity S-wave (km/s) = 3.47578 3.73994 3.61028
# Velocity P-wave (km/s) = 6.29664 6.68511 6.49378
#
# Compressibility (1/GPa) = 0.01998114
#
# Stress axis : x y z
#
# Youngs Moduli (GPa) = 70.18370 54.97088 82.38557
#
# Poissons Ratio (x) = 0.47832 0.34708
# Poissons Ratio (y) = 0.61069 -0.05073
# Poissons Ratio (z) = 0.29568 -0.03385
#
# Static dielectric constant tensor:
#      x y z
#    x 3.798940 0.000000 0.186740 
#    y 0.000000 3.854770 0.000000 
#    z 0.186740 0.000000 4.401020 
# 
# 
# High freq. dielectric constant tensor:
#      x y z
#    x 1.817990 0.000000 0.007630 
#    y 0.000000 1.821470 0.000000 
#    z 0.007630 0.000000 1.861550 
# 
# From -- ./inp_files/69395.got.cif
#   From: 2010.06.25/outbox.cif.g09.slc.cpg/sg15_35_cif.got.tgz:69395.got - 2010.06.28 07:06:18.
