data_PCOD8137171
_publ_section_title
;
Structure prediction by ZEFSAII (Michael W. Deem and Ramdas Pophale) SiO2 
 PCOD8137171
Probable space group: C 2/C
;
_chemical_formula_sum "Si O2"
_cell_formula_units_Z 56
_cell_length_a 25.717457
_cell_length_b 9.039809
_cell_length_c 17.538239
_cell_angle_alpha 90.000000
_cell_angle_beta 42.378183
_cell_angle_gamma 90.000000
_cell_volume 2748.190195
_symmetry_space_group_name_H-M "C 2/C"
_symmetry_group_IT_number 15
_symmetry_cell_setting 'monoclinic'
loop_
_space_group_symop_operation_xyz
x,y,z
-x,y,1/2-z
-x,-y,-z
x,-y,1/2+z
1/2+x,1/2+y,z
1/2-x,1/2+y,1/2-z
1/2-x,1/2-y,-z
1/2+x,1/2-y,1/2+z
loop_
_atom_site_type_symbol
_atom_site_label
_atom_site_fract_x
_atom_site_fract_y
_atom_site_fract_z
Si Si1 0.014488 0.872981 0.924260
Si Si2 0.223046 0.489595 0.710844
Si Si3 0.822905 0.166007 0.992491
Si Si4 0.310083 0.325175 0.749552
Si Si5 0.988096 0.129517 0.851009
Si Si6 0.405137 0.770299 0.646238
Si Si7 0.708549 0.411074 0.136552
O O1 0.097920 0.801714 0.846392
O O2 0.009586 0.957526 0.847983
O O3 0.945909 0.756148 0.018865
O O4 0.000000 0.000000 0.000000
O O5 0.254707 0.443494 0.593539
O O6 0.280222 0.414266 0.709117
O O7 0.228149 0.664889 0.711943
O O8 0.134382 0.432056 0.814651
O O9 0.897198 0.151436 0.965406
O O10 0.842774 0.120186 0.883549
O O11 0.791643 0.334542 0.033788
O O12 0.281535 0.414717 0.856202
O O13 0.000000 0.163966 0.750000
O O14 0.031179 0.252807 0.855760
O O15 0.337329 0.652501 0.739807
#
# Coordination Sequence:
#
# PCOD8137171 Si02
#       7
#     8   8   8   8   8   8   8
#     4  10  20  35  63  84 122 151 200 251 302 358
#     4  11  25  37  63  84 125 155 206 250 307 355
#     4  10  21  37  63  91 116 165 192 250 300 361
#     4  12  23  40  59  91 116 162 201 257 297 364
#     4  11  19  34  66  93 119 159 205 245 305 368
#     4  10  20  38  57  89 118 155 200 252 292 363
#     4  10  20  39  59  88 123 149 210 239 294 362
#
# _framework density 20.377047999999998
#
# number of rings (size 3 to 8) (size 9 to 14) (size 15 to 20)
#    0.000    1.429    4.286    3.429    2.000    1.143 
#    0.000    0.000    0.000    0.857    0.000    0.000 
#    0.000    0.000    0.000    0.000    0.000    0.000 
#
# Total GULP energy -346983.747610 kJ/mol
# GULP energy per Si atom -12392.276700 kJ/mol
# Density = 2.033067 g / cm^3
# Si number density = 20.377048 Si / 1000 Ang^3
#
#
#
# Elastic Constant Matrix: (Units=GPa)
#
#
# Indices 1 2 3 4 5 6 
#
# 1 99.3305 33.5224 22.1526 0.0023 -15.3677 0.0000
# 2 33.5224 123.1315 33.1793 0.0183 -5.1754 -0.0158
# 3 22.1526 33.1793 71.2174 -0.0078 -4.4855 0.0036
# 4 0.0023 0.0183 -0.0078 28.1089 -0.0084 -2.4533
# 5 -15.3677 -5.1754 -4.4855 -0.0084 27.8256 0.0084
# 6 0.0000 -0.0158 0.0036 -2.4533 0.0084 30.4335
#
#
#
# Elastic Compliance Matrix: (Units=1/GPa)
#
#
# Indices 1 2 3 4 5 6 
#
# 1 0.012347 -0.002489 -0.002304 0.000002 0.005985 -0.000003
# 2 -0.002489 0.009819 -0.003811 -0.000007 -0.000163 0.000005
# 3 -0.002304 -0.003811 0.016577 0.000007 0.000691 -0.000004
# 4 0.000002 -0.000007 0.000007 0.035828 0.000011 0.002888
# 5 0.005985 -0.000163 0.000691 0.000011 0.039325 -0.000010
# 6 -0.000003 0.000005 -0.000004 0.002888 -0.000010 0.033091
#
#
# Mechanical properties :
#
#
# Convention : Reuss Voigt Hill
#
# Bulk Modulus (GPa) = 46.43437 52.37643 49.40540
# Shear Modulus (GPa) = 29.17608 30.92862 30.05235
#
# Velocity S-wave (km/s) = 3.78803 3.90014 3.84450
# Velocity P-wave (km/s) = 6.47837 6.78535 6.63364
#
# Compressibility (1/GPa) = 0.02153577
#
# Stress axis : x y z
#
# Youngs Moduli (GPa) = 80.98989 101.84314 60.32442
#
# Poissons Ratio (x) = 0.25350 0.13899
# Poissons Ratio (y) = 0.20159 0.22987
# Poissons Ratio (z) = 0.18661 0.38808
#
# Static dielectric constant tensor:
#      x y z
#    x 3.935180 -0.000010 0.121370 
#    y -0.000010 3.850760 -0.000010 
#    z 0.121370 -0.000010 4.410320 
# 
# 
# High freq. dielectric constant tensor:
#      x y z
#    x 1.798650 0.000000 -0.010760 
#    y 0.000000 1.761180 0.000000 
#    z -0.010760 0.000000 1.801240 
# 
# From -- ./inp_files/218532.got.cif
#   From: 2010.06.25/outbox.cif.g09.slc.cpg/sg15_110_cif.got.tgz:218532.got - 2010.06.28 07:06:18.
