data_PCOD8137914
_publ_section_title
;
Structure prediction by ZEFSAII (Michael W. Deem and Ramdas Pophale) SiO2 
 PCOD8137914
Probable space group: C 2/C
;
_chemical_formula_sum "Si O2"
_cell_formula_units_Z 56
_cell_length_a 9.421968
_cell_length_b 13.081950
_cell_length_c 26.172743
_cell_angle_alpha 90.000000
_cell_angle_beta 57.295470
_cell_angle_gamma 90.000000
_cell_volume 2714.569652
_symmetry_space_group_name_H-M "C 2/C"
_symmetry_group_IT_number 15
_symmetry_cell_setting 'monoclinic'
loop_
_space_group_symop_operation_xyz
x,y,z
-x,y,1/2-z
-x,-y,-z
x,-y,1/2+z
1/2+x,1/2+y,z
1/2-x,1/2+y,1/2-z
1/2-x,1/2-y,-z
1/2+x,1/2-y,1/2+z
loop_
_atom_site_type_symbol
_atom_site_label
_atom_site_fract_x
_atom_site_fract_y
_atom_site_fract_z
Si Si1 0.072413 0.861544 0.858406
Si Si2 0.260037 0.573134 0.686530
Si Si3 0.096711 0.155706 0.573682
Si Si4 0.794412 0.149738 0.058129
Si Si5 0.936810 0.354088 0.185967
Si Si6 0.279783 0.953958 0.559594
Si Si7 0.938153 0.521351 0.928410
O O1 0.093735 0.833883 0.913641
O O2 0.095423 0.766851 0.815474
O O3 0.879459 0.893846 0.888073
O O4 0.207220 0.950932 0.819372
O O5 0.419129 0.631131 0.633045
O O6 0.226693 0.603946 0.752047
O O7 0.102735 0.613266 0.684552
O O8 0.081285 0.155907 0.514915
O O9 0.150888 0.264866 0.583969
O O10 0.237702 0.074076 0.562258
O O11 0.698067 0.040662 0.078965
O O12 0.951687 0.402593 0.127158
O O13 0.340700 0.914840 0.491789
O O14 0.432422 0.941600 0.569971
#
# Coordination Sequence:
#
# PCOD8137914 Si02
#       7
#     8   8   8   8   8   8   8
#     4  11  23  42  66  93 121 168 214 261 324 387
#     4  10  24  45  60  94 129 165 211 273 306 389
#     4   9  20  38  61  90 132 161 212 264 317 386
#     4  10  20  36  66  94 123 168 208 261 333 373
#     4  11  24  42  65  92 128 169 216 258 321 392
#     4   9  21  37  60  94 129 162 209 263 327 372
#     4  10  20  38  60  93 133 164 205 269 311 384
#
# _framework density 20.629421000000001
#
# number of rings (size 3 to 8) (size 9 to 14) (size 15 to 20)
#    0.000    2.000    1.429    0.857    4.000    4.571 
#    2.571    5.000    0.000    0.000    0.000    0.000 
#    0.000    0.000    0.000    0.000    0.000    0.000 
#
# Total GULP energy -347145.035895 kJ/mol
# GULP energy per Si atom -12398.036996 kJ/mol
# Density = 2.058247 g / cm^3
# Si number density = 20.629421 Si / 1000 Ang^3
#
#
#
# Elastic Constant Matrix: (Units=GPa)
#
#
# Indices 1 2 3 4 5 6 
#
# 1 64.3755 15.5184 27.5097 0.0000 -7.2113 0.0000
# 2 15.5184 103.4990 57.4254 0.0000 -3.7311 0.0000
# 3 27.5097 57.4254 130.7908 0.0000 -15.3527 0.0000
# 4 0.0000 0.0000 0.0000 30.9871 0.0000 3.8540
# 5 -7.2113 -3.7311 -15.3527 0.0000 27.0752 0.0000
# 6 0.0000 0.0000 0.0000 3.8540 0.0000 20.6999
#
#
#
# Elastic Compliance Matrix: (Units=1/GPa)
#
#
# Indices 1 2 3 4 5 6 
#
# 1 0.017311 -0.000870 -0.002927 0.000000 0.002831 0.000000
# 2 -0.000870 0.012876 -0.005667 0.000000 -0.001670 0.000000
# 3 -0.002927 -0.005667 0.011320 0.000000 0.004858 0.000000
# 4 0.000000 0.000000 0.000000 0.033036 0.000000 -0.006151
# 5 0.002831 -0.001670 0.004858 0.000000 0.040213 0.000000
# 6 0.000000 0.000000 0.000000 -0.006151 0.000000 0.049455
#
#
# Mechanical properties :
#
#
# Convention : Reuss Voigt Hill
#
# Bulk Modulus (GPa) = 44.28516 55.50803 49.89660
# Shear Modulus (GPa) = 26.22405 28.96656 27.59530
#
# Velocity S-wave (km/s) = 3.56925 3.75125 3.66138
# Velocity P-wave (km/s) = 6.20481 6.76226 6.48952
#
# Compressibility (1/GPa) = 0.02258093
#
# Stress axis : x y z
#
# Youngs Moduli (GPa) = 57.76520 77.66286 88.34120
#
# Poissons Ratio (x) = 0.06753 0.25858
# Poissons Ratio (y) = 0.05023 0.50060
# Poissons Ratio (z) = 0.16908 0.44009
#
# Static dielectric constant tensor:
#      x y z
#    x 3.569970 0.000000 -0.040340 
#    y 0.000000 3.689720 0.000000 
#    z -0.040340 0.000000 4.011180 
# 
# 
# High freq. dielectric constant tensor:
#      x y z
#    x 1.801890 0.000000 -0.001500 
#    y 0.000000 1.799880 0.000000 
#    z -0.001500 0.000000 1.809530 
# 
# From -- ./inp_files/264585.got.cif
#   From: 2010.06.25/outbox.cif.g09.slc.cpg/sg15_133_cif.got.tgz:264585.got - 2010.06.28 07:06:18.
