data_PCOD8137324
_publ_section_title
;
Structure prediction by ZEFSAII (Michael W. Deem and Ramdas Pophale) SiO2 
 PCOD8137324
Probable space group: C 2/C
;
_chemical_formula_sum "Si O2"
_cell_formula_units_Z 64
_cell_length_a 6.520367
_cell_length_b 22.446553
_cell_length_c 25.148692
_cell_angle_alpha 90.000000
_cell_angle_beta 63.449675
_cell_angle_gamma 90.000000
_cell_volume 3292.591766
_symmetry_space_group_name_H-M "C 2/C"
_symmetry_group_IT_number 15
_symmetry_cell_setting 'monoclinic'
loop_
_space_group_symop_operation_xyz
x,y,z
-x,y,1/2-z
-x,-y,-z
x,-y,1/2+z
1/2+x,1/2+y,z
1/2-x,1/2+y,1/2-z
1/2-x,1/2-y,-z
1/2+x,1/2-y,1/2+z
loop_
_atom_site_type_symbol
_atom_site_label
_atom_site_fract_x
_atom_site_fract_y
_atom_site_fract_z
Si Si1 0.058264 0.333732 0.895765
Si Si2 0.379032 0.903100 0.398286
Si Si3 0.057993 0.793130 0.960123
Si Si4 0.816081 0.029095 0.811951
Si Si5 0.753477 0.097632 0.469699
Si Si6 0.434730 0.497719 0.609341
Si Si7 0.492110 0.923847 0.689094
Si Si8 0.789835 0.272188 0.410059
O O1 0.824461 0.301077 0.938061
O O2 0.106057 0.384307 0.934937
O O3 0.052880 0.363598 0.838563
O O4 0.250232 0.280961 0.871887
O O5 0.612105 0.924338 0.344206
O O6 0.406531 0.902903 0.459239
O O7 0.162546 0.944452 0.409170
O O8 0.329803 0.837239 0.380262
O O9 0.956117 0.855746 0.953242
O O10 0.010792 0.743250 0.920591
O O11 0.940267 0.771538 0.027811
O O12 0.000000 0.057299 0.750000
O O13 0.949286 0.017028 0.850037
O O14 0.715987 0.968867 0.797949
O O15 0.867344 0.032699 0.449151
O O16 0.232724 0.451147 0.643331
O O17 0.500000 0.906789 0.750000
#
# Coordination Sequence:
#
# PCOD8137324 Si02
#       8
#     8   8   8   8   8   8   8   8
#     4  11  20  34  65  90 119 159 198 250 310 355
#     4  10  24  37  58  92 126 163 197 242 295 366
#     4   9  18  34  59  84 122 162 193 241 289 356
#     4  11  23  41  63  86 112 164 209 244 297 361
#     4  10  20  36  56  96 129 150 195 250 310 361
#     4  11  21  38  61  87 123 157 192 253 304 363
#     4  11  22  38  62  93 114 149 205 256 305 356
#     4   9  20  37  55  88 123 157 200 232 289 364
#
# _framework density 19.437576
#
# number of rings (size 3 to 8) (size 9 to 14) (size 15 to 20)
#    0.000    1.750    3.750    1.500    0.000    3.500 
#    0.000    0.000    0.000    4.500    0.000    0.000 
#    0.000    0.000    0.000    0.000    0.000    0.000 
#
# Total GULP energy -396790.669470 kJ/mol
# GULP energy per Si atom -12399.708421 kJ/mol
# Density = 1.939334 g / cm^3
# Si number density = 19.437576 Si / 1000 Ang^3
#
#
#
# Elastic Constant Matrix: (Units=GPa)
#
#
# Indices 1 2 3 4 5 6 
#
# 1 96.6450 50.8651 39.1562 0.0000 5.3146 0.0000
# 2 50.8651 129.6625 38.1730 0.0000 7.9810 0.0000
# 3 39.1562 38.1730 66.2669 0.0000 11.2770 0.0000
# 4 0.0000 0.0000 0.0000 7.3531 0.0000 9.8798
# 5 5.3146 7.9810 11.2770 0.0000 35.3455 0.0000
# 6 0.0000 0.0000 0.0000 9.8798 0.0000 21.1363
#
#
#
# Elastic Compliance Matrix: (Units=1/GPa)
#
#
# Indices 1 2 3 4 5 6 
#
# 1 0.015157 -0.003996 -0.006789 0.000000 0.000789 0.000000
# 2 -0.003996 0.010347 -0.003493 0.000000 -0.000621 0.000000
# 3 -0.006789 -0.003493 0.022001 0.000000 -0.005210 0.000000
# 4 0.000000 0.000000 0.000000 0.365648 0.000000 -0.170916
# 5 0.000789 -0.000621 -0.005210 0.000000 0.029976 0.000000
# 6 0.000000 0.000000 0.000000 -0.170916 0.000000 0.127204
#
#
# Mechanical properties :
#
#
# Convention : Reuss Voigt Hill
#
# Bulk Modulus (GPa) = 52.77407 60.99586 56.88497
# Shear Modulus (GPa) = 8.26167 23.72565 15.99366
#
# Velocity S-wave (km/s) = 2.06388 3.49751 2.87160
# Velocity P-wave (km/s) = 5.73489 6.91076 6.35010
#
# Compressibility (1/GPa) = 0.01894870
#
# Stress axis : x y z
#
# Youngs Moduli (GPa) = 65.97461 96.65034 45.45310
#
# Poissons Ratio (x) = 0.38622 0.30857
# Poissons Ratio (y) = 0.26364 0.15878
# Poissons Ratio (z) = 0.44788 0.33763
#
# Static dielectric constant tensor:
#      x y z
#    x 3.684470 0.000000 0.044060 
#    y 0.000000 3.606110 0.000000 
#    z 0.044060 0.000000 3.357510 
# 
# 
# High freq. dielectric constant tensor:
#      x y z
#    x 1.767710 0.000000 0.008480 
#    y 0.000000 1.756890 0.000000 
#    z 0.008480 0.000000 1.728880 
# 
# From -- ./inp_files/261808.got.cif
#   From: 2010.06.25/outbox.cif.g09.slc.cpg/sg15_131_cif.got.tgz:261808.got - 2010.06.28 07:06:18.
