data_PCOD8137800
_publ_section_title
;
Structure prediction by ZEFSAII (Michael W. Deem and Ramdas Pophale) SiO2 
 PCOD8137800
Probable space group: C 2/C
;
_chemical_formula_sum "Si O2"
_cell_formula_units_Z 60
_cell_length_a 15.605958
_cell_length_b 12.515961
_cell_length_c 15.617536
_cell_angle_alpha 90.000000
_cell_angle_beta 77.746887
_cell_angle_gamma 90.000000
_cell_volume 2980.981697
_symmetry_space_group_name_H-M "C 2/C"
_symmetry_group_IT_number 15
_symmetry_cell_setting 'monoclinic'
loop_
_space_group_symop_operation_xyz
x,y,z
-x,y,1/2-z
-x,-y,-z
x,-y,1/2+z
1/2+x,1/2+y,z
1/2-x,1/2+y,1/2-z
1/2-x,1/2-y,-z
1/2+x,1/2-y,1/2+z
loop_
_atom_site_type_symbol
_atom_site_label
_atom_site_fract_x
_atom_site_fract_y
_atom_site_fract_z
Si Si1 0.415996 0.295473 0.425416
Si Si2 0.308733 0.795642 0.610236
Si Si3 0.170937 0.078455 0.414832
Si Si4 0.500000 0.071968 0.250000
Si Si5 0.975928 0.422638 0.579414
Si Si6 0.657044 0.382078 0.529028
Si Si7 0.175635 0.699475 0.203940
Si Si8 0.503648 0.491219 0.850835
O O1 0.367817 0.321253 0.524687
O O2 0.466454 0.184771 0.429191
O O3 0.341860 0.287913 0.365918
O O4 0.483261 0.388191 0.384257
O O5 0.373341 0.897108 0.595206
O O6 0.353799 0.704335 0.543718
O O7 0.217054 0.835270 0.591442
O O8 0.291668 0.752923 0.711308
O O9 0.255939 0.111864 0.343928
O O10 0.198656 0.988006 0.477724
O O11 0.100759 0.034364 0.362110
O O12 0.499676 0.007577 0.339453
O O13 0.582974 0.147875 0.243928
O O14 0.000000 0.500000 0.500000
O O15 0.562655 0.408623 0.589448
O O16 0.500000 0.478393 0.750000
#
# Coordination Sequence:
#
# PCOD8137800 Si02
#       8
#     8   8   8   4   8   8   8   8
#     4  10  22  38  62  92 122 163 205 262 315 369
#     4  10  21  39  60  87 121 167 204 248 311 384
#     4  11  22  39  62  92 128 157 211 264 319 373
#     4   8  20  36  56  86 112 152 206 244 294 362
#     4  10  20  36  63  81 119 158 202 251 307 368
#     4  10  22  39  61  88 127 165 203 254 323 379
#     4  10  21  38  62  89 123 158 209 257 300 375
#     4  11  23  38  67  95 124 162 210 270 319 379
#
# _framework density 20.127597999999999
#
# number of rings (size 3 to 8) (size 9 to 14) (size 15 to 20)
#    0.000    1.867    0.000    4.400   11.200    0.000 
#    0.000    1.333    5.867    0.000    0.000    0.000 
#    0.000    0.000    0.000    0.000    0.000    0.000 
#
# Total GULP energy -371836.143242 kJ/mol
# GULP energy per Si atom -12394.538108 kJ/mol
# Density = 2.008179 g / cm^3
# Si number density = 20.127598 Si / 1000 Ang^3
#
#
#
# Elastic Constant Matrix: (Units=GPa)
#
#
# Indices 1 2 3 4 5 6 
#
# 1 95.5077 38.7133 44.4535 0.0000 5.6929 0.0000
# 2 38.7133 63.9812 48.2994 0.0000 3.1801 0.0000
# 3 44.4535 48.2994 152.3497 0.0000 17.5778 0.0000
# 4 0.0000 0.0000 0.0000 22.4333 0.0000 3.6722
# 5 5.6929 3.1801 17.5778 0.0000 37.2542 0.0000
# 6 0.0000 0.0000 0.0000 3.6722 0.0000 17.7432
#
#
#
# Elastic Compliance Matrix: (Units=1/GPa)
#
#
# Indices 1 2 3 4 5 6 
#
# 1 0.014287 -0.007263 -0.001783 0.000000 -0.000722 0.000000
# 2 -0.007263 0.024308 -0.005791 0.000000 0.001767 0.000000
# 3 -0.001783 -0.005791 0.009340 0.000000 -0.003640 0.000000
# 4 0.000000 0.000000 0.000000 0.046140 0.000000 -0.009549
# 5 -0.000722 0.001767 -0.003640 0.000000 0.028520 0.000000
# 6 0.000000 0.000000 0.000000 -0.009549 0.000000 0.058336
#
#
# Mechanical properties :
#
#
# Convention : Reuss Voigt Hill
#
# Bulk Modulus (GPa) = 54.76043 63.86344 59.31194
# Shear Modulus (GPa) = 23.07427 27.51097 25.29262
#
# Velocity S-wave (km/s) = 3.38953 3.70107 3.54872
# Velocity P-wave (km/s) = 6.52566 7.07546 6.80611
#
# Compressibility (1/GPa) = 0.01826136
#
# Stress axis : x y z
#
# Youngs Moduli (GPa) = 69.99250 41.13865 107.06629
#
# Poissons Ratio (x) = 0.29879 0.19089
# Poissons Ratio (y) = 0.50836 0.62003
# Poissons Ratio (z) = 0.12479 0.23824
#
# Static dielectric constant tensor:
#      x y z
#    x 3.703930 0.000000 0.252630 
#    y 0.000000 3.411680 0.000000 
#    z 0.252630 0.000000 4.220710 
# 
# 
# High freq. dielectric constant tensor:
#      x y z
#    x 1.791880 0.000000 0.013630 
#    y 0.000000 1.754320 0.000000 
#    z 0.013630 0.000000 1.811760 
# 
# From -- ./inp_files/153949.got.cif
#   From: 2010.06.25/outbox.cif.g09.slc.cpg/sg15_77_cif.got.tgz:153949.got - 2010.06.28 07:06:18.
