data_PCOD8137322
_publ_section_title
;
Structure prediction by ZEFSAII (Michael W. Deem and Ramdas Pophale) SiO2 
 PCOD8137322
Probable space group: C 2/C
;
_chemical_formula_sum "Si O2"
_cell_formula_units_Z 56
_cell_length_a 19.994966
_cell_length_b 13.058912
_cell_length_c 11.209224
_cell_angle_alpha 90.000000
_cell_angle_beta 76.425300
_cell_angle_gamma 90.000000
_cell_volume 2845.105676
_symmetry_space_group_name_H-M "C 2/C"
_symmetry_group_IT_number 15
_symmetry_cell_setting 'monoclinic'
loop_
_space_group_symop_operation_xyz
x,y,z
-x,y,1/2-z
-x,-y,-z
x,-y,1/2+z
1/2+x,1/2+y,z
1/2-x,1/2+y,1/2-z
1/2-x,1/2-y,-z
1/2+x,1/2-y,1/2+z
loop_
_atom_site_type_symbol
_atom_site_label
_atom_site_fract_x
_atom_site_fract_y
_atom_site_fract_z
Si Si1 0.308083 0.282347 0.319524
Si Si2 0.330922 0.333509 0.574274
Si Si3 0.686196 0.817827 0.073312
Si Si4 0.967146 0.533340 0.639870
Si Si5 0.659038 0.097212 0.342105
Si Si6 0.566466 0.741164 0.285826
Si Si7 0.769728 0.029699 0.691308
O O1 0.341686 0.303551 0.432777
O O2 0.228442 0.244234 0.353082
O O3 0.352463 0.193303 0.240654
O O4 0.315530 0.386338 0.239916
O O5 0.402482 0.321266 0.615742
O O6 0.313165 0.454401 0.587697
O O7 0.630071 0.752028 0.167629
O O8 0.712544 0.913134 0.137966
O O9 0.750000 0.750000 0.000000
O O10 0.644599 0.865424 0.981118
O O11 0.890596 0.492684 0.674693
O O12 0.964259 0.655146 0.646804
O O13 0.000000 0.490836 0.750000
O O14 0.000000 0.500000 0.500000
O O15 0.734806 0.047083 0.301655
O O16 0.500000 0.686144 0.250000
#
# Coordination Sequence:
#
# PCOD8137322 Si02
#       7
#     8   8   8   8   8   8   8
#     4  10  20  36  56  93 119 155 209 268 316 367
#     4  10  21  36  62  87 123 166 205 266 318 372
#     4  12  21  39  63  92 127 170 215 269 323 387
#     4  11  24  39  60  91 127 173 210 254 329 403
#     4  11  21  34  60  84 123 157 202 262 313 374
#     4  11  23  42  62  93 135 170 213 259 328 408
#     4  11  20  37  59  93 122 157 208 264 321 377
#
# _framework density 19.682924
#
# number of rings (size 3 to 8) (size 9 to 14) (size 15 to 20)
#    0.000    1.143    4.286    3.429    2.000    1.143 
#    0.000    0.000    0.000    4.286    0.000    0.000 
#    0.000    0.000    0.000    0.000    0.000    0.000 
#
# Total GULP energy -347048.913904 kJ/mol
# GULP energy per Si atom -12394.604068 kJ/mol
# Density = 1.963812 g / cm^3
# Si number density = 19.682924 Si / 1000 Ang^3
#
#
#
# Elastic Constant Matrix: (Units=GPa)
#
#
# Indices 1 2 3 4 5 6 
#
# 1 105.7345 16.4428 30.9130 0.0000 23.7094 0.0000
# 2 16.4428 72.7833 18.2984 0.0000 4.7943 0.0000
# 3 30.9130 18.2984 101.3458 0.0000 14.9032 0.0000
# 4 0.0000 0.0000 0.0000 13.6489 0.0000 3.1098
# 5 23.7094 4.7943 14.9032 0.0000 34.7607 0.0000
# 6 0.0000 0.0000 0.0000 3.1098 0.0000 31.3354
#
#
#
# Elastic Compliance Matrix: (Units=1/GPa)
#
#
# Indices 1 2 3 4 5 6 
#
# 1 0.011948 -0.001658 -0.002327 0.000000 -0.006923 0.000000
# 2 -0.001658 0.014651 -0.002144 0.000000 0.000029 0.000000
# 3 -0.002327 -0.002144 0.011406 0.000000 -0.003007 0.000000
# 4 0.000000 0.000000 0.000000 0.074961 0.000000 -0.007439
# 5 -0.006923 0.000029 -0.003007 0.000000 0.034776 0.000000
# 6 0.000000 0.000000 0.000000 -0.007439 0.000000 0.032651
#
#
# Mechanical properties :
#
#
# Convention : Reuss Voigt Hill
#
# Bulk Modulus (GPa) = 38.83868 45.68575 42.26221
# Shear Modulus (GPa) = 24.84668 30.22963 27.53816
#
# Velocity S-wave (km/s) = 3.55681 3.92322 3.74450
# Velocity P-wave (km/s) = 6.05333 6.61691 6.34138
#
# Compressibility (1/GPa) = 0.02574753
#
# Stress axis : x y z
#
# Youngs Moduli (GPa) = 83.69389 68.25441 87.67048
#
# Poissons Ratio (x) = 0.11318 0.20401
# Poissons Ratio (y) = 0.13878 0.18795
# Poissons Ratio (z) = 0.19476 0.14633
#
# Static dielectric constant tensor:
#      x y z
#    x 3.634980 0.000000 0.235530 
#    y 0.000000 3.535030 0.000000 
#    z 0.235530 0.000000 3.776920 
# 
# 
# High freq. dielectric constant tensor:
#      x y z
#    x 1.744680 0.000000 0.020650 
#    y 0.000000 1.760290 0.000000 
#    z 0.020650 0.000000 1.774950 
# 
# From -- ./inp_files/111556.got.cif
#   From: 2010.06.25/outbox.cif.g09.slc.cpg/sg15_56_cif.got.tgz:111556.got - 2010.06.28 07:06:18.
