data_PCOD8137257
_publ_section_title
;
Structure prediction by ZEFSAII (Michael W. Deem and Ramdas Pophale) SiO2 
 PCOD8137257
Probable space group: C 2/C
;
_chemical_formula_sum "Si O2"
_cell_formula_units_Z 28
_cell_length_a 12.627585
_cell_length_b 7.587871
_cell_length_c 13.399565
_cell_angle_alpha 90.000000
_cell_angle_beta 40.863510
_cell_angle_gamma 90.000000
_cell_volume 840.003013
_symmetry_space_group_name_H-M "C 2/C"
_symmetry_group_IT_number 15
_symmetry_cell_setting 'monoclinic'
loop_
_space_group_symop_operation_xyz
x,y,z
-x,y,1/2-z
-x,-y,-z
x,-y,1/2+z
1/2+x,1/2+y,z
1/2-x,1/2+y,1/2-z
1/2-x,1/2-y,-z
1/2+x,1/2-y,1/2+z
loop_
_atom_site_type_symbol
_atom_site_label
_atom_site_fract_x
_atom_site_fract_y
_atom_site_fract_z
Si Si1 0.500000 0.916011 0.250000
Si Si2 0.538994 0.425468 0.106051
Si Si3 0.693201 0.285629 0.369978
Si Si4 0.687854 0.084002 0.942320
O O1 0.381951 0.793088 0.266048
O O2 0.613014 0.042205 0.104977
O O3 0.342168 0.375470 0.215783
O O4 0.616985 0.280280 0.973036
O O5 0.582894 0.615244 0.030785
O O6 0.616905 0.414990 0.164287
O O7 0.637940 0.080838 0.406093
#
# Coordination Sequence:
#
# PCOD8137257 Si02
#       4
#     4   8   8   8
#     4  10  20  36  54  86 114 138 192 238 268 346
#     4   9  19  37  60  77 109 157 187 233 290 337
#     4  10  20  39  58  82 117 152 188 236 289 339
#     4  10  20  39  58  82 118 150 190 238 283 342
#
# _framework density 33.333213000000001
#
# number of rings (size 3 to 8) (size 9 to 14) (size 15 to 20)
#    0.000    2.286    0.000    4.286    0.000    0.000 
#   20.571   22.857    0.000    0.000    0.000    0.000 
#    0.000    0.000    0.000    0.000    0.000    0.000 
#
# Total GULP energy -173613.874910 kJ/mol
# GULP energy per Si atom -12400.991065 kJ/mol
# Density = 3.325734 g / cm^3
# Si number density = 33.333213 Si / 1000 Ang^3
#
#
#
# Elastic Constant Matrix: (Units=GPa)
#
#
# Indices 1 2 3 4 5 6 
#
# 1 260.4322 54.4096 45.9633 0.0000 8.0103 0.0000
# 2 54.4096 209.4606 60.6747 0.0000 1.4133 0.0000
# 3 45.9633 60.6747 152.5954 0.0000 -7.5567 0.0000
# 4 0.0000 0.0000 0.0000 56.2217 0.0000 -2.8531
# 5 8.0103 1.4133 -7.5567 0.0000 56.0985 0.0000
# 6 0.0000 0.0000 0.0000 -2.8531 0.0000 64.9994
#
#
#
# Elastic Compliance Matrix: (Units=1/GPa)
#
#
# Indices 1 2 3 4 5 6 
#
# 1 0.004203 -0.000802 -0.000982 0.000000 -0.000712 0.000000
# 2 -0.000802 0.005559 -0.001983 0.000000 -0.000293 0.000000
# 3 -0.000982 -0.001983 0.007698 0.000000 0.001227 0.000000
# 4 0.000000 0.000000 0.000000 0.017826 0.000000 0.000782
# 5 -0.000712 -0.000293 0.001227 0.000000 0.018100 0.000000
# 6 0.000000 0.000000 0.000000 0.000782 0.000000 0.015419
#
#
# Mechanical properties :
#
#
# Convention : Reuss Voigt Hill
#
# Bulk Modulus (GPa) = 100.75812 104.95372 102.85592
# Shear Modulus (GPa) = 62.77512 66.22663 64.50088
#
# Velocity S-wave (km/s) = 4.34436 4.46220 4.40367
# Velocity P-wave (km/s) = 7.44700 7.62252 7.53527
#
# Compressibility (1/GPa) = 0.00992476
#
# Stress axis : x y z
#
# Youngs Moduli (GPa) = 237.94558 179.88716 129.89683
#
# Poissons Ratio (x) = 0.14434 0.12757
# Poissons Ratio (y) = 0.19092 0.25761
# Poissons Ratio (z) = 0.23369 0.35675
#
# Static dielectric constant tensor:
#      x y z
#    x 6.756370 0.000000 -0.252900 
#    y 0.000000 6.004020 0.000000 
#    z -0.252900 0.000000 7.612430 
# 
# 
# High freq. dielectric constant tensor:
#      x y z
#    x 2.440340 0.000000 -0.000540 
#    y 0.000000 2.385980 0.000000 
#    z -0.000540 0.000000 2.473870 
# 
# From -- ./inp_files/92996.got.cif
#   From: 2010.06.25/outbox.cif.g09.slc.cpg/sg15_47_cif.got.tgz:92996.got - 2010.06.28 07:06:18.
