data_PCOD8137910
_publ_section_title
;
Structure prediction by ZEFSAII (Michael W. Deem and Ramdas Pophale) SiO2 
 PCOD8137910
Probable space group: C 2/C
;
_chemical_formula_sum "Si O2"
_cell_formula_units_Z 64
_cell_length_a 15.443312
_cell_length_b 22.780200
_cell_length_c 8.929439
_cell_angle_alpha 90.000000
_cell_angle_beta 88.361312
_cell_angle_gamma 90.000000
_cell_volume 3140.107418
_symmetry_space_group_name_H-M "C 2/C"
_symmetry_group_IT_number 15
_symmetry_cell_setting 'monoclinic'
loop_
_space_group_symop_operation_xyz
x,y,z
-x,y,1/2-z
-x,-y,-z
x,-y,1/2+z
1/2+x,1/2+y,z
1/2-x,1/2+y,1/2-z
1/2-x,1/2-y,-z
1/2+x,1/2-y,1/2+z
loop_
_atom_site_type_symbol
_atom_site_label
_atom_site_fract_x
_atom_site_fract_y
_atom_site_fract_z
Si Si1 0.630164 0.915087 0.513064
Si Si2 0.041719 0.372680 0.093050
Si Si3 0.208389 0.694446 0.584748
Si Si4 0.422767 0.633858 0.847711
Si Si5 0.179232 0.081785 0.901359
Si Si6 0.519212 0.560265 0.076158
Si Si7 0.346908 0.022882 0.800940
Si Si8 0.752545 0.690564 0.586093
O O1 0.536826 0.882737 0.519054
O O2 0.643383 0.960906 0.374671
O O3 0.703801 0.864505 0.503185
O O4 0.634108 0.954071 0.665098
O O5 0.112454 0.324758 0.029373
O O6 0.087646 0.435481 0.112362
O O7 0.000000 0.349835 0.250000
O O8 0.250000 0.750000 0.500000
O O9 0.276282 0.642843 0.561686
O O10 0.196190 0.703244 0.763073
O O11 0.500000 0.665091 0.750000
O O12 0.383039 0.583147 0.741974
O O13 0.348636 0.680128 0.883760
O O14 0.459520 0.609489 0.001775
O O15 0.249454 0.032066 0.864554
O O16 0.121981 0.069638 0.050385
O O17 0.500000 0.559940 0.250000
O O18 0.500000 0.500000 0.000000
O O19 0.750000 0.750000 0.500000
#
# Coordination Sequence:
#
# PCOD8137910 Si02
#       8
#     8   8   8   8   8   8   8   8
#     4  11  21  40  64  96 128 169 208 264 322 384
#     4   9  17  39  64  89 126 165 201 257 325 373
#     4  10  20  41  68  86 122 167 212 259 308 374
#     4   9  19  41  62  79 121 165 202 256 317 364
#     4   9  19  39  58  87 120 160 202 254 323 365
#     4  11  23  36  57  88 119 155 203 258 313 380
#     4  10  20  36  66  90 126 165 205 253 324 388
#     4  11  23  43  62  90 129 169 211 262 318 376
#
# _framework density 20.381468000000002
#
# number of rings (size 3 to 8) (size 9 to 14) (size 15 to 20)
#    0.000    2.000    5.000    1.500    1.750    2.000 
#   11.250    0.625    0.000    0.000    0.000    0.000 
#    0.000    0.000    0.000    0.000    0.000    0.000 
#
# Total GULP energy -396570.210433 kJ/mol
# GULP energy per Si atom -12392.819076 kJ/mol
# Density = 2.033508 g / cm^3
# Si number density = 20.381468 Si / 1000 Ang^3
#
#
#
# Elastic Constant Matrix: (Units=GPa)
#
#
# Indices 1 2 3 4 5 6 
#
# 1 151.4137 44.5656 40.2662 0.0000 -11.0540 0.0000
# 2 44.5656 109.0694 43.1787 0.0000 -5.6753 0.0000
# 3 40.2662 43.1787 86.3530 0.0000 -12.3836 0.0000
# 4 0.0000 0.0000 0.0000 33.7888 0.0000 -10.1792
# 5 -11.0540 -5.6753 -12.3836 0.0000 21.3435 0.0000
# 6 0.0000 0.0000 0.0000 -10.1792 0.0000 25.0077
#
#
#
# Elastic Compliance Matrix: (Units=1/GPa)
#
#
# Indices 1 2 3 4 5 6 
#
# 1 0.008044 -0.002260 -0.002301 0.000000 0.002230 0.000000
# 2 -0.002260 0.012068 -0.005114 0.000000 -0.000928 0.000000
# 3 -0.002301 -0.005114 0.016192 0.000000 0.006843 0.000000
# 4 0.000000 0.000000 0.000000 0.033732 0.000000 0.013730
# 5 0.002230 -0.000928 0.006843 0.000000 0.051731 0.000000
# 6 0.000000 0.000000 0.000000 0.013730 0.000000 0.045577
#
#
# Mechanical properties :
#
#
# Convention : Reuss Voigt Hill
#
# Bulk Modulus (GPa) = 58.98149 66.98413 62.98281
# Shear Modulus (GPa) = 25.99499 30.61638 28.30568
#
# Velocity S-wave (km/s) = 3.57518 3.87999 3.73070
# Velocity P-wave (km/s) = 6.78558 7.28072 7.03751
#
# Compressibility (1/GPa) = 0.01695447
#
# Stress axis : x y z
#
# Youngs Moduli (GPa) = 124.31064 82.86412 61.75992
#
# Poissons Ratio (x) = 0.18726 0.14213
# Poissons Ratio (y) = 0.28092 0.31582
# Poissons Ratio (z) = 0.28607 0.42374
#
# Static dielectric constant tensor:
#      x y z
#    x 4.645420 0.000000 0.010130 
#    y 0.000000 3.223350 0.000000 
#    z 0.010130 0.000000 3.528680 
# 
# 
# High freq. dielectric constant tensor:
#      x y z
#    x 1.822080 0.000000 -0.007240 
#    y 0.000000 1.771300 0.000000 
#    z -0.007240 0.000000 1.773380 
# 
# From -- ./inp_files/42673.got.cif
#   From: 2010.06.25/outbox.cif.g09.slc.cpg/sg15_22_cif.got.tgz:42673.got - 2010.06.28 07:06:18.
