data_PCOD8137391
_publ_section_title
;
Structure prediction by ZEFSAII (Michael W. Deem and Ramdas Pophale) SiO2 
 PCOD8137391
Probable space group: C 2/C
;
_chemical_formula_sum "Si O2"
_cell_formula_units_Z 52
_cell_length_a 12.633184
_cell_length_b 29.770966
_cell_length_c 10.814329
_cell_angle_alpha 90.000000
_cell_angle_beta 42.718905
_cell_angle_gamma 90.000000
_cell_volume 2759.259353
_symmetry_space_group_name_H-M "C 2/C"
_symmetry_group_IT_number 15
_symmetry_cell_setting 'monoclinic'
loop_
_space_group_symop_operation_xyz
x,y,z
-x,y,1/2-z
-x,-y,-z
x,-y,1/2+z
1/2+x,1/2+y,z
1/2-x,1/2+y,1/2-z
1/2-x,1/2-y,-z
1/2+x,1/2-y,1/2+z
loop_
_atom_site_type_symbol
_atom_site_label
_atom_site_fract_x
_atom_site_fract_y
_atom_site_fract_z
Si Si1 0.181782 0.406215 0.592887
Si Si2 0.500000 0.768025 0.250000
Si Si3 0.000000 0.758209 0.250000
Si Si4 0.127557 0.030215 0.741465
Si Si5 0.268830 0.306286 0.876572
Si Si6 0.114233 0.060695 0.360887
Si Si7 0.756876 0.189590 0.105581
Si Si8 0.500000 0.625900 0.250000
O O1 0.249041 0.433879 0.417918
O O2 0.254947 0.421814 0.658850
O O3 0.215491 0.352910 0.552897
O O4 0.000000 0.416200 0.750000
O O5 0.631080 0.739647 0.210050
O O6 0.409058 0.798851 0.427367
O O7 0.125312 0.727583 0.211672
O O8 0.920740 0.790078 0.420133
O O9 0.000000 0.018974 0.750000
O O10 0.196741 0.981481 0.719950
O O11 0.046343 0.049462 0.932349
O O12 0.269611 0.325894 0.736818
O O13 0.350513 0.341488 0.901196
O O14 0.049448 0.097340 0.323940
#
# Coordination Sequence:
#
# PCOD8137391 Si02
#       8
#     8   4   4   8   8   8   8   4
#     4  11  23  39  61  89 123 157 195 248 301 356
#     4   9  20  38  56  80 110 154 202 240 294 365
#     4  10  24  36  59  84 118 162 205 244 298 344
#     4   9  20  38  65  88 112 155 196 240 294 351
#     4  10  20  36  58  80 115 153 197 246 299 349
#     4  10  20  39  62  87 116 149 201 242 288 361
#     4  11  21  39  56  87 119 157 200 251 291 354
#     4  11  20  34  57  88 114 150 191 246 294 345
#
# _framework density 18.845637
#
# number of rings (size 3 to 8) (size 9 to 14) (size 15 to 20)
#    0.000    1.846    3.077    0.923    3.231    0.615 
#    2.769    0.000    1.692    0.000    0.000    0.000 
#    0.000    0.000    0.000    0.000    0.000    0.000 
#
# Total GULP energy -322271.456241 kJ/mol
# GULP energy per Si atom -12395.056009 kJ/mol
# Density = 1.880274 g / cm^3
# Si number density = 18.845637 Si / 1000 Ang^3
#
#
#
# Elastic Constant Matrix: (Units=GPa)
#
#
# Indices 1 2 3 4 5 6 
#
# 1 57.9535 35.7522 45.9034 0.0000 -3.9655 0.0000
# 2 35.7522 117.9780 69.8036 0.0000 1.1475 0.0000
# 3 45.9034 69.8036 131.5837 0.0000 -6.4548 0.0000
# 4 0.0000 0.0000 0.0000 39.6672 0.0000 26.6400
# 5 -3.9655 1.1475 -6.4548 0.0000 27.5092 0.0000
# 6 0.0000 0.0000 0.0000 26.6400 0.0000 51.7035
#
#
#
# Elastic Compliance Matrix: (Units=1/GPa)
#
#
# Indices 1 2 3 4 5 6 
#
# 1 0.024920 -0.003633 -0.006659 0.000000 0.002181 0.000000
# 2 -0.003633 0.013002 -0.005748 0.000000 -0.002415 0.000000
# 3 -0.006659 -0.005748 0.013088 0.000000 0.002351 0.000000
# 4 0.000000 0.000000 0.000000 0.038549 0.000000 -0.019862
# 5 0.002181 -0.002415 0.002351 0.000000 0.037318 0.000000
# 6 0.000000 0.000000 0.000000 -0.019862 0.000000 0.029575
#
#
# Mechanical properties :
#
#
# Convention : Reuss Voigt Hill
#
# Bulk Modulus (GPa) = 52.83074 67.82595 60.32835
# Shear Modulus (GPa) = 25.66178 34.17972 29.92075
#
# Velocity S-wave (km/s) = 3.69410 4.26334 3.98889
# Velocity P-wave (km/s) = 6.80364 7.76551 7.30043
#
# Compressibility (1/GPa) = 0.01892837
#
# Stress axis : x y z
#
# Youngs Moduli (GPa) = 40.12787 76.91316 76.40865
#
# Poissons Ratio (x) = 0.27943 0.50882
# Poissons Ratio (y) = 0.14579 0.43922
# Poissons Ratio (z) = 0.26722 0.44212
#
# Static dielectric constant tensor:
#      x y z
#    x 3.716810 0.000000 0.532140 
#    y 0.000000 3.677550 0.000000 
#    z 0.532140 0.000000 4.394720 
# 
# 
# High freq. dielectric constant tensor:
#      x y z
#    x 1.729580 0.000000 0.001440 
#    y 0.000000 1.744660 0.000000 
#    z 0.001440 0.000000 1.717660 
# 
# From -- ./inp_files/43260.got.cif
#   From: 2010.06.25/outbox.cif.g09.slc.cpg/sg15_22_cif.got.tgz:43260.got - 2010.06.28 07:06:18.
