data_PCOD8137117
_publ_section_title
;
Structure prediction by ZEFSAII (Michael W. Deem and Ramdas Pophale) SiO2 
 PCOD8137117
Probable space group: C 2/C
;
_chemical_formula_sum "Si O2"
_cell_formula_units_Z 52
_cell_length_a 30.667090
_cell_length_b 15.096802
_cell_length_c 18.718697
_cell_angle_alpha 90.000000
_cell_angle_beta 17.159471
_cell_angle_gamma 90.000000
_cell_volume 2556.834554
_symmetry_space_group_name_H-M "C 2/C"
_symmetry_group_IT_number 15
_symmetry_cell_setting 'monoclinic'
loop_
_space_group_symop_operation_xyz
x,y,z
-x,y,1/2-z
-x,-y,-z
x,-y,1/2+z
1/2+x,1/2+y,z
1/2-x,1/2+y,1/2-z
1/2-x,1/2-y,-z
1/2+x,1/2-y,1/2+z
loop_
_atom_site_type_symbol
_atom_site_label
_atom_site_fract_x
_atom_site_fract_y
_atom_site_fract_z
Si Si1 0.311373 0.069985 0.742671
Si Si2 0.611385 0.537478 0.727056
Si Si3 0.922626 0.475228 0.217738
Si Si4 0.513571 0.779440 0.115438
Si Si5 0.000000 0.004275 0.750000
Si Si6 0.729251 0.758656 0.897245
Si Si7 0.986258 0.864770 0.548017
O O1 0.365210 0.016629 0.727028
O O2 0.333430 0.175207 0.715949
O O3 0.426166 0.031625 0.503247
O O4 0.136318 0.053119 0.003810
O O5 0.783403 0.518032 0.476551
O O6 0.566367 0.559362 0.714311
O O7 0.514228 0.452245 0.902478
O O8 0.573297 0.620590 0.837427
O O9 0.948169 0.373074 0.195259
O O10 0.391186 0.728370 0.355013
O O11 0.557963 0.717263 0.979377
O O12 0.658127 0.796420 0.936295
O O13 0.819747 0.838965 0.788858
#
# Coordination Sequence:
#
# PCOD8137117 Si02
#       7
#     8   8   8   8   4   8   8
#     4  10  20  35  61  86 117 156 201 244 298 362
#     4  10  22  38  61  92 124 161 199 252 312 365
#     4  10  20  38  60  86 118 159 198 247 300 366
#     4  11  21  37  62  89 122 155 206 257 304 350
#     4  10  20  38  62  88 118 160 208 242 302 382
#     4  11  21  35  60  91 117 162 203 254 299 360
#     4  11  21  37  61  90 127 155 201 260 308 351
#
# _framework density 20.337648000000002
#
# number of rings (size 3 to 8) (size 9 to 14) (size 15 to 20)
#    0.000    1.538    3.077    4.154    2.154    0.000 
#    0.000    0.769    0.000    0.000    0.000    0.000 
#    0.000    0.000    0.000    0.000    0.000    0.000 
#
# Total GULP energy -322156.183528 kJ/mol
# GULP energy per Si atom -12390.622443 kJ/mol
# Density = 2.029136 g / cm^3
# Si number density = 20.337648 Si / 1000 Ang^3
#
#
#
# Elastic Constant Matrix: (Units=GPa)
#
#
# Indices 1 2 3 4 5 6 
#
# 1 104.6741 24.8236 19.2236 0.0033 1.2866 -0.0036
# 2 24.8236 69.4178 25.9931 0.0042 9.0893 -0.0048
# 3 19.2236 25.9931 76.7543 0.0042 -0.9035 -0.0049
# 4 0.0033 0.0042 0.0042 35.5921 -0.0029 5.1367
# 5 1.2866 9.0893 -0.9035 -0.0029 27.6414 0.0024
# 6 -0.0036 -0.0048 -0.0049 5.1367 0.0024 16.8520
#
#
#
# Elastic Compliance Matrix: (Units=1/GPa)
#
#
# Indices 1 2 3 4 5 6 
#
# 1 0.010609 -0.003289 -0.001537 -0.000001 0.000537 0.000001
# 2 -0.003289 0.018435 -0.005491 -0.000002 -0.006088 0.000005
# 3 -0.001537 -0.005491 0.015301 -0.000001 0.002377 0.000003
# 4 -0.000001 -0.000002 -0.000001 0.029389 0.000005 -0.008958
# 5 0.000537 -0.006088 0.002377 0.000005 0.038232 -0.000008
# 6 0.000001 0.000005 0.000003 -0.008958 -0.000008 0.062071
#
#
# Mechanical properties :
#
#
# Convention : Reuss Voigt Hill
#
# Bulk Modulus (GPa) = 42.17354 43.43631 42.80493
# Shear Modulus (GPa) = 24.68235 28.07084 26.37660
#
# Velocity S-wave (km/s) = 3.48750 3.71919 3.60520
# Velocity P-wave (km/s) = 6.08264 6.31246 6.19862
#
# Compressibility (1/GPa) = 0.02371155
#
# Stress axis : x y z
#
# Youngs Moduli (GPa) = 94.25932 54.24532 65.35481
#
# Poissons Ratio (x) = 0.17839 0.10046
# Poissons Ratio (y) = 0.30998 0.35886
# Poissons Ratio (z) = 0.14488 0.29786
#
# Static dielectric constant tensor:
#      x y z
#    x 3.748670 0.000000 -0.079270 
#    y 0.000000 3.293660 0.000000 
#    z -0.079270 0.000000 3.964960 
# 
# 
# High freq. dielectric constant tensor:
#      x y z
#    x 1.792910 0.000000 -0.011900 
#    y 0.000000 1.766770 0.000000 
#    z -0.011900 0.000000 1.783330 
# 
# From -- ./inp_files/225461.got.cif
#   From: 2010.06.25/outbox.cif.g09.slc.cpg/sg15_113_cif.got.tgz:225461.got - 2010.06.28 07:06:18.
