data_PCOD8137425
_publ_section_title
;
Structure prediction by ZEFSAII (Michael W. Deem and Ramdas Pophale) SiO2 
 PCOD8137425
Probable space group: C 2/C
;
_chemical_formula_sum "Si O2"
_cell_formula_units_Z 48
_cell_length_a 24.400948
_cell_length_b 9.247891
_cell_length_c 14.262952
_cell_angle_alpha 90.000000
_cell_angle_beta 47.274575
_cell_angle_gamma 90.000000
_cell_volume 2364.382740
_symmetry_space_group_name_H-M "C 2/C"
_symmetry_group_IT_number 15
_symmetry_cell_setting 'monoclinic'
loop_
_space_group_symop_operation_xyz
x,y,z
-x,y,1/2-z
-x,-y,-z
x,-y,1/2+z
1/2+x,1/2+y,z
1/2-x,1/2+y,1/2-z
1/2-x,1/2-y,-z
1/2+x,1/2-y,1/2+z
loop_
_atom_site_type_symbol
_atom_site_label
_atom_site_fract_x
_atom_site_fract_y
_atom_site_fract_z
Si Si1 0.080475 0.842064 0.615389
Si Si2 0.822849 0.044572 0.875472
Si Si3 0.433241 0.972479 0.438349
Si Si4 0.164639 0.359276 0.574344
Si Si5 0.570353 0.601235 0.916807
Si Si6 0.919118 0.585220 0.154210
O O1 0.081863 0.668267 0.608054
O O2 0.098765 0.899304 0.490420
O O3 0.000000 0.894467 0.750000
O O4 0.146413 0.904200 0.604994
O O5 0.830028 0.185695 0.934267
O O6 0.864657 0.047033 0.727483
O O7 0.734278 0.044774 0.956157
O O8 0.390448 0.977551 0.588162
O O9 0.406310 0.107596 0.408493
O O10 0.520683 0.985154 0.362358
O O11 0.152522 0.403301 0.696732
O O12 0.543903 0.758979 0.912304
O O13 0.500000 0.500000 0.000000
#
# Coordination Sequence:
#
# PCOD8137425 Si02
#       6
#     8   8   8   8   8   8
#     4  11  21  35  58  86 115 144 196 247 285 336
#     4  10  23  38  56  85 116 154 193 236 287 351
#     4  10  21  37  60  86 113 151 192 240 288 340
#     4  10  21  39  58  80 119 157 191 228 293 354
#     4  10  20  36  58  85 114 146 192 242 288 340
#     4   9  20  37  60  85 115 149 194 238 286 346
#
# _framework density 20.301280999999999
#
# number of rings (size 3 to 8) (size 9 to 14) (size 15 to 20)
#    0.000    2.000    1.667    1.500    2.333    2.000 
#    0.000    0.000    0.000    0.000    0.000    0.000 
#    0.000    0.000    0.000    0.000    0.000    0.000 
#
# Total GULP energy -297406.762253 kJ/mol
# GULP energy per Si atom -12391.948427 kJ/mol
# Density = 2.025507 g / cm^3
# Si number density = 20.301281 Si / 1000 Ang^3
#
#
#
# Elastic Constant Matrix: (Units=GPa)
#
#
# Indices 1 2 3 4 5 6 
#
# 1 65.7975 27.2793 32.5558 0.0000 15.2434 0.0000
# 2 27.2793 61.5735 25.8930 0.0005 6.6050 -0.0002
# 3 32.5558 25.8930 132.0063 0.0001 8.3271 -0.0001
# 4 0.0000 0.0005 0.0001 23.7110 0.0000 1.9452
# 5 15.2434 6.6050 8.3271 0.0000 24.5728 0.0000
# 6 0.0000 -0.0002 -0.0001 1.9452 0.0000 39.8305
#
#
#
# Elastic Compliance Matrix: (Units=1/GPa)
#
#
# Indices 1 2 3 4 5 6 
#
# 1 0.022429 -0.007346 -0.003410 0.000000 -0.010783 0.000000
# 2 -0.007346 0.020435 -0.002184 0.000000 -0.000195 0.000000
# 3 -0.003410 -0.002184 0.008864 0.000000 -0.000301 0.000000
# 4 0.000000 0.000000 0.000000 0.042344 0.000000 -0.002068
# 5 -0.010783 -0.000195 -0.000301 0.000000 0.047539 0.000000
# 6 0.000000 0.000000 0.000000 -0.002068 0.000000 0.025207
#
#
# Mechanical properties :
#
#
# Convention : Reuss Voigt Hill
#
# Bulk Modulus (GPa) = 38.68985 47.87040 43.28013
# Shear Modulus (GPa) = 24.83654 29.19948 27.01801
#
# Velocity S-wave (km/s) = 3.50150 3.79662 3.65204
# Velocity P-wave (km/s) = 5.95370 6.54601 6.25687
#
# Compressibility (1/GPa) = 0.02584657
#
# Stress axis : x y z
#
# Youngs Moduli (GPa) = 44.58415 48.93600 112.81703
#
# Poissons Ratio (x) = 0.35949 0.38476
# Poissons Ratio (y) = 0.32752 0.24642
# Poissons Ratio (z) = 0.15205 0.10689
#
# Static dielectric constant tensor:
#      x y z
#    x 3.659290 0.000000 0.290510 
#    y 0.000000 3.678030 0.000000 
#    z 0.290510 0.000000 4.062480 
# 
# 
# High freq. dielectric constant tensor:
#      x y z
#    x 1.771010 0.000000 0.021920 
#    y 0.000000 1.785300 0.000000 
#    z 0.021920 0.000000 1.807550 
# 
# From -- ./inp_files/176914.got.cif
#   From: 2010.06.25/outbox.cif.g09.slc.cpg/sg15_89_cif.got.tgz:176914.got - 2010.06.28 07:06:18.
