data_PCOD8137826
_publ_section_title
;
Structure prediction by ZEFSAII (Michael W. Deem and Ramdas Pophale) SiO2 
 PCOD8137826
Probable space group: C 2/C
;
_chemical_formula_sum "Si O2"
_cell_formula_units_Z 60
_cell_length_a 17.763337
_cell_length_b 13.480845
_cell_length_c 12.945588
_cell_angle_alpha 90.000000
_cell_angle_beta 67.478581
_cell_angle_gamma 90.000000
_cell_volume 2863.594458
_symmetry_space_group_name_H-M "C 2/C"
_symmetry_group_IT_number 15
_symmetry_cell_setting 'monoclinic'
loop_
_space_group_symop_operation_xyz
x,y,z
-x,y,1/2-z
-x,-y,-z
x,-y,1/2+z
1/2+x,1/2+y,z
1/2-x,1/2+y,1/2-z
1/2-x,1/2-y,-z
1/2+x,1/2-y,1/2+z
loop_
_atom_site_type_symbol
_atom_site_label
_atom_site_fract_x
_atom_site_fract_y
_atom_site_fract_z
Si Si1 0.068052 0.932845 0.410420
Si Si2 0.000000 0.015327 0.250000
Si Si3 0.383075 0.773334 0.670305
Si Si4 0.959389 0.417865 0.381885
Si Si5 0.038766 0.630735 0.047913
Si Si6 0.661454 0.282863 0.078751
Si Si7 0.792144 0.658443 0.030850
Si Si8 0.652705 0.516180 0.051371
O O1 0.067707 0.813376 0.417980
O O2 0.151098 0.964001 0.427763
O O3 0.000000 0.000000 0.500000
O O4 0.061150 0.952719 0.291835
O O5 0.930090 0.070259 0.355946
O O6 0.451478 0.856909 0.651184
O O7 0.346454 0.738965 0.796662
O O8 0.308817 0.817376 0.642171
O O9 0.927274 0.528299 0.424840
O O10 0.877033 0.354388 0.426339
O O11 0.000000 0.408033 0.250000
O O12 0.024678 0.378339 0.431860
O O13 0.098217 0.721710 0.042111
O O14 0.646488 0.398752 0.069833
O O15 0.750000 0.250000 0.000000
O O16 0.734450 0.561316 0.056806
O O17 0.750000 0.750000 0.000000
#
# Coordination Sequence:
#
# PCOD8137826 Si02
#       8
#     8   4   8   8   8   8   8   8
#     4  10  20  36  63  94 122 169 211 264 327 395
#     4  10  20  38  62  94 126 166 214 264 332 392
#     4  11  22  42  67  90 133 176 214 277 341 394
#     4  10  22  43  69  96 130 179 224 273 329 406
#     4  10  22  41  69  98 129 173 225 272 335 399
#     4  12  25  40  64 102 135 172 225 286 335 404
#     4  11  24  44  63  95 136 175 218 274 341 400
#     4  11  23  41  66  94 135 171 222 277 336 404
#
# _framework density 20.952687000000001
#
# number of rings (size 3 to 8) (size 9 to 14) (size 15 to 20)
#    0.000    1.333    2.667    3.600    0.000    2.133 
#    1.200    1.333    0.000    0.000    0.000    0.000 
#    0.000    0.000    0.000    0.000    0.000    0.000 
#
# Total GULP energy -371664.895819 kJ/mol
# GULP energy per Si atom -12388.829861 kJ/mol
# Density = 2.090500 g / cm^3
# Si number density = 20.952687 Si / 1000 Ang^3
#
#
#
# Elastic Constant Matrix: (Units=GPa)
#
#
# Indices 1 2 3 4 5 6 
#
# 1 139.0271 55.6844 63.4834 0.0000 20.6123 0.0000
# 2 55.6844 108.9563 47.3888 0.0000 12.1106 0.0000
# 3 63.4834 47.3888 126.1766 0.0000 10.7214 0.0000
# 4 0.0000 0.0000 0.0000 17.8919 0.0000 3.7252
# 5 20.6123 12.1106 10.7214 0.0000 34.9117 0.0000
# 6 0.0000 0.0000 0.0000 3.7252 0.0000 46.3622
#
#
#
# Elastic Compliance Matrix: (Units=1/GPa)
#
#
# Indices 1 2 3 4 5 6 
#
# 1 0.010947 -0.003462 -0.003861 0.000000 -0.004077 0.000000
# 2 -0.003462 0.012301 -0.002761 0.000000 -0.001375 0.000000
# 3 -0.003861 -0.002761 0.010915 0.000000 -0.000114 0.000000
# 4 0.000000 0.000000 0.000000 0.056842 0.000000 -0.004567
# 5 -0.004077 -0.001375 -0.000114 0.000000 0.031563 0.000000
# 6 0.000000 0.000000 0.000000 -0.004567 0.000000 0.021936
#
#
# Mechanical properties :
#
#
# Convention : Reuss Voigt Hill
#
# Bulk Modulus (GPa) = 71.45954 78.58590 75.02272
# Shear Modulus (GPa) = 29.52676 33.67339 31.60008
#
# Velocity S-wave (km/s) = 3.75802 4.01323 3.88772
# Velocity P-wave (km/s) = 7.28076 7.68521 7.48572
#
# Compressibility (1/GPa) = 0.01399393
#
# Stress axis : x y z
#
# Youngs Moduli (GPa) = 91.34880 81.29246 91.61879
#
# Poissons Ratio (x) = 0.28146 0.35375
# Poissons Ratio (y) = 0.31628 0.25298
# Poissons Ratio (z) = 0.35270 0.22447
#
# Static dielectric constant tensor:
#      x y z
#    x 4.532620 0.000000 0.138200 
#    y 0.000000 3.625350 0.000000 
#    z 0.138200 0.000000 3.649450 
# 
# 
# High freq. dielectric constant tensor:
#      x y z
#    x 1.833360 0.000000 0.022110 
#    y 0.000000 1.820990 0.000000 
#    z 0.022110 0.000000 1.812540 
# 
# From -- ./inp_files/161296.got.cif
#   From: 2010.06.25/outbox.cif.g09.slc.cpg/sg15_81_cif.got.tgz:161296.got - 2010.06.28 07:06:18.
