data_PCOD8137776
_publ_section_title
;
Structure prediction by ZEFSAII (Michael W. Deem and Ramdas Pophale) SiO2 
 PCOD8137776
Probable space group: C 2/C
;
_chemical_formula_sum "Si O2"
_cell_formula_units_Z 60
_cell_length_a 20.148782
_cell_length_b 10.087646
_cell_length_c 22.063954
_cell_angle_alpha 90.000000
_cell_angle_beta 144.134469
_cell_angle_gamma 90.000000
_cell_volume 2627.449051
_symmetry_space_group_name_H-M "C 2/C"
_symmetry_group_IT_number 15
_symmetry_cell_setting 'monoclinic'
loop_
_space_group_symop_operation_xyz
x,y,z
-x,y,1/2-z
-x,-y,-z
x,-y,1/2+z
1/2+x,1/2+y,z
1/2-x,1/2+y,1/2-z
1/2-x,1/2-y,-z
1/2+x,1/2-y,1/2+z
loop_
_atom_site_type_symbol
_atom_site_label
_atom_site_fract_x
_atom_site_fract_y
_atom_site_fract_z
Si Si1 0.796306 0.319014 0.174608
Si Si2 0.973119 0.822625 0.342486
Si Si3 0.398576 0.094408 0.871365
Si Si4 0.802566 0.925604 0.958601
Si Si5 0.387721 0.929102 0.586432
Si Si6 0.091611 0.304714 0.584914
Si Si7 0.000000 0.354253 0.250000
Si Si8 0.741980 0.146238 0.622967
O O1 0.869976 0.379661 0.281761
O O2 0.718803 0.435454 0.089774
O O3 0.713215 0.205670 0.139901
O O4 0.891456 0.269665 0.195321
O O5 0.921062 0.805565 0.372093
O O6 0.878222 0.869223 0.223794
O O7 0.072088 0.933079 0.418984
O O8 0.021654 0.687071 0.351054
O O9 0.290047 0.102408 0.833630
O O10 0.436824 0.941788 0.901657
O O11 0.494779 0.201091 0.961833
O O12 0.709629 0.888644 0.939247
O O13 0.799415 0.798965 0.911889
O O14 0.321871 0.947914 0.473264
O O15 0.453219 0.058537 0.658869
#
# Coordination Sequence:
#
# PCOD8137776 Si02
#       8
#     8   8   8   8   8   8   4   8
#     4  11  24  43  67  92 125 171 214 265 320 380
#     4  11  19  36  58  97 131 159 205 271 329 373
#     4  11  23  40  66  93 125 163 213 259 317 387
#     4  10  22  37  60  93 130 170 210 261 322 383
#     4  10  20  36  62  92 127 168 217 255 321 388
#     4  11  23  40  62  95 123 165 208 260 322 377
#     4  10  22  42  68  90 124 180 222 260 306 392
#     4  11  20  35  60  95 128 166 207 268 323 377
#
# _framework density 22.835836
#
# number of rings (size 3 to 8) (size 9 to 14) (size 15 to 20)
#    0.000    1.333    4.000    4.800    1.867    2.133 
#    2.400    0.667    0.000    1.600    0.000    0.000 
#    0.000    0.000    0.000    0.000    0.000    0.000 
#
# Total GULP energy -371737.897934 kJ/mol
# GULP energy per Si atom -12391.263264 kJ/mol
# Density = 2.278386 g / cm^3
# Si number density = 22.835836 Si / 1000 Ang^3
#
#
#
# Elastic Constant Matrix: (Units=GPa)
#
#
# Indices 1 2 3 4 5 6 
#
# 1 112.0125 11.1215 34.5903 0.0000 11.6712 0.0000
# 2 11.1215 21.9021 9.7369 0.0000 -0.0330 0.0000
# 3 34.5903 9.7369 149.5917 0.0000 21.0704 0.0000
# 4 0.0000 0.0000 0.0000 13.5606 0.0000 7.9189
# 5 11.6712 -0.0330 21.0704 0.0000 28.3303 0.0000
# 6 0.0000 0.0000 0.0000 7.9189 0.0000 26.7950
#
#
#
# Elastic Compliance Matrix: (Units=1/GPa)
#
#
# Indices 1 2 3 4 5 6 
#
# 1 0.010188 -0.004445 -0.001647 0.000000 -0.002977 0.000000
# 2 -0.004445 0.049131 -0.002721 0.000000 0.003912 0.000000
# 3 -0.001647 -0.002721 0.007984 0.000000 -0.005263 0.000000
# 4 0.000000 0.000000 0.000000 0.089124 0.000000 -0.026340
# 5 -0.002977 0.003912 -0.005263 0.000000 0.040443 0.000000
# 6 0.000000 0.000000 0.000000 -0.026340 0.000000 0.045105
#
#
# Mechanical properties :
#
#
# Convention : Reuss Voigt Hill
#
# Bulk Modulus (GPa) = 20.13066 43.82264 31.97665
# Shear Modulus (GPa) = 18.10541 28.94102 23.52322
#
# Velocity S-wave (km/s) = 2.81882 3.56385 3.21300
# Velocity P-wave (km/s) = 4.40781 6.01387 5.27236
#
# Compressibility (1/GPa) = 0.04967548
#
# Stress axis : x y z
#
# Youngs Moduli (GPa) = 98.15677 20.35387 125.24904
#
# Poissons Ratio (x) = 0.09048 0.20629
# Poissons Ratio (y) = 0.43635 0.34081
# Poissons Ratio (z) = 0.16167 0.05538
#
# Static dielectric constant tensor:
#      x y z
#    x 4.253460 0.000000 0.110990 
#    y 0.000000 3.557310 0.000000 
#    z 0.110990 0.000000 4.413800 
# 
# 
# High freq. dielectric constant tensor:
#      x y z
#    x 1.919530 0.000000 0.010230 
#    y 0.000000 1.842620 0.000000 
#    z 0.010230 0.000000 1.917330 
# 
# From -- ./inp_files/248774.got.cif
#   From: 2010.06.25/outbox.cif.g09.slc.cpg/sg15_125_cif.got.tgz:248774.got - 2010.06.28 07:06:18.
