data_PCOD8137923
_publ_section_title
;
Structure prediction by ZEFSAII (Michael W. Deem and Ramdas Pophale) SiO2 
 PCOD8137923
Probable space group: C 2/C
;
_chemical_formula_sum "Si O2"
_cell_formula_units_Z 64
_cell_length_a 17.618869
_cell_length_b 15.345092
_cell_length_c 15.338811
_cell_angle_alpha 90.000000
_cell_angle_beta 130.162433
_cell_angle_gamma 90.000000
_cell_volume 3169.254314
_symmetry_space_group_name_H-M "C 2/C"
_symmetry_group_IT_number 15
_symmetry_cell_setting 'monoclinic'
loop_
_space_group_symop_operation_xyz
x,y,z
-x,y,1/2-z
-x,-y,-z
x,-y,1/2+z
1/2+x,1/2+y,z
1/2-x,1/2+y,1/2-z
1/2-x,1/2-y,-z
1/2+x,1/2-y,1/2+z
loop_
_atom_site_type_symbol
_atom_site_label
_atom_site_fract_x
_atom_site_fract_y
_atom_site_fract_z
Si Si1 0.302777 0.653176 0.748484
Si Si2 0.582049 0.071131 0.046739
Si Si3 0.487033 0.747087 0.951315
Si Si4 0.924664 0.074600 0.413101
Si Si5 0.304728 0.000768 0.028123
Si Si6 0.392643 0.503725 0.709914
Si Si7 0.825549 0.301621 0.495214
Si Si8 0.225453 0.503875 0.300624
O O1 0.375951 0.725607 0.839350
O O2 0.365598 0.598820 0.724946
O O3 0.213529 0.702346 0.633414
O O4 0.257207 0.590094 0.787453
O O5 0.526497 0.163889 0.005213
O O6 0.659638 0.057992 0.183272
O O7 0.631378 0.060801 0.988122
O O8 0.500000 0.000000 0.000000
O O9 0.563655 0.760154 0.926752
O O10 0.527629 0.669160 0.041233
O O11 0.894092 0.065473 0.289455
O O12 0.823208 0.062681 0.393382
O O13 0.000000 0.000000 0.500000
O O14 0.329179 0.984287 0.148049
O O15 0.334619 0.099799 0.032674
O O16 0.189137 0.978180 0.922932
O O17 0.500000 0.508964 0.750000
O O18 0.750000 0.250000 0.500000
#
# Coordination Sequence:
#
# PCOD8137923 Si02
#       8
#     8   8   8   8   8   8   8   8
#     4  10  23  41  62 101 133 176 219 282 350 403
#     4  12  25  50  65  96 144 188 229 277 333 421
#     4  12  25  39  70  97 137 176 231 276 345 412
#     4  11  20  40  66 100 132 173 219 287 354 395
#     4  11  23  43  69  97 131 187 227 270 345 412
#     4  10  20  36  66  97 136 167 219 286 344 412
#     4  11  24  41  62 101 139 163 219 287 341 404
#     4  11  22  45  73  93 139 182 225 285 349 403
#
# _framework density 20.194025
#
# number of rings (size 3 to 8) (size 9 to 14) (size 15 to 20)
#    0.000    1.000    7.500    1.500    7.000    0.500 
#    0.000    0.625    5.500    0.000    0.000    0.000 
#    0.000    0.000    0.000    0.000    0.000    0.000 
#
# Total GULP energy -396731.764764 kJ/mol
# GULP energy per Si atom -12397.867649 kJ/mol
# Density = 2.014806 g / cm^3
# Si number density = 20.194025 Si / 1000 Ang^3
#
#
#
# Elastic Constant Matrix: (Units=GPa)
#
#
# Indices 1 2 3 4 5 6 
#
# 1 97.4641 34.1323 26.4070 0.0000 -7.7985 0.0000
# 2 34.1323 122.6782 33.2563 0.0000 3.0171 0.0000
# 3 26.4070 33.2563 81.8637 0.0000 -7.5847 0.0000
# 4 0.0000 0.0000 0.0000 27.7692 0.0000 10.1124
# 5 -7.7985 3.0171 -7.5847 0.0000 37.6947 0.0000
# 6 0.0000 0.0000 0.0000 10.1124 0.0000 30.0146
#
#
#
# Elastic Compliance Matrix: (Units=1/GPa)
#
#
# Indices 1 2 3 4 5 6 
#
# 1 0.012089 -0.002715 -0.002593 0.000000 0.002197 0.000000
# 2 -0.002715 0.009855 -0.003315 0.000000 -0.002017 0.000000
# 3 -0.002593 -0.003315 0.014646 0.000000 0.002676 0.000000
# 4 0.000000 0.000000 0.000000 0.041047 0.000000 -0.013829
# 5 0.002197 -0.002017 0.002676 0.000000 0.027683 0.000000
# 6 0.000000 0.000000 0.000000 -0.013829 0.000000 0.037976
#
#
# Mechanical properties :
#
#
# Convention : Reuss Voigt Hill
#
# Bulk Modulus (GPa) = 51.69218 54.39968 53.04593
# Shear Modulus (GPa) = 29.94172 32.97640 31.45906
#
# Velocity S-wave (km/s) = 3.85476 4.04540 3.95123
# Velocity P-wave (km/s) = 6.74282 6.98694 6.86596
#
# Compressibility (1/GPa) = 0.01934529
#
# Stress axis : x y z
#
# Youngs Moduli (GPa) = 82.71819 101.47296 68.27584
#
# Poissons Ratio (x) = 0.27545 0.17707
# Poissons Ratio (y) = 0.22454 0.22631
# Poissons Ratio (z) = 0.21452 0.33635
#
# Static dielectric constant tensor:
#      x y z
#    x 3.858030 0.000000 0.176250 
#    y 0.000000 0.808880 0.000000 
#    z 0.176250 0.000000 4.060970 
# 
# 
# High freq. dielectric constant tensor:
#      x y z
#    x 1.793960 0.000000 0.014710 
#    y 0.000000 1.776910 0.000000 
#    z 0.014710 0.000000 1.789220 
# 
# From -- ./inp_files/162267.got.cif
#   From: 2010.06.25/outbox.cif.g09.slc.cpg/sg15_82_cif.got.tgz:162267.got - 2010.06.28 07:06:18.
