data_PCOD8137375
_publ_section_title
;
Structure prediction by ZEFSAII (Michael W. Deem and Ramdas Pophale) SiO2 
 PCOD8137375
Probable space group: C 2/C
;
_chemical_formula_sum "Si O2"
_cell_formula_units_Z 52
_cell_length_a 15.077665
_cell_length_b 25.544293
_cell_length_c 9.169099
_cell_angle_alpha 90.000000
_cell_angle_beta 47.566880
_cell_angle_gamma 90.000000
_cell_volume 2606.450644
_symmetry_space_group_name_H-M "C 2/C"
_symmetry_group_IT_number 15
_symmetry_cell_setting 'monoclinic'
loop_
_space_group_symop_operation_xyz
x,y,z
-x,y,1/2-z
-x,-y,-z
x,-y,1/2+z
1/2+x,1/2+y,z
1/2-x,1/2+y,1/2-z
1/2-x,1/2-y,-z
1/2+x,1/2-y,1/2+z
loop_
_atom_site_type_symbol
_atom_site_label
_atom_site_fract_x
_atom_site_fract_y
_atom_site_fract_z
Si Si1 0.212444 0.964619 0.054066
Si Si2 0.928688 0.551108 0.533081
Si Si3 0.307903 0.384364 0.674380
Si Si4 0.410982 0.382353 0.126870
Si Si5 0.733932 0.580435 0.971058
Si Si6 0.244128 0.688287 0.003891
Si Si7 0.500000 0.133411 0.250000
O O1 0.338624 0.961879 0.999844
O O2 0.111038 0.936913 0.264105
O O3 0.222753 0.935621 0.887314
O O4 0.173230 0.024060 0.069995
O O5 0.860657 0.572666 0.750395
O O6 0.017381 0.596482 0.374441
O O7 0.000000 0.500000 0.500000
O O8 0.448638 0.374389 0.541017
O O9 0.258595 0.332225 0.652561
O O10 0.243602 0.390073 0.901708
O O11 0.356062 0.385024 0.026185
O O12 0.348680 0.335099 0.285151
O O13 0.250000 0.750000 0.000000
O O14 0.114950 0.669328 0.090329
#
# Coordination Sequence:
#
# PCOD8137375 Si02
#       7
#     8   8   8   8   8   8   4
#     4  10  20  36  57  91 127 170 217 241 301 388
#     4  11  23  38  62  93 137 178 207 260 315 397
#     4  11  22  40  63  92 126 163 213 268 313 377
#     4  10  22  41  61  90 127 161 215 262 313 379
#     4  11  22  37  58  96 130 166 209 252 325 380
#     4  11  25  44  69  93 116 162 224 270 321 383
#     4  12  22  44  70  92 128 170 220 258 324 396
#
# _framework density 19.950503000000001
#
# number of rings (size 3 to 8) (size 9 to 14) (size 15 to 20)
#    0.000    1.231    4.615    5.077    4.308    3.692 
#    0.000    1.538    0.000    0.000    0.000    0.000 
#    0.000    0.000    0.000    0.000    0.000    0.000 
#
# Total GULP energy -322430.500945 kJ/mol
# GULP energy per Si atom -12401.173113 kJ/mol
# Density = 1.990510 g / cm^3
# Si number density = 19.950503 Si / 1000 Ang^3
#
#
#
# Elastic Constant Matrix: (Units=GPa)
#
#
# Indices 1 2 3 4 5 6 
#
# 1 91.9884 34.9257 48.2441 0.0000 16.6225 0.0000
# 2 34.9257 141.1664 45.7477 0.0000 12.2240 0.0000
# 3 48.2441 45.7477 118.6401 0.0000 18.6886 0.0000
# 4 0.0000 0.0000 0.0000 13.0539 0.0000 -0.7029
# 5 16.6225 12.2240 18.6886 0.0000 45.7679 0.0000
# 6 0.0000 0.0000 0.0000 -0.7029 0.0000 20.8692
#
#
#
# Elastic Compliance Matrix: (Units=1/GPa)
#
#
# Indices 1 2 3 4 5 6 
#
# 1 0.014583 -0.001811 -0.004781 0.000000 -0.002860 0.000000
# 2 -0.001811 0.008359 -0.002393 0.000000 -0.000598 0.000000
# 3 -0.004781 -0.002393 0.011672 0.000000 -0.002391 0.000000
# 4 0.000000 0.000000 0.000000 0.076745 0.000000 0.002585
# 5 -0.002860 -0.000598 -0.002391 0.000000 0.024024 0.000000
# 6 0.000000 0.000000 0.000000 0.002585 0.000000 0.048005
#
#
# Mechanical properties :
#
#
# Convention : Reuss Voigt Hill
#
# Bulk Modulus (GPa) = 60.07882 67.73664 63.90773
# Shear Modulus (GPa) = 24.16567 30.79670 27.48118
#
# Velocity S-wave (km/s) = 3.48412 3.93320 3.71545
# Velocity P-wave (km/s) = 6.80917 7.39275 7.10695
#
# Compressibility (1/GPa) = 0.01664480
#
# Stress axis : x y z
#
# Youngs Moduli (GPa) = 68.57367 119.63126 85.67293
#
# Poissons Ratio (x) = 0.21663 0.40962
# Poissons Ratio (y) = 0.12417 0.20499
# Poissons Ratio (z) = 0.32786 0.28624
#
# Static dielectric constant tensor:
#      x y z
#    x 3.809060 0.000000 0.113500 
#    y 0.000000 3.399820 0.000000 
#    z 0.113500 0.000000 3.748940 
# 
# 
# High freq. dielectric constant tensor:
#      x y z
#    x 1.786240 0.000000 0.001210 
#    y 0.000000 1.743490 0.000000 
#    z 0.001210 0.000000 1.786190 
# 
# From -- ./inp_files/43384.got.cif
#   From: 2010.06.25/outbox.cif.g09.slc.cpg/sg15_22_cif.got.tgz:43384.got - 2010.06.28 07:06:18.
