data_PCOD8137589
_publ_section_title
;
Structure prediction by ZEFSAII (Michael W. Deem and Ramdas Pophale) SiO2 
 PCOD8137589
Probable space group: C 2/C
;
_chemical_formula_sum "Si O2"
_cell_formula_units_Z 56
_cell_length_a 16.314114
_cell_length_b 11.779596
_cell_length_c 13.865600
_cell_angle_alpha 90.000000
_cell_angle_beta 73.742940
_cell_angle_gamma 90.000000
_cell_volume 2558.060082
_symmetry_space_group_name_H-M "C 2/C"
_symmetry_group_IT_number 15
_symmetry_cell_setting 'monoclinic'
loop_
_space_group_symop_operation_xyz
x,y,z
-x,y,1/2-z
-x,-y,-z
x,-y,1/2+z
1/2+x,1/2+y,z
1/2-x,1/2+y,1/2-z
1/2-x,1/2-y,-z
1/2+x,1/2-y,1/2+z
loop_
_atom_site_type_symbol
_atom_site_label
_atom_site_fract_x
_atom_site_fract_y
_atom_site_fract_z
Si Si1 0.401402 0.407767 0.252972
Si Si2 0.433597 0.927296 0.910259
Si Si3 0.617717 0.984918 0.873929
Si Si4 0.656090 0.702998 0.548303
Si Si5 0.808261 0.429770 0.341009
Si Si6 0.329758 0.597079 0.145752
Si Si7 0.289166 0.231709 0.179386
O O1 0.500000 0.392836 0.250000
O O2 0.346740 0.397242 0.370447
O O3 0.387602 0.531306 0.206383
O O4 0.366916 0.311480 0.190833
O O5 0.532848 0.934894 0.851235
O O6 0.400424 0.804971 0.887130
O O7 0.390367 0.036929 0.875213
O O8 0.411637 0.933759 0.030804
O O9 0.672762 0.875891 0.891108
O O10 0.672362 0.057087 0.779971
O O11 0.750000 0.750000 0.500000
O O12 0.616963 0.657598 0.458615
O O13 0.730231 0.511112 0.394166
O O14 0.775800 0.301197 0.368922
O O15 0.267401 0.689551 0.212800
#
# Coordination Sequence:
#
# PCOD8137589 Si02
#       7
#     8   8   8   8   8   8   8
#     4  11  24  41  63  92 129 165 205 263 321 369
#     4  11  22  37  61  90 117 164 205 261 306 372
#     4  10  22  37  58  88 127 153 207 263 314 366
#     4  12  21  39  68  93 117 166 220 248 309 384
#     4  10  20  36  60  86 119 157 208 255 311 365
#     4  10  22  37  61  94 119 165 208 261 304 374
#     4  10  20  37  60  87 123 164 203 256 308 372
#
# _framework density 21.891589
#
# number of rings (size 3 to 8) (size 9 to 14) (size 15 to 20)
#    0.000    1.429    2.857    3.000    4.000    1.143 
#    0.000    5.714    0.000    0.000    0.000    0.000 
#    0.000    0.000    0.000    0.000    0.000    0.000 
#
# Total GULP energy -347029.009090 kJ/mol
# GULP energy per Si atom -12393.893182 kJ/mol
# Density = 2.184176 g / cm^3
# Si number density = 21.891589 Si / 1000 Ang^3
#
#
#
# Elastic Constant Matrix: (Units=GPa)
#
#
# Indices 1 2 3 4 5 6 
#
# 1 69.3220 34.1505 14.6644 0.0000 -1.3799 0.0000
# 2 34.1505 83.9033 14.3254 0.0000 0.7973 0.0000
# 3 14.6644 14.3254 52.5480 0.0000 2.2212 0.0000
# 4 0.0000 0.0000 0.0000 23.4876 0.0000 6.1286
# 5 -1.3799 0.7973 2.2212 0.0000 25.2092 0.0000
# 6 0.0000 0.0000 0.0000 6.1286 0.0000 34.1206
#
#
#
# Elastic Compliance Matrix: (Units=1/GPa)
#
#
# Indices 1 2 3 4 5 6 
#
# 1 0.018624 -0.007023 -0.003348 0.000000 0.001537 0.000000
# 2 -0.007023 0.015149 -0.002141 0.000000 -0.000675 0.000000
# 3 -0.003348 -0.002141 0.020630 0.000000 -0.001933 0.000000
# 4 0.000000 0.000000 0.000000 0.044669 0.000000 -0.008023
# 5 0.001537 -0.000675 -0.001933 0.000000 0.039944 0.000000
# 6 0.000000 0.000000 0.000000 -0.008023 0.000000 0.030749
#
#
# Mechanical properties :
#
#
# Convention : Reuss Voigt Hill
#
# Bulk Modulus (GPa) = 34.03865 36.89487 35.46676
# Shear Modulus (GPa) = 24.43995 26.07234 25.25615
#
# Velocity S-wave (km/s) = 3.34489 3.45480 3.40029
# Velocity P-wave (km/s) = 5.52270 5.72749 5.62603
#
# Compressibility (1/GPa) = 0.02937837
#
# Stress axis : x y z
#
# Youngs Moduli (GPa) = 53.69359 66.01003 48.47328
#
# Poissons Ratio (x) = 0.46362 0.16227
# Poissons Ratio (y) = 0.37712 0.10380
# Poissons Ratio (z) = 0.17975 0.14135
#
# Static dielectric constant tensor:
#      x y z
#    x 3.895140 0.000000 -0.024610 
#    y 0.000000 4.122850 0.000000 
#    z -0.024610 0.000000 3.830790 
# 
# 
# High freq. dielectric constant tensor:
#      x y z
#    x 1.846920 0.000000 -0.004240 
#    y 0.000000 1.858220 0.000000 
#    z -0.004240 0.000000 1.851780 
# 
# From -- ./inp_files/160841.got.cif
#   From: 2010.06.25/outbox.cif.g09.slc.cpg/sg15_81_cif.got.tgz:160841.got - 2010.06.28 07:06:18.
