data_PCOD8137212
_publ_section_title
;
Structure prediction by ZEFSAII (Michael W. Deem and Ramdas Pophale) SiO2 
 PCOD8137212
Probable space group: C 2/C
;
_chemical_formula_sum "Si O2"
_cell_formula_units_Z 52
_cell_length_a 11.950920
_cell_length_b 14.621522
_cell_length_c 22.491853
_cell_angle_alpha 90.000000
_cell_angle_beta 36.504547
_cell_angle_gamma 90.000000
_cell_volume 2338.047493
_symmetry_space_group_name_H-M "C 2/C"
_symmetry_group_IT_number 15
_symmetry_cell_setting 'monoclinic'
loop_
_space_group_symop_operation_xyz
x,y,z
-x,y,1/2-z
-x,-y,-z
x,-y,1/2+z
1/2+x,1/2+y,z
1/2-x,1/2+y,1/2-z
1/2-x,1/2-y,-z
1/2+x,1/2-y,1/2+z
loop_
_atom_site_type_symbol
_atom_site_label
_atom_site_fract_x
_atom_site_fract_y
_atom_site_fract_z
Si Si1 0.339458 0.611228 0.866348
Si Si2 0.642925 0.562638 0.515252
Si Si3 0.959222 0.493035 0.148060
Si Si4 0.115107 0.131189 0.975765
Si Si5 0.013232 0.676471 0.537152
Si Si6 0.500000 0.910387 0.250000
Si Si7 0.783770 0.075355 0.343502
O O1 0.500000 0.620612 0.750000
O O2 0.428027 0.614022 0.894454
O O3 0.182376 0.684755 0.915908
O O4 0.242295 0.511375 0.903688
O O5 0.869851 0.565727 0.421137
O O6 0.548865 0.619927 0.503052
O O7 0.598816 0.454269 0.527627
O O8 0.900534 0.470227 0.240802
O O9 0.008440 0.396909 0.092740
O O10 0.785265 0.546514 0.192943
O O11 0.323612 0.141954 0.856334
O O12 0.067581 0.221186 0.035594
O O13 0.167471 0.657258 0.420661
O O14 0.000000 0.104275 0.250000
#
# Coordination Sequence:
#
# PCOD8137212 Si02
#       7
#     8   8   8   8   8   4   8
#     4  10  20  37  69  91 121 167 214 260 304 374
#     4  10  20  43  63  86 124 172 211 245 325 378
#     4  10  20  41  66  89 128 167 214 262 306 383
#     4  10  25  39  64  89 131 171 203 262 319 381
#     4  11  21  40  65  96 126 160 214 268 316 360
#     4  10  24  38  62  92 126 172 210 248 326 380
#     4  10  20  35  66  99 124 162 213 262 311 374
#
# _framework density 22.240779
#
# number of rings (size 3 to 8) (size 9 to 14) (size 15 to 20)
#    0.000    1.846    3.077    0.923    7.538    3.077 
#    0.000    0.000   15.231    0.000    0.000    0.000 
#    0.000    0.000    0.000    0.000    0.000    0.000 
#
# Total GULP energy -322107.888943 kJ/mol
# GULP energy per Si atom -12388.764959 kJ/mol
# Density = 2.219016 g / cm^3
# Si number density = 22.240779 Si / 1000 Ang^3
#
#
#
# Elastic Constant Matrix: (Units=GPa)
#
#
# Indices 1 2 3 4 5 6 
#
# 1 137.5106 4.9384 41.4685 0.0000 -2.3159 -0.0001
# 2 4.9384 56.0305 30.4220 0.0001 -7.9159 0.0000
# 3 41.4685 30.4220 85.5653 0.0018 -1.4178 0.0004
# 4 0.0000 0.0001 0.0018 14.8242 -0.0006 -2.4878
# 5 -2.3159 -7.9159 -1.4178 -0.0006 38.7283 -0.0001
# 6 -0.0001 0.0000 0.0004 -2.4878 -0.0001 15.1884
#
#
#
# Elastic Compliance Matrix: (Units=1/GPa)
#
#
# Indices 1 2 3 4 5 6 
#
# 1 0.008695 0.002009 -0.004916 0.000001 0.000751 0.000000
# 2 0.002009 0.023298 -0.009182 0.000001 0.004546 0.000000
# 3 -0.004916 -0.009182 0.017308 -0.000002 -0.001537 -0.000001
# 4 0.000001 0.000001 -0.000002 0.069364 0.000001 0.011362
# 5 0.000751 0.004546 -0.001537 0.000001 0.026739 0.000000
# 6 0.000000 0.000000 -0.000001 0.011362 0.000000 0.067701
#
#
# Mechanical properties :
#
#
# Convention : Reuss Voigt Hill
#
# Bulk Modulus (GPa) = 39.80246 48.08491 43.94368
# Shear Modulus (GPa) = 20.35361 27.23333 23.79347
#
# Velocity S-wave (km/s) = 3.02842 3.50305 3.27435
# Velocity P-wave (km/s) = 5.49213 6.16676 5.83919
#
# Compressibility (1/GPa) = 0.02512407
#
# Stress axis : x y z
#
# Youngs Moduli (GPa) = 115.00748 42.92255 57.77580
#
# Poissons Ratio (x) = -0.08622 0.28401
# Poissons Ratio (y) = -0.23102 0.53047
# Poissons Ratio (z) = 0.56535 0.39409
#
# Static dielectric constant tensor:
#      x y z
#    x 4.414300 0.000000 -0.141850 
#    y 0.000000 3.705080 0.000000 
#    z -0.141850 0.000000 3.766060 
# 
# 
# High freq. dielectric constant tensor:
#      x y z
#    x 1.901170 0.000000 -0.011330 
#    y 0.000000 1.833930 0.000000 
#    z -0.011330 0.000000 1.863370 
# 
# From -- ./inp_files/269902.got.cif
#   From: 2010.06.25/outbox.cif.g09.slc.cpg/sg15_135_cif.got.tgz:269902.got - 2010.06.28 07:06:18.
