data_PCOD8137846
_publ_section_title
;
Structure prediction by ZEFSAII (Michael W. Deem and Ramdas Pophale) SiO2 
 PCOD8137846
Probable space group: C 2/C
;
_chemical_formula_sum "Si O2"
_cell_formula_units_Z 44
_cell_length_a 21.698487
_cell_length_b 7.488097
_cell_length_c 15.577446
_cell_angle_alpha 90.000000
_cell_angle_beta 125.341959
_cell_angle_gamma 90.000000
_cell_volume 2064.596502
_symmetry_space_group_name_H-M "C 2/C"
_symmetry_group_IT_number 15
_symmetry_cell_setting 'monoclinic'
loop_
_space_group_symop_operation_xyz
x,y,z
-x,y,1/2-z
-x,-y,-z
x,-y,1/2+z
1/2+x,1/2+y,z
1/2-x,1/2+y,1/2-z
1/2-x,1/2-y,-z
1/2+x,1/2-y,1/2+z
loop_
_atom_site_type_symbol
_atom_site_label
_atom_site_fract_x
_atom_site_fract_y
_atom_site_fract_z
Si Si1 0.253597 0.411371 0.569217
Si Si2 0.347860 0.844410 0.427554
Si Si3 0.500000 0.342589 0.750000
Si Si4 0.074070 0.186778 0.851888
Si Si5 0.370934 0.800757 0.252147
Si Si6 0.712264 0.856623 0.885922
O O1 0.250000 0.250000 0.500000
O O2 0.178271 0.452085 0.566634
O O3 0.323892 0.379888 0.690291
O O4 0.256690 0.594086 0.512500
O O5 0.411634 0.773081 0.543695
O O6 0.383862 0.831210 0.363102
O O7 0.272375 0.720989 0.367013
O O8 0.559136 0.471948 0.849236
O O9 0.546070 0.214429 0.722792
O O10 0.142918 0.220462 0.842465
O O11 0.000000 0.278347 0.750000
O O12 0.321882 0.961317 0.176573
#
# Coordination Sequence:
#
# PCOD8137846 Si02
#       6
#     8   8   4   8   8   8
#     4   9  19  37  60  87 117 156 197 245 299 352
#     4  11  20  37  63  92 117 153 208 253 295 349
#     4  10  22  38  58  76 130 164 198 236 316 360
#     4   9  21  39  60  81 116 168 199 237 310 373
#     4  11  22  35  59  93 121 153 201 256 298 358
#     4  10  20  36  64  84 117 156 202 246 304 360
#
# _framework density 21.311669999999999
#
# number of rings (size 3 to 8) (size 9 to 14) (size 15 to 20)
#    0.545    1.455    0.000    5.455    1.273    0.727 
#    0.000    0.909    8.000    0.000    0.000    0.000 
#    0.000    0.000    0.000    0.000    0.000    0.000 
#
# Total GULP energy -272561.897224 kJ/mol
# GULP energy per Si atom -12389.177147 kJ/mol
# Density = 2.126316 g / cm^3
# Si number density = 21.311670 Si / 1000 Ang^3
#
#
#
# Elastic Constant Matrix: (Units=GPa)
#
#
# Indices 1 2 3 4 5 6 
#
# 1 145.4492 46.8859 73.4507 0.0000 -11.6381 0.0000
# 2 46.8859 88.7826 37.4315 0.0000 2.9598 0.0000
# 3 73.4507 37.4315 125.1420 0.0000 -6.5716 0.0000
# 4 0.0000 0.0000 0.0000 24.8546 0.0000 3.6720
# 5 -11.6381 2.9598 -6.5716 0.0000 37.0588 0.0000
# 6 0.0000 0.0000 0.0000 3.6720 0.0000 30.5886
#
#
#
# Elastic Compliance Matrix: (Units=1/GPa)
#
#
# Indices 1 2 3 4 5 6 
#
# 1 0.010878 -0.003671 -0.005140 0.000000 0.002798 0.000000
# 2 -0.003671 0.014238 -0.002245 0.000000 -0.002688 0.000000
# 3 -0.005140 -0.002245 0.011713 0.000000 0.000642 0.000000
# 4 0.000000 0.000000 0.000000 0.040960 0.000000 -0.004917
# 5 0.002798 -0.002688 0.000642 0.000000 0.028191 0.000000
# 6 0.000000 0.000000 0.000000 -0.004917 0.000000 0.033282
#
#
# Mechanical properties :
#
#
# Convention : Reuss Voigt Hill
#
# Bulk Modulus (GPa) = 67.94803 74.99000 71.46901
# Shear Modulus (GPa) = 30.06950 31.94078 31.00514
#
# Velocity S-wave (km/s) = 3.76032 3.87556 3.81838
# Velocity P-wave (km/s) = 7.12781 7.43575 7.28340
#
# Compressibility (1/GPa) = 0.01471713
#
# Stress axis : x y z
#
# Youngs Moduli (GPa) = 91.92855 70.23261 85.37516
#
# Poissons Ratio (x) = 0.25782 0.43881
# Poissons Ratio (y) = 0.33747 0.19170
# Poissons Ratio (z) = 0.47249 0.15770
#
# Static dielectric constant tensor:
#      x y z
#    x 3.677580 0.000000 0.104790 
#    y 0.000000 4.141550 0.000000 
#    z 0.104790 0.000000 3.950460 
# 
# 
# High freq. dielectric constant tensor:
#      x y z
#    x 1.820910 0.000000 0.013260 
#    y 0.000000 1.847970 0.000000 
#    z 0.013260 0.000000 1.826380 
# 
# From -- ./inp_files/166468.got.cif
#   From: 2010.06.25/outbox.cif.g09.slc.cpg/sg15_84_cif.got.tgz:166468.got - 2010.06.28 07:06:18.
