data_PCOD8137330
_publ_section_title
;
Structure prediction by ZEFSAII (Michael W. Deem and Ramdas Pophale) SiO2 
 PCOD8137330
Probable space group: C 2/C
;
_chemical_formula_sum "Si O2"
_cell_formula_units_Z 40
_cell_length_a 22.767306
_cell_length_b 5.199382
_cell_length_c 15.640731
_cell_angle_alpha 90.000000
_cell_angle_beta 59.942968
_cell_angle_gamma 90.000000
_cell_volume 1602.511581
_symmetry_space_group_name_H-M "C 2/C"
_symmetry_group_IT_number 15
_symmetry_cell_setting 'monoclinic'
loop_
_space_group_symop_operation_xyz
x,y,z
-x,y,1/2-z
-x,-y,-z
x,-y,1/2+z
1/2+x,1/2+y,z
1/2-x,1/2+y,1/2-z
1/2-x,1/2-y,-z
1/2+x,1/2-y,1/2+z
loop_
_atom_site_type_symbol
_atom_site_label
_atom_site_fract_x
_atom_site_fract_y
_atom_site_fract_z
Si Si1 0.757310 0.087086 0.358173
Si Si2 0.450989 0.207383 0.075324
Si Si3 0.952211 0.140389 0.864651
Si Si4 0.322148 0.084266 0.261455
Si Si5 0.378129 0.170439 0.961899
O O1 0.720263 0.076481 0.294352
O O2 0.808616 0.327614 0.326416
O O3 0.702346 0.119826 0.474432
O O4 0.800202 0.825304 0.336751
O O5 0.498817 0.419839 0.087656
O O6 0.402472 0.089890 0.184955
O O7 0.401119 0.298220 0.036380
O O8 0.500000 0.000000 0.000000
O O9 0.913134 0.406332 0.909717
O O10 0.000000 0.181281 0.750000
O O11 0.899992 0.905530 0.883780
#
# Coordination Sequence:
#
# PCOD8137330 Si02
#       5
#     8   8   8   8   8
#     4   9  17  30  50  76 102 134 171 215 261 302
#     4   9  20  35  56  83 109 139 178 220 264 313
#     4  11  22  36  55  79 109 141 174 219 270 316
#     4   9  17  29  49  77 106 131 169 218 260 304
#     4  10  20  36  57  79 106 139 180 219 259 316
#
# _framework density 24.960819000000001
#
# number of rings (size 3 to 8) (size 9 to 14) (size 15 to 20)
#    0.000    2.400    0.000    2.400    0.000   12.800 
#    0.000    0.000    0.000    7.200    0.000    0.000 
#    0.000    0.000    0.000    0.000    0.000    0.000 
#
# Total GULP energy -247843.905221 kJ/mol
# GULP energy per Si atom -12392.195261 kJ/mol
# Density = 2.490401 g / cm^3
# Si number density = 24.960819 Si / 1000 Ang^3
#
#
#
# Elastic Constant Matrix: (Units=GPa)
#
#
# Indices 1 2 3 4 5 6 
#
# 1 17.3595 21.5430 29.1616 0.0060 -14.5803 0.0959
# 2 21.5430 173.1973 66.1075 0.0166 -28.1945 0.2232
# 3 29.1616 66.1075 158.0975 0.0075 -60.6476 0.0540
# 4 0.0060 0.0166 0.0075 23.7745 -0.0083 -14.0103
# 5 -14.5803 -28.1945 -60.6476 -0.0083 36.5622 -0.0606
# 6 0.0959 0.2232 0.0540 -14.0103 -0.0606 25.3037
#
#
#
# Elastic Compliance Matrix: (Units=1/GPa)
#
#
# Indices 1 2 3 4 5 6 
#
# 1 0.094332 -0.005613 -0.006277 -0.000224 0.022877 -0.000364
# 2 -0.005613 0.007233 -0.001947 -0.000038 0.000109 -0.000059
# 3 -0.006277 -0.001947 0.018590 0.000067 0.026832 0.000103
# 4 -0.000224 -0.000038 0.000067 0.062434 0.000064 0.034570
# 5 0.022877 0.000109 0.026832 0.000064 0.081066 0.000085
# 6 -0.000364 -0.000059 0.000103 0.034570 0.000085 0.058663
#
#
# Mechanical properties :
#
#
# Convention : Reuss Voigt Hill
#
# Bulk Modulus (GPa) = 10.81300 64.69761 37.75530
# Shear Modulus (GPa) = 13.12960 32.58423 22.85692
#
# Velocity S-wave (km/s) = 2.29598 3.61697 3.02936
# Velocity P-wave (km/s) = 3.37195 6.58933 5.23399
#
# Compressibility (1/GPa) = 0.09248130
#
# Stress axis : x y z
#
# Youngs Moduli (GPa) = 10.60083 138.25507 53.79202
#
# Poissons Ratio (x) = 0.77602 0.33765
# Poissons Ratio (y) = 0.05950 0.10474
# Poissons Ratio (z) = 0.06654 0.26920
#
# Static dielectric constant tensor:
#      x y z
#    x 4.855930 -0.000140 -0.118560 
#    y -0.000140 4.321690 -0.000090 
#    z -0.118560 -0.000090 4.675250 
# 
# 
# High freq. dielectric constant tensor:
#      x y z
#    x 1.986360 -0.000010 -0.013410 
#    y -0.000010 1.982390 -0.000010 
#    z -0.013410 -0.000010 2.009690 
# 
# From -- ./inp_files/217420.got.cif
#   From: 2010.06.25/outbox.cif.g09.slc.cpg/sg15_109_cif.got.tgz:217420.got - 2010.06.28 07:06:18.
