data_PCOD8137657
_publ_section_title
;
Structure prediction by ZEFSAII (Michael W. Deem and Ramdas Pophale) SiO2 
 PCOD8137657
Probable space group: C 2/C
;
_chemical_formula_sum "Si O2"
_cell_formula_units_Z 52
_cell_length_a 11.065585
_cell_length_b 11.607615
_cell_length_c 24.181140
_cell_angle_alpha 90.000000
_cell_angle_beta 131.237706
_cell_angle_gamma 90.000000
_cell_volume 2335.614520
_symmetry_space_group_name_H-M "C 2/C"
_symmetry_group_IT_number 15
_symmetry_cell_setting 'monoclinic'
loop_
_space_group_symop_operation_xyz
x,y,z
-x,y,1/2-z
-x,-y,-z
x,-y,1/2+z
1/2+x,1/2+y,z
1/2-x,1/2+y,1/2-z
1/2-x,1/2-y,-z
1/2+x,1/2-y,1/2+z
loop_
_atom_site_type_symbol
_atom_site_label
_atom_site_fract_x
_atom_site_fract_y
_atom_site_fract_z
Si Si1 0.611555 0.918040 0.499378
Si Si2 0.401327 0.885104 0.331481
Si Si3 0.856619 0.107006 0.578480
Si Si4 0.062476 0.219994 0.007426
Si Si5 0.500000 0.013107 0.750000
Si Si6 0.684838 0.358770 0.655018
Si Si7 0.081283 0.998659 0.720946
O O1 0.544408 0.906604 0.417252
O O2 0.600462 0.793127 0.527279
O O3 0.500000 0.000000 0.500000
O O4 0.787069 0.976250 0.549463
O O5 0.302132 0.769607 0.315949
O O6 0.264532 0.982065 0.293799
O O7 0.480835 0.897689 0.295079
O O8 0.957086 0.146410 0.554417
O O9 0.714014 0.194608 0.548038
O O10 0.977741 0.109848 0.667974
O O11 0.099314 0.135989 0.069637
O O12 0.351165 0.926440 0.698961
O O13 0.567749 0.418592 0.663441
O O14 0.000000 0.941550 0.750000
#
# Coordination Sequence:
#
# PCOD8137657 Si02
#       7
#     8   8   8   8   4   8   8
#     4   9  17  35  58  83 115 154 199 248 299 363
#     4  10  22  40  61  87 125 161 203 259 303 371
#     4  10  20  36  61  85 120 153 205 259 297 368
#     4   9  19  36  57  86 112 156 205 245 308 364
#     4  10  22  38  60  90 120 170 204 250 316 366
#     4  10  22  38  61  86 122 162 205 252 312 374
#     4  11  23  39  57  91 121 159 203 257 308 364
#
# _framework density 22.263950000000001
#
# number of rings (size 3 to 8) (size 9 to 14) (size 15 to 20)
#    0.000    2.154    0.000    3.692    4.308    0.615 
#    8.308    3.077    0.000    0.000    0.000    0.000 
#    0.000    0.000    0.000    0.000    0.000    0.000 
#
# Total GULP energy -322110.047007 kJ/mol
# GULP energy per Si atom -12388.847962 kJ/mol
# Density = 2.221328 g / cm^3
# Si number density = 22.263950 Si / 1000 Ang^3
#
#
#
# Elastic Constant Matrix: (Units=GPa)
#
#
# Indices 1 2 3 4 5 6 
#
# 1 110.5195 23.2472 41.4743 0.0000 -31.1208 0.0000
# 2 23.2472 41.4978 15.1052 0.0000 -7.4205 0.0000
# 3 41.4743 15.1052 62.9966 0.0000 -13.5467 0.0000
# 4 0.0000 0.0000 0.0000 30.2149 0.0000 -6.9972
# 5 -31.1208 -7.4205 -13.5467 0.0000 40.9093 0.0000
# 6 0.0000 0.0000 0.0000 -6.9972 0.0000 37.0168
#
#
#
# Elastic Compliance Matrix: (Units=1/GPa)
#
#
# Indices 1 2 3 4 5 6 
#
# 1 0.014906 -0.004328 -0.007005 0.000000 0.008235 0.000000
# 2 -0.004328 0.027982 -0.003743 0.000000 0.000544 0.000000
# 3 -0.007005 -0.003743 0.021632 0.000000 0.001155 0.000000
# 4 0.000000 0.000000 0.000000 0.034611 0.000000 0.006542
# 5 0.008235 0.000544 0.001155 0.000000 0.031190 0.000000
# 6 0.000000 0.000000 0.000000 0.006542 0.000000 0.028251
#
#
# Mechanical properties :
#
#
# Convention : Reuss Voigt Hill
#
# Bulk Modulus (GPa) = 29.09744 41.62970 35.36357
# Shear Modulus (GPa) = 24.97745 30.64069 27.80907
#
# Velocity S-wave (km/s) = 3.35308 3.71380 3.53804
# Velocity P-wave (km/s) = 5.29986 6.09333 5.71039
#
# Compressibility (1/GPa) = 0.03436729
#
# Stress axis : x y z
#
# Youngs Moduli (GPa) = 67.08662 35.73725 46.22861
#
# Poissons Ratio (x) = 0.15467 0.32383
# Poissons Ratio (y) = 0.29036 0.17304
# Poissons Ratio (z) = 0.46994 0.13377
#
# Static dielectric constant tensor:
#      x y z
#    x 4.312100 0.000000 -0.202140 
#    y 0.000000 4.159420 0.000000 
#    z -0.202140 0.000000 4.057910 
# 
# 
# High freq. dielectric constant tensor:
#      x y z
#    x 1.888300 0.000000 -0.017380 
#    y 0.000000 1.859400 0.000000 
#    z -0.017380 0.000000 1.873180 
# 
# From -- ./inp_files/269299.got.cif
#   From: 2010.06.25/outbox.cif.g09.slc.cpg/sg15_135_cif.got.tgz:269299.got - 2010.06.28 07:06:18.
