data_PCOD8137745
_publ_section_title
;
Structure prediction by ZEFSAII (Michael W. Deem and Ramdas Pophale) SiO2 
 PCOD8137745
Probable space group: C 2/C
;
_chemical_formula_sum "Si O2"
_cell_formula_units_Z 40
_cell_length_a 6.676456
_cell_length_b 22.896607
_cell_length_c 14.678806
_cell_angle_alpha 90.000000
_cell_angle_beta 69.954340
_cell_angle_gamma 90.000000
_cell_volume 2107.985131
_symmetry_space_group_name_H-M "C 2/C"
_symmetry_group_IT_number 15
_symmetry_cell_setting 'monoclinic'
loop_
_space_group_symop_operation_xyz
x,y,z
-x,y,1/2-z
-x,-y,-z
x,-y,1/2+z
1/2+x,1/2+y,z
1/2-x,1/2+y,1/2-z
1/2-x,1/2-y,-z
1/2+x,1/2-y,1/2+z
loop_
_atom_site_type_symbol
_atom_site_label
_atom_site_fract_x
_atom_site_fract_y
_atom_site_fract_z
Si Si1 0.500000 0.717695 0.750000
Si Si2 0.401664 0.451374 0.079447
Si Si3 0.186625 0.655083 0.519576
Si Si4 0.500000 0.944684 0.250000
Si Si5 0.757055 0.383874 0.129764
Si Si6 0.305425 0.261117 0.844718
O O1 0.341331 0.678493 0.833501
O O2 0.604068 0.758703 0.809566
O O3 0.345033 0.395687 0.026806
O O4 0.585369 0.430962 0.121264
O O5 0.185555 0.478118 0.162384
O O6 0.500000 0.500000 0.000000
O O7 0.282987 0.684358 0.415493
O O8 0.162355 0.701111 0.605553
O O9 0.954770 0.627545 0.530130
O O10 0.357205 0.904876 0.208317
O O11 0.500000 0.275020 0.750000
#
# Coordination Sequence:
#
# PCOD8137745 Si02
#       6
#     4   8   8   4   8   8
#     4  12  18  32  64  89 110 159 200 244 304 362
#     4  11  23  40  63  89 120 161 205 255 302 361
#     4  10  23  38  59  90 125 156 202 252 306 367
#     4  10  20  36  62  89 116 149 206 256 298 356
#     4  11  19  37  62  90 115 151 203 247 295 364
#     4  11  22  37  59  91 124 158 199 254 305 359
#
# _framework density 18.975463999999999
#
# number of rings (size 3 to 8) (size 9 to 14) (size 15 to 20)
#    0.000    1.200    6.000    1.200    1.400    5.600 
#    0.000    4.000    0.000    1.200    0.000    0.000 
#    0.000    0.000    0.000    0.000    0.000    0.000 
#
# Total GULP energy -247842.214306 kJ/mol
# GULP energy per Si atom -12392.110715 kJ/mol
# Density = 1.893228 g / cm^3
# Si number density = 18.975464 Si / 1000 Ang^3
#
#
#
# Elastic Constant Matrix: (Units=GPa)
#
#
# Indices 1 2 3 4 5 6 
#
# 1 142.8148 40.8028 63.2344 0.0000 -0.0516 0.0000
# 2 40.8028 69.6970 55.7470 0.0000 -8.2194 0.0000
# 3 63.2344 55.7470 140.7755 0.0000 -17.6759 0.0000
# 4 0.0000 0.0000 0.0000 40.8122 0.0000 -1.3833
# 5 -0.0516 -8.2194 -17.6759 0.0000 35.0349 0.0000
# 6 0.0000 0.0000 0.0000 -1.3833 0.0000 17.9689
#
#
#
# Elastic Compliance Matrix: (Units=1/GPa)
#
#
# Indices 1 2 3 4 5 6 
#
# 1 0.009337 -0.003151 -0.003243 0.000000 -0.002362 0.000000
# 2 -0.003151 0.022082 -0.007131 0.000000 0.001578 0.000000
# 3 -0.003243 -0.007131 0.011929 0.000000 0.004341 0.000000
# 4 0.000000 0.000000 0.000000 0.024567 0.000000 0.001891
# 5 -0.002362 0.001578 0.004341 0.000000 0.031100 0.000000
# 6 0.000000 0.000000 0.000000 0.001891 0.000000 0.055797
#
#
# Mechanical properties :
#
#
# Convention : Reuss Voigt Hill
#
# Bulk Modulus (GPa) = 61.35405 74.76175 68.05790
# Shear Modulus (GPa) = 26.69575 31.66339 29.17957
#
# Velocity S-wave (km/s) = 3.75488 4.08934 3.92567
# Velocity P-wave (km/s) = 7.15558 7.86013 7.51612
#
# Compressibility (1/GPa) = 0.01629884
#
# Stress axis : x y z
#
# Youngs Moduli (GPa) = 107.09647 45.28484 83.82852
#
# Poissons Ratio (x) = 0.14269 0.27185
# Poissons Ratio (y) = 0.33747 0.59779
# Poissons Ratio (z) = 0.34731 0.32293
#
# Static dielectric constant tensor:
#      x y z
#    x 3.989820 0.000000 -0.137330 
#    y 0.000000 3.201830 0.000000 
#    z -0.137330 0.000000 3.568410 
# 
# 
# High freq. dielectric constant tensor:
#      x y z
#    x 1.762730 0.000000 -0.007550 
#    y 0.000000 1.697630 0.000000 
#    z -0.007550 0.000000 1.739440 
# 
# From -- ./inp_files/129068.got.cif
#   From: 2010.06.25/outbox.cif.g09.slc.cpg/sg15_65_cif.got.tgz:129068.got - 2010.06.28 07:06:18.
