data_PCOD8137109
_publ_section_title
;
Structure prediction by ZEFSAII (Michael W. Deem and Ramdas Pophale) SiO2 
 PCOD8137109
Probable space group: C 2/C
;
_chemical_formula_sum "Si O2"
_cell_formula_units_Z 56
_cell_length_a 30.230834
_cell_length_b 14.178778
_cell_length_c 14.148816
_cell_angle_alpha 90.000000
_cell_angle_beta 153.261581
_cell_angle_gamma 90.000000
_cell_volume 2728.615474
_symmetry_space_group_name_H-M "C 2/C"
_symmetry_group_IT_number 15
_symmetry_cell_setting 'monoclinic'
loop_
_space_group_symop_operation_xyz
x,y,z
-x,y,1/2-z
-x,-y,-z
x,-y,1/2+z
1/2+x,1/2+y,z
1/2-x,1/2+y,1/2-z
1/2-x,1/2-y,-z
1/2+x,1/2-y,1/2+z
loop_
_atom_site_type_symbol
_atom_site_label
_atom_site_fract_x
_atom_site_fract_y
_atom_site_fract_z
Si Si1 0.587684 0.888566 0.714108
Si Si2 0.991120 0.196560 0.920776
Si Si3 0.306004 0.576701 0.611600
Si Si4 0.575486 0.517338 0.008605
Si Si5 0.468315 0.917656 0.299817
Si Si6 0.371275 0.445351 0.590964
Si Si7 0.652413 0.255636 0.875661
O O1 0.531993 0.802156 0.660990
O O2 0.553839 0.892274 0.538905
O O3 0.566824 0.979428 0.737500
O O4 0.704167 0.872038 0.939411
O O5 0.886958 0.157210 0.756647
O O6 0.043454 0.128199 0.943845
O O7 0.063818 0.203674 0.146569
O O8 0.291933 0.511691 0.491794
O O9 0.339053 0.501567 0.753853
O O10 0.477363 0.456990 0.846205
O O11 0.620706 0.486161 0.997133
O O12 0.500000 0.915693 0.250000
O O13 0.376654 0.844828 0.134651
O O14 0.334853 0.336439 0.519157
O O15 0.750000 0.250000 0.000000
#
# Coordination Sequence:
#
# PCOD8137109 Si02
#       7
#     8   8   8   8   8   8   8
#     4  10  23  41  64  87 132 166 212 260 321 387
#     4  10  20  40  62  89 126 168 205 258 327 374
#     4  11  19  38  62  94 124 165 200 260 320 375
#     4  10  20  35  65  90 123 163 203 263 312 372
#     4  10  24  43  63  90 126 174 213 264 316 387
#     4  10  20  35  60  95 121 155 210 256 307 367
#     4  11  21  38  67  93 122 166 218 269 315 374
#
# _framework density 20.523229000000001
#
# number of rings (size 3 to 8) (size 9 to 14) (size 15 to 20)
#    0.000    1.714    2.857    2.143    2.000    1.143 
#    5.143    0.000    0.000    0.000    0.000    0.000 
#    0.000    0.000    0.000    0.000    0.000    0.000 
#
# Total GULP energy -346972.814095 kJ/mol
# GULP energy per Si atom -12391.886218 kJ/mol
# Density = 2.047652 g / cm^3
# Si number density = 20.523229 Si / 1000 Ang^3
#
#
#
# Elastic Constant Matrix: (Units=GPa)
#
#
# Indices 1 2 3 4 5 6 
#
# 1 122.7978 80.6285 38.9303 0.0000 6.2789 0.0000
# 2 80.6285 179.3045 35.7965 0.0000 3.7057 0.0000
# 3 38.9303 35.7965 61.5014 0.0000 11.7294 0.0000
# 4 0.0000 0.0000 0.0000 22.7545 0.0000 3.5872
# 5 6.2789 3.7057 11.7294 0.0000 13.8839 0.0000
# 6 0.0000 0.0000 0.0000 3.5872 0.0000 33.5191
#
#
#
# Elastic Compliance Matrix: (Units=1/GPa)
#
#
# Indices 1 2 3 4 5 6 
#
# 1 0.012996 -0.004754 -0.005460 0.000000 0.000004 0.000000
# 2 -0.004754 0.008083 -0.002019 0.000000 0.001699 0.000000
# 3 -0.005460 -0.002019 0.024220 0.000000 -0.017453 0.000000
# 4 0.000000 0.000000 0.000000 0.044701 0.000000 -0.004784
# 5 0.000004 0.001699 -0.017453 0.000000 0.086315 0.000000
# 6 0.000000 0.000000 0.000000 -0.004784 0.000000 0.030346
#
#
# Mechanical properties :
#
#
# Convention : Reuss Voigt Hill
#
# Bulk Modulus (GPa) = 48.00328 74.92381 61.46355
# Shear Modulus (GPa) = 21.00210 27.91473 24.45841
#
# Velocity S-wave (km/s) = 3.20243 3.69203 3.45591
# Velocity P-wave (km/s) = 6.09217 7.40006 6.77774
#
# Compressibility (1/GPa) = 0.02083191
#
# Stress axis : x y z
#
# Youngs Moduli (GPa) = 76.94935 123.71946 41.28820
#
# Poissons Ratio (x) = 0.58814 0.22544
# Poissons Ratio (y) = 0.36580 0.08337
# Poissons Ratio (z) = 0.42015 0.24983
#
# Static dielectric constant tensor:
#      x y z
#    x 5.111860 0.000000 -0.228810 
#    y 0.000000 4.134710 0.000000 
#    z -0.228810 0.000000 3.734120 
# 
# 
# High freq. dielectric constant tensor:
#      x y z
#    x 1.783110 0.000000 0.007060 
#    y 0.000000 1.820340 0.000000 
#    z 0.007060 0.000000 1.789170 
# 
# From -- ./inp_files/182154.got.cif
#   From: 2010.06.25/outbox.cif.g09.slc.cpg/sg15_92_cif.got.tgz:182154.got - 2010.06.28 07:06:18.
