data_PCOD8137576
_publ_section_title
;
Structure prediction by ZEFSAII (Michael W. Deem and Ramdas Pophale) SiO2 
 PCOD8137576
Probable space group: C 2/C
;
_chemical_formula_sum "Si O2"
_cell_formula_units_Z 36
_cell_length_a 26.381930
_cell_length_b 17.565125
_cell_length_c 12.885535
_cell_angle_alpha 90.000000
_cell_angle_beta 18.342526
_cell_angle_gamma 90.000000
_cell_volume 1879.113169
_symmetry_space_group_name_H-M "C 2/C"
_symmetry_group_IT_number 15
_symmetry_cell_setting 'monoclinic'
loop_
_space_group_symop_operation_xyz
x,y,z
-x,y,1/2-z
-x,-y,-z
x,-y,1/2+z
1/2+x,1/2+y,z
1/2-x,1/2+y,1/2-z
1/2-x,1/2-y,-z
1/2+x,1/2-y,1/2+z
loop_
_atom_site_type_symbol
_atom_site_label
_atom_site_fract_x
_atom_site_fract_y
_atom_site_fract_z
Si Si1 0.307487 0.369419 0.239412
Si Si2 0.790221 0.794148 0.816486
Si Si3 0.500000 0.503517 0.250000
Si Si4 0.465653 0.577676 0.622979
Si Si5 0.000000 0.697534 0.250000
Si Si6 0.500000 0.756697 0.250000
O O1 0.121886 0.357798 0.573419
O O2 0.367425 0.445003 0.064094
O O3 0.330041 0.377358 0.320509
O O4 0.408747 0.296076 0.009714
O O5 0.868415 0.874584 0.694018
O O6 0.915012 0.747816 0.502780
O O7 0.750000 0.750000 0.000000
O O8 0.626595 0.808060 0.068263
O O9 0.593039 0.446175 0.148134
O O10 0.500000 0.500000 0.500000
#
# Coordination Sequence:
#
# PCOD8137576 Si02
#       6
#     8   8   4   8   4   4
#     4   9  18  37  58  84 114 162 199 250 305 360
#     4  11  21  39  62  93 120 158 206 254 304 361
#     4   9  19  36  60  78 121 161 206 246 303 377
#     4  10  20  36  60  85 115 163 200 239 312 373
#     4  10  23  36  62  90 121 152 208 256 304 359
#     4   9  18  36  60  84 122 153 198 256 301 350
#
# _framework density 19.157972999999998
#
# number of rings (size 3 to 8) (size 9 to 14) (size 15 to 20)
#    0.000    2.222    2.222    0.667    3.111    0.889 
#    4.000    5.556    0.000    0.000    0.000    0.000 
#    0.000    0.000    0.000    0.000    0.000    0.000 
#
# Total GULP energy -223075.461638 kJ/mol
# GULP energy per Si atom -12393.081202 kJ/mol
# Density = 1.911437 g / cm^3
# Si number density = 19.157973 Si / 1000 Ang^3
#
#
#
# Elastic Constant Matrix: (Units=GPa)
#
#
# Indices 1 2 3 4 5 6 
#
# 1 171.6460 64.0192 66.4150 0.0007 -22.6846 -0.0008
# 2 64.0192 93.6982 39.4859 -0.0007 -18.9712 0.0004
# 3 66.4150 39.4859 98.7951 -0.0015 -21.8331 0.0008
# 4 0.0007 -0.0007 -0.0015 18.6522 0.0009 -10.0935
# 5 -22.6846 -18.9712 -21.8331 0.0009 47.0306 -0.0007
# 6 -0.0008 0.0004 0.0008 -10.0935 -0.0007 35.9983
#
#
#
# Elastic Compliance Matrix: (Units=1/GPa)
#
#
# Indices 1 2 3 4 5 6 
#
# 1 0.009196 -0.004332 -0.004298 -0.000001 0.000693 0.000000
# 2 -0.004332 0.015298 -0.002563 0.000000 0.002892 0.000000
# 3 -0.004298 -0.002563 0.014875 0.000001 0.003799 0.000000
# 4 -0.000001 0.000000 0.000001 0.063203 -0.000001 0.017721
# 5 0.000693 0.002892 0.003799 -0.000001 0.024527 0.000000
# 6 0.000000 0.000000 0.000000 0.017721 0.000000 0.032748
#
#
# Mechanical properties :
#
#
# Convention : Reuss Voigt Hill
#
# Bulk Modulus (GPa) = 58.87929 78.21995 68.54962
# Shear Modulus (GPa) = 26.61095 33.28416 29.94755
#
# Velocity S-wave (km/s) = 3.73101 4.17268 3.95801
# Velocity P-wave (km/s) = 7.02573 8.00828 7.53304
#
# Compressibility (1/GPa) = 0.01698390
#
# Stress axis : x y z
#
# Youngs Moduli (GPa) = 108.74248 65.36865 67.22747
#
# Poissons Ratio (x) = 0.28316 0.28891
# Poissons Ratio (y) = 0.47105 0.17231
# Poissons Ratio (z) = 0.46733 0.16755
#
# Static dielectric constant tensor:
#      x y z
#    x 4.844340 0.000000 0.087010 
#    y 0.000000 3.526280 0.000010 
#    z 0.087010 0.000010 3.421050 
# 
# 
# High freq. dielectric constant tensor:
#      x y z
#    x 1.777400 0.000000 -0.003310 
#    y 0.000000 1.737380 0.000000 
#    z -0.003310 0.000000 1.713340 
# 
# From -- ./inp_files/182090.got.cif
#   From: 2010.06.25/outbox.cif.g09.slc.cpg/sg15_92_cif.got.tgz:182090.got - 2010.06.28 07:06:18.
