data_PCOD8137325
_publ_section_title
;
Structure prediction by ZEFSAII (Michael W. Deem and Ramdas Pophale) SiO2 
 PCOD8137325
Probable space group: C 2/C
;
_chemical_formula_sum "Si O2"
_cell_formula_units_Z 64
_cell_length_a 15.101462
_cell_length_b 27.101338
_cell_length_c 8.933080
_cell_angle_alpha 90.000000
_cell_angle_beta 114.106361
_cell_angle_gamma 90.000000
_cell_volume 3337.192594
_symmetry_space_group_name_H-M "C 2/C"
_symmetry_group_IT_number 15
_symmetry_cell_setting 'monoclinic'
loop_
_space_group_symop_operation_xyz
x,y,z
-x,y,1/2-z
-x,-y,-z
x,-y,1/2+z
1/2+x,1/2+y,z
1/2-x,1/2+y,1/2-z
1/2-x,1/2-y,-z
1/2+x,1/2-y,1/2+z
loop_
_atom_site_type_symbol
_atom_site_label
_atom_site_fract_x
_atom_site_fract_y
_atom_site_fract_z
Si Si1 0.824798 0.066216 0.865602
Si Si2 0.269608 0.343011 0.156663
Si Si3 0.947403 0.935611 0.949568
Si Si4 0.698120 0.764166 0.742652
Si Si5 0.123610 0.830223 0.564120
Si Si6 0.415251 0.180181 0.093927
Si Si7 0.985931 0.253647 0.064160
Si Si8 0.356402 0.501793 0.141560
O O1 0.783932 0.120655 0.806941
O O2 0.788400 0.029606 0.707418
O O3 0.940309 0.071268 0.940728
O O4 0.793764 0.042545 0.004054
O O5 0.249095 0.288186 0.203356
O O6 0.358559 0.340724 0.100710
O O7 0.169955 0.358842 0.002166
O O8 0.896136 0.883560 0.877207
O O9 0.936615 0.969966 0.796706
O O10 0.902390 0.962195 0.061746
O O11 0.782686 0.805529 0.789212
O O12 0.630141 0.774577 0.840205
O O13 0.628972 0.760220 0.549396
O O14 0.027636 0.797017 0.521200
O O15 0.500000 0.154059 0.250000
O O16 0.458185 0.200312 0.968693
O O17 0.000000 0.253536 0.250000
#
# Coordination Sequence:
#
# PCOD8137325 Si02
#       8
#     8   8   8   8   8   8   8   8
#     4  11  20  32  55  79 106 144 180 216 268 314
#     4  11  19  34  57  82 101 141 191 222 258 320
#     4  11  20  33  53  74 111 145 180 214 264 317
#     4  10  20  36  57  75 108 145 184 226 256 313
#     4  11  21  35  53  81 110 143 189 223 258 317
#     4   9  18  36  56  72 101 139 182 219 260 314
#     4  11  22  35  52  76 110 149 176 217 276 311
#     4  10  21  36  50  75 110 145 176 220 264 320
#
# _framework density 19.177796000000001
#
# number of rings (size 3 to 8) (size 9 to 14) (size 15 to 20)
#    0.000    1.500    3.750    4.500    0.000    3.500 
#    2.250    0.000    0.000    0.000    0.000    0.875 
#    0.000    0.000    0.000    0.000    0.000    0.000 
#
# Total GULP energy -396559.212150 kJ/mol
# GULP energy per Si atom -12392.475380 kJ/mol
# Density = 1.913415 g / cm^3
# Si number density = 19.177796 Si / 1000 Ang^3
#
#
#
# Elastic Constant Matrix: (Units=GPa)
#
#
# Indices 1 2 3 4 5 6 
#
# 1 31.6092 19.4233 17.0456 0.0000 6.9781 0.0000
# 2 19.4233 90.0808 37.2077 0.0000 11.5154 0.0000
# 3 17.0456 37.2077 106.7267 0.0000 3.7280 0.0000
# 4 0.0000 0.0000 0.0000 32.3184 0.0000 7.9549
# 5 6.9781 11.5154 3.7280 0.0000 26.9328 0.0000
# 6 0.0000 0.0000 0.0000 7.9549 0.0000 13.6918
#
#
#
# Elastic Compliance Matrix: (Units=1/GPa)
#
#
# Indices 1 2 3 4 5 6 
#
# 1 0.038911 -0.005872 -0.003922 0.000000 -0.007028 0.000000
# 2 -0.005872 0.014544 -0.003988 0.000000 -0.004145 0.000000
# 3 -0.003922 -0.003988 0.011346 0.000000 0.001151 0.000000
# 4 0.000000 0.000000 0.000000 0.036105 0.000000 -0.020977
# 5 -0.007028 -0.004145 0.001151 0.000000 0.040564 0.000000
# 6 0.000000 0.000000 0.000000 -0.020977 0.000000 0.085224
#
#
# Mechanical properties :
#
#
# Convention : Reuss Voigt Hill
#
# Bulk Modulus (GPa) = 26.85409 41.75219 34.30314
# Shear Modulus (GPa) = 18.74976 24.90461 21.82718
#
# Velocity S-wave (km/s) = 3.13018 3.60754 3.37731
# Velocity P-wave (km/s) = 5.20549 6.25866 5.75621
#
# Compressibility (1/GPa) = 0.03723828
#
# Stress axis : x y z
#
# Youngs Moduli (GPa) = 25.69975 68.75545 88.13485
#
# Poissons Ratio (x) = 0.40370 0.34567
# Poissons Ratio (y) = 0.15090 0.35148
# Poissons Ratio (z) = 0.10080 0.27419
#
# Static dielectric constant tensor:
#      x y z
#    x 3.310320 0.000000 0.075650 
#    y 0.000000 3.525600 0.000000 
#    z 0.075650 0.000000 3.763680 
# 
# 
# High freq. dielectric constant tensor:
#      x y z
#    x 1.706290 0.000000 -0.000270 
#    y 0.000000 1.729750 0.000000 
#    z -0.000270 0.000000 1.754310 
# 
# From -- ./inp_files/43579.got.cif
#   From: 2010.06.25/outbox.cif.g09.slc.cpg/sg15_22_cif.got.tgz:43579.got - 2010.06.28 07:06:18.
