data_PCOD8137985
_publ_section_title
;
Structure prediction by ZEFSAII (Michael W. Deem and Ramdas Pophale) SiO2 
 PCOD8137985
Probable space group: C 2/C
;
_chemical_formula_sum "Si O2"
_cell_formula_units_Z 40
_cell_length_a 24.104793
_cell_length_b 5.133955
_cell_length_c 25.499786
_cell_angle_alpha 90.000000
_cell_angle_beta 136.570227
_cell_angle_gamma 90.000000
_cell_volume 2169.414683
_symmetry_space_group_name_H-M "C 2/C"
_symmetry_group_IT_number 15
_symmetry_cell_setting 'monoclinic'
loop_
_space_group_symop_operation_xyz
x,y,z
-x,y,1/2-z
-x,-y,-z
x,-y,1/2+z
1/2+x,1/2+y,z
1/2-x,1/2+y,1/2-z
1/2-x,1/2-y,-z
1/2+x,1/2-y,1/2+z
loop_
_atom_site_type_symbol
_atom_site_label
_atom_site_fract_x
_atom_site_fract_y
_atom_site_fract_z
Si Si1 0.242689 0.303954 0.055791
Si Si2 0.394373 0.042177 0.481822
Si Si3 0.734968 0.793602 0.371274
Si Si4 0.203941 0.146294 0.235774
Si Si5 0.547630 0.699987 0.069419
O O1 0.290847 0.566809 0.105034
O O2 0.284582 0.072996 0.117505
O O3 0.250000 0.250000 0.000000
O O4 0.147248 0.342433 0.005070
O O5 0.331761 0.279046 0.427862
O O6 0.480282 0.157001 0.560186
O O7 0.406790 0.910142 0.434357
O O8 0.690604 0.748998 0.285730
O O9 0.244777 0.379231 0.230146
O O10 0.115422 0.072193 0.152731
O O11 0.500000 0.500000 0.000000
#
# Coordination Sequence:
#
# PCOD8137985 Si02
#       5
#     8   8   8   8   8
#     4  10  20  37  61  84 109 149 201 250 284 337
#     4   9  20  34  53  87 112 151 190 234 288 356
#     4  10  20  37  55  89 111 145 200 237 290 347
#     4  12  22  36  56  85 123 155 187 240 298 363
#     4  11  21  35  56  86 125 154 190 234 302 365
#
# _framework density 18.438153
#
# number of rings (size 3 to 8) (size 9 to 14) (size 15 to 20)
#    1.200    0.400    2.000    5.400    2.800    0.000 
#    0.000    0.000    0.000    1.200    0.000    0.000 
#    0.000    0.000    0.000    0.000    0.000    0.000 
#
# Total GULP energy -247773.735739 kJ/mol
# GULP energy per Si atom -12388.686787 kJ/mol
# Density = 1.839619 g / cm^3
# Si number density = 18.438153 Si / 1000 Ang^3
#
#
#
# Elastic Constant Matrix: (Units=GPa)
#
#
# Indices 1 2 3 4 5 6 
#
# 1 67.4425 16.9764 41.0808 -0.0025 -7.3776 0.0165
# 2 16.9764 95.9186 27.3060 -0.0632 0.7256 0.1093
# 3 41.0808 27.3060 123.8902 0.0059 2.3199 -0.0014
# 4 -0.0025 -0.0632 0.0059 28.6482 0.0034 -4.4068
# 5 -7.3776 0.7256 2.3199 0.0034 28.9779 -0.0088
# 6 0.0165 0.1093 -0.0014 -4.4068 -0.0088 24.5911
#
#
#
# Elastic Compliance Matrix: (Units=1/GPa)
#
#
# Indices 1 2 3 4 5 6 
#
# 1 0.019678 -0.001747 -0.006244 -0.000002 0.005554 -0.000004
# 2 -0.001747 0.011279 -0.001896 0.000018 -0.000576 -0.000046
# 3 -0.006244 -0.001896 0.010605 -0.000005 -0.002391 0.000012
# 4 -0.000002 0.000018 -0.000005 0.035896 -0.000003 0.006433
# 5 0.005554 -0.000576 -0.002391 -0.000003 0.036129 0.000011
# 6 -0.000004 -0.000046 0.000012 0.006433 0.000011 0.041818
#
#
# Mechanical properties :
#
#
# Convention : Reuss Voigt Hill
#
# Bulk Modulus (GPa) = 45.89744 50.88640 48.39192
# Shear Modulus (GPa) = 27.40616 29.90266 28.65441
#
# Velocity S-wave (km/s) = 3.85955 4.03150 3.94646
# Velocity P-wave (km/s) = 6.69389 7.02346 6.86066
#
# Compressibility (1/GPa) = 0.02178771
#
# Stress axis : x y z
#
# Youngs Moduli (GPa) = 50.81791 88.66150 94.29765
#
# Poissons Ratio (x) = 0.15491 0.58879
# Poissons Ratio (y) = 0.08879 0.17877
# Poissons Ratio (z) = 0.31731 0.16808
#
# Static dielectric constant tensor:
#      x y z
#    x 3.229050 -0.000330 0.107920 
#    y -0.000330 3.560880 0.000000 
#    z 0.107920 0.000000 3.224840 
# 
# 
# High freq. dielectric constant tensor:
#      x y z
#    x 1.683240 -0.000020 -0.001610 
#    y -0.000020 1.731090 0.000000 
#    z -0.001610 0.000000 1.692090 
# 
# From -- ./inp_files/251149.got.cif
#   From: 2010.06.25/outbox.cif.g09.slc.cpg/sg15_126_cif.got.tgz:251149.got - 2010.06.28 07:06:18.
