data_PCOD8137648
_publ_section_title
;
Structure prediction by ZEFSAII (Michael W. Deem and Ramdas Pophale) SiO2 
 PCOD8137648
Probable space group: C 2/C
;
_chemical_formula_sum "Si O2"
_cell_formula_units_Z 60
_cell_length_a 10.494097
_cell_length_b 17.911157
_cell_length_c 17.415959
_cell_angle_alpha 90.000000
_cell_angle_beta 104.133463
_cell_angle_gamma 90.000000
_cell_volume 3174.437252
_symmetry_space_group_name_H-M "C 2/C"
_symmetry_group_IT_number 15
_symmetry_cell_setting 'monoclinic'
loop_
_space_group_symop_operation_xyz
x,y,z
-x,y,1/2-z
-x,-y,-z
x,-y,1/2+z
1/2+x,1/2+y,z
1/2-x,1/2+y,1/2-z
1/2-x,1/2-y,-z
1/2+x,1/2-y,1/2+z
loop_
_atom_site_type_symbol
_atom_site_label
_atom_site_fract_x
_atom_site_fract_y
_atom_site_fract_z
Si Si1 0.858406 0.576917 0.886571
Si Si2 0.363023 0.198984 0.197436
Si Si3 0.394763 0.881800 0.553797
Si Si4 0.500000 0.658157 0.750000
Si Si5 0.144655 0.550576 0.903675
Si Si6 0.851062 0.117520 0.235210
Si Si7 0.684778 0.550891 0.719660
Si Si8 0.820026 0.410467 0.929339
O O1 0.749867 0.586308 0.805634
O O2 0.864298 0.493434 0.917608
O O3 0.003395 0.590785 0.872890
O O4 0.830857 0.627160 0.958976
O O5 0.500000 0.160956 0.250000
O O6 0.334658 0.176934 0.105122
O O7 0.381181 0.288790 0.202301
O O8 0.238021 0.174690 0.229720
O O9 0.549695 0.862233 0.568694
O O10 0.367365 0.962421 0.586378
O O11 0.553581 0.601607 0.691268
O O12 0.225432 0.566013 0.839409
O O13 0.219210 0.590723 0.986327
O O14 0.800338 0.116161 0.140266
O O15 0.000000 0.146728 0.250000
O O16 0.847211 0.036331 0.274819
#
# Coordination Sequence:
#
# PCOD8137648 Si02
#       8
#     8   8   8   4   8   8   8   8
#     4   8  17  26  50  82 114 138 183 243 272 313
#     4  10  20  36  61  75 104 158 192 216 269 352
#     4   9  14  30  53  84 104 142 199 230 260 326
#     4  10  24  38  52  78 114 154 180 228 288 344
#     4   9  16  27  53  83 111 141 184 232 278 329
#     4  11  20  33  57  84 108 144 192 238 270 325
#     4  11  19  34  51  80 118 148 178 228 297 334
#     4   8  15  28  46  81 117 138 176 241 280 309
#
# _framework density 18.900988000000002
#
# number of rings (size 3 to 8) (size 9 to 14) (size 15 to 20)
#    0.400    2.133    3.333    2.000    0.000    0.000 
#    0.000    4.000    0.000    7.200    0.000    0.000 
#    0.000    0.000    0.000    0.000    0.000    0.000 
#
# Total GULP energy -371641.876509 kJ/mol
# GULP energy per Si atom -12388.062550 kJ/mol
# Density = 1.885797 g / cm^3
# Si number density = 18.900988 Si / 1000 Ang^3
#
#
#
# Elastic Constant Matrix: (Units=GPa)
#
#
# Indices 1 2 3 4 5 6 
#
# 1 110.9056 25.8828 38.3398 0.0000 -11.3542 0.0000
# 2 25.8828 56.4282 9.6525 0.0000 -7.4868 0.0000
# 3 38.3398 9.6525 81.7963 0.0000 -14.7005 0.0000
# 4 0.0000 0.0000 0.0000 6.2825 0.0000 -0.5774
# 5 -11.3542 -7.4868 -14.7005 0.0000 28.2162 0.0000
# 6 0.0000 0.0000 0.0000 -0.5774 0.0000 27.8604
#
#
#
# Elastic Compliance Matrix: (Units=1/GPa)
#
#
# Indices 1 2 3 4 5 6 
#
# 1 0.011837 -0.004462 -0.004831 0.000000 0.001062 0.000000
# 2 -0.004462 0.020202 0.000384 0.000000 0.003765 0.000000
# 3 -0.004831 0.000384 0.015571 0.000000 0.006271 0.000000
# 4 0.000000 0.000000 0.000000 0.159476 0.000000 0.003305
# 5 0.001062 0.003765 0.006271 0.000000 0.040134 0.000000
# 6 0.000000 0.000000 0.000000 0.003305 0.000000 0.035962
#
#
# Mechanical properties :
#
#
# Convention : Reuss Voigt Hill
#
# Bulk Modulus (GPa) = 33.56489 44.09784 38.83137
# Shear Modulus (GPa) = 16.08079 24.15548 20.11814
#
# Velocity S-wave (km/s) = 2.92000 3.57879 3.26605
# Velocity P-wave (km/s) = 5.40049 6.36071 5.90017
#
# Compressibility (1/GPa) = 0.02979303
#
# Stress axis : x y z
#
# Youngs Moduli (GPa) = 84.48273 49.49971 64.22043
#
# Poissons Ratio (x) = 0.22087 0.31023
# Poissons Ratio (y) = 0.37697 -0.02467
# Poissons Ratio (z) = 0.40811 -0.01901
#
# Static dielectric constant tensor:
#      x y z
#    x 3.346180 0.000000 -0.004190 
#    y 0.000000 3.041690 0.000000 
#    z -0.004190 0.000000 3.664250 
# 
# 
# High freq. dielectric constant tensor:
#      x y z
#    x 1.724680 0.000000 -0.009560 
#    y 0.000000 1.693320 0.000000 
#    z -0.009560 0.000000 1.731760 
# 
# From -- ./inp_files/199251.got.cif
#   From: 2010.06.25/outbox.cif.g09.slc.cpg/sg15_100_cif.got.tgz:199251.got - 2010.06.28 07:06:18.
