data_PCOD8137329
_publ_section_title
;
Structure prediction by ZEFSAII (Michael W. Deem and Ramdas Pophale) SiO2 
 PCOD8137329
Probable space group: C 2/C
;
_chemical_formula_sum "Si O2"
_cell_formula_units_Z 48
_cell_length_a 16.997661
_cell_length_b 15.081817
_cell_length_c 17.647700
_cell_angle_alpha 90.000000
_cell_angle_beta 148.132513
_cell_angle_gamma 90.000000
_cell_volume 2388.521078
_symmetry_space_group_name_H-M "C 2/C"
_symmetry_group_IT_number 15
_symmetry_cell_setting 'monoclinic'
loop_
_space_group_symop_operation_xyz
x,y,z
-x,y,1/2-z
-x,-y,-z
x,-y,1/2+z
1/2+x,1/2+y,z
1/2-x,1/2+y,1/2-z
1/2-x,1/2-y,-z
1/2+x,1/2-y,1/2+z
loop_
_atom_site_type_symbol
_atom_site_label
_atom_site_fract_x
_atom_site_fract_y
_atom_site_fract_z
Si Si1 0.813838 0.483519 0.921203
Si Si2 0.162683 0.492016 0.725560
Si Si3 0.313182 0.180027 0.920097
Si Si4 0.336548 0.816117 0.259595
Si Si5 0.913390 0.671882 0.253249
Si Si6 0.679168 0.200338 0.013588
O O1 0.760381 0.465050 0.791114
O O2 0.755149 0.581387 0.896441
O O3 0.760956 0.402174 0.931819
O O4 0.991001 0.487691 0.068586
O O5 0.224088 0.584632 0.809796
O O6 0.187337 0.412031 0.804216
O O7 0.332904 0.194912 0.846968
O O8 0.192158 0.246779 0.854653
O O9 0.473747 0.199804 0.087940
O O10 0.501047 0.798327 0.360764
O O11 0.223965 0.748528 0.128096
O O12 0.000000 0.640877 0.250000
O O13 0.750000 0.250000 0.000000
#
# Coordination Sequence:
#
# PCOD8137329 Si02
#       6
#     8   8   8   8   8   8
#     4   8  16  33  54  75 103 142 178 211 261 317
#     4   8  16  32  55  76  99 139 186 219 247 310
#     4  10  20  37  58  76 104 144 182 218 259 319
#     4  10  20  36  57  79 104 142 183 216 261 320
#     4  11  21  34  54  81 107 134 174 225 271 310
#     4  11  21  34  54  83 114 139 173 223 275 319
#
# _framework density 20.096117
#
# number of rings (size 3 to 8) (size 9 to 14) (size 15 to 20)
#    0.000    2.333    0.000    6.000    0.000    4.000 
#    0.000    3.333    0.000    6.000    0.000    0.000 
#    0.000    0.000    0.000    0.000    0.000    0.000 
#
# Total GULP energy -297453.374410 kJ/mol
# GULP energy per Si atom -12393.890600 kJ/mol
# Density = 2.005038 g / cm^3
# Si number density = 20.096117 Si / 1000 Ang^3
#
#
#
# Elastic Constant Matrix: (Units=GPa)
#
#
# Indices 1 2 3 4 5 6 
#
# 1 52.3396 16.6230 0.3975 -0.0063 -4.0127 -0.0021
# 2 16.6230 126.3698 22.8211 -0.0082 2.0589 -0.0030
# 3 0.3975 22.8211 40.6152 -0.0132 -8.4662 -0.0047
# 4 -0.0063 -0.0082 -0.0132 23.1044 -0.0053 -0.2098
# 5 -4.0127 2.0589 -8.4662 -0.0053 19.6890 -0.0019
# 6 -0.0021 -0.0030 -0.0047 -0.2098 -0.0019 34.6628
#
#
#
# Elastic Compliance Matrix: (Units=1/GPa)
#
#
# Indices 1 2 3 4 5 6 
#
# 1 0.020581 -0.003319 0.002867 0.000007 0.005775 0.000002
# 2 -0.003319 0.009548 -0.006241 -0.000002 -0.004358 0.000000
# 3 0.002867 -0.006241 0.031150 0.000020 0.014631 0.000005
# 4 0.000007 -0.000002 0.000020 0.043284 0.000022 0.000262
# 5 0.005775 -0.004358 0.014631 0.000022 0.058714 0.000005
# 6 0.000002 0.000000 0.000005 0.000262 0.000005 0.028851
#
#
# Mechanical properties :
#
#
# Convention : Reuss Voigt Hill
#
# Bulk Modulus (GPa) = 20.87975 33.22308 27.05142
# Shear Modulus (GPa) = 22.57562 27.45677 25.01620
#
# Velocity S-wave (km/s) = 3.35533 3.70032 3.53204
# Velocity P-wave (km/s) = 5.04217 5.90123 5.48853
#
# Compressibility (1/GPa) = 0.04789330
#
# Stress axis : x y z
#
# Youngs Moduli (GPa) = 48.58827 104.73452 32.10293
#
# Poissons Ratio (x) = 0.34763 -0.09205
# Poissons Ratio (y) = 0.16127 0.20035
# Poissons Ratio (z) = -0.13932 0.65364
#
# Static dielectric constant tensor:
#      x y z
#    x 3.390010 0.000000 -0.174010 
#    y 0.000000 4.263510 0.000000 
#    z -0.174010 0.000000 3.390800 
# 
# 
# High freq. dielectric constant tensor:
#      x y z
#    x 1.764540 0.000000 -0.023610 
#    y 0.000000 1.804300 0.000000 
#    z -0.023610 0.000000 1.750210 
# 
# From -- ./inp_files/66418.got.cif
#   From: 2010.06.25/outbox.cif.g09.slc.cpg/sg15_34_cif.got.tgz:66418.got - 2010.06.28 07:06:18.
