data_PCOD8137636
_publ_section_title
;
Structure prediction by ZEFSAII (Michael W. Deem and Ramdas Pophale) SiO2 
 PCOD8137636
Probable space group: C 2/C
;
_chemical_formula_sum "Si O2"
_cell_formula_units_Z 60
_cell_length_a 9.271448
_cell_length_b 22.652523
_cell_length_c 19.216308
_cell_angle_alpha 90.000000
_cell_angle_beta 140.846632
_cell_angle_gamma 90.000000
_cell_volume 2548.223762
_symmetry_space_group_name_H-M "C 2/C"
_symmetry_group_IT_number 15
_symmetry_cell_setting 'monoclinic'
loop_
_space_group_symop_operation_xyz
x,y,z
-x,y,1/2-z
-x,-y,-z
x,-y,1/2+z
1/2+x,1/2+y,z
1/2-x,1/2+y,1/2-z
1/2-x,1/2-y,-z
1/2+x,1/2-y,1/2+z
loop_
_atom_site_type_symbol
_atom_site_label
_atom_site_fract_x
_atom_site_fract_y
_atom_site_fract_z
Si Si1 0.539762 0.423340 0.365396
Si Si2 0.376222 0.844433 0.425562
Si Si3 0.222093 0.103632 0.508434
Si Si4 0.000000 0.250251 0.750000
Si Si5 0.820172 0.525133 0.089973
Si Si6 0.320112 0.460632 0.808205
Si Si7 0.994888 0.278246 0.597732
Si Si8 0.734188 0.663135 0.652339
O O1 0.708856 0.401869 0.366757
O O2 0.682604 0.431856 0.489159
O O3 0.414626 0.484115 0.298197
O O4 0.364019 0.369947 0.315841
O O5 0.587294 0.854595 0.453717
O O6 0.229550 0.788637 0.344888
O O7 0.488652 0.834772 0.544703
O O8 0.127885 0.136277 0.541871
O O9 0.002991 0.093356 0.374732
O O10 0.340360 0.040746 0.567500
O O11 0.038679 0.291869 0.696306
O O12 0.693958 0.518777 0.116622
O O13 0.070038 0.555798 0.187905
O O14 0.750000 0.250000 0.500000
O O15 0.183064 0.232260 0.639566
O O16 0.000000 0.650321 0.750000
#
# Coordination Sequence:
#
# PCOD8137636 Si02
#       8
#     8   8   8   4   8   8   8   8
#     4  11  20  39  62  92 127 166 210 271 307 372
#     4  11  25  41  65  96 131 164 217 268 327 388
#     4  11  22  38  62  95 130 170 213 270 317 371
#     4  10  20  40  68  94 116 170 216 254 330 394
#     4  10  20  36  60  93 128 176 216 257 316 380
#     4  10  20  36  60  93 130 169 223 258 307 383
#     4  10  22  43  65  92 129 158 212 274 318 390
#     4  12  21  37  68  95 120 166 219 270 312 376
#
# _framework density 23.545814
#
# number of rings (size 3 to 8) (size 9 to 14) (size 15 to 20)
#    0.000    1.333    5.333    2.400    1.867    2.667 
#    0.000    7.333    0.000    0.000    0.000    0.000 
#    0.000    0.000    0.000    0.000    0.000    0.000 
#
# Total GULP energy -371933.442136 kJ/mol
# GULP energy per Si atom -12397.781405 kJ/mol
# Density = 2.349222 g / cm^3
# Si number density = 23.545814 Si / 1000 Ang^3
#
#
#
# Elastic Constant Matrix: (Units=GPa)
#
#
# Indices 1 2 3 4 5 6 
#
# 1 85.8169 2.1103 0.4410 -0.0001 10.6674 0.0000
# 2 2.1103 26.4267 -9.2097 0.0000 8.2054 0.0000
# 3 0.4410 -9.2097 59.4076 0.0001 8.7973 0.0003
# 4 -0.0001 0.0000 0.0001 24.2456 0.0000 -1.6650
# 5 10.6674 8.2054 8.7973 0.0000 30.5620 0.0000
# 6 0.0000 0.0000 0.0003 -1.6650 0.0000 25.3426
#
#
#
# Elastic Compliance Matrix: (Units=1/GPa)
#
#
# Indices 1 2 3 4 5 6 
#
# 1 0.012211 0.000720 0.000711 0.000000 -0.004660 0.000000
# 2 0.000720 0.045769 0.009345 0.000000 -0.015229 0.000000
# 3 0.000711 0.009345 0.019517 0.000000 -0.008375 0.000000
# 4 0.000000 0.000000 0.000000 0.041432 0.000000 0.002722
# 5 -0.004660 -0.015229 -0.008375 0.000000 0.040846 0.000000
# 6 0.000000 0.000000 0.000000 0.002722 0.000000 0.039638
#
#
# Mechanical properties :
#
#
# Convention : Reuss Voigt Hill
#
# Bulk Modulus (GPa) = 10.09622 17.59271 13.84447
# Shear Modulus (GPa) = 23.71061 27.91733 25.81397
#
# Velocity S-wave (km/s) = 3.17677 3.44708 3.31468
# Velocity P-wave (km/s) = 4.21343 4.83022 4.53233
#
# Compressibility (1/GPa) = 0.09904695
#
# Stress axis : x y z
#
# Youngs Moduli (GPa) = 81.89594 21.84908 51.23859
#
# Poissons Ratio (x) = -0.01572 -0.03643
# Poissons Ratio (y) = -0.05893 -0.47883
# Poissons Ratio (z) = -0.05822 -0.20418
#
# Static dielectric constant tensor:
#      x y z
#    x 4.319210 0.000000 -0.147070 
#    y 0.000000 3.425010 0.000000 
#    z -0.147070 0.000000 4.490710 
# 
# 
# High freq. dielectric constant tensor:
#      x y z
#    x 1.928720 0.000000 0.003960 
#    y 0.000000 1.898930 0.000000 
#    z 0.003960 0.000000 1.940690 
# 
# From -- ./inp_files/137349.got.cif
#   From: 2010.06.25/outbox.cif.g09.slc.cpg/sg15_69_cif.got.tgz:137349.got - 2010.06.28 07:06:18.
