data_PCOD8137892
_publ_section_title
;
Structure prediction by ZEFSAII (Michael W. Deem and Ramdas Pophale) SiO2 
 PCOD8137892
Probable space group: C 2/C
;
_chemical_formula_sum "Si O2"
_cell_formula_units_Z 48
_cell_length_a 16.137433
_cell_length_b 16.577607
_cell_length_c 8.704048
_cell_angle_alpha 90.000000
_cell_angle_beta 87.626047
_cell_angle_gamma 90.000000
_cell_volume 2326.508706
_symmetry_space_group_name_H-M "C 2/C"
_symmetry_group_IT_number 15
_symmetry_cell_setting 'monoclinic'
loop_
_space_group_symop_operation_xyz
x,y,z
-x,y,1/2-z
-x,-y,-z
x,-y,1/2+z
1/2+x,1/2+y,z
1/2-x,1/2+y,1/2-z
1/2-x,1/2-y,-z
1/2+x,1/2-y,1/2+z
loop_
_atom_site_type_symbol
_atom_site_label
_atom_site_fract_x
_atom_site_fract_y
_atom_site_fract_z
Si Si1 0.975910 0.365013 0.426837
Si Si2 0.927649 0.461907 0.875068
Si Si3 0.662375 0.509703 0.501380
Si Si4 0.330008 0.767712 0.595459
Si Si5 0.908471 0.888793 0.216528
Si Si6 0.233876 0.423346 0.765961
O O1 0.932833 0.451858 0.460328
O O2 0.912360 0.297074 0.494935
O O3 0.000000 0.343574 0.250000
O O4 0.062623 0.381595 0.514820
O O5 0.841947 0.473581 0.794132
O O6 0.000000 0.452296 0.750000
O O7 0.596191 0.446996 0.432664
O O8 0.622232 0.564679 0.632236
O O9 0.737596 0.458560 0.571505
O O10 0.692582 0.569057 0.363770
O O11 0.250000 0.750000 0.500000
O O12 0.352530 0.688848 0.690037
O O13 0.298569 0.832541 0.720107
O O14 0.000000 0.859435 0.250000
#
# Coordination Sequence:
#
# PCOD8137892 Si02
#       6
#     8   8   8   8   8   8
#     4  10  23  39  60  96 128 175 214 253 314 383
#     4  10  20  36  65  92 131 170 212 256 302 392
#     4  10  24  45  70  95 120 175 225 269 311 389
#     4  12  25  43  62  97 139 166 202 275 332 377
#     4  11  25  46  71  93 126 170 223 276 327 377
#     4  11  22  40  66  97 132 165 214 259 327 384
#
# _framework density 20.631774
#
# number of rings (size 3 to 8) (size 9 to 14) (size 15 to 20)
#    0.000    1.333    3.333    1.500    9.333    0.667 
#    3.000    0.833    0.000    0.000    0.000    0.000 
#    0.000    0.000    0.000    0.000    0.000    0.000 
#
# Total GULP energy -297376.308511 kJ/mol
# GULP energy per Si atom -12390.679521 kJ/mol
# Density = 2.058481 g / cm^3
# Si number density = 20.631774 Si / 1000 Ang^3
#
#
#
# Elastic Constant Matrix: (Units=GPa)
#
#
# Indices 1 2 3 4 5 6 
#
# 1 86.5702 26.0308 25.5414 0.0000 25.5043 0.0000
# 2 26.0308 109.2632 42.7307 0.0000 -0.9444 0.0000
# 3 25.5414 42.7307 101.5511 0.0000 11.2309 0.0000
# 4 0.0000 0.0000 0.0000 19.4922 0.0000 5.4451
# 5 25.5043 -0.9444 11.2309 0.0000 31.2902 0.0000
# 6 0.0000 0.0000 0.0000 5.4451 0.0000 12.6206
#
#
#
# Elastic Compliance Matrix: (Units=1/GPa)
#
#
# Indices 1 2 3 4 5 6 
#
# 1 0.017011 -0.003689 -0.001229 0.000000 -0.013536 0.000000
# 2 -0.003689 0.011885 -0.004629 0.000000 0.005027 0.000000
# 3 -0.001229 -0.004629 0.012505 0.000000 -0.003626 0.000000
# 4 0.000000 0.000000 0.000000 0.058333 0.000000 -0.025168
# 5 -0.013536 0.005027 -0.003626 0.000000 0.044445 0.000000
# 6 0.000000 0.000000 0.000000 -0.025168 0.000000 0.090094
#
#
# Mechanical properties :
#
#
# Convention : Reuss Voigt Hill
#
# Bulk Modulus (GPa) = 44.82991 53.99890 49.41440
# Shear Modulus (GPa) = 19.17155 26.21939 22.69547
#
# Velocity S-wave (km/s) = 3.05163 3.56873 3.32026
# Velocity P-wave (km/s) = 5.84742 6.57348 6.22105
#
# Compressibility (1/GPa) = 0.02230654
#
# Stress axis : x y z
#
# Youngs Moduli (GPa) = 58.78579 84.14088 79.96620
#
# Poissons Ratio (x) = 0.31039 0.09830
# Poissons Ratio (y) = 0.21686 0.37017
# Poissons Ratio (z) = 0.07227 0.38949
#
# Static dielectric constant tensor:
#      x y z
#    x 4.239140 0.000000 0.032870 
#    y 0.000000 3.862890 0.000000 
#    z 0.032870 0.000000 5.215140 
# 
# 
# High freq. dielectric constant tensor:
#      x y z
#    x 1.806730 0.000000 0.019710 
#    y 0.000000 1.791160 0.000000 
#    z 0.019710 0.000000 1.821780 
# 
# From -- ./inp_files/39630.got.cif
#   From: 2010.06.25/outbox.cif.g09.slc.cpg/sg15_20_cif.got.tgz:39630.got - 2010.06.28 07:06:18.
