data_PCOD8137536
_publ_section_title
;
Structure prediction by ZEFSAII (Michael W. Deem and Ramdas Pophale) SiO2 
 PCOD8137536
Probable space group: C 2/C
;
_chemical_formula_sum "Si O2"
_cell_formula_units_Z 56
_cell_length_a 12.492622
_cell_length_b 13.142030
_cell_length_c 18.874755
_cell_angle_alpha 90.000000
_cell_angle_beta 66.813551
_cell_angle_gamma 90.000000
_cell_volume 2848.530345
_symmetry_space_group_name_H-M "C 2/C"
_symmetry_group_IT_number 15
_symmetry_cell_setting 'monoclinic'
loop_
_space_group_symop_operation_xyz
x,y,z
-x,y,1/2-z
-x,-y,-z
x,-y,1/2+z
1/2+x,1/2+y,z
1/2-x,1/2+y,1/2-z
1/2-x,1/2-y,-z
1/2+x,1/2-y,1/2+z
loop_
_atom_site_type_symbol
_atom_site_label
_atom_site_fract_x
_atom_site_fract_y
_atom_site_fract_z
Si Si1 0.208690 0.651328 0.746026
Si Si2 0.240289 0.181290 0.347889
Si Si3 0.973866 0.712407 0.339161
Si Si4 0.885385 0.165672 0.315790
Si Si5 0.822670 0.437814 0.700692
Si Si6 0.065910 0.896885 0.396795
Si Si7 0.014183 0.120438 0.066936
O O1 0.261781 0.718040 0.795297
O O2 0.128898 0.723066 0.717158
O O3 0.143386 0.557337 0.802493
O O4 0.309213 0.604321 0.671768
O O5 0.338551 0.178756 0.383654
O O6 0.263094 0.085806 0.291305
O O7 0.110658 0.175199 0.412737
O O8 0.000000 0.732667 0.250000
O O9 0.059653 0.624694 0.346045
O O10 0.984357 0.813489 0.382135
O O11 0.773084 0.092662 0.334093
O O12 0.000000 0.115078 0.250000
O O13 0.909769 0.178266 0.393226
O O14 0.083658 0.872879 0.475431
O O15 0.002752 0.004600 0.403565
#
# Coordination Sequence:
#
# PCOD8137536 Si02
#       7
#     8   8   8   8   8   8   8
#     4  11  20  37  61  91 113 154 198 243 299 346
#     4  10  20  38  58  87 115 147 201 241 288 348
#     4  10  20  38  61  87 109 158 199 244 285 344
#     4  11  20  37  60  89 117 150 196 247 294 340
#     4  10  20  36  59  89 116 144 202 241 284 350
#     4  11  22  39  61  87 119 157 201 237 297 353
#     4  11  24  39  57  92 122 153 193 249 298 349
#
# _framework density 19.65926
#
# number of rings (size 3 to 8) (size 9 to 14) (size 15 to 20)
#    0.000    1.429    8.571    0.000    2.000    3.429 
#    0.000    0.000    0.000    0.857    0.000    0.000 
#    0.000    0.000    0.000    0.000    0.000    0.000 
#
# Total GULP energy -347037.582171 kJ/mol
# GULP energy per Si atom -12394.199363 kJ/mol
# Density = 1.961451 g / cm^3
# Si number density = 19.659260 Si / 1000 Ang^3
#
#
#
# Elastic Constant Matrix: (Units=GPa)
#
#
# Indices 1 2 3 4 5 6 
#
# 1 142.1149 55.3767 24.3340 0.0000 9.1939 0.0000
# 2 55.3767 110.1566 29.9743 0.0000 5.7425 0.0000
# 3 24.3340 29.9743 42.5642 0.0000 -0.6460 0.0000
# 4 0.0000 0.0000 0.0000 15.6057 0.0000 2.9479
# 5 9.1939 5.7425 -0.6460 0.0000 19.9551 0.0000
# 6 0.0000 0.0000 0.0000 2.9479 0.0000 14.2207
#
#
#
# Elastic Compliance Matrix: (Units=1/GPa)
#
#
# Indices 1 2 3 4 5 6 
#
# 1 0.009146 -0.003702 -0.002670 0.000000 -0.003235 0.000000
# 2 -0.003702 0.012977 -0.007056 0.000000 -0.002257 0.000000
# 3 -0.002670 -0.007056 0.030054 0.000000 0.004234 0.000000
# 4 0.000000 0.000000 0.000000 0.066691 0.000000 -0.013825
# 5 -0.003235 -0.002257 0.004234 0.000000 0.052389 0.000000
# 6 0.000000 0.000000 0.000000 -0.013825 0.000000 0.073186
#
#
# Mechanical properties :
#
#
# Convention : Reuss Voigt Hill
#
# Bulk Modulus (GPa) = 39.49657 57.13398 48.31527
# Shear Modulus (GPa) = 17.87374 22.29967 20.08671
#
# Velocity S-wave (km/s) = 3.01853 3.37160 3.19994
# Velocity P-wave (km/s) = 5.68180 6.65448 6.18729
#
# Compressibility (1/GPa) = 0.02531866
#
# Stress axis : x y z
#
# Youngs Moduli (GPa) = 109.34033 77.06016 33.27352
#
# Poissons Ratio (x) = 0.28531 0.08886
# Poissons Ratio (y) = 0.40482 0.23478
# Poissons Ratio (z) = 0.29199 0.54374
#
# Static dielectric constant tensor:
#      x y z
#    x 3.734870 0.000000 0.031060 
#    y 0.000000 3.581700 0.000000 
#    z 0.031060 0.000000 3.299690 
# 
# 
# High freq. dielectric constant tensor:
#      x y z
#    x 1.773040 0.000000 0.003320 
#    y 0.000000 1.764310 0.000000 
#    z 0.003320 0.000000 1.729210 
# 
# From -- ./inp_files/237544.got.cif
#   From: 2010.06.25/outbox.cif.g09.slc.cpg/sg15_119_cif.got.tgz:237544.got - 2010.06.28 07:06:18.
