data_PCOD8137789
_publ_section_title
;
Structure prediction by ZEFSAII (Michael W. Deem and Ramdas Pophale) SiO2 
 PCOD8137789
Probable space group: C 2/C
;
_chemical_formula_sum "Si O2"
_cell_formula_units_Z 56
_cell_length_a 28.922683
_cell_length_b 11.017065
_cell_length_c 9.835716
_cell_angle_alpha 90.000000
_cell_angle_beta 115.465984
_cell_angle_gamma 90.000000
_cell_volume 2829.577583
_symmetry_space_group_name_H-M "C 2/C"
_symmetry_group_IT_number 15
_symmetry_cell_setting 'monoclinic'
loop_
_space_group_symop_operation_xyz
x,y,z
-x,y,1/2-z
-x,-y,-z
x,-y,1/2+z
1/2+x,1/2+y,z
1/2-x,1/2+y,1/2-z
1/2-x,1/2-y,-z
1/2+x,1/2-y,1/2+z
loop_
_atom_site_type_symbol
_atom_site_label
_atom_site_fract_x
_atom_site_fract_y
_atom_site_fract_z
Si Si1 0.705033 0.885728 0.621863
Si Si2 0.559022 0.955800 0.841306
Si Si3 0.557073 0.769484 0.327366
Si Si4 0.846786 0.136427 0.985401
Si Si5 0.113222 0.706779 0.625734
Si Si6 0.823765 0.929872 0.754801
Si Si7 0.344372 0.008567 0.187944
O O1 0.689116 0.754094 0.547844
O O2 0.765434 0.892861 0.698915
O O3 0.685189 0.897523 0.752631
O O4 0.681624 0.991163 0.493658
O O5 0.500000 0.917323 0.750000
O O6 0.595436 0.952409 0.752792
O O7 0.560563 0.095026 0.898795
O O8 0.583334 0.854072 0.965889
O O9 0.500000 0.717376 0.250000
O O10 0.594222 0.679410 0.456885
O O11 0.572090 0.771083 0.189873
O O12 0.832682 0.059584 0.835460
O O13 0.838496 0.060947 0.114182
O O14 0.140659 0.832727 0.620321
O O15 0.158246 0.620234 0.738722
#
# Coordination Sequence:
#
# PCOD8137789 Si02
#       7
#     8   8   8   8   8   8   8
#     4  12  23  40  64  91 123 165 201 258 311 360
#     4  10  20  36  62  95 124 157 197 254 319 365
#     4   9  19  37  63  87 117 160 201 253 315 359
#     4  11  23  44  59  91 120 167 206 257 300 367
#     4  10  20  39  56  86 126 156 198 260 296 367
#     4  11  25  40  63  83 126 166 212 247 307 360
#     4  11  21  38  64  91 124 155 206 251 311 365
#
# _framework density 19.790939999999999
#
# number of rings (size 3 to 8) (size 9 to 14) (size 15 to 20)
#    0.000    1.429    5.714    1.286    2.000    7.429 
#    0.000    5.714    0.000    0.000    0.000    0.000 
#    0.000    0.000    0.000    0.000    0.000    0.000 
#
# Total GULP energy -347046.517432 kJ/mol
# GULP energy per Si atom -12394.518480 kJ/mol
# Density = 1.974589 g / cm^3
# Si number density = 19.790940 Si / 1000 Ang^3
#
#
#
# Elastic Constant Matrix: (Units=GPa)
#
#
# Indices 1 2 3 4 5 6 
#
# 1 109.2123 29.0411 37.1390 0.0000 24.1710 0.0000
# 2 29.0411 55.6295 42.8537 0.0000 4.9490 0.0000
# 3 37.1390 42.8537 95.1350 0.0000 3.2893 0.0000
# 4 0.0000 0.0000 0.0000 -31.4228 0.0000 -32.7552
# 5 24.1710 4.9490 3.2893 0.0000 28.9722 0.0000
# 6 0.0000 0.0000 0.0000 -32.7552 0.0000 8.3594
#
#
#
# Elastic Compliance Matrix: (Units=1/GPa)
#
#
# Indices 1 2 3 4 5 6 
#
# 1 0.013510 -0.003598 -0.003298 0.000000 -0.010283 0.000000
# 2 -0.003598 0.028806 -0.011550 0.000000 -0.000608 0.000000
# 3 -0.003298 -0.011550 0.016905 0.000000 0.002805 0.000000
# 4 0.000000 0.000000 0.000000 -0.006259 0.000000 -0.024525
# 5 -0.010283 -0.000608 0.002805 0.000000 0.042880 0.000000
# 6 0.000000 0.000000 0.000000 -0.024525 0.000000 0.023527
#
#
# Mechanical properties :
#
#
# Convention : Reuss Voigt Hill
#
# Bulk Modulus (GPa) = 44.78455 53.11606 48.95030
# Shear Modulus (GPa) = 30.54289 11.24464 20.89376
#
# Velocity S-wave (km/s) = 3.93272 2.38622 3.25272
# Velocity P-wave (km/s) = 6.58024 5.87273 6.23653
#
# Compressibility (1/GPa) = 0.02232913
#
# Stress axis : x y z
#
# Youngs Moduli (GPa) = 74.01663 34.71517 59.15499
#
# Poissons Ratio (x) = 0.12489 0.19511
# Poissons Ratio (y) = 0.26628 0.68325
# Poissons Ratio (z) = 0.24412 0.40097
#
# Static dielectric constant tensor:
#      x y z
#    x 3.765020 0.000000 0.018010 
#    y 0.000000 3.508710 0.000000 
#    z 0.018010 0.000000 3.594280 
# 
# 
# High freq. dielectric constant tensor:
#      x y z
#    x 1.782490 0.000000 0.002540 
#    y 0.000000 1.748510 0.000000 
#    z 0.002540 0.000000 1.761680 
# 
# From -- ./inp_files/69151.got.cif
#   From: 2010.06.25/outbox.cif.g09.slc.cpg/sg15_35_cif.got.tgz:69151.got - 2010.06.28 07:06:18.
