data_PCOD8137511
_publ_section_title
;
Structure prediction by ZEFSAII (Michael W. Deem and Ramdas Pophale) SiO2 
 PCOD8137511
Probable space group: C 2/C
;
_chemical_formula_sum "Si O2"
_cell_formula_units_Z 40
_cell_length_a 11.492524
_cell_length_b 8.375239
_cell_length_c 21.074434
_cell_angle_alpha 90.000000
_cell_angle_beta 118.131869
_cell_angle_gamma 90.000000
_cell_volume 1788.836008
_symmetry_space_group_name_H-M "C 2/C"
_symmetry_group_IT_number 15
_symmetry_cell_setting 'monoclinic'
loop_
_space_group_symop_operation_xyz
x,y,z
-x,y,1/2-z
-x,-y,-z
x,-y,1/2+z
1/2+x,1/2+y,z
1/2-x,1/2+y,1/2-z
1/2-x,1/2-y,-z
1/2+x,1/2-y,1/2+z
loop_
_atom_site_type_symbol
_atom_site_label
_atom_site_fract_x
_atom_site_fract_y
_atom_site_fract_z
Si Si1 0.716695 0.262025 0.727636
Si Si2 0.504660 0.883239 0.095576
Si Si3 0.429316 0.436604 0.334137
Si Si4 0.052907 0.703972 0.053888
Si Si5 0.649031 0.326184 0.850558
O O1 0.649109 0.129733 0.665094
O O2 0.691997 0.436272 0.689731
O O3 0.870089 0.211280 0.776607
O O4 0.640616 0.270839 0.775564
O O5 0.398174 0.818728 0.117639
O O6 0.470272 0.065330 0.068891
O O7 0.500532 0.773203 0.031024
O O8 0.463531 0.369878 0.412765
O O9 0.559298 0.514979 0.337212
O O10 0.202213 0.636885 0.090465
#
# Coordination Sequence:
#
# PCOD8137511 Si02
#       5
#     8   8   8   8   8
#     4  10  20  36  59  86 114 150 192 238 286 340
#     4  10  20  38  60  84 119 153 191 235 284 341
#     4  10  20  37  60  84 114 149 191 236 285 337
#     4  10  22  39  59  86 118 153 190 237 284 339
#     4  10  21  39  60  83 115 155 192 236 286 338
#
# _framework density 22.360908999999999
#
# number of rings (size 3 to 8) (size 9 to 14) (size 15 to 20)
#    0.000    2.000    0.000    5.400    0.000    3.200 
#    0.000   24.000    0.000    0.000    0.000    1.400 
#    0.000    0.000    0.000    0.000    0.000    0.000 
#
# Total GULP energy -247885.331311 kJ/mol
# GULP energy per Si atom -12394.266566 kJ/mol
# Density = 2.231001 g / cm^3
# Si number density = 22.360909 Si / 1000 Ang^3
#
#
#
# Elastic Constant Matrix: (Units=GPa)
#
#
# Indices 1 2 3 4 5 6 
#
# 1 89.0758 36.5315 43.2889 0.0000 -3.1057 0.0000
# 2 36.5315 81.1335 27.7674 0.0000 -19.4232 0.0000
# 3 43.2889 27.7674 137.2286 0.0000 -18.1539 0.0000
# 4 0.0000 0.0000 0.0000 44.7637 0.0000 -5.1193
# 5 -3.1057 -19.4232 -18.1539 0.0000 26.5521 0.0000
# 6 0.0000 0.0000 0.0000 -5.1193 0.0000 33.1461
#
#
#
# Elastic Compliance Matrix: (Units=1/GPa)
#
#
# Indices 1 2 3 4 5 6 
#
# 1 0.016178 -0.007310 -0.004487 0.000000 -0.006523 0.000000
# 2 -0.007310 0.018630 0.000248 0.000000 0.012943 0.000000
# 3 -0.004487 0.000248 0.009463 0.000000 0.006127 0.000000
# 4 0.000000 0.000000 0.000000 0.022741 0.000000 0.003512
# 5 -0.006523 0.012943 0.006127 0.000000 0.050556 0.000000
# 6 0.000000 0.000000 0.000000 0.003512 0.000000 0.030712
#
#
# Mechanical properties :
#
#
# Convention : Reuss Voigt Hill
#
# Bulk Modulus (GPa) = 47.22898 58.06817 52.64857
# Shear Modulus (GPa) = 28.02146 34.21572 31.11859
#
# Velocity S-wave (km/s) = 3.54382 3.91597 3.73453
# Velocity P-wave (km/s) = 6.15727 6.81699 6.49551
#
# Compressibility (1/GPa) = 0.02117344
#
# Stress axis : x y z
#
# Youngs Moduli (GPa) = 61.81403 53.67573 105.67752
#
# Poissons Ratio (x) = 0.39238 0.47417
# Poissons Ratio (y) = 0.45187 -0.02626
# Poissons Ratio (z) = 0.27736 -0.01334
#
# Static dielectric constant tensor:
#      x y z
#    x 3.712720 0.000000 0.131910 
#    y 0.000000 3.995520 0.000000 
#    z 0.131910 0.000000 4.323870 
# 
# 
# High freq. dielectric constant tensor:
#      x y z
#    x 1.845010 0.000000 0.007670 
#    y 0.000000 1.874630 0.000000 
#    z 0.007670 0.000000 1.904590 
# 
# From -- ./inp_files/235918.got.cif
#   From: 2010.06.25/outbox.cif.g09.slc.cpg/sg15_118_cif.got.tgz:235918.got - 2010.06.28 07:06:18.
